# generated using pymatgen
data_Ba(TbS2)2
_symmetry_space_group_name_H-M   'P 1'
_cell_length_a   4.08406420
_cell_length_b   12.36034629
_cell_length_c   14.63457070
_cell_angle_alpha   90.00000000
_cell_angle_beta   90.00000000
_cell_angle_gamma   90.00000000
_symmetry_Int_Tables_number   1
_chemical_formula_structural   Ba(TbS2)2
_chemical_formula_sum   'Ba4 Tb8 S16'
_cell_volume   738.75968204
_cell_formula_units_Z   4
loop_
 _symmetry_equiv_pos_site_id
 _symmetry_equiv_pos_as_xyz
  1  'x, y, z'
loop_
 _atom_site_type_symbol
 _atom_site_label
 _atom_site_symmetry_multiplicity
 _atom_site_fract_x
 _atom_site_fract_y
 _atom_site_fract_z
 _atom_site_occupancy
  Ba  Ba0  1  0.75000000  0.74321562  0.16137547  1
  Ba  Ba1  1  0.75000000  0.24321562  0.33862453  1
  Ba  Ba2  1  0.25000000  0.25678438  0.83862453  1
  Ba  Ba3  1  0.25000000  0.75678438  0.66137547  1
  Tb  Tb4  1  0.75000000  0.06764381  0.10924225  1
  Tb  Tb5  1  0.75000000  0.56764381  0.39075775  1
  Tb  Tb6  1  0.25000000  0.93235619  0.89075775  1
  Tb  Tb7  1  0.25000000  0.43235619  0.60924225  1
  Tb  Tb8  1  0.75000000  0.07937643  0.60151712  1
  Tb  Tb9  1  0.75000000  0.57937643  0.89848288  1
  Tb  Tb10  1  0.25000000  0.92062357  0.39848288  1
  Tb  Tb11  1  0.25000000  0.42062357  0.10151712  1
  S  S12  1  0.75000000  0.29330536  0.66508427  1
  S  S13  1  0.75000000  0.79330536  0.83491573  1
  S  S14  1  0.25000000  0.70669464  0.33491573  1
  S  S15  1  0.25000000  0.20669464  0.16508427  1
  S  S16  1  0.75000000  0.37551566  0.97652446  1
  S  S17  1  0.75000000  0.87551566  0.52347554  1
  S  S18  1  0.25000000  0.62448434  0.02347554  1
  S  S19  1  0.25000000  0.12448434  0.47652446  1
  S  S20  1  0.75000000  0.47672827  0.21671320  1
  S  S21  1  0.75000000  0.97672827  0.28328680  1
  S  S22  1  0.25000000  0.52327173  0.78328680  1
  S  S23  1  0.25000000  0.02327173  0.71671320  1
  S  S24  1  0.75000000  0.08026588  0.92311819  1
  S  S25  1  0.75000000  0.58026588  0.57688181  1
  S  S26  1  0.25000000  0.91973412  0.07688181  1
  S  S27  1  0.25000000  0.41973412  0.42311819  1
