# generated using pymatgen
data_Cs2PbN2(ClO3)2
_symmetry_space_group_name_H-M   'P 1'
_cell_length_a   5.76820121
_cell_length_b   5.76819593
_cell_length_c   17.07827957
_cell_angle_alpha   99.72249527
_cell_angle_beta   99.72252123
_cell_angle_gamma   89.99949719
_symmetry_Int_Tables_number   1
_chemical_formula_structural   Cs2PbN2(ClO3)2
_chemical_formula_sum   'Cs4 Pb2 N4 Cl4 O12'
_cell_volume   551.78716594
_cell_formula_units_Z   2
loop_
 _symmetry_equiv_pos_site_id
 _symmetry_equiv_pos_as_xyz
  1  'x, y, z'
loop_
 _atom_site_type_symbol
 _atom_site_label
 _atom_site_symmetry_multiplicity
 _atom_site_fract_x
 _atom_site_fract_y
 _atom_site_fract_z
 _atom_site_occupancy
  Cs  Cs0  1  0.19779731  0.94778926  0.39561608  1
  Cs  Cs1  1  0.94779014  0.19779612  0.89561614  1
  Cs  Cs2  1  0.80220297  0.05220578  0.60438341  1
  Cs  Cs3  1  0.05220948  0.80220150  0.10438442  1
  Pb  Pb4  1  0.62500060  0.37499876  0.25000028  1
  Pb  Pb5  1  0.37499796  0.62500024  0.74999953  1
  N  N6  1  0.27714759  0.52714937  0.55429012  1
  N  N7  1  0.52714719  0.27714932  0.05429023  1
  N  N8  1  0.72285209  0.47285370  0.44570961  1
  N  N9  1  0.47285234  0.72285117  0.94571034  1
  Cl  Cl10  1  0.13447836  0.38448398  0.26895494  1
  Cl  Cl11  1  0.38448283  0.13447475  0.76895352  1
  Cl  Cl12  1  0.86552218  0.61551601  0.73104522  1
  Cl  Cl13  1  0.61551762  0.86552356  0.23104593  1
  O  O14  1  0.29686365  0.73779155  0.59369978  1
  O  O15  1  0.29685888  0.35592681  0.59370374  1
  O  O16  1  0.73778992  0.29686566  0.09369933  1
  O  O17  1  0.35592636  0.29685832  0.09370327  1
  O  O18  1  0.70313458  0.26221055  0.40630004  1
  O  O19  1  0.70314020  0.64407614  0.40629505  1
  O  O20  1  0.26220985  0.70313444  0.90630101  1
  O  O21  1  0.64407639  0.70313813  0.90629713  1
  O  O22  1  0.23942596  0.48943035  0.47886172  1
  O  O23  1  0.48943020  0.23942574  0.97886080  1
  O  O24  1  0.76057404  0.51057413  0.52113857  1
  O  O25  1  0.51057132  0.76057466  0.02113977  1
