# generated using pymatgen
data_GdMoBrO4
_symmetry_space_group_name_H-M   'P 1'
_cell_length_a   6.97585445
_cell_length_b   7.37872908
_cell_length_c   11.20958043
_cell_angle_alpha   106.30070564
_cell_angle_beta   107.11826655
_cell_angle_gamma   92.33254426
_symmetry_Int_Tables_number   1
_chemical_formula_structural   GdMoBrO4
_chemical_formula_sum   'Gd4 Mo4 Br4 O16'
_cell_volume   524.45802697
_cell_formula_units_Z   4
loop_
 _symmetry_equiv_pos_site_id
 _symmetry_equiv_pos_as_xyz
  1  'x, y, z'
loop_
 _atom_site_type_symbol
 _atom_site_label
 _atom_site_symmetry_multiplicity
 _atom_site_fract_x
 _atom_site_fract_y
 _atom_site_fract_z
 _atom_site_occupancy
  Gd  Gd0  1  0.64199894  0.12361005  0.73012960  1
  Gd  Gd1  1  0.35800106  0.87638995  0.26987040  1
  Gd  Gd2  1  0.39486802  0.64732180  0.76929109  1
  Gd  Gd3  1  0.60513198  0.35267820  0.23070891  1
  Mo  Mo4  1  0.73608318  0.81568692  0.13411641  1
  Mo  Mo5  1  0.26391682  0.18431308  0.86588359  1
  Mo  Mo6  1  0.77466344  0.59102796  0.63085083  1
  Mo  Mo7  1  0.22533656  0.40897204  0.36914917  1
  Br  Br8  1  0.25810394  0.98208744  0.51637690  1
  Br  Br9  1  0.74189606  0.01791256  0.48362310  1
  Br  Br10  1  0.19707066  0.71686248  0.98147526  1
  Br  Br11  1  0.80292934  0.28313752  0.01852474  1
  O  O12  1  0.67352075  0.72786500  0.96067248  1
  O  O13  1  0.32647925  0.27213500  0.03932752  1
  O  O14  1  0.00327280  0.86543099  0.20693592  1
  O  O15  1  0.99672720  0.13456901  0.79306408  1
  O  O16  1  0.62558698  0.65460400  0.20047812  1
  O  O17  1  0.37441302  0.34539600  0.79952188  1
  O  O18  1  0.38901932  0.97661345  0.81814070  1
  O  O19  1  0.61098068  0.02338655  0.18185930  1
  O  O20  1  0.04214096  0.63722381  0.67734100  1
  O  O21  1  0.95785904  0.36277619  0.32265900  1
  O  O22  1  0.69889615  0.42288839  0.70323942  1
  O  O23  1  0.30110385  0.57711161  0.29676058  1
  O  O24  1  0.67834546  0.50582100  0.45587926  1
  O  O25  1  0.32165454  0.49417900  0.54412074  1
  O  O26  1  0.65984821  0.79736504  0.70062946  1
  O  O27  1  0.34015179  0.20263496  0.29937054  1
