# generated using pymatgen
data_Pr4Mg5Ge6
_symmetry_space_group_name_H-M   'P 1'
_cell_length_a   4.48507828
_cell_length_b   10.32100849
_cell_length_c   16.07264413
_cell_angle_alpha   90.00000000
_cell_angle_beta   90.00000000
_cell_angle_gamma   102.54926985
_symmetry_Int_Tables_number   1
_chemical_formula_structural   Pr4Mg5Ge6
_chemical_formula_sum   'Pr8 Mg10 Ge12'
_cell_volume   726.23645011
_cell_formula_units_Z   2
loop_
 _symmetry_equiv_pos_site_id
 _symmetry_equiv_pos_as_xyz
  1  'x, y, z'
loop_
 _atom_site_type_symbol
 _atom_site_label
 _atom_site_symmetry_multiplicity
 _atom_site_fract_x
 _atom_site_fract_y
 _atom_site_fract_z
 _atom_site_occupancy
  Pr  Pr0  1  0.98661312  0.97322625  0.76381973  1
  Pr  Pr1  1  0.01338688  0.02677375  0.26381973  1
  Pr  Pr2  1  0.96664069  0.93328139  0.50091391  1
  Pr  Pr3  1  0.03335931  0.06671861  0.00091391  1
  Pr  Pr4  1  0.83544719  0.67089438  0.96266429  1
  Pr  Pr5  1  0.16455281  0.32910562  0.46266429  1
  Pr  Pr6  1  0.82523415  0.65046831  0.32232004  1
  Pr  Pr7  1  0.17476585  0.34953169  0.82232004  1
  Mg  Mg8  1  0.84521527  0.69043054  0.64182747  1
  Mg  Mg9  1  0.15478473  0.30956946  0.14182747  1
  Mg  Mg10  1  0.69712895  0.39425790  0.64521158  1
  Mg  Mg11  1  0.30287105  0.60574210  0.14521158  1
  Mg  Mg12  1  0.66014100  0.32028201  0.99795809  1
  Mg  Mg13  1  0.33985900  0.67971799  0.49795809  1
  Mg  Mg14  1  0.55800906  0.11601812  0.59560618  1
  Mg  Mg15  1  0.44199094  0.88398188  0.09560618  1
  Mg  Mg16  1  0.34988462  0.69976924  0.78614607  1
  Mg  Mg17  1  0.65011538  0.30023076  0.28614607  1
  Ge  Ge18  1  0.88640190  0.77280380  0.14611040  1
  Ge  Ge19  1  0.11359810  0.22719620  0.64611040  1
  Ge  Ge20  1  0.77396785  0.54793570  0.78632626  1
  Ge  Ge21  1  0.22603215  0.45206430  0.28632626  1
  Ge  Ge22  1  0.76775040  0.53550080  0.49959513  1
  Ge  Ge23  1  0.23224960  0.46449920  0.99959513  1
  Ge  Ge24  1  0.56707747  0.13415494  0.86350386  1
  Ge  Ge25  1  0.43292253  0.86584506  0.36350386  1
  Ge  Ge26  1  0.44461381  0.88922763  0.91418639  1
  Ge  Ge27  1  0.55538619  0.11077237  0.41418639  1
  Ge  Ge28  1  0.42785400  0.85570799  0.63827061  1
  Ge  Ge29  1  0.57214600  0.14429201  0.13827061  1
