# generated using pymatgen
data_Mn2P12W
_symmetry_space_group_name_H-M   'P 1'
_cell_length_a   5.73933955
_cell_length_b   8.50740815
_cell_length_c   10.50949925
_cell_angle_alpha   66.70104993
_cell_angle_beta   74.15386779
_cell_angle_gamma   70.28667042
_symmetry_Int_Tables_number   1
_chemical_formula_structural   Mn2P12W
_chemical_formula_sum   'Mn4 P24 W2'
_cell_volume   437.85477849
_cell_formula_units_Z   2
loop_
 _symmetry_equiv_pos_site_id
 _symmetry_equiv_pos_as_xyz
  1  'x, y, z'
loop_
 _atom_site_type_symbol
 _atom_site_label
 _atom_site_symmetry_multiplicity
 _atom_site_fract_x
 _atom_site_fract_y
 _atom_site_fract_z
 _atom_site_occupancy
  Mn  Mn0  1  0.01119127  0.81491987  0.54595899  1
  Mn  Mn1  1  0.37207013  0.68508013  0.95404101  1
  Mn  Mn2  1  0.98880873  0.18508013  0.45404101  1
  Mn  Mn3  1  0.62792987  0.31491987  0.04595899  1
  P  P4  1  0.02437146  0.56346995  0.74044941  1
  P  P5  1  0.32829082  0.93653005  0.75955059  1
  P  P6  1  0.97562854  0.43653005  0.25955059  1
  P  P7  1  0.67170918  0.06346995  0.24044941  1
  P  P8  1  0.99045093  0.35875596  0.57430378  1
  P  P9  1  0.92351067  0.14124404  0.92569622  1
  P  P10  1  0.00954907  0.64124404  0.42569622  1
  P  P11  1  0.07648933  0.85875596  0.07430378  1
  P  P12  1  0.66831781  0.77085854  0.99680827  1
  P  P13  1  0.43598462  0.72914146  0.50319173  1
  P  P14  1  0.33168219  0.22914146  0.00319173  1
  P  P15  1  0.56401538  0.27085854  0.49680827  1
  P  P16  1  0.00240943  0.97995277  0.66427830  1
  P  P17  1  0.64664050  0.52004723  0.83572170  1
  P  P18  1  0.99759057  0.02004723  0.33572170  1
  P  P19  1  0.35335950  0.47995277  0.16427830  1
  P  P20  1  0.70181200  0.04429572  0.83356543  1
  P  P21  1  0.57967315  0.45570428  0.66643457  1
  P  P22  1  0.29818800  0.95570428  0.16643457  1
  P  P23  1  0.42032685  0.54429572  0.33356543  1
  P  P24  1  0.05155172  0.62118144  0.92440135  1
  P  P25  1  0.59713451  0.87881856  0.57559865  1
  P  P26  1  0.94844828  0.37881856  0.07559865  1
  P  P27  1  0.40286549  0.12118144  0.42440135  1
  W  W28  1  0.30456075  0.25000000  0.75000000  1
  W  W29  1  0.69543925  0.75000000  0.25000000  1
