# generated using pymatgen
data_BaCo2(PO4)2
_symmetry_space_group_name_H-M   'P 1'
_cell_length_a   5.06114348
_cell_length_b   8.18507812
_cell_length_c   9.33150054
_cell_angle_alpha   92.72198591
_cell_angle_beta   90.00000000
_cell_angle_gamma   90.00000000
_symmetry_Int_Tables_number   1
_chemical_formula_structural   BaCo2(PO4)2
_chemical_formula_sum   'Ba2 Co4 P4 O16'
_cell_volume   386.12923421
_cell_formula_units_Z   2
loop_
 _symmetry_equiv_pos_site_id
 _symmetry_equiv_pos_as_xyz
  1  'x, y, z'
loop_
 _atom_site_type_symbol
 _atom_site_label
 _atom_site_symmetry_multiplicity
 _atom_site_fract_x
 _atom_site_fract_y
 _atom_site_fract_z
 _atom_site_occupancy
  Ba  Ba0  1  0.50000000  -0.00000000  0.50000000  1
  Ba  Ba1  1  -0.00000000  -0.00000000  0.00000000  1
  Co  Co2  1  0.56707011  0.65113873  0.79275691  1
  Co  Co3  1  0.06707011  0.34886127  0.70724309  1
  Co  Co4  1  0.43292989  0.34886127  0.20724309  1
  Co  Co5  1  0.93292989  0.65113873  0.29275691  1
  P  P6  1  0.49481095  0.73583827  0.13588962  1
  P  P7  1  0.99481095  0.26416173  0.36411038  1
  P  P8  1  0.50518905  0.26416173  0.86411038  1
  P  P9  1  0.00518905  0.73583827  0.63588962  1
  O  O10  1  0.85229165  0.85964238  0.73500556  1
  O  O11  1  0.35229165  0.14035762  0.76499444  1
  O  O12  1  0.14770835  0.14035762  0.26499444  1
  O  O13  1  0.64770835  0.85964238  0.23500556  1
  O  O14  1  0.55117763  0.77881351  0.97787910  1
  O  O15  1  0.05117763  0.22118649  0.52212090  1
  O  O16  1  0.44882237  0.22118649  0.02212090  1
  O  O17  1  0.94882237  0.77881351  0.47787910  1
  O  O18  1  0.61380953  0.56405355  0.17220459  1
  O  O19  1  0.11380953  0.43594645  0.32779541  1
  O  O20  1  0.38619047  0.43594645  0.82779541  1
  O  O21  1  0.88619047  0.56405355  0.67220459  1
  O  O22  1  0.30830367  0.74079995  0.65631071  1
  O  O23  1  0.80830367  0.25920005  0.84368929  1
  O  O24  1  0.69169633  0.25920005  0.34368929  1
  O  O25  1  0.19169633  0.74079995  0.15631071  1
