# generated using pymatgen
data_CeAsO4F
_symmetry_space_group_name_H-M   'P 1'
_cell_length_a   6.70809474
_cell_length_b   7.19905172
_cell_length_c   8.82723123
_cell_angle_alpha   90.00000000
_cell_angle_beta   90.00000000
_cell_angle_gamma   90.00000000
_symmetry_Int_Tables_number   1
_chemical_formula_structural   CeAsO4F
_chemical_formula_sum   'Ce4 As4 O16 F4'
_cell_volume   426.28395300
_cell_formula_units_Z   4
loop_
 _symmetry_equiv_pos_site_id
 _symmetry_equiv_pos_as_xyz
  1  'x, y, z'
loop_
 _atom_site_type_symbol
 _atom_site_label
 _atom_site_symmetry_multiplicity
 _atom_site_fract_x
 _atom_site_fract_y
 _atom_site_fract_z
 _atom_site_occupancy
  Ce  Ce0  1  0.64759519  0.25000000  0.04352331  1
  Ce  Ce1  1  0.85240481  0.25000000  0.54352331  1
  Ce  Ce2  1  0.35240481  0.75000000  0.95647669  1
  Ce  Ce3  1  0.14759519  0.75000000  0.45647669  1
  As  As4  1  0.32381255  0.25000000  0.39607349  1
  As  As5  1  0.17618745  0.25000000  0.89607349  1
  As  As6  1  0.67618745  0.75000000  0.60392651  1
  As  As7  1  0.82381255  0.75000000  0.10392651  1
  O  O8  1  0.16200023  0.43301319  0.42952939  1
  O  O9  1  0.33799977  0.06698681  0.92952939  1
  O  O10  1  0.83799977  0.93301319  0.57047061  1
  O  O11  1  0.66200023  0.56698681  0.07047061  1
  O  O12  1  0.83799977  0.56698681  0.57047061  1
  O  O13  1  0.66200023  0.93301319  0.07047061  1
  O  O14  1  0.16200023  0.06698681  0.42952939  1
  O  O15  1  0.33799977  0.43301319  0.92952939  1
  O  O16  1  0.51944773  0.25000000  0.51948616  1
  O  O17  1  0.98055227  0.25000000  0.01948616  1
  O  O18  1  0.48055227  0.75000000  0.48051384  1
  O  O19  1  0.01944773  0.75000000  0.98051384  1
  O  O20  1  0.39937044  0.25000000  0.21216886  1
  O  O21  1  0.10062956  0.25000000  0.71216886  1
  O  O22  1  0.60062956  0.75000000  0.78783114  1
  O  O23  1  0.89937044  0.75000000  0.28783114  1
  F  F24  1  0.70061092  0.25000000  0.78961821  1
  F  F25  1  0.79938908  0.25000000  0.28961821  1
  F  F26  1  0.29938908  0.75000000  0.21038179  1
  F  F27  1  0.20061092  0.75000000  0.71038179  1
