# generated using pymatgen
data_Zr6Al16Ni7
_symmetry_space_group_name_H-M   'P 1'
_cell_length_a   8.55873284
_cell_length_b   8.55873284
_cell_length_c   8.55873284
_cell_angle_alpha   60.00000000
_cell_angle_beta   60.00000000
_cell_angle_gamma   60.00000000
_symmetry_Int_Tables_number   1
_chemical_formula_structural   Zr6Al16Ni7
_chemical_formula_sum   'Zr6 Al16 Ni7'
_cell_volume   443.31600681
_cell_formula_units_Z   1
loop_
 _symmetry_equiv_pos_site_id
 _symmetry_equiv_pos_as_xyz
  1  'x, y, z'
loop_
 _atom_site_type_symbol
 _atom_site_label
 _atom_site_symmetry_multiplicity
 _atom_site_fract_x
 _atom_site_fract_y
 _atom_site_fract_z
 _atom_site_occupancy
  Zr  Zr0  1  0.69135712  0.30864288  0.30864288  1
  Zr  Zr1  1  0.69135712  0.30864288  0.69135712  1
  Zr  Zr2  1  0.69135712  0.69135712  0.30864288  1
  Zr  Zr3  1  0.30864288  0.69135712  0.69135712  1
  Zr  Zr4  1  0.30864288  0.69135712  0.30864288  1
  Zr  Zr5  1  0.30864288  0.30864288  0.69135712  1
  Al  Al6  1  0.64247725  0.11917425  0.11917425  1
  Al  Al7  1  0.11917425  0.64247725  0.11917425  1
  Al  Al8  1  0.11917425  0.11917425  0.64247725  1
  Al  Al9  1  0.11917425  0.11917425  0.11917425  1
  Al  Al10  1  0.35752275  0.88082575  0.88082575  1
  Al  Al11  1  0.88082575  0.35752275  0.88082575  1
  Al  Al12  1  0.88082575  0.88082575  0.35752275  1
  Al  Al13  1  0.88082575  0.88082575  0.88082575  1
  Al  Al14  1  0.99925085  0.33358305  0.33358305  1
  Al  Al15  1  0.33358305  0.99925085  0.33358305  1
  Al  Al16  1  0.33358305  0.33358305  0.99925085  1
  Al  Al17  1  0.33358305  0.33358305  0.33358305  1
  Al  Al18  1  0.00074915  0.66641695  0.66641695  1
  Al  Al19  1  0.66641695  0.00074915  0.66641695  1
  Al  Al20  1  0.66641695  0.66641695  0.00074915  1
  Al  Al21  1  0.66641695  0.66641695  0.66641695  1
  Ni  Ni22  1  -0.00000000  -0.00000000  0.00000000  1
  Ni  Ni23  1  0.50000000  -0.00000000  0.00000000  1
  Ni  Ni24  1  0.50000000  -0.00000000  0.50000000  1
  Ni  Ni25  1  0.50000000  0.50000000  0.00000000  1
  Ni  Ni26  1  -0.00000000  0.50000000  0.50000000  1
  Ni  Ni27  1  -0.00000000  0.50000000  0.00000000  1
  Ni  Ni28  1  -0.00000000  -0.00000000  0.50000000  1
