# generated using pymatgen
data_Ba3La3(Cu3O7)2
_symmetry_space_group_name_H-M   'P 1'
_cell_length_a   5.66051070
_cell_length_b   5.74277371
_cell_length_c   11.06282056
_cell_angle_alpha   90.00000000
_cell_angle_beta   90.00000000
_cell_angle_gamma   90.00000000
_symmetry_Int_Tables_number   1
_chemical_formula_structural   Ba3La3(Cu3O7)2
_chemical_formula_sum   'Ba3 La3 Cu6 O14'
_cell_volume   359.61946232
_cell_formula_units_Z   1
loop_
 _symmetry_equiv_pos_site_id
 _symmetry_equiv_pos_as_xyz
  1  'x, y, z'
loop_
 _atom_site_type_symbol
 _atom_site_label
 _atom_site_symmetry_multiplicity
 _atom_site_fract_x
 _atom_site_fract_y
 _atom_site_fract_z
 _atom_site_occupancy
  Ba  Ba0  1  0.50000000  0.00000000  0.83114323  1
  Ba  Ba1  1  0.50000000  0.00000000  0.16885677  1
  Ba  Ba2  1  0.00000000  0.50000000  0.50000000  1
  La  La3  1  0.00000000  0.50000000  0.83761139  1
  La  La4  1  0.00000000  0.50000000  0.16238861  1
  La  La5  1  0.50000000  0.00000000  0.50000000  1
  Cu  Cu6  1  0.00000000  0.00000000  0.64922765  1
  Cu  Cu7  1  0.00000000  0.00000000  0.35077235  1
  Cu  Cu8  1  0.00000000  0.00000000  -0.00000000  1
  Cu  Cu9  1  0.50000000  0.50000000  -0.00000000  1
  Cu  Cu10  1  0.50000000  0.50000000  0.65863281  1
  Cu  Cu11  1  0.50000000  0.50000000  0.34136719  1
  O  O12  1  0.50000000  0.50000000  0.83340980  1
  O  O13  1  0.50000000  0.50000000  0.16659020  1
  O  O14  1  0.24673620  0.23334728  0.65405481  1
  O  O15  1  0.75326380  0.76665272  0.65405481  1
  O  O16  1  0.75326380  0.23334728  0.65405481  1
  O  O17  1  0.24673620  0.76665272  0.65405481  1
  O  O18  1  0.75326380  0.76665272  0.34594519  1
  O  O19  1  0.24673620  0.23334728  0.34594519  1
  O  O20  1  0.24673620  0.76665272  0.34594519  1
  O  O21  1  0.75326380  0.23334728  0.34594519  1
  O  O22  1  0.21567567  0.25465374  -0.00000000  1
  O  O23  1  0.78432433  0.74534626  -0.00000000  1
  O  O24  1  0.78432433  0.25465374  -0.00000000  1
  O  O25  1  0.21567567  0.74534626  -0.00000000  1
