# generated using pymatgen
data_LaSO5
_symmetry_space_group_name_H-M   'P 1'
_cell_length_a   4.64216092
_cell_length_b   7.00818818
_cell_length_c   12.91267282
_cell_angle_alpha   90.00000000
_cell_angle_beta   90.00000000
_cell_angle_gamma   106.61442112
_symmetry_Int_Tables_number   1
_chemical_formula_structural   LaSO5
_chemical_formula_sum   'La4 S4 O20'
_cell_volume   402.55127775
_cell_formula_units_Z   4
loop_
 _symmetry_equiv_pos_site_id
 _symmetry_equiv_pos_as_xyz
  1  'x, y, z'
loop_
 _atom_site_type_symbol
 _atom_site_label
 _atom_site_symmetry_multiplicity
 _atom_site_fract_x
 _atom_site_fract_y
 _atom_site_fract_z
 _atom_site_occupancy
  La  La0  1  0.64707504  0.80426515  0.57019792  1
  La  La1  1  0.14707504  0.30426515  0.92980208  1
  La  La2  1  0.35292496  0.19573485  0.42980208  1
  La  La3  1  0.85292496  0.69573485  0.07019792  1
  S  S4  1  0.49098148  0.88468798  0.85748697  1
  S  S5  1  0.99098148  0.38468798  0.64251303  1
  S  S6  1  0.50901852  0.11531202  0.14251303  1
  S  S7  1  0.00901852  0.61531202  0.35748697  1
  O  O8  1  0.57810132  0.81173637  0.75846041  1
  O  O9  1  0.07810132  0.31173637  0.74153959  1
  O  O10  1  0.42189868  0.18826363  0.24153959  1
  O  O11  1  0.92189868  0.68826363  0.25846041  1
  O  O12  1  0.79263847  0.05931178  0.43328432  1
  O  O13  1  0.29263847  0.55931178  0.06671568  1
  O  O14  1  0.20736153  0.94068822  0.56671568  1
  O  O15  1  0.70736153  0.44068822  0.93328432  1
  O  O16  1  0.86988304  0.55351610  0.65912178  1
  O  O17  1  0.36988304  0.05351610  0.84087822  1
  O  O18  1  0.13011696  0.44648390  0.34087822  1
  O  O19  1  0.63011696  0.94648390  0.15912178  1
  O  O20  1  0.25873171  0.44402573  0.57135221  1
  O  O21  1  0.75873171  0.94402573  0.92864779  1
  O  O22  1  0.74126829  0.55597427  0.42864779  1
  O  O23  1  0.24126829  0.05597427  0.07135221  1
  O  O24  1  0.24123534  0.78530576  0.40984928  1
  O  O25  1  0.74123534  0.28530576  0.09015072  1
  O  O26  1  0.75876466  0.21469424  0.59015072  1
  O  O27  1  0.25876466  0.71469424  0.90984928  1
