# generated using pymatgen
data_SmMoBrO4
_symmetry_space_group_name_H-M   'P 1'
_cell_length_a   7.00344735
_cell_length_b   7.43203612
_cell_length_c   11.24542599
_cell_angle_alpha   106.20636252
_cell_angle_beta   106.94855999
_cell_angle_gamma   92.33995079
_symmetry_Int_Tables_number   1
_chemical_formula_structural   SmMoBrO4
_chemical_formula_sum   'Sm4 Mo4 Br4 O16'
_cell_volume   532.87350267
_cell_formula_units_Z   4
loop_
 _symmetry_equiv_pos_site_id
 _symmetry_equiv_pos_as_xyz
  1  'x, y, z'
loop_
 _atom_site_type_symbol
 _atom_site_label
 _atom_site_symmetry_multiplicity
 _atom_site_fract_x
 _atom_site_fract_y
 _atom_site_fract_z
 _atom_site_occupancy
  Sm  Sm0  1  0.64333452  0.12495426  0.73021165  1
  Sm  Sm1  1  0.35666548  0.87504574  0.26978835  1
  Sm  Sm2  1  0.39498988  0.64689812  0.76898744  1
  Sm  Sm3  1  0.60501012  0.35310188  0.23101256  1
  Mo  Mo4  1  0.73433443  0.81568933  0.13377912  1
  Mo  Mo5  1  0.26566557  0.18431067  0.86622088  1
  Mo  Mo6  1  0.77480220  0.59162207  0.63053437  1
  Mo  Mo7  1  0.22519780  0.40837793  0.36946563  1
  Br  Br8  1  0.25793369  0.97631448  0.51754114  1
  Br  Br9  1  0.74206631  0.02368552  0.48245886  1
  Br  Br10  1  0.19577502  0.71498261  0.98113760  1
  Br  Br11  1  0.80422498  0.28501739  0.01886240  1
  O  O12  1  0.67386625  0.72965173  0.96124618  1
  O  O13  1  0.32613375  0.27034827  0.03875382  1
  O  O14  1  0.99939705  0.86550900  0.20702349  1
  O  O15  1  0.00060295  0.13449100  0.79297651  1
  O  O16  1  0.62495502  0.65673597  0.20137087  1
  O  O17  1  0.37504498  0.34326403  0.79862913  1
  O  O18  1  0.39163458  0.97897215  0.81965119  1
  O  O19  1  0.60836542  0.02102785  0.18034881  1
  O  O20  1  0.04043771  0.63858954  0.67732970  1
  O  O21  1  0.95956229  0.36141046  0.32267030  1
  O  O22  1  0.69835855  0.42539489  0.70326972  1
  O  O23  1  0.30164145  0.57460511  0.29673028  1
  O  O24  1  0.67943535  0.50711362  0.45651207  1
  O  O25  1  0.32056465  0.49288638  0.54348793  1
  O  O26  1  0.65985860  0.79652003  0.69886147  1
  O  O27  1  0.34014140  0.20347997  0.30113853  1
