# generated using pymatgen
data_Cs3FeSe3
_symmetry_space_group_name_H-M   'P 1'
_cell_length_a   7.59593583
_cell_length_b   10.87123266
_cell_length_c   14.00286543
_cell_angle_alpha   90.00000000
_cell_angle_beta   90.00000000
_cell_angle_gamma   110.44814150
_symmetry_Int_Tables_number   1
_chemical_formula_structural   Cs3FeSe3
_chemical_formula_sum   'Cs12 Fe4 Se12'
_cell_volume   1083.45625816
_cell_formula_units_Z   4
loop_
 _symmetry_equiv_pos_site_id
 _symmetry_equiv_pos_as_xyz
  1  'x, y, z'
loop_
 _atom_site_type_symbol
 _atom_site_label
 _atom_site_symmetry_multiplicity
 _atom_site_fract_x
 _atom_site_fract_y
 _atom_site_fract_z
 _atom_site_occupancy
  Cs  Cs0  1  0.62395389  0.00000000  0.80937558  1
  Cs  Cs1  1  0.37604611  0.00000000  0.19062442  1
  Cs  Cs2  1  0.87604611  0.00000000  0.30937558  1
  Cs  Cs3  1  0.12395389  0.00000000  0.69062442  1
  Cs  Cs4  1  0.96736528  0.64616179  0.37663614  1
  Cs  Cs5  1  0.67879651  0.64616179  0.62336386  1
  Cs  Cs6  1  0.17879651  0.64616179  0.87663614  1
  Cs  Cs7  1  0.46736528  0.64616179  0.12336386  1
  Cs  Cs8  1  0.03263472  0.35383821  0.62336386  1
  Cs  Cs9  1  0.32120349  0.35383821  0.37663614  1
  Cs  Cs10  1  0.82120349  0.35383821  0.12336386  1
  Cs  Cs11  1  0.53263472  0.35383821  0.87663614  1
  Fe  Fe12  1  0.42245570  0.84491140  0.50000000  1
  Fe  Fe13  1  0.92245570  0.84491140  0.00000000  1
  Fe  Fe14  1  0.57754430  0.15508860  0.50000000  1
  Fe  Fe15  1  0.07754430  0.15508860  -0.00000000  1
  Se  Se16  1  0.22586172  0.00000000  0.94064748  1
  Se  Se17  1  0.77413828  0.00000000  0.05935252  1
  Se  Se18  1  0.27413828  0.00000000  0.44064748  1
  Se  Se19  1  0.72586172  0.00000000  0.55935252  1
  Se  Se20  1  0.48467514  0.71257292  0.37692014  1
  Se  Se21  1  0.22789779  0.71257292  0.62307986  1
  Se  Se22  1  0.72789779  0.71257292  0.87692014  1
  Se  Se23  1  0.98467514  0.71257292  0.12307986  1
  Se  Se24  1  0.51532486  0.28742708  0.62307986  1
  Se  Se25  1  0.77210221  0.28742708  0.37692014  1
  Se  Se26  1  0.27210221  0.28742708  0.12307986  1
  Se  Se27  1  0.01532486  0.28742708  0.87692014  1
