# generated using pymatgen
data_Sr3Sn3Au8
_symmetry_space_group_name_H-M   'P 1'
_cell_length_a   4.80557374
_cell_length_b   9.80331727
_cell_length_c   14.26983367
_cell_angle_alpha   90.00000000
_cell_angle_beta   90.00000000
_cell_angle_gamma   90.00000000
_symmetry_Int_Tables_number   1
_chemical_formula_structural   Sr3Sn3Au8
_chemical_formula_sum   'Sr6 Sn6 Au16'
_cell_volume   672.25991292
_cell_formula_units_Z   2
loop_
 _symmetry_equiv_pos_site_id
 _symmetry_equiv_pos_as_xyz
  1  'x, y, z'
loop_
 _atom_site_type_symbol
 _atom_site_label
 _atom_site_symmetry_multiplicity
 _atom_site_fract_x
 _atom_site_fract_y
 _atom_site_fract_z
 _atom_site_occupancy
  Sr  Sr0  1  0.50000000  0.50535255  0.30404520  1
  Sr  Sr1  1  0.50000000  0.49464745  0.69595480  1
  Sr  Sr2  1  0.00000000  0.00535255  0.19595480  1
  Sr  Sr3  1  0.00000000  0.99464745  0.80404520  1
  Sr  Sr4  1  0.50000000  0.50000000  -0.00000000  1
  Sr  Sr5  1  0.00000000  -0.00000000  0.50000000  1
  Sn  Sn6  1  0.50000000  0.15465894  0.32706864  1
  Sn  Sn7  1  0.50000000  0.84534106  0.67293136  1
  Sn  Sn8  1  0.00000000  0.65465894  0.17293136  1
  Sn  Sn9  1  -0.00000000  0.34534106  0.82706864  1
  Sn  Sn10  1  -0.00000000  0.50000000  0.50000000  1
  Sn  Sn11  1  0.50000000  -0.00000000  -0.00000000  1
  Au  Au12  1  0.50000000  0.69764376  0.49830389  1
  Au  Au13  1  0.50000000  0.30235624  0.50169611  1
  Au  Au14  1  -0.00000000  0.19764376  0.00169611  1
  Au  Au15  1  -0.00000000  0.80235624  0.99830389  1
  Au  Au16  1  0.50000000  0.77865837  0.12678292  1
  Au  Au17  1  0.50000000  0.22134163  0.87321708  1
  Au  Au18  1  -0.00000000  0.27865837  0.37321708  1
  Au  Au19  1  0.00000000  0.72134163  0.62678292  1
  Au  Au20  1  0.50000000  0.78423842  0.86531652  1
  Au  Au21  1  0.50000000  0.21576158  0.13468348  1
  Au  Au22  1  -0.00000000  0.28423842  0.63468348  1
  Au  Au23  1  -0.00000000  0.71576158  0.36531652  1
  Au  Au24  1  0.50000000  0.87615835  0.34127844  1
  Au  Au25  1  0.50000000  0.12384165  0.65872156  1
  Au  Au26  1  -0.00000000  0.37615835  0.15872156  1
  Au  Au27  1  0.00000000  0.62384165  0.84127844  1
