# generated using pymatgen
data_Ce(Al4Co)2
_symmetry_space_group_name_H-M   'P 1'
_cell_length_a   4.00693249
_cell_length_b   12.48735971
_cell_length_c   14.29335818
_cell_angle_alpha   90.00000000
_cell_angle_beta   90.00000000
_cell_angle_gamma   90.00000000
_symmetry_Int_Tables_number   1
_chemical_formula_structural   Ce(Al4Co)2
_chemical_formula_sum   'Ce4 Al32 Co8'
_cell_volume   715.18257476
_cell_formula_units_Z   4
loop_
 _symmetry_equiv_pos_site_id
 _symmetry_equiv_pos_as_xyz
  1  'x, y, z'
loop_
 _atom_site_type_symbol
 _atom_site_label
 _atom_site_symmetry_multiplicity
 _atom_site_fract_x
 _atom_site_fract_y
 _atom_site_fract_z
 _atom_site_occupancy
  Ce  Ce0  1  -0.00000000  0.84052241  0.18139011  1
  Ce  Ce1  1  0.00000000  0.15947759  0.81860989  1
  Ce  Ce2  1  -0.00000000  0.34052241  0.31860989  1
  Ce  Ce3  1  -0.00000000  0.65947759  0.68139011  1
  Al  Al4  1  0.50000000  0.50000000  0.00000000  1
  Al  Al5  1  0.50000000  -0.00000000  0.50000000  1
  Al  Al6  1  -0.00000000  0.50000000  0.50000000  1
  Al  Al7  1  -0.00000000  -0.00000000  0.00000000  1
  Al  Al8  1  0.50000000  0.65966820  0.12079794  1
  Al  Al9  1  0.50000000  0.34033180  0.87920206  1
  Al  Al10  1  0.50000000  0.15966820  0.37920206  1
  Al  Al11  1  0.50000000  0.84033180  0.62079794  1
  Al  Al12  1  0.50000000  0.95265680  0.32084377  1
  Al  Al13  1  0.50000000  0.04734320  0.67915623  1
  Al  Al14  1  0.50000000  0.45265680  0.17915623  1
  Al  Al15  1  0.50000000  0.54734320  0.82084377  1
  Al  Al16  1  0.50000000  0.73625552  0.32749619  1
  Al  Al17  1  0.50000000  0.26374448  0.67250381  1
  Al  Al18  1  0.50000000  0.23625552  0.17250381  1
  Al  Al19  1  0.50000000  0.76374448  0.82749619  1
  Al  Al20  1  0.50000000  0.83162613  0.00876428  1
  Al  Al21  1  0.50000000  0.16837387  0.99123572  1
  Al  Al22  1  0.50000000  0.33162613  0.49123572  1
  Al  Al23  1  0.50000000  0.66837387  0.50876428  1
  Al  Al24  1  0.50000000  0.52515267  0.36838647  1
  Al  Al25  1  0.50000000  0.47484733  0.63161353  1
  Al  Al26  1  0.50000000  0.02515267  0.13161353  1
  Al  Al27  1  0.50000000  0.97484733  0.86838647  1
  Al  Al28  1  -0.00000000  0.84031677  0.45531307  1
  Al  Al29  1  -0.00000000  0.15968323  0.54468693  1
  Al  Al30  1  -0.00000000  0.34031677  0.04468693  1
  Al  Al31  1  -0.00000000  0.65968323  0.95531307  1
  Al  Al32  1  -0.00000000  0.59608537  0.24706273  1
  Al  Al33  1  -0.00000000  0.40391463  0.75293727  1
  Al  Al34  1  -0.00000000  0.09608537  0.25293727  1
  Al  Al35  1  -0.00000000  0.90391463  0.74706273  1
  Co  Co36  1  -0.00000000  0.65181626  0.40382506  1
  Co  Co37  1  -0.00000000  0.34818374  0.59617494  1
  Co  Co38  1  0.00000000  0.15181626  0.09617494  1
  Co  Co39  1  0.00000000  0.84818374  0.90382506  1
  Co  Co40  1  0.00000000  0.53527415  0.09446209  1
  Co  Co41  1  0.00000000  0.46472585  0.90553791  1
  Co  Co42  1  -0.00000000  0.03527415  0.40553791  1
  Co  Co43  1  0.00000000  0.96472585  0.59446209  1
