# generated using pymatgen
data_U8MnSe17
_symmetry_space_group_name_H-M   'P 1'
_cell_length_a   8.21685413
_cell_length_b   8.21685413
_cell_length_c   10.88506139
_cell_angle_alpha   80.07104116
_cell_angle_beta   80.07104116
_cell_angle_gamma   64.43984084
_symmetry_Int_Tables_number   1
_chemical_formula_structural   U8MnSe17
_chemical_formula_sum   'U8 Mn1 Se17'
_cell_volume   649.08204101
_cell_formula_units_Z   1
loop_
 _symmetry_equiv_pos_site_id
 _symmetry_equiv_pos_as_xyz
  1  'x, y, z'
loop_
 _atom_site_type_symbol
 _atom_site_label
 _atom_site_symmetry_multiplicity
 _atom_site_fract_x
 _atom_site_fract_y
 _atom_site_fract_z
 _atom_site_occupancy
  U  U0  1  0.18188611  0.69631721  0.70090944  1
  U  U1  1  0.69631721  0.18188611  0.70090944  1
  U  U2  1  0.81811389  0.30368279  0.29909056  1
  U  U3  1  0.30368279  0.81811389  0.29909056  1
  U  U4  1  0.79812094  0.79812094  0.45835792  1
  U  U5  1  0.20187906  0.20187906  0.54164208  1
  U  U6  1  0.32053794  0.32053794  0.01331801  1
  U  U7  1  0.67946206  0.67946206  0.98668199  1
  Mn  Mn8  1  0.00000000  -0.00000000  0.00000000  1
  Se  Se9  1  0.18061815  0.56547734  0.46426980  1
  Se  Se10  1  0.56547734  0.18061815  0.46426980  1
  Se  Se11  1  0.81938185  0.43452266  0.53573020  1
  Se  Se12  1  0.43452266  0.81938185  0.53573020  1
  Se  Se13  1  0.05470879  0.67505704  0.97098728  1
  Se  Se14  1  0.67505704  0.05470879  0.97098728  1
  Se  Se15  1  0.94529121  0.32494296  0.02901272  1
  Se  Se16  1  0.32494296  0.94529121  0.02901272  1
  Se  Se17  1  0.78635530  0.78635530  0.72346961  1
  Se  Se18  1  0.21364470  0.21364470  0.27653039  1
  Se  Se19  1  0.94306578  0.94306578  0.22801413  1
  Se  Se20  1  0.05693422  0.05693422  0.77198587  1
  Se  Se21  1  0.70009853  0.70009853  0.24540103  1
  Se  Se22  1  0.29990147  0.29990147  0.75459897  1
  Se  Se23  1  0.47924568  0.47924568  0.16988428  1
  Se  Se24  1  0.52075432  0.52075432  0.83011572  1
  Se  Se25  1  0.00000000  -0.00000000  0.50000000  1
