# generated using pymatgen
data_Hf9Mo4S
_symmetry_space_group_name_H-M   'P 1'
_cell_length_a   8.53005243
_cell_length_b   8.68383186
_cell_length_c   8.68383186
_cell_angle_alpha   120.00460410
_cell_angle_beta   90.00000000
_cell_angle_gamma   90.00000000
_symmetry_Int_Tables_number   1
_chemical_formula_structural   Hf9Mo4S
_chemical_formula_sum   'Hf18 Mo8 S2'
_cell_volume   557.03821920
_cell_formula_units_Z   2
loop_
 _symmetry_equiv_pos_site_id
 _symmetry_equiv_pos_as_xyz
  1  'x, y, z'
loop_
 _atom_site_type_symbol
 _atom_site_label
 _atom_site_symmetry_multiplicity
 _atom_site_fract_x
 _atom_site_fract_y
 _atom_site_fract_z
 _atom_site_occupancy
  Hf  Hf0  1  0.55062983  0.80289505  0.60575735  1
  Hf  Hf1  1  0.55065628  0.80287830  0.19712170  1
  Hf  Hf2  1  0.55062983  0.39424265  0.19710495  1
  Hf  Hf3  1  0.44937017  0.19710495  0.39424265  1
  Hf  Hf4  1  0.44934372  0.19712170  0.80287830  1
  Hf  Hf5  1  0.44937017  0.60575735  0.80289505  1
  Hf  Hf6  1  0.05062983  0.19710495  0.39424265  1
  Hf  Hf7  1  0.05065628  0.19712170  0.80287830  1
  Hf  Hf8  1  0.05062983  0.60575735  0.80289505  1
  Hf  Hf9  1  0.94937017  0.80289505  0.60575735  1
  Hf  Hf10  1  0.94934372  0.80287830  0.19712170  1
  Hf  Hf11  1  0.94937017  0.39424265  0.19710495  1
  Hf  Hf12  1  0.75000000  0.45761281  0.91523904  1
  Hf  Hf13  1  0.75000000  0.45756807  0.54243193  1
  Hf  Hf14  1  0.75000000  0.08476096  0.54238719  1
  Hf  Hf15  1  0.25000000  0.54238719  0.08476096  1
  Hf  Hf16  1  0.25000000  0.54243193  0.45756807  1
  Hf  Hf17  1  0.25000000  0.91523904  0.45761281  1
  Mo  Mo18  1  0.75000000  0.11089286  0.22186592  1
  Mo  Mo19  1  0.75000000  0.11094154  0.88905846  1
  Mo  Mo20  1  0.75000000  0.77813408  0.88910714  1
  Mo  Mo21  1  0.25000000  0.88910714  0.77813408  1
  Mo  Mo22  1  0.25000000  0.88905846  0.11094154  1
  Mo  Mo23  1  0.25000000  0.22186592  0.11089286  1
  Mo  Mo24  1  0.50000000  0.00000000  0.00000000  1
  Mo  Mo25  1  0.00000000  0.00000000  0.00000000  1
  S  S26  1  0.75000000  0.66670770  0.33329230  1
  S  S27  1  0.25000000  0.33329230  0.66670770  1
