# generated using pymatgen
data_LaNi9Ge4
_symmetry_space_group_name_H-M   'P 1'
_cell_length_a   7.99153350
_cell_length_b   7.99153350
_cell_length_c   8.17114923
_cell_angle_alpha   119.27547272
_cell_angle_beta   119.27547272
_cell_angle_gamma   90.00000000
_symmetry_Int_Tables_number   1
_chemical_formula_structural   LaNi9Ge4
_chemical_formula_sum   'La2 Ni18 Ge8'
_cell_volume   376.93854468
_cell_formula_units_Z   2
loop_
 _symmetry_equiv_pos_site_id
 _symmetry_equiv_pos_as_xyz
  1  'x, y, z'
loop_
 _atom_site_type_symbol
 _atom_site_label
 _atom_site_symmetry_multiplicity
 _atom_site_fract_x
 _atom_site_fract_y
 _atom_site_fract_z
 _atom_site_occupancy
  La  La0  1  0.75000000  0.75000000  0.50000000  1
  La  La1  1  0.25000000  0.25000000  0.50000000  1
  Ni  Ni2  1  0.29586732  0.56805625  1.00000000  1
  Ni  Ni3  1  0.70413268  0.43194375  0.00000000  1
  Ni  Ni4  1  0.20413268  0.06805625  0.00000000  1
  Ni  Ni5  1  0.79586732  0.93194375  1.00000000  1
  Ni  Ni6  1  0.43194375  0.29586732  1.00000000  1
  Ni  Ni7  1  0.56805625  0.70413268  0.00000000  1
  Ni  Ni8  1  0.93194375  0.20413268  0.00000000  1
  Ni  Ni9  1  0.06805625  0.79586732  1.00000000  1
  Ni  Ni10  1  0.55543231  0.30849780  0.36393011  1
  Ni  Ni11  1  0.80849780  0.05543231  0.36393011  1
  Ni  Ni12  1  0.30849780  0.80849780  0.36393011  1
  Ni  Ni13  1  0.05543231  0.55543231  0.36393011  1
  Ni  Ni14  1  0.44456769  0.69150220  0.63606989  1
  Ni  Ni15  1  0.19150220  0.94456769  0.63606989  1
  Ni  Ni16  1  0.69150220  0.19150220  0.63606989  1
  Ni  Ni17  1  0.94456769  0.44456769  0.63606989  1
  Ni  Ni18  1  0.00000000  0.50000000  -0.00000000  1
  Ni  Ni19  1  0.50000000  0.00000000  -0.00000000  1
  Ge  Ge20  1  0.94900316  0.79291738  0.24192054  1
  Ge  Ge21  1  0.29291738  0.44900316  0.24192054  1
  Ge  Ge22  1  0.79291738  0.29291738  0.24192054  1
  Ge  Ge23  1  0.44900316  0.94900316  0.24192054  1
  Ge  Ge24  1  0.05099684  0.20708262  0.75807946  1
  Ge  Ge25  1  0.70708262  0.55099684  0.75807946  1
  Ge  Ge26  1  0.20708262  0.70708262  0.75807946  1
  Ge  Ge27  1  0.55099684  0.05099684  0.75807946  1
