# generated using pymatgen
data_EuBe13
_symmetry_space_group_name_H-M   'P 1'
_cell_length_a   7.41267039
_cell_length_b   7.41267039
_cell_length_c   7.41267039
_cell_angle_alpha   60.00000000
_cell_angle_beta   60.00000000
_cell_angle_gamma   60.00000000
_symmetry_Int_Tables_number   1
_chemical_formula_structural   EuBe13
_chemical_formula_sum   'Eu2 Be26'
_cell_volume   288.01099680
_cell_formula_units_Z   2
loop_
 _symmetry_equiv_pos_site_id
 _symmetry_equiv_pos_as_xyz
  1  'x, y, z'
loop_
 _atom_site_type_symbol
 _atom_site_label
 _atom_site_symmetry_multiplicity
 _atom_site_fract_x
 _atom_site_fract_y
 _atom_site_fract_z
 _atom_site_occupancy
  Eu  Eu0  1  0.75000000  0.75000000  0.75000000  1
  Eu  Eu1  1  0.25000000  0.25000000  0.25000000  1
  Be  Be2  1  0.50000000  0.50000000  0.50000000  1
  Be  Be3  1  -0.00000000  -0.00000000  -0.00000000  1
  Be  Be4  1  0.78720314  0.43602219  0.21279686  1
  Be  Be5  1  0.21279686  0.56397781  0.78720314  1
  Be  Be6  1  0.56397781  0.21279686  0.43602219  1
  Be  Be7  1  0.43602219  0.78720314  0.56397781  1
  Be  Be8  1  0.28720314  0.06397781  0.71279686  1
  Be  Be9  1  0.71279686  0.93602219  0.28720314  1
  Be  Be10  1  0.93602219  0.71279686  0.06397781  1
  Be  Be11  1  0.06397781  0.28720314  0.93602219  1
  Be  Be12  1  0.43602219  0.21279686  0.78720314  1
  Be  Be13  1  0.56397781  0.78720314  0.21279686  1
  Be  Be14  1  0.21279686  0.43602219  0.56397781  1
  Be  Be15  1  0.78720314  0.56397781  0.43602219  1
  Be  Be16  1  0.06397781  0.71279686  0.28720314  1
  Be  Be17  1  0.93602219  0.28720314  0.71279686  1
  Be  Be18  1  0.71279686  0.06397781  0.93602219  1
  Be  Be19  1  0.28720314  0.93602219  0.06397781  1
  Be  Be20  1  0.21279686  0.78720314  0.43602219  1
  Be  Be21  1  0.78720314  0.21279686  0.56397781  1
  Be  Be22  1  0.43602219  0.56397781  0.21279686  1
  Be  Be23  1  0.56397781  0.43602219  0.78720314  1
  Be  Be24  1  0.71279686  0.28720314  0.06397781  1
  Be  Be25  1  0.28720314  0.71279686  0.93602219  1
  Be  Be26  1  0.06397781  0.93602219  0.71279686  1
  Be  Be27  1  0.93602219  0.06397781  0.28720314  1
