# generated using pymatgen
data_Li2CaTa2O7
_symmetry_space_group_name_H-M   'P 1'
_cell_length_a   5.50923895
_cell_length_b   5.56813343
_cell_length_c   18.46121569
_cell_angle_alpha   90.00000000
_cell_angle_beta   90.00000000
_cell_angle_gamma   90.00000000
_symmetry_Int_Tables_number   1
_chemical_formula_structural   Li2CaTa2O7
_chemical_formula_sum   'Li8 Ca4 Ta8 O28'
_cell_volume   566.31953069
_cell_formula_units_Z   4
loop_
 _symmetry_equiv_pos_site_id
 _symmetry_equiv_pos_as_xyz
  1  'x, y, z'
loop_
 _atom_site_type_symbol
 _atom_site_label
 _atom_site_symmetry_multiplicity
 _atom_site_fract_x
 _atom_site_fract_y
 _atom_site_fract_z
 _atom_site_occupancy
  Li  Li0  1  0.74315797  0.49503644  0.48656321  1
  Li  Li1  1  0.25684203  0.50496356  0.98656321  1
  Li  Li2  1  0.24315797  0.00496356  0.98656321  1
  Li  Li3  1  0.75684203  0.99503644  0.48656321  1
  Li  Li4  1  0.24542979  0.51286252  0.51104571  1
  Li  Li5  1  0.75457021  0.48713748  0.01104571  1
  Li  Li6  1  0.74542979  0.98713748  0.01104571  1
  Li  Li7  1  0.25457021  0.01286252  0.51104571  1
  Ca  Ca8  1  0.99983407  0.21034167  0.74960076  1
  Ca  Ca9  1  0.00016593  0.78965833  0.24960076  1
  Ca  Ca10  1  0.49983407  0.28965833  0.24960076  1
  Ca  Ca11  1  0.50016593  0.71034167  0.74960076  1
  Ta  Ta12  1  0.49819676  0.75604636  0.13752846  1
  Ta  Ta13  1  0.50180324  0.24395364  0.63752846  1
  Ta  Ta14  1  0.99819676  0.74395364  0.63752846  1
  Ta  Ta15  1  0.00180324  0.25604636  0.13752846  1
  Ta  Ta16  1  0.50137114  0.24274729  0.86095371  1
  Ta  Ta17  1  0.49862886  0.75725271  0.36095371  1
  Ta  Ta18  1  0.00137114  0.25725271  0.36095371  1
  Ta  Ta19  1  0.99862886  0.74274729  0.86095371  1
  O  O20  1  0.07815111  0.77202902  0.74936194  1
  O  O21  1  0.92184889  0.22797098  0.24936194  1
  O  O22  1  0.57815111  0.72797098  0.24936194  1
  O  O23  1  0.42184889  0.27202902  0.74936194  1
  O  O24  1  0.04604163  0.25509238  0.46238984  1
  O  O25  1  0.95395837  0.74490762  0.96238984  1
  O  O26  1  0.54604163  0.24490762  0.96238984  1
  O  O27  1  0.45395837  0.75509238  0.46238984  1
  O  O28  1  0.95019145  0.74348663  0.53631040  1
  O  O29  1  0.04980855  0.25651337  0.03631040  1
  O  O30  1  0.45019145  0.75651337  0.03631040  1
  O  O31  1  0.54980855  0.24348663  0.53631040  1
  O  O32  1  0.21337505  0.03784063  0.86707833  1
  O  O33  1  0.78662495  0.96215937  0.36707833  1
  O  O34  1  0.71337505  0.46215937  0.36707833  1
  O  O35  1  0.28662495  0.53784063  0.86707833  1
  O  O36  1  0.79018411  0.95734187  0.13164483  1
  O  O37  1  0.20981589  0.04265813  0.63164483  1
  O  O38  1  0.29018411  0.54265813  0.63164483  1
  O  O39  1  0.70981589  0.45734187  0.13164483  1
  O  O40  1  0.21785453  0.52867727  0.16445956  1
  O  O41  1  0.78214547  0.47132273  0.66445956  1
  O  O42  1  0.71785453  0.97132273  0.66445956  1
  O  O43  1  0.28214547  0.02867727  0.16445956  1
  O  O44  1  0.77722541  0.47545722  0.83446324  1
  O  O45  1  0.22277459  0.52454278  0.33446324  1
  O  O46  1  0.27722541  0.02454278  0.33446324  1
  O  O47  1  0.72277459  0.97545722  0.83446324  1
