# generated using pymatgen
data_Ba3Ge2(B3O8)2
_symmetry_space_group_name_H-M   'P 1'
_cell_length_a   5.16632796
_cell_length_b   7.72346572
_cell_length_c   8.72196980
_cell_angle_alpha   77.40228384
_cell_angle_beta   77.38106105
_cell_angle_gamma   88.16508814
_symmetry_Int_Tables_number   1
_chemical_formula_structural   Ba3Ge2(B3O8)2
_chemical_formula_sum   'Ba3 Ge2 B6 O16'
_cell_volume   331.39625622
_cell_formula_units_Z   1
loop_
 _symmetry_equiv_pos_site_id
 _symmetry_equiv_pos_as_xyz
  1  'x, y, z'
loop_
 _atom_site_type_symbol
 _atom_site_label
 _atom_site_symmetry_multiplicity
 _atom_site_fract_x
 _atom_site_fract_y
 _atom_site_fract_z
 _atom_site_occupancy
  Ba  Ba0  1  0.50000000  0.50000000  0.00000000  1
  Ba  Ba1  1  0.38201730  0.92050903  0.25985344  1
  Ba  Ba2  1  0.61798270  0.07949097  0.74014656  1
  Ge  Ge3  1  0.76989815  0.67049286  0.55841872  1
  Ge  Ge4  1  0.23010185  0.32950714  0.44158128  1
  B  B5  1  0.18988274  0.74388387  0.70500211  1
  B  B6  1  0.81011726  0.25611613  0.29499789  1
  B  B7  1  0.02955551  0.40879224  0.75284196  1
  B  B8  1  0.97044449  0.59120776  0.24715804  1
  B  B9  1  0.96240258  0.80378984  0.97294860  1
  B  B10  1  0.03759742  0.19621016  0.02705140  1
  O  O11  1  0.03729362  0.79848824  0.57507533  1
  O  O12  1  0.96270638  0.20151176  0.42492467  1
  O  O13  1  0.78964230  0.45598742  0.67864591  1
  O  O14  1  0.21035770  0.54401258  0.32135409  1
  O  O15  1  0.47988400  0.78415301  0.62551132  1
  O  O16  1  0.52011600  0.21584699  0.37448868  1
  O  O17  1  0.23029696  0.32249990  0.64448758  1
  O  O18  1  0.76970304  0.67750010  0.35551242  1
  O  O19  1  0.13504696  0.56061017  0.79495063  1
  O  O20  1  0.86495304  0.43938983  0.20504937  1
  O  O21  1  0.69702594  0.82228371  0.99409322  1
  O  O22  1  0.30297406  0.17771629  0.00590678  1
  O  O23  1  0.08661123  0.72475045  0.09826314  1
  O  O24  1  0.91338877  0.27524955  0.90173686  1
  O  O25  1  0.13154286  0.86510005  0.82008237  1
  O  O26  1  0.86845714  0.13489995  0.17991763  1
