# generated using pymatgen
data_Li4Zn(H2N)6
_symmetry_space_group_name_H-M   'P 1'
_cell_length_a   5.23496211
_cell_length_b   8.38192276
_cell_length_c   10.55242458
_cell_angle_alpha   90.00000000
_cell_angle_beta   90.00000000
_cell_angle_gamma   108.19650216
_symmetry_Int_Tables_number   1
_chemical_formula_structural   Li4Zn(H2N)6
_chemical_formula_sum   'Li8 Zn2 H24 N12'
_cell_volume   439.87471516
_cell_formula_units_Z   2
loop_
 _symmetry_equiv_pos_site_id
 _symmetry_equiv_pos_as_xyz
  1  'x, y, z'
loop_
 _atom_site_type_symbol
 _atom_site_label
 _atom_site_symmetry_multiplicity
 _atom_site_fract_x
 _atom_site_fract_y
 _atom_site_fract_z
 _atom_site_occupancy
  Li  Li0  1  0.34096223  0.68192446  0.25000000  1
  Li  Li1  1  0.65903777  0.31807554  0.75000000  1
  Li  Li2  1  0.50275083  -0.00000000  -0.00000000  1
  Li  Li3  1  0.49724917  -0.00000000  0.50000000  1
  Li  Li4  1  0.49677859  0.99355718  0.25000000  1
  Li  Li5  1  0.50322141  0.00644282  0.75000000  1
  Li  Li6  1  0.84316874  0.68633747  0.25000000  1
  Li  Li7  1  0.15683126  0.31366253  0.75000000  1
  Zn  Zn8  1  0.67023303  0.34046605  0.25000000  1
  Zn  Zn9  1  0.32976697  0.65953395  0.75000000  1
  H  H10  1  0.12259053  0.44084034  0.14658841  1
  H  H11  1  0.68175019  0.55915966  0.85341159  1
  H  H12  1  0.87740947  0.55915966  0.64658841  1
  H  H13  1  0.31824981  0.44084034  0.35341159  1
  H  H14  1  0.93118928  0.52616274  0.07087040  1
  H  H15  1  0.40502654  0.47383726  0.92912960  1
  H  H16  1  0.06881072  0.47383726  0.57087040  1
  H  H17  1  0.59497346  0.52616274  0.42912960  1
  H  H18  1  0.81839950  0.23662633  0.45140999  1
  H  H19  1  0.58177317  0.76337367  0.54859001  1
  H  H20  1  0.18160050  0.76337367  0.95140999  1
  H  H21  1  0.41822683  0.23662633  0.04859001  1
  H  H22  1  0.94327639  0.15852426  0.33719015  1
  H  H23  1  0.78475214  0.84147574  0.66280985  1
  H  H24  1  0.05672361  0.84147574  0.83719015  1
  H  H25  1  0.21524786  0.15852426  0.16280985  1
  H  H26  1  0.15670533  0.76085205  0.43877992  1
  H  H27  1  0.39585328  0.23914795  0.56122008  1
  H  H28  1  0.84329467  0.23914795  0.93877992  1
  H  H29  1  0.60414672  0.76085205  0.06122008  1
  H  H30  1  0.07043060  0.91021993  0.37422203  1
  H  H31  1  0.16021067  0.08978007  0.62577797  1
  H  H32  1  0.92956940  0.08978007  0.87422203  1
  H  H33  1  0.83978933  0.91021993  0.12577797  1
  N  N34  1  0.99321128  0.50953465  0.16051697  1
  N  N35  1  0.48367664  0.49046535  0.83948303  1
  N  N36  1  0.00678872  0.49046535  0.66051697  1
  N  N37  1  0.51632336  0.50953465  0.33948303  1
  N  N38  1  0.76507382  0.17144400  0.36833933  1
  N  N39  1  0.59362982  0.82855600  0.63166067  1
  N  N40  1  0.23492618  0.82855600  0.86833933  1
  N  N41  1  0.40637018  0.17144400  0.13166067  1
  N  N42  1  0.19554586  0.83851388  0.36109215  1
  N  N43  1  0.35703197  0.16148612  0.63890785  1
  N  N44  1  0.80445414  0.16148612  0.86109215  1
  N  N45  1  0.64296803  0.83851388  0.13890785  1
