# generated using pymatgen
data_Rb8Cu6As8S19
_symmetry_space_group_name_H-M   'P 1'
_cell_length_a   9.26588741
_cell_length_b   11.98882977
_cell_length_c   20.04634522
_cell_angle_alpha   95.98303835
_cell_angle_beta   90.00000000
_cell_angle_gamma   90.00000000
_symmetry_Int_Tables_number   1
_chemical_formula_structural   Rb8Cu6As8S19
_chemical_formula_sum   'Rb16 Cu12 As16 S38'
_cell_volume   2214.76096348
_cell_formula_units_Z   2
loop_
 _symmetry_equiv_pos_site_id
 _symmetry_equiv_pos_as_xyz
  1  'x, y, z'
loop_
 _atom_site_type_symbol
 _atom_site_label
 _atom_site_symmetry_multiplicity
 _atom_site_fract_x
 _atom_site_fract_y
 _atom_site_fract_z
 _atom_site_occupancy
  Rb  Rb0  1  0.27250120  0.42323451  0.81432105  1
  Rb  Rb1  1  0.77250120  0.57676549  0.18567895  1
  Rb  Rb2  1  0.57075435  0.16703194  0.63026773  1
  Rb  Rb3  1  0.07075435  0.83296806  0.36973227  1
  Rb  Rb4  1  0.59018983  0.70288171  0.87938948  1
  Rb  Rb5  1  0.09018983  0.29711829  0.12061052  1
  Rb  Rb6  1  0.07053806  0.26472684  0.61542007  1
  Rb  Rb7  1  0.57053806  0.73527316  0.38457993  1
  Rb  Rb8  1  0.70175004  0.06982350  0.95067209  1
  Rb  Rb9  1  0.20175004  0.93017650  0.04932791  1
  Rb  Rb10  1  0.09633645  0.80596149  0.83732959  1
  Rb  Rb11  1  0.59633645  0.19403851  0.16267041  1
  Rb  Rb12  1  0.68887658  0.08539097  0.41227050  1
  Rb  Rb13  1  0.18887658  0.91460903  0.58772950  1
  Rb  Rb14  1  0.75678147  0.53333788  0.68549299  1
  Rb  Rb15  1  0.25678147  0.46666212  0.31450701  1
  Cu  Cu16  1  0.96985167  0.31579114  0.45047977  1
  Cu  Cu17  1  0.46985167  0.68420886  0.54952023  1
  Cu  Cu18  1  0.36160856  0.34507662  0.53656055  1
  Cu  Cu19  1  0.86160856  0.65492338  0.46343945  1
  Cu  Cu20  1  0.88902842  0.64129140  0.95492734  1
  Cu  Cu21  1  0.38902842  0.35870860  0.04507266  1
  Cu  Cu22  1  0.49115183  0.69278799  0.04249019  1
  Cu  Cu23  1  0.99115183  0.30721201  0.95750981  1
  Cu  Cu24  1  0.02701888  0.18438050  0.28799028  1
  Cu  Cu25  1  0.52701888  0.81561950  0.71200972  1
  Cu  Cu26  1  0.55056200  0.85584086  0.19770051  1
  Cu  Cu27  1  0.05056200  0.14415914  0.80229949  1
  As  As28  1  0.33012029  0.99130738  0.24279238  1
  As  As29  1  0.83012029  0.00869262  0.75720762  1
  As  As30  1  0.93106271  0.01006584  0.22890060  1
  As  As31  1  0.43106271  0.98993416  0.77109940  1
  As  As32  1  0.27938824  0.16772477  0.40251302  1
  As  As33  1  0.77938824  0.83227523  0.59748698  1
  As  As34  1  0.11648897  0.59012910  0.00425211  1
  As  As35  1  0.61648897  0.40987090  0.99574789  1
  As  As36  1  0.87835323  0.38818948  0.86464530  1
  As  As37  1  0.37835323  0.61181052  0.13535470  1
  As  As38  1  0.35348619  0.58974513  0.63789785  1
  As  As39  1  0.85348619  0.41025487  0.36210215  1
  As  As40  1  0.80565344  0.83937647  0.08253061  1
  As  As41  1  0.30565344  0.16062353  0.91746939  1
  As  As42  1  0.09265315  0.59388349  0.50804158  1
  As  As43  1  0.59265315  0.40611651  0.49195842  1
  S  S44  1  0.38768505  0.40584387  0.64909631  1
  S  S45  1  0.88768505  0.59415613  0.35090369  1
  S  S46  1  0.88131402  0.02487993  0.11719333  1
  S  S47  1  0.38131402  0.97512007  0.88280667  1
  S  S48  1  0.91569728  0.56797119  0.84462949  1
  S  S49  1  0.41569728  0.43202881  0.15537051  1
  S  S50  1  0.36066016  0.98869098  0.35871284  1
  S  S51  1  0.86066016  0.01130902  0.64128716  1
  S  S52  1  0.87362845  0.83494808  0.97481380  1
  S  S53  1  0.37362845  0.16505192  0.02518620  1
  S  S54  1  0.56297400  0.87196268  0.08396608  1
  S  S55  1  0.06297400  0.12803732  0.91603392  1
  S  S56  1  0.34072001  0.15067476  0.50936839  1
  S  S57  1  0.84072001  0.84932524  0.49063161  1
  S  S58  1  0.03604145  0.14127849  0.39834498  1
  S  S59  1  0.53604145  0.85872151  0.60165502  1
  S  S60  1  0.29991818  0.69199377  0.96929156  1
  S  S61  1  0.79991818  0.30800623  0.03070844  1
  S  S62  1  0.25372996  0.16746115  0.23660465  1
  S  S63  1  0.75372996  0.83253885  0.76339535  1
  S  S64  1  0.17505216  0.41698800  0.47634594  1
  S  S65  1  0.67505216  0.58301200  0.52365406  1
  S  S66  1  0.77906591  0.30088928  0.52210264  1
  S  S67  1  0.27906591  0.69911072  0.47789736  1
  S  S68  1  0.12366027  0.88418497  0.21575023  1
  S  S69  1  0.62366027  0.11581503  0.78424977  1
  S  S70  1  0.75334870  0.89861260  0.26278423  1
  S  S71  1  0.25334870  0.10138740  0.73721577  1
  S  S72  1  0.12775202  0.61690375  0.12093921  1
  S  S73  1  0.62775202  0.38309625  0.87906079  1
  S  S74  1  0.19837241  0.41169933  0.97934104  1
  S  S75  1  0.69837241  0.58830067  0.02065896  1
  S  S76  1  0.10420303  0.61021279  0.62499739  1
  S  S77  1  0.60420303  0.38978721  0.37500261  1
  S  S78  1  0.92015398  0.28959514  0.76373414  1
  S  S79  1  0.42015398  0.71040486  0.23626586  1
  S  S80  1  0.38560736  0.67340662  0.74285018  1
  S  S81  1  0.88560736  0.32659338  0.25714982  1
