# generated using pymatgen
data_Ag2PbI4
_symmetry_space_group_name_H-M   'P 1'
_cell_length_a   6.37581662
_cell_length_b   7.73035516
_cell_length_c   6.37581662
_cell_angle_alpha   114.35495040
_cell_angle_beta   90.00000000
_cell_angle_gamma   65.64504960
_symmetry_Int_Tables_number   1
_chemical_formula_structural   Ag2PbI4
_chemical_formula_sum   'Ag2 Pb1 I4'
_cell_volume   255.27064738
_cell_formula_units_Z   1
loop_
 _symmetry_equiv_pos_site_id
 _symmetry_equiv_pos_as_xyz
  1  'x, y, z'
loop_
 _atom_site_type_symbol
 _atom_site_label
 _atom_site_symmetry_multiplicity
 _atom_site_fract_x
 _atom_site_fract_y
 _atom_site_fract_z
 _atom_site_occupancy
  Ag  Ag0  1  -0.00000000  0.00000000  0.50000000  1
  Ag  Ag1  1  0.50000000  0.00000000  0.00000000  1
  Pb  Pb2  1  0.75000000  0.50000000  0.25000000  1
  I  I3  1  0.75000000  0.50000000  0.75000000  1
  I  I4  1  0.49466418  0.01067163  0.50533582  1
  I  I5  1  0.25000000  0.50000000  0.25000000  1
  I  I6  1  0.00533582  0.98932837  0.99466418  1
