# generated using pymatgen
data_Na4NiP2O7F2
_symmetry_space_group_name_H-M   'P 1'
_cell_length_a   7.16549329
_cell_length_b   7.86325994
_cell_length_c   9.25145891
_cell_angle_alpha   115.14902435
_cell_angle_beta   112.78429813
_cell_angle_gamma   90.00000000
_symmetry_Int_Tables_number   1
_chemical_formula_structural   Na4NiP2O7F2
_chemical_formula_sum   'Na8 Ni2 P4 O14 F4'
_cell_volume   426.49086048
_cell_formula_units_Z   2
loop_
 _symmetry_equiv_pos_site_id
 _symmetry_equiv_pos_as_xyz
  1  'x, y, z'
loop_
 _atom_site_type_symbol
 _atom_site_label
 _atom_site_symmetry_multiplicity
 _atom_site_fract_x
 _atom_site_fract_y
 _atom_site_fract_z
 _atom_site_occupancy
  Na  Na0  1  0.26647699  0.76647699  0.53295398  1
  Na  Na1  1  0.76647699  0.76647699  0.53295398  1
  Na  Na2  1  0.73352301  0.23352301  0.46704602  1
  Na  Na3  1  0.23352301  0.23352301  0.46704602  1
  Na  Na4  1  0.63868349  0.59037850  0.77736699  1
  Na  Na5  1  0.13868349  0.18698849  0.77736699  1
  Na  Na6  1  0.36131651  0.40962150  0.22263301  1
  Na  Na7  1  0.86131651  0.81301151  0.22263301  1
  Ni  Ni8  1  -0.00000000  -0.00000000  -0.00000000  1
  Ni  Ni9  1  0.50000000  -0.00000000  0.00000000  1
  P  P10  1  0.34713172  0.81705013  0.19426344  1
  P  P11  1  0.84713172  0.37721332  0.19426344  1
  P  P12  1  0.65286828  0.18294987  0.80573656  1
  P  P13  1  0.15286828  0.62278668  0.80573656  1
  O  O14  1  0.17135179  0.92868700  0.20004215  1
  O  O15  1  0.02869036  0.27135516  0.20004215  1
  O  O16  1  0.67135179  0.27135516  0.20004215  1
  O  O17  1  0.52869036  0.92868700  0.20004215  1
  O  O18  1  0.82864821  0.07131300  0.79995785  1
  O  O19  1  0.97130964  0.72864484  0.79995785  1
  O  O20  1  0.32864821  0.72864484  0.79995785  1
  O  O21  1  0.47130964  0.07131300  0.79995785  1
  O  O22  1  0.08557573  0.41262059  0.67115146  1
  O  O23  1  0.58557573  0.25853087  0.67115146  1
  O  O24  1  0.91442427  0.58737941  0.32884854  1
  O  O25  1  0.41442427  0.74146913  0.32884854  1
  O  O26  1  0.25000000  0.62221160  0.00000000  1
  O  O27  1  0.75000000  0.37778840  1.00000000  1
  F  F28  1  0.25000000  0.11594070  1.00000000  1
  F  F29  1  0.75000000  0.88405930  0.00000000  1
  F  F30  1  0.50000000  0.50000000  0.50000000  1
  F  F31  1  -0.00000000  -0.00000000  0.50000000  1
