# generated using pymatgen
data_Na2SrMnV2O8
_symmetry_space_group_name_H-M   'P 1'
_cell_length_a   5.64822054
_cell_length_b   9.79197746
_cell_length_c   14.00242387
_cell_angle_alpha   90.05843525
_cell_angle_beta   90.00000000
_cell_angle_gamma   90.00000000
_symmetry_Int_Tables_number   1
_chemical_formula_structural   Na2SrMnV2O8
_chemical_formula_sum   'Na8 Sr4 Mn4 V8 O32'
_cell_volume   774.43512967
_cell_formula_units_Z   4
loop_
 _symmetry_equiv_pos_site_id
 _symmetry_equiv_pos_as_xyz
  1  'x, y, z'
loop_
 _atom_site_type_symbol
 _atom_site_label
 _atom_site_symmetry_multiplicity
 _atom_site_fract_x
 _atom_site_fract_y
 _atom_site_fract_z
 _atom_site_occupancy
  Na  Na0  1  0.52292628  0.18103089  0.91551245  1
  Na  Na1  1  0.02292628  0.31896911  0.08448755  1
  Na  Na2  1  0.47707372  0.81896911  0.08448755  1
  Na  Na3  1  0.97707372  0.68103089  0.91551245  1
  Na  Na4  1  0.48250212  0.84974191  0.58555578  1
  Na  Na5  1  0.98250212  0.65025809  0.41444422  1
  Na  Na6  1  0.51749788  0.15025809  0.41444422  1
  Na  Na7  1  0.01749788  0.34974191  0.58555578  1
  Sr  Sr8  1  0.43892156  0.53904458  0.75032212  1
  Sr  Sr9  1  0.93892156  0.96095542  0.24967788  1
  Sr  Sr10  1  0.56107844  0.46095542  0.24967788  1
  Sr  Sr11  1  0.06107844  0.03904458  0.75032212  1
  Mn  Mn12  1  0.50000000  0.50000000  0.50000000  1
  Mn  Mn13  1  0.00000000  -0.00000000  0.50000000  1
  Mn  Mn14  1  0.50000000  0.50000000  0.00000000  1
  Mn  Mn15  1  0.00000000  -0.00000000  0.00000000  1
  V  V16  1  0.53280563  0.18283604  0.63718869  1
  V  V17  1  0.03280563  0.31716396  0.36281131  1
  V  V18  1  0.46719437  0.81716396  0.36281131  1
  V  V19  1  0.96719437  0.68283604  0.63718869  1
  V  V20  1  0.51993872  0.85118892  0.86317349  1
  V  V21  1  0.01993872  0.64881108  0.13682651  1
  V  V22  1  0.48006128  0.14881108  0.13682651  1
  V  V23  1  0.98006128  0.35118892  0.86317349  1
  O  O24  1  0.50267874  0.35977508  0.61907524  1
  O  O25  1  0.00267874  0.14022492  0.38092476  1
  O  O26  1  0.49732126  0.64022492  0.38092476  1
  O  O27  1  0.99732126  0.85977508  0.61907524  1
  O  O28  1  0.31231109  0.09244287  0.57535262  1
  O  O29  1  0.81231109  0.40755713  0.42464738  1
  O  O30  1  0.68768891  0.90755713  0.42464738  1
  O  O31  1  0.18768891  0.59244287  0.57535262  1
  O  O32  1  0.80776623  0.91787281  0.87678663  1
  O  O33  1  0.30776623  0.58212719  0.12321337  1
  O  O34  1  0.19223377  0.08212719  0.12321337  1
  O  O35  1  0.69223377  0.41787281  0.87678663  1
  O  O36  1  0.30888266  0.96111604  0.91359894  1
  O  O37  1  0.80888266  0.53888396  0.08640106  1
  O  O38  1  0.69111734  0.03888396  0.08640106  1
  O  O39  1  0.19111734  0.46111604  0.91359894  1
  O  O40  1  0.51246863  0.69581843  0.92537721  1
  O  O41  1  0.01246863  0.80418157  0.07462279  1
  O  O42  1  0.48753137  0.30418157  0.07462279  1
  O  O43  1  0.98753137  0.19581843  0.92537721  1
  O  O44  1  0.80719676  0.13166121  0.59164092  1
  O  O45  1  0.30719676  0.36833879  0.40835908  1
  O  O46  1  0.19280324  0.86833879  0.40835908  1
  O  O47  1  0.69280324  0.63166121  0.59164092  1
  O  O48  1  0.51470042  0.13756664  0.75496146  1
  O  O49  1  0.01470042  0.36243336  0.24503854  1
  O  O50  1  0.48529958  0.86243336  0.24503854  1
  O  O51  1  0.98529958  0.63756664  0.75496146  1
  O  O52  1  0.44451888  0.81544765  0.74719170  1
  O  O53  1  0.94451888  0.68455235  0.25280830  1
  O  O54  1  0.55548112  0.18455235  0.25280830  1
  O  O55  1  0.05548112  0.31544765  0.74719170  1
