# generated using pymatgen
data_GdB(SO4)3
_symmetry_space_group_name_H-M   'P 1'
_cell_length_a   9.01078573
_cell_length_b   9.01078573
_cell_length_c   11.17113106
_cell_angle_alpha   87.43737657
_cell_angle_beta   87.43737657
_cell_angle_gamma   80.13975903
_symmetry_Int_Tables_number   1
_chemical_formula_structural   GdB(SO4)3
_chemical_formula_sum   'Gd4 B4 S12 O48'
_cell_volume   892.10682849
_cell_formula_units_Z   4
loop_
 _symmetry_equiv_pos_site_id
 _symmetry_equiv_pos_as_xyz
  1  'x, y, z'
loop_
 _atom_site_type_symbol
 _atom_site_label
 _atom_site_symmetry_multiplicity
 _atom_site_fract_x
 _atom_site_fract_y
 _atom_site_fract_z
 _atom_site_occupancy
  Gd  Gd0  1  0.26348104  0.36276270  0.15454947  1
  Gd  Gd1  1  0.63723730  0.73651896  0.34545053  1
  Gd  Gd2  1  0.73651896  0.63723730  0.84545053  1
  Gd  Gd3  1  0.36276270  0.26348104  0.65454947  1
  B  B4  1  0.16914098  0.82896439  0.97249012  1
  B  B5  1  0.17103561  0.83085902  0.52750988  1
  B  B6  1  0.83085902  0.17103561  0.02750988  1
  B  B7  1  0.82896439  0.16914098  0.47249012  1
  S  S8  1  0.56341235  0.15887208  0.36198935  1
  S  S9  1  0.84112792  0.43658765  0.13801065  1
  S  S10  1  0.43658765  0.84112792  0.63801065  1
  S  S11  1  0.15887208  0.56341235  0.86198935  1
  S  S12  1  0.13979332  0.11639079  0.42373934  1
  S  S13  1  0.88360921  0.86020668  0.07626066  1
  S  S14  1  0.86020668  0.88360921  0.57626066  1
  S  S15  1  0.11639079  0.13979332  0.92373934  1
  S  S16  1  0.42832989  0.72563437  0.08042372  1
  S  S17  1  0.27436563  0.57167011  0.41957628  1
  S  S18  1  0.57167011  0.27436563  0.91957628  1
  S  S19  1  0.72563437  0.42832989  0.58042372  1
  O  O20  1  0.47773223  0.16292451  0.47705839  1
  O  O21  1  0.83707549  0.52226777  0.02294161  1
  O  O22  1  0.52226777  0.83707549  0.52294161  1
  O  O23  1  0.16292451  0.47773223  0.97705839  1
  O  O24  1  0.60185119  0.00555573  0.31820060  1
  O  O25  1  0.99444427  0.39814881  0.18179940  1
  O  O26  1  0.39814881  0.99444427  0.68179940  1
  O  O27  1  0.00555573  0.60185119  0.81820060  1
  O  O28  1  0.48973695  0.26643348  0.27254762  1
  O  O29  1  0.73356652  0.51026305  0.22745238  1
  O  O30  1  0.51026305  0.73356652  0.72745238  1
  O  O31  1  0.26643348  0.48973695  0.77254762  1
  O  O32  1  0.71473330  0.21400180  0.38307665  1
  O  O33  1  0.78599820  0.28526670  0.11692335  1
  O  O34  1  0.28526670  0.78599820  0.61692335  1
  O  O35  1  0.21400180  0.71473330  0.88307665  1
  O  O36  1  0.20327987  0.16796224  0.31211736  1
  O  O37  1  0.83203776  0.79672013  0.18788264  1
  O  O38  1  0.79672013  0.83203776  0.68788264  1
  O  O39  1  0.16796224  0.20327987  0.81211736  1
  O  O40  1  0.15816154  0.19631622  0.53088600  1
  O  O41  1  0.80368378  0.84183846  0.96911400  1
  O  O42  1  0.84183846  0.80368378  0.46911400  1
  O  O43  1  0.19631622  0.15816154  0.03088600  1
  O  O44  1  0.21105178  0.94955759  0.43936442  1
  O  O45  1  0.05044241  0.78894822  0.06063558  1
  O  O46  1  0.78894822  0.05044241  0.56063558  1
  O  O47  1  0.94955759  0.21105178  0.93936442  1
  O  O48  1  0.97231002  0.11288941  0.40465166  1
  O  O49  1  0.88711059  0.02768998  0.09534834  1
  O  O50  1  0.02768998  0.88711059  0.59534834  1
  O  O51  1  0.11288941  0.97231002  0.90465166  1
  O  O52  1  0.29719603  0.85103122  0.04108493  1
  O  O53  1  0.14896878  0.70280397  0.45891507  1
  O  O54  1  0.70280397  0.14896878  0.95891507  1
  O  O55  1  0.85103122  0.29719603  0.54108493  1
  O  O56  1  0.49500964  0.79549565  0.17610102  1
  O  O57  1  0.20450435  0.50499036  0.32389898  1
  O  O58  1  0.50499036  0.20450435  0.82389898  1
  O  O59  1  0.79549565  0.49500964  0.67610102  1
  O  O60  1  0.36595199  0.59222944  0.12078025  1
  O  O61  1  0.40777056  0.63404801  0.37921975  1
  O  O62  1  0.63404801  0.40777056  0.87921975  1
  O  O63  1  0.59222944  0.36595199  0.62078025  1
  O  O64  1  0.53305202  0.69928915  0.97690581  1
  O  O65  1  0.30071085  0.46694798  0.52309419  1
  O  O66  1  0.46694798  0.30071085  0.02309419  1
  O  O67  1  0.69928915  0.53305202  0.47690581  1
