# generated using pymatgen
data_SrSn(HO)6
_symmetry_space_group_name_H-M   'P 1'
_cell_length_a   6.11264475
_cell_length_b   9.71036204
_cell_length_c   10.28613818
_cell_angle_alpha   112.77347734
_cell_angle_beta   90.00000000
_cell_angle_gamma   90.00000000
_symmetry_Int_Tables_number   1
_chemical_formula_structural   SrSn(HO)6
_chemical_formula_sum   'Sr4 Sn4 H24 O24'
_cell_volume   562.94743229
_cell_formula_units_Z   4
loop_
 _symmetry_equiv_pos_site_id
 _symmetry_equiv_pos_as_xyz
  1  'x, y, z'
loop_
 _atom_site_type_symbol
 _atom_site_label
 _atom_site_symmetry_multiplicity
 _atom_site_fract_x
 _atom_site_fract_y
 _atom_site_fract_z
 _atom_site_occupancy
  Sr  Sr0  1  0.49612455  0.56198720  0.21838109  1
  Sr  Sr1  1  0.00387545  0.06198720  0.71838109  1
  Sr  Sr2  1  0.50387545  0.43801280  0.78161891  1
  Sr  Sr3  1  0.99612455  0.93801280  0.28161891  1
  Sn  Sn4  1  0.50000000  0.00000000  0.00000000  1
  Sn  Sn5  1  -0.00000000  0.50000000  0.50000000  1
  Sn  Sn6  1  -0.00000000  0.50000000  0.00000000  1
  Sn  Sn7  1  0.50000000  0.00000000  0.50000000  1
  H  H8  1  0.27979398  0.71145071  0.01833898  1
  H  H9  1  0.22020602  0.21145071  0.51833898  1
  H  H10  1  0.72020602  0.28854929  0.98166102  1
  H  H11  1  0.77979398  0.78854929  0.48166102  1
  H  H12  1  0.99212940  0.63752819  0.27289023  1
  H  H13  1  0.50787060  0.13752819  0.77289023  1
  H  H14  1  0.00787060  0.36247181  0.72710977  1
  H  H15  1  0.49212940  0.86247181  0.22710977  1
  H  H16  1  0.90602065  0.63911210  0.83247536  1
  H  H17  1  0.59397935  0.13911210  0.33247536  1
  H  H18  1  0.09397935  0.36088790  0.16752464  1
  H  H19  1  0.40602065  0.86088790  0.66752464  1
  H  H20  1  0.27380035  0.20945763  0.97222760  1
  H  H21  1  0.22619965  0.70945763  0.47222760  1
  H  H22  1  0.72619965  0.79054237  0.02777240  1
  H  H23  1  0.77380035  0.29054237  0.52777240  1
  H  H24  1  0.34501044  0.21983740  0.21572643  1
  H  H25  1  0.15498956  0.71983740  0.71572643  1
  H  H26  1  0.65498956  0.78016260  0.78427357  1
  H  H27  1  0.84501044  0.28016260  0.28427357  1
  H  H28  1  0.89160114  0.10913339  0.02227038  1
  H  H29  1  0.60839886  0.60913339  0.52227038  1
  H  H30  1  0.10839886  0.89086661  0.97772962  1
  H  H31  1  0.39160114  0.39086661  0.47772962  1
  O  O32  1  0.49559790  0.18392182  0.19540717  1
  O  O33  1  0.00440210  0.68392182  0.69540717  1
  O  O34  1  0.50440210  0.81607818  0.80459283  1
  O  O35  1  0.99559790  0.31607818  0.30459283  1
  O  O36  1  0.82234368  0.62206179  0.90869276  1
  O  O37  1  0.67765632  0.12206179  0.40869276  1
  O  O38  1  0.17765632  0.37793821  0.09130724  1
  O  O39  1  0.32234368  0.87793821  0.59130724  1
  O  O40  1  0.31649705  0.10971578  0.89929577  1
  O  O41  1  0.18350295  0.60971578  0.39929577  1
  O  O42  1  0.68350295  0.89028422  0.10070423  1
  O  O43  1  0.81649705  0.39028422  0.60070423  1
  O  O44  1  0.30053223  0.60518169  0.00336910  1
  O  O45  1  0.19946777  0.10518169  0.50336910  1
  O  O46  1  0.69946777  0.39481831  0.99663090  1
  O  O47  1  0.80053223  0.89481831  0.49663090  1
  O  O48  1  0.90735888  0.65715854  0.19900175  1
  O  O49  1  0.59264112  0.15715854  0.69900175  1
  O  O50  1  0.09264112  0.34284146  0.80099825  1
  O  O51  1  0.40735888  0.84284146  0.30099825  1
  O  O52  1  0.78772764  0.08808676  0.94531544  1
  O  O53  1  0.71227236  0.58808676  0.44531544  1
  O  O54  1  0.21227236  0.91191324  0.05468456  1
  O  O55  1  0.28772764  0.41191324  0.55468456  1
