# generated using pymatgen
data_CeTl(PS3)2
_symmetry_space_group_name_H-M   'P 1'
_cell_length_a   7.54658961
_cell_length_b   11.47165071
_cell_length_c   12.18866405
_cell_angle_alpha   109.46584592
_cell_angle_beta   90.00000000
_cell_angle_gamma   90.00000000
_symmetry_Int_Tables_number   1
_chemical_formula_structural   CeTl(PS3)2
_chemical_formula_sum   'Ce4 Tl4 P8 S24'
_cell_volume   994.88044718
_cell_formula_units_Z   4
loop_
 _symmetry_equiv_pos_site_id
 _symmetry_equiv_pos_as_xyz
  1  'x, y, z'
loop_
 _atom_site_type_symbol
 _atom_site_label
 _atom_site_symmetry_multiplicity
 _atom_site_fract_x
 _atom_site_fract_y
 _atom_site_fract_z
 _atom_site_occupancy
  Ce  Ce0  1  0.10651045  0.59776461  0.35231227  1
  Ce  Ce1  1  0.60651045  0.90223539  0.64768773  1
  Ce  Ce2  1  0.89348955  0.40223539  0.64768773  1
  Ce  Ce3  1  0.39348955  0.09776461  0.35231227  1
  Tl  Tl4  1  0.90901957  0.87435778  0.12666029  1
  Tl  Tl5  1  0.40901957  0.62564222  0.87333971  1
  Tl  Tl6  1  0.09098043  0.12564222  0.87333971  1
  Tl  Tl7  1  0.59098043  0.37435778  0.12666029  1
  P  P8  1  0.37825791  0.77125838  0.21216736  1
  P  P9  1  0.87825791  0.72874162  0.78783264  1
  P  P10  1  0.62174209  0.22874162  0.78783264  1
  P  P11  1  0.12174209  0.27125838  0.21216736  1
  P  P12  1  0.10044283  0.74492470  0.67206736  1
  P  P13  1  0.60044283  0.75507530  0.32793264  1
  P  P14  1  0.89955717  0.25507530  0.32793264  1
  P  P15  1  0.39955717  0.24492470  0.67206736  1
  S  S16  1  0.78708748  0.64486850  0.22436363  1
  S  S17  1  0.28708748  0.85513150  0.77563637  1
  S  S18  1  0.21291252  0.35513150  0.77563637  1
  S  S19  1  0.71291252  0.14486850  0.22436363  1
  S  S20  1  0.47298457  0.87249648  0.11877708  1
  S  S21  1  0.97298457  0.62750352  0.88122292  1
  S  S22  1  0.52701543  0.12750352  0.88122292  1
  S  S23  1  0.02701543  0.37249648  0.11877708  1
  S  S24  1  0.48240507  0.68608312  0.44498747  1
  S  S25  1  0.98240507  0.81391688  0.55501253  1
  S  S26  1  0.51759493  0.31391688  0.55501253  1
  S  S27  1  0.01759493  0.18608312  0.44498747  1
  S  S28  1  0.19239754  0.86626426  0.32816977  1
  S  S29  1  0.69239754  0.63373574  0.67183023  1
  S  S30  1  0.80760246  0.13373574  0.67183023  1
  S  S31  1  0.30760246  0.36626426  0.32816977  1
  S  S32  1  0.18538240  0.56807049  0.58973710  1
  S  S33  1  0.68538240  0.93192951  0.41026290  1
  S  S34  1  0.81461760  0.43192951  0.41026290  1
  S  S35  1  0.31461760  0.06807049  0.58973710  1
  S  S36  1  0.28905288  0.59659194  0.13297577  1
  S  S37  1  0.78905288  0.90340806  0.86702423  1
  S  S38  1  0.71094712  0.40340806  0.86702423  1
  S  S39  1  0.21094712  0.09659194  0.13297577  1
