# generated using pymatgen
data_K2BiI4ClO12
_symmetry_space_group_name_H-M   'P 1'
_cell_length_a   10.59348066
_cell_length_b   11.53167825
_cell_length_c   12.46610169
_cell_angle_alpha   90.00000000
_cell_angle_beta   90.00000000
_cell_angle_gamma   109.54665002
_symmetry_Int_Tables_number   1
_chemical_formula_structural   K2BiI4ClO12
_chemical_formula_sum   'K8 Bi4 I16 Cl4 O48'
_cell_volume   1435.10286917
_cell_formula_units_Z   4
loop_
 _symmetry_equiv_pos_site_id
 _symmetry_equiv_pos_as_xyz
  1  'x, y, z'
loop_
 _atom_site_type_symbol
 _atom_site_label
 _atom_site_symmetry_multiplicity
 _atom_site_fract_x
 _atom_site_fract_y
 _atom_site_fract_z
 _atom_site_occupancy
  K  K0  1  0.91073441  0.89227208  0.36773511  1
  K  K1  1  0.58926559  0.10772792  0.86773511  1
  K  K2  1  0.08926559  0.10772792  0.63226489  1
  K  K3  1  0.41073441  0.89227208  0.13226489  1
  K  K4  1  0.77212190  0.51220188  0.34896642  1
  K  K5  1  0.72787810  0.48779812  0.84896642  1
  K  K6  1  0.22787810  0.48779812  0.65103358  1
  K  K7  1  0.27212190  0.51220188  0.15103358  1
  Bi  Bi8  1  0.64525957  0.10843218  0.39507221  1
  Bi  Bi9  1  0.85474043  0.89156782  0.89507221  1
  Bi  Bi10  1  0.35474043  0.89156782  0.60492779  1
  Bi  Bi11  1  0.14525957  0.10843218  0.10492779  1
  I  I12  1  0.55456300  0.27098789  0.14858535  1
  I  I13  1  0.94543700  0.72901211  0.64858535  1
  I  I14  1  0.44543700  0.72901211  0.85141465  1
  I  I15  1  0.05456300  0.27098789  0.35141465  1
  I  I16  1  0.28994616  0.06951807  0.36280150  1
  I  I17  1  0.21005384  0.93048193  0.86280150  1
  I  I18  1  0.71005384  0.93048193  0.63719850  1
  I  I19  1  0.78994616  0.06951807  0.13719850  1
  I  I20  1  0.99858389  0.69654829  0.08265778  1
  I  I21  1  0.50141611  0.30345171  0.58265778  1
  I  I22  1  0.00141611  0.30345171  0.91734222  1
  I  I23  1  0.49858389  0.69654829  0.41734222  1
  I  I24  1  0.85490659  0.30725598  0.61895376  1
  I  I25  1  0.64509341  0.69274402  0.11895376  1
  I  I26  1  0.14509341  0.69274402  0.38104624  1
  I  I27  1  0.35490659  0.30725598  0.88104624  1
  Cl  Cl28  1  0.85995349  0.40646974  0.11187476  1
  Cl  Cl29  1  0.64004651  0.59353026  0.61187476  1
  Cl  Cl30  1  0.14004651  0.59353026  0.88812524  1
  Cl  Cl31  1  0.35995349  0.40646974  0.38812524  1
  O  O32  1  0.16109105  0.71389526  0.14044979  1
  O  O33  1  0.33890895  0.28610474  0.64044979  1
  O  O34  1  0.83890895  0.28610474  0.85955021  1
  O  O35  1  0.66109105  0.71389526  0.35955021  1
  O  O36  1  0.67610484  0.99052479  0.24842325  1
  O  O37  1  0.82389516  0.00947521  0.74842325  1
  O  O38  1  0.32389516  0.00947521  0.75157675  1
  O  O39  1  0.17610484  0.99052479  0.25157675  1
  O  O40  1  0.90404850  0.46587907  0.66011093  1
  O  O41  1  0.59595150  0.53412093  0.16011093  1
  O  O42  1  0.09595150  0.53412093  0.33988907  1
  O  O43  1  0.40404850  0.46587907  0.83988907  1
  O  O44  1  0.37368067  0.19635640  0.17783575  1
  O  O45  1  0.12631933  0.80364360  0.67783575  1
  O  O46  1  0.62631933  0.80364360  0.82216425  1
  O  O47  1  0.87368067  0.19635640  0.32216425  1
  O  O48  1  0.99069636  0.69009028  0.45099435  1
  O  O49  1  0.50930364  0.30990972  0.95099435  1
  O  O50  1  0.00930364  0.30990972  0.54900565  1
  O  O51  1  0.49069636  0.69009028  0.04900565  1
  O  O52  1  0.61202957  0.26132828  0.29001559  1
  O  O53  1  0.88797043  0.73867172  0.79001559  1
  O  O54  1  0.38797043  0.73867172  0.70998441  1
  O  O55  1  0.11202957  0.26132828  0.20998441  1
  O  O56  1  0.03734177  0.85502748  0.01953012  1
  O  O57  1  0.46265823  0.14497252  0.51953012  1
  O  O58  1  0.96265823  0.14497252  0.98046988  1
  O  O59  1  0.53734177  0.85502748  0.48046988  1
  O  O60  1  0.20469113  0.95649434  0.46621661  1
  O  O61  1  0.29530887  0.04350566  0.96621661  1
  O  O62  1  0.79530887  0.04350566  0.53378339  1
  O  O63  1  0.70469113  0.95649434  0.03378339  1
  O  O64  1  0.90974928  0.71410613  0.20398117  1
  O  O65  1  0.59025072  0.28589387  0.70398117  1
  O  O66  1  0.09025072  0.28589387  0.79601883  1
  O  O67  1  0.40974928  0.71410613  0.29601883  1
  O  O68  1  0.74879334  0.30591289  0.49879540  1
  O  O69  1  0.75120666  0.69408711  0.99879540  1
  O  O70  1  0.25120666  0.69408711  0.50120460  1
  O  O71  1  0.24879334  0.30591289  0.00120460  1
  O  O72  1  0.58734567  0.13845646  0.09184102  1
  O  O73  1  0.91265433  0.86154354  0.59184102  1
  O  O74  1  0.41265433  0.86154354  0.90815898  1
  O  O75  1  0.08734567  0.13845646  0.40815898  1
  O  O76  1  0.42224589  0.00223475  0.33299557  1
  O  O77  1  0.07775411  0.99776525  0.83299557  1
  O  O78  1  0.57775411  0.99776525  0.66700443  1
  O  O79  1  0.92224589  0.00223475  0.16700443  1
