# generated using pymatgen
data_NiH12(NO6)2
_symmetry_space_group_name_H-M   'P 1'
_cell_length_a   5.88779417
_cell_length_b   7.68001445
_cell_length_c   11.86805772
_cell_angle_alpha   105.48481932
_cell_angle_beta   98.56207243
_cell_angle_gamma   101.68040195
_symmetry_Int_Tables_number   1
_chemical_formula_structural   NiH12(NO6)2
_chemical_formula_sum   'Ni2 H24 N4 O24'
_cell_volume   494.61712179
_cell_formula_units_Z   2
loop_
 _symmetry_equiv_pos_site_id
 _symmetry_equiv_pos_as_xyz
  1  'x, y, z'
loop_
 _atom_site_type_symbol
 _atom_site_label
 _atom_site_symmetry_multiplicity
 _atom_site_fract_x
 _atom_site_fract_y
 _atom_site_fract_z
 _atom_site_occupancy
  Ni  Ni0  1  0.32417105  0.85470666  0.76843125  1
  Ni  Ni1  1  0.67582895  0.14529334  0.23156875  1
  H  H2  1  0.29964615  0.51464932  0.62610799  1
  H  H3  1  0.70035385  0.48535068  0.37389201  1
  H  H4  1  0.34217339  0.65920759  0.55531809  1
  H  H5  1  0.65782661  0.34079241  0.44468191  1
  H  H6  1  0.79156621  0.89920006  0.81322736  1
  H  H7  1  0.20843379  0.10079994  0.18677264  1
  H  H8  1  0.73628258  0.09537034  0.86580175  1
  H  H9  1  0.26371742  0.90462966  0.13419825  1
  H  H10  1  0.28143994  0.06619955  0.97862535  1
  H  H11  1  0.71856006  0.93380045  0.02137465  1
  H  H12  1  0.33856564  0.19079550  0.89343225  1
  H  H13  1  0.66143436  0.80920450  0.10656775  1
  H  H14  1  0.52923662  0.05524985  0.64117323  1
  H  H15  1  0.47076338  0.94475015  0.35882677  1
  H  H16  1  0.27985946  0.10605964  0.63991876  1
  H  H17  1  0.72014054  0.89394036  0.36008124  1
  H  H18  1  0.89096320  0.62384569  0.66520065  1
  H  H19  1  0.10903680  0.37615431  0.33479935  1
  H  H20  1  0.91105755  0.79724797  0.61701936  1
  H  H21  1  0.08894245  0.20275203  0.38298064  1
  H  H22  1  0.35083984  0.58159580  0.86937814  1
  H  H23  1  0.64916016  0.41840420  0.13062186  1
  H  H24  1  0.10475990  0.64114817  0.88017299  1
  H  H25  1  0.89524010  0.35885183  0.11982701  1
  N  N26  1  0.70452383  0.44276517  0.87274878  1
  N  N27  1  0.29547617  0.55723483  0.12725122  1
  N  N28  1  0.91632176  0.23918141  0.60778624  1
  N  N29  1  0.08367824  0.76081859  0.39221376  1
  O  O30  1  0.39132699  0.64209184  0.63390453  1
  O  O31  1  0.60867301  0.35790816  0.36609547  1
  O  O32  1  0.68331161  0.95923234  0.85615582  1
  O  O33  1  0.31668839  0.04076766  0.14384418  1
  O  O34  1  0.25100680  0.06668840  0.89474177  1
  O  O35  1  0.74899320  0.93331160  0.10525823  1
  O  O36  1  0.36441671  0.01038740  0.64987306  1
  O  O37  1  0.63558329  0.98961260  0.35012694  1
  O  O38  1  0.95438851  0.76054596  0.68856342  1
  O  O39  1  0.04561149  0.23945404  0.31143658  1
  O  O40  1  0.27142196  0.68501678  0.87315320  1
  O  O41  1  0.72857804  0.31498322  0.12684680  1
  O  O42  1  0.79885647  0.60721846  0.87579934  1
  O  O43  1  0.20114353  0.39278154  0.12420066  1
  O  O44  1  0.48021733  0.39529849  0.86687921  1
  O  O45  1  0.51978267  0.60470151  0.13312079  1
  O  O46  1  0.82898817  0.32767356  0.87511514  1
  O  O47  1  0.17101183  0.67232644  0.12488486  1
  O  O48  1  0.79296472  0.35526780  0.60018885  1
  O  O49  1  0.20703528  0.64473220  0.39981115  1
  O  O50  1  0.82822083  0.08846298  0.62547939  1
  O  O51  1  0.17177917  0.91153702  0.37452061  1
  O  O52  1  0.13217385  0.27494451  0.59642550  1
  O  O53  1  0.86782615  0.72505549  0.40357450  1
