# generated using pymatgen
data_Tl2P4Pd3O14
_symmetry_space_group_name_H-M   'P 1'
_cell_length_a   10.10994607
_cell_length_b   10.10994607
_cell_length_c   10.10994607
_cell_angle_alpha   90.55198683
_cell_angle_beta   119.59496913
_cell_angle_gamma   119.76875319
_symmetry_Int_Tables_number   1
_chemical_formula_structural   Tl2P4Pd3O14
_chemical_formula_sum   'Tl4 P8 Pd6 O28'
_cell_volume   734.16188617
_cell_formula_units_Z   2
loop_
 _symmetry_equiv_pos_site_id
 _symmetry_equiv_pos_as_xyz
  1  'x, y, z'
loop_
 _atom_site_type_symbol
 _atom_site_label
 _atom_site_symmetry_multiplicity
 _atom_site_fract_x
 _atom_site_fract_y
 _atom_site_fract_z
 _atom_site_occupancy
  Tl  Tl0  1  0.31359213  0.97613342  0.28972555  1
  Tl  Tl1  1  0.68640787  0.02386658  0.71027445  1
  Tl  Tl2  1  0.68640787  0.47613342  0.16254129  1
  Tl  Tl3  1  0.31359213  0.52386658  0.83745871  1
  P  P4  1  0.24429161  0.36951578  0.17424357  1
  P  P5  1  0.19527222  0.07004804  0.82575643  1
  P  P6  1  0.19527222  0.86951578  0.62522418  1
  P  P7  1  0.24429161  0.57004804  0.37477582  1
  P  P8  1  0.75570839  0.63048422  0.82575643  1
  P  P9  1  0.80472778  0.92995196  0.17424357  1
  P  P10  1  0.80472778  0.13048422  0.37477582  1
  P  P11  1  0.75570839  0.42995196  0.62522418  1
  Pd  Pd12  1  0.55941978  0.75000000  0.30941978  1
  Pd  Pd13  1  0.44058022  0.25000000  0.69058022  1
  Pd  Pd14  1  0.00000000  -0.00000000  0.00000000  1
  Pd  Pd15  1  0.00000000  0.50000000  0.50000000  1
  Pd  Pd16  1  0.00000000  0.50000000  0.00000000  1
  Pd  Pd17  1  0.50000000  -0.00000000  0.00000000  1
  O  O18  1  0.24708425  0.41700457  0.33007968  1
  O  O19  1  0.08692489  0.91700457  0.66992032  1
  O  O20  1  0.75291575  0.58299543  0.66992032  1
  O  O21  1  0.91307511  0.08299543  0.33007968  1
  O  O22  1  0.23987274  0.21586175  0.17110362  1
  O  O23  1  0.04475812  0.06876911  0.82889638  1
  O  O24  1  0.04475812  0.71586175  0.47598901  1
  O  O25  1  0.23987274  0.56876911  0.52401099  1
  O  O26  1  0.76012726  0.78413825  0.82889638  1
  O  O27  1  0.95524188  0.93123089  0.17110362  1
  O  O28  1  0.95524188  0.28413825  0.52401099  1
  O  O29  1  0.76012726  0.43123089  0.47598901  1
  O  O30  1  0.42959513  0.50899815  0.20476708  1
  O  O31  1  0.30423107  0.22482805  0.79523292  1
  O  O32  1  0.30423107  0.00899815  0.57940302  1
  O  O33  1  0.42959513  0.72482805  0.42059698  1
  O  O34  1  0.57040487  0.49100185  0.79523292  1
  O  O35  1  0.69576893  0.77517195  0.20476708  1
  O  O36  1  0.69576893  0.99100185  0.42059698  1
  O  O37  1  0.57040487  0.27517195  0.57940302  1
  O  O38  1  0.06793679  0.33862752  0.02125727  1
  O  O39  1  0.31737025  0.04667953  0.97874273  1
  O  O40  1  0.31737025  0.83862752  0.77069073  1
  O  O41  1  0.06793679  0.54667953  0.22930927  1
  O  O42  1  0.93206321  0.66137248  0.97874273  1
  O  O43  1  0.68262975  0.95332047  0.02125727  1
  O  O44  1  0.68262975  0.16137248  0.22930927  1
  O  O45  1  0.93206321  0.45332047  0.77069073  1
