# generated using pymatgen
data_SnIr2Se5
_symmetry_space_group_name_H-M   'P 1'
_cell_length_a   7.63832456
_cell_length_b   7.77366211
_cell_length_c   12.76520326
_cell_angle_alpha   101.95367604
_cell_angle_beta   90.00000000
_cell_angle_gamma   90.00000000
_symmetry_Int_Tables_number   1
_chemical_formula_structural   SnIr2Se5
_chemical_formula_sum   'Sn4 Ir8 Se20'
_cell_volume   741.53282827
_cell_formula_units_Z   4
loop_
 _symmetry_equiv_pos_site_id
 _symmetry_equiv_pos_as_xyz
  1  'x, y, z'
loop_
 _atom_site_type_symbol
 _atom_site_label
 _atom_site_symmetry_multiplicity
 _atom_site_fract_x
 _atom_site_fract_y
 _atom_site_fract_z
 _atom_site_occupancy
  Sn  Sn0  1  0.75000000  0.16674670  0.34214769  1
  Sn  Sn1  1  0.25000000  0.83325330  0.65785231  1
  Sn  Sn2  1  0.75000000  0.83433440  0.66087279  1
  Sn  Sn3  1  0.25000000  0.16566560  0.33912721  1
  Ir  Ir4  1  0.49991193  0.25403678  0.84877663  1
  Ir  Ir5  1  0.99991193  0.74596322  0.15122337  1
  Ir  Ir6  1  0.50008807  0.74596322  0.15122337  1
  Ir  Ir7  1  0.00008807  0.25403678  0.84877663  1
  Ir  Ir8  1  0.75000000  0.75017929  0.85195537  1
  Ir  Ir9  1  0.25000000  0.24982071  0.14804463  1
  Ir  Ir10  1  0.75000000  0.24958292  0.14950442  1
  Ir  Ir11  1  0.25000000  0.75041708  0.85049558  1
  Se  Se12  1  0.49986471  0.95533865  0.89407034  1
  Se  Se13  1  0.99986471  0.04466135  0.10592966  1
  Se  Se14  1  0.50013529  0.04466135  0.10592966  1
  Se  Se15  1  0.00013529  0.95533865  0.89407034  1
  Se  Se16  1  0.49987666  0.46086365  0.22009005  1
  Se  Se17  1  -0.00012334  0.53913635  0.77990995  1
  Se  Se18  1  0.50012334  0.53913635  0.77990995  1
  Se  Se19  1  0.00012334  0.46086365  0.22009005  1
  Se  Se20  1  0.75000000  0.66639538  0.02798312  1
  Se  Se21  1  0.25000000  0.33360462  0.97201688  1
  Se  Se22  1  0.75000000  0.33268831  0.97275885  1
  Se  Se23  1  0.25000000  0.66731169  0.02724115  1
  Se  Se24  1  0.75000000  0.18901950  0.71552656  1
  Se  Se25  1  0.25000000  0.81098050  0.28447344  1
  Se  Se26  1  0.75000000  0.81084137  0.28516688  1
  Se  Se27  1  0.25000000  0.18915863  0.71483312  1
  Se  Se28  1  0.49773171  0.24777336  0.47513766  1
  Se  Se29  1  0.99773171  0.75222664  0.52486234  1
  Se  Se30  1  0.50226829  0.75222664  0.52486234  1
  Se  Se31  1  0.00226829  0.24777336  0.47513766  1
