# generated using pymatgen
data_BaV2H2Se2O11
_symmetry_space_group_name_H-M   'P 1'
_cell_length_a   5.13864672
_cell_length_b   11.08386322
_cell_length_c   18.27086460
_cell_angle_alpha   91.36695629
_cell_angle_beta   90.00000000
_cell_angle_gamma   90.00000000
_symmetry_Int_Tables_number   1
_chemical_formula_structural   BaV2H2Se2O11
_chemical_formula_sum   'Ba4 V8 H8 Se8 O44'
_cell_volume   1040.34026260
_cell_formula_units_Z   4
loop_
 _symmetry_equiv_pos_site_id
 _symmetry_equiv_pos_as_xyz
  1  'x, y, z'
loop_
 _atom_site_type_symbol
 _atom_site_label
 _atom_site_symmetry_multiplicity
 _atom_site_fract_x
 _atom_site_fract_y
 _atom_site_fract_z
 _atom_site_occupancy
  Ba  Ba0  1  0.21413090  0.67312038  0.95546360  1
  Ba  Ba1  1  0.71413090  0.32687962  0.54453640  1
  Ba  Ba2  1  0.78586910  0.32687962  0.04453640  1
  Ba  Ba3  1  0.28586910  0.67312038  0.45546360  1
  V  V4  1  0.26712316  0.95601357  0.81332428  1
  V  V5  1  0.76712316  0.04398643  0.68667572  1
  V  V6  1  0.73287684  0.04398643  0.18667572  1
  V  V7  1  0.23287684  0.95601357  0.31332428  1
  V  V8  1  0.73557180  0.45233629  0.80832371  1
  V  V9  1  0.23557180  0.54766371  0.69167629  1
  V  V10  1  0.26442820  0.54766371  0.19167629  1
  V  V11  1  0.76442820  0.45233629  0.30832371  1
  H  H12  1  0.05318084  0.93413981  0.05622101  1
  H  H13  1  0.55318084  0.06586019  0.44377899  1
  H  H14  1  0.94681916  0.06586019  0.94377899  1
  H  H15  1  0.44681916  0.93413981  0.55622101  1
  H  H16  1  0.34724353  0.90413937  0.07093769  1
  H  H17  1  0.84724353  0.09586063  0.42906231  1
  H  H18  1  0.65275647  0.09586063  0.92906231  1
  H  H19  1  0.15275647  0.90413937  0.57093769  1
  Se  Se20  1  0.75634134  0.76851352  0.80765300  1
  Se  Se21  1  0.25634134  0.23148648  0.69234700  1
  Se  Se22  1  0.24365866  0.23148648  0.19234700  1
  Se  Se23  1  0.74365866  0.76851352  0.30765300  1
  Se  Se24  1  0.24517526  0.34255018  0.89123964  1
  Se  Se25  1  0.74517526  0.65744982  0.60876036  1
  Se  Se26  1  0.75482474  0.65744982  0.10876036  1
  Se  Se27  1  0.25482474  0.34255018  0.39123964  1
  O  O28  1  0.29849920  0.30809301  0.97946168  1
  O  O29  1  0.79849920  0.69190699  0.52053832  1
  O  O30  1  0.70150080  0.69190699  0.02053832  1
  O  O31  1  0.20150080  0.30809301  0.47946168  1
  O  O32  1  0.67306773  0.30896001  0.78858225  1
  O  O33  1  0.17306773  0.69103999  0.71141775  1
  O  O34  1  0.32693227  0.69103999  0.21141775  1
  O  O35  1  0.82693227  0.30896001  0.28858225  1
  O  O36  1  0.80839911  0.64216155  0.85599650  1
  O  O37  1  0.30839911  0.35783845  0.64400350  1
  O  O38  1  0.19160089  0.35783845  0.14400350  1
  O  O39  1  0.69160089  0.64216155  0.35599650  1
  O  O40  1  0.95405309  0.42437997  0.90333774  1
  O  O41  1  0.45405309  0.57562003  0.59666226  1
  O  O42  1  0.04594691  0.57562003  0.09666226  1
  O  O43  1  0.54594691  0.42437997  0.40333774  1
  O  O44  1  0.05452823  0.46838722  0.76037456  1
  O  O45  1  0.55452823  0.53161278  0.73962544  1
  O  O46  1  0.94547177  0.53161278  0.23962544  1
  O  O47  1  0.44547177  0.46838722  0.26037456  1
  O  O48  1  0.33011802  0.05864808  0.87659514  1
  O  O49  1  0.83011802  0.94135192  0.62340486  1
  O  O50  1  0.66988198  0.94135192  0.12340486  1
  O  O51  1  0.16988198  0.05864808  0.37659514  1
  O  O52  1  0.45716097  0.46880617  0.88289616  1
  O  O53  1  0.95716097  0.53119383  0.61710384  1
  O  O54  1  0.54283903  0.53119383  0.11710384  1
  O  O55  1  0.04283903  0.46880617  0.38289616  1
  O  O56  1  0.98255755  0.86101700  0.85577509  1
  O  O57  1  0.48255755  0.13898300  0.64422491  1
  O  O58  1  0.01744245  0.13898300  0.14422491  1
  O  O59  1  0.51744245  0.86101700  0.35577509  1
  O  O60  1  0.46423534  0.81656561  0.85040906  1
  O  O61  1  0.96423534  0.18343439  0.64959094  1
  O  O62  1  0.53576466  0.18343439  0.14959094  1
  O  O63  1  0.03576466  0.81656561  0.35040906  1
  O  O64  1  0.50675902  0.97140547  0.74330976  1
  O  O65  1  0.00675902  0.02859453  0.75669024  1
  O  O66  1  0.49324098  0.02859453  0.25669024  1
  O  O67  1  0.99324098  0.97140547  0.24330976  1
  O  O68  1  0.19781919  0.88293707  0.03969751  1
  O  O69  1  0.69781919  0.11706293  0.46030249  1
  O  O70  1  0.80218081  0.11706293  0.96030249  1
  O  O71  1  0.30218081  0.88293707  0.53969751  1
