# generated using pymatgen
data_Na3U6AlF30
_symmetry_space_group_name_H-M   'P 1'
_cell_length_a   9.87857663
_cell_length_b   9.87342195
_cell_length_c   13.03928494
_cell_angle_alpha   90.00000000
_cell_angle_beta   90.08788303
_cell_angle_gamma   119.98273412
_symmetry_Int_Tables_number   1
_chemical_formula_structural   Na3U6AlF30
_chemical_formula_sum   'Na6 U12 Al2 F60'
_cell_volume   1101.59341214
_cell_formula_units_Z   2
loop_
 _symmetry_equiv_pos_site_id
 _symmetry_equiv_pos_as_xyz
  1  'x, y, z'
loop_
 _atom_site_type_symbol
 _atom_site_label
 _atom_site_symmetry_multiplicity
 _atom_site_fract_x
 _atom_site_fract_y
 _atom_site_fract_z
 _atom_site_occupancy
  Na  Na0  1  0.33332326  0.66659996  0.66175786  1
  Na  Na1  1  0.33332326  0.66672330  0.16175786  1
  Na  Na2  1  0.66667674  0.33340004  0.33824214  1
  Na  Na3  1  0.66667674  0.33327670  0.83824214  1
  Na  Na4  1  -0.00000000  -0.00000000  0.50000000  1
  Na  Na5  1  -0.00000000  -0.00000000  0.00000000  1
  U  U6  1  0.92377329  0.32241948  0.60230203  1
  U  U7  1  0.67785378  0.60133747  0.60232001  1
  U  U8  1  0.39882872  0.07635717  0.60240700  1
  U  U9  1  0.92377329  0.60135381  0.10230203  1
  U  U10  1  0.39882872  0.32247155  0.10240700  1
  U  U11  1  0.67785378  0.07651631  0.10232001  1
  U  U12  1  0.07622671  0.67758052  0.39769797  1
  U  U13  1  0.32214622  0.39866253  0.39767999  1
  U  U14  1  0.60117128  0.92364283  0.39759300  1
  U  U15  1  0.07622671  0.39864619  0.89769797  1
  U  U16  1  0.60117128  0.67752845  0.89759300  1
  U  U17  1  0.32214622  0.92348369  0.89767999  1
  Al  Al18  1  1.00000000  0.00006598  0.75000000  1
  Al  Al19  1  0.00000000  -0.00006598  0.25000000  1
  F  F20  1  0.13128363  0.43290708  0.71491932  1
  F  F21  1  0.56706932  0.69845890  0.71490198  1
  F  F22  1  0.30151298  0.86855299  0.71492124  1
  F  F23  1  0.13128363  0.69837655  0.21491932  1
  F  F24  1  0.30151298  0.43295999  0.21492124  1
  F  F25  1  0.56706932  0.86861042  0.21490198  1
  F  F26  1  0.86871637  0.56709292  0.28508068  1
  F  F27  1  0.43293068  0.30154110  0.28509802  1
  F  F28  1  0.69848702  0.13144701  0.28507876  1
  F  F29  1  0.86871637  0.30162345  0.78508068  1
  F  F30  1  0.69848702  0.56704001  0.78507876  1
  F  F31  1  0.43293068  0.13138958  0.78509802  1
  F  F32  1  0.11314110  0.30489370  0.51704213  1
  F  F33  1  0.69518221  0.80833766  0.51706288  1
  F  F34  1  0.19171603  0.88692927  0.51704474  1
  F  F35  1  0.11314110  0.80824740  0.01704213  1
  F  F36  1  0.19171603  0.30478675  0.01704474  1
  F  F37  1  0.69518221  0.88684455  0.01706288  1
  F  F38  1  0.88685890  0.69510630  0.48295787  1
  F  F39  1  0.30481779  0.19166234  0.48293712  1
  F  F40  1  0.80828397  0.11307073  0.48295526  1
  F  F41  1  0.88685890  0.19175260  0.98295787  1
  F  F42  1  0.80828397  0.69521325  0.98295526  1
  F  F43  1  0.30481779  0.11315545  0.98293712  1
  F  F44  1  0.87935626  0.41214997  0.45016581  1
  F  F45  1  0.58781700  0.46718183  0.45025994  1
  F  F46  1  0.53280184  0.12059016  0.45020870  1
  F  F47  1  0.87935626  0.46720629  0.95016581  1
  F  F48  1  0.53280184  0.41221168  0.95020870  1
  F  F49  1  0.58781700  0.12063516  0.95025994  1
  F  F50  1  0.12064374  0.58785003  0.54983419  1
  F  F51  1  0.41218300  0.53281817  0.54974006  1
  F  F52  1  0.46719816  0.87940984  0.54979130  1
  F  F53  1  0.12064374  0.53279371  0.04983419  1
  F  F54  1  0.46719816  0.58778832  0.04979130  1
  F  F55  1  0.41218300  0.87936484  0.04974006  1
  F  F56  1  0.92328258  0.09592574  0.66648592  1
  F  F57  1  0.90403525  0.82732571  0.66650266  1
  F  F58  1  0.17251823  0.07664024  0.66650137  1
  F  F59  1  0.92328258  0.82735684  0.16648592  1
  F  F60  1  0.17251823  0.09587799  0.16650137  1
  F  F61  1  0.90403525  0.07670953  0.16650266  1
  F  F62  1  0.07671742  0.90407426  0.33351408  1
  F  F63  1  0.09596475  0.17267429  0.33349734  1
  F  F64  1  0.82748177  0.92335976  0.33349863  1
  F  F65  1  0.07671742  0.17264316  0.83351408  1
  F  F66  1  0.82748177  0.90412201  0.83349863  1
  F  F67  1  0.09596475  0.92329047  0.83349734  1
  F  F68  1  0.65893857  0.17038820  0.63843426  1
  F  F69  1  0.82954538  0.48858404  0.63841746  1
  F  F70  1  0.51152274  0.34105630  0.63842320  1
  F  F71  1  0.65893857  0.48855037  0.13843426  1
  F  F72  1  0.51152274  0.17046644  0.13842320  1
  F  F73  1  0.82954538  0.34096134  0.13841746  1
  F  F74  1  0.34106143  0.82961180  0.36156574  1
  F  F75  1  0.17045462  0.51141596  0.36158254  1
  F  F76  1  0.48847726  0.65894370  0.36157680  1
  F  F77  1  0.34106143  0.51144963  0.86156574  1
  F  F78  1  0.48847726  0.82953356  0.86157680  1
  F  F79  1  0.17045462  0.65903866  0.86158254  1
