# generated using pymatgen
data_Cu3Sb4(OF)6
_symmetry_space_group_name_H-M   'P 1'
_cell_length_a   7.07160389
_cell_length_b   7.07164615
_cell_length_c   7.07165242
_cell_angle_alpha   109.43614249
_cell_angle_beta   109.48923544
_cell_angle_gamma   109.48859775
_symmetry_Int_Tables_number   1
_chemical_formula_structural   Cu3Sb4(OF)6
_chemical_formula_sum   'Cu3 Sb4 O6 F6'
_cell_volume   272.22981557
_cell_formula_units_Z   1
loop_
 _symmetry_equiv_pos_site_id
 _symmetry_equiv_pos_as_xyz
  1  'x, y, z'
loop_
 _atom_site_type_symbol
 _atom_site_label
 _atom_site_symmetry_multiplicity
 _atom_site_fract_x
 _atom_site_fract_y
 _atom_site_fract_z
 _atom_site_occupancy
  Cu  Cu0  1  -0.00000108  0.49999916  0.50000094  1
  Cu  Cu1  1  0.50000084  0.00000259  0.50000245  1
  Cu  Cu2  1  0.50000110  0.50000113  0.00000086  1
  Sb  Sb3  1  0.32730221  0.32725638  0.32725679  1
  Sb  Sb4  1  -0.00000036  0.00004393  0.67274333  1
  Sb  Sb5  1  0.00000064  0.67274373  0.00004412  1
  Sb  Sb6  1  0.67269778  0.99995483  0.99995407  1
  O  O7  1  -0.00000001  0.25335563  0.25335604  1
  O  O8  1  0.74679001  0.99999933  0.74679056  1
  O  O9  1  0.74678821  0.74678893  0.99999884  1
  O  O10  1  -0.00000025  0.74664406  0.74664409  1
  O  O11  1  0.25320964  0.00000100  0.25320916  1
  O  O12  1  0.25321133  0.25321143  0.00000074  1
  F  F13  1  0.24986142  0.74986100  0.49999956  1
  F  F14  1  0.50000039  0.74999811  0.24999796  1
  F  F15  1  0.75013648  0.49999972  0.25013585  1
  F  F16  1  0.75013849  0.25013807  0.50000020  1
  F  F17  1  0.24986327  0.49999943  0.74986332  1
  F  F18  1  0.49999989  0.25000155  0.75000112  1
