# generated using pymatgen
data_TaBRu
_symmetry_space_group_name_H-M   'P 1'
_cell_length_a   3.17415598
_cell_length_b   8.96769480
_cell_length_c   15.60782237
_cell_angle_alpha   90.00000000
_cell_angle_beta   90.00000000
_cell_angle_gamma   90.00000000
_symmetry_Int_Tables_number   1
_chemical_formula_structural   TaBRu
_chemical_formula_sum   'Ta12 B12 Ru12'
_cell_volume   444.27451107
_cell_formula_units_Z   12
loop_
 _symmetry_equiv_pos_site_id
 _symmetry_equiv_pos_as_xyz
  1  'x, y, z'
loop_
 _atom_site_type_symbol
 _atom_site_label
 _atom_site_symmetry_multiplicity
 _atom_site_fract_x
 _atom_site_fract_y
 _atom_site_fract_z
 _atom_site_occupancy
  Ta  Ta0  1  -0.00000000  0.80147548  0.49518353  1
  Ta  Ta1  1  -0.00000000  0.19852452  0.50481647  1
  Ta  Ta2  1  0.00000000  0.30147548  0.00481647  1
  Ta  Ta3  1  0.00000000  0.69852452  0.99518353  1
  Ta  Ta4  1  0.00000000  0.51596885  0.59434443  1
  Ta  Ta5  1  -0.00000000  0.48403115  0.40565557  1
  Ta  Ta6  1  0.00000000  0.01596885  0.90565557  1
  Ta  Ta7  1  -0.00000000  0.98403115  0.09434443  1
  Ta  Ta8  1  0.00000000  0.68491129  0.20391678  1
  Ta  Ta9  1  -0.00000000  0.31508871  0.79608322  1
  Ta  Ta10  1  0.00000000  0.18491129  0.29608322  1
  Ta  Ta11  1  -0.00000000  0.81508871  0.70391678  1
  B  B12  1  0.50000000  0.60517349  0.49633146  1
  B  B13  1  0.50000000  0.39482651  0.50366854  1
  B  B14  1  0.50000000  0.10517349  0.00366854  1
  B  B15  1  0.50000000  0.89482651  0.99633146  1
  B  B16  1  -0.00000000  0.61151889  0.83219701  1
  B  B17  1  -0.00000000  0.38848111  0.16780299  1
  B  B18  1  -0.00000000  0.11151889  0.66780299  1
  B  B19  1  0.00000000  0.88848111  0.33219701  1
  B  B20  1  0.50000000  0.71595276  0.59936509  1
  B  B21  1  0.50000000  0.28404724  0.40063491  1
  B  B22  1  0.50000000  0.21595276  0.90063491  1
  B  B23  1  0.50000000  0.78404724  0.09936509  1
  Ru  Ru24  1  0.50000000  0.71894848  0.35610272  1
  Ru  Ru25  1  0.50000000  0.28105152  0.64389728  1
  Ru  Ru26  1  0.50000000  0.21894848  0.14389728  1
  Ru  Ru27  1  0.50000000  0.78105152  0.85610272  1
  Ru  Ru28  1  0.50000000  0.51614616  0.09527835  1
  Ru  Ru29  1  0.50000000  0.48385384  0.90472165  1
  Ru  Ru30  1  0.50000000  0.01614616  0.40472165  1
  Ru  Ru31  1  0.50000000  0.98385384  0.59527835  1
  Ru  Ru32  1  0.50000000  0.56484229  0.73465415  1
  Ru  Ru33  1  0.50000000  0.43515771  0.26534585  1
  Ru  Ru34  1  0.50000000  0.06484229  0.76534585  1
  Ru  Ru35  1  0.50000000  0.93515771  0.23465415  1
