# generated using pymatgen
data_BaTiCu4P4O17
_symmetry_space_group_name_H-M   'P 1'
_cell_length_a   7.24858056
_cell_length_b   9.71367209
_cell_length_c   9.71367209
_cell_angle_alpha   90.00000000
_cell_angle_beta   90.00000000
_cell_angle_gamma   90.00000000
_symmetry_Int_Tables_number   1
_chemical_formula_structural   BaTiCu4P4O17
_chemical_formula_sum   'Ba2 Ti2 Cu8 P8 O34'
_cell_volume   683.94290281
_cell_formula_units_Z   2
loop_
 _symmetry_equiv_pos_site_id
 _symmetry_equiv_pos_as_xyz
  1  'x, y, z'
loop_
 _atom_site_type_symbol
 _atom_site_label
 _atom_site_symmetry_multiplicity
 _atom_site_fract_x
 _atom_site_fract_y
 _atom_site_fract_z
 _atom_site_occupancy
  Ba  Ba0  1  -0.00000000  0.50000000  0.50000000  1
  Ba  Ba1  1  -0.00000000  -0.00000000  0.00000000  1
  Ti  Ti2  1  0.97529548  0.50000000  -0.00000000  1
  Ti  Ti3  1  0.02470452  -0.00000000  0.50000000  1
  Cu  Cu4  1  0.40458387  0.51202372  0.76762779  1
  Cu  Cu5  1  0.40458387  0.48797628  0.23237221  1
  Cu  Cu6  1  0.59541613  0.01202372  0.73237221  1
  Cu  Cu7  1  0.59541613  0.98797628  0.26762779  1
  Cu  Cu8  1  0.59541613  0.76762779  0.51202372  1
  Cu  Cu9  1  0.59541613  0.23237221  0.48797628  1
  Cu  Cu10  1  0.40458387  0.73237221  0.01202372  1
  Cu  Cu11  1  0.40458387  0.26762779  0.98797628  1
  P  P12  1  0.73761496  0.30715103  0.78076708  1
  P  P13  1  0.73761496  0.69284897  0.21923292  1
  P  P14  1  0.26238504  0.80715103  0.71923292  1
  P  P15  1  0.26238504  0.19284897  0.28076708  1
  P  P16  1  0.26238504  0.78076708  0.30715103  1
  P  P17  1  0.26238504  0.21923292  0.69284897  1
  P  P18  1  0.73761496  0.71923292  0.80715103  1
  P  P19  1  0.73761496  0.28076708  0.19284897  1
  O  O20  1  0.55470148  0.36438565  0.84899589  1
  O  O21  1  0.55470148  0.63561435  0.15100411  1
  O  O22  1  0.44529852  0.86438565  0.65100411  1
  O  O23  1  0.44529852  0.13561435  0.34899589  1
  O  O24  1  0.44529852  0.84899589  0.36438565  1
  O  O25  1  0.44529852  0.15100411  0.63561435  1
  O  O26  1  0.55470148  0.65100411  0.86438565  1
  O  O27  1  0.55470148  0.34899589  0.13561435  1
  O  O28  1  0.73183722  0.33771023  0.62453722  1
  O  O29  1  0.73183722  0.66228977  0.37546278  1
  O  O30  1  0.26816278  0.83771023  0.87546278  1
  O  O31  1  0.26816278  0.16228977  0.12453722  1
  O  O32  1  0.26816278  0.62453722  0.33771023  1
  O  O33  1  0.26816278  0.37546278  0.66228977  1
  O  O34  1  0.73183722  0.87546278  0.83771023  1
  O  O35  1  0.73183722  0.12453722  0.16228977  1
  O  O36  1  0.90403003  0.38682704  0.83853739  1
  O  O37  1  0.90403003  0.61317296  0.16146261  1
  O  O38  1  0.09596997  0.88682704  0.66146261  1
  O  O39  1  0.09596997  0.11317296  0.33853739  1
  O  O40  1  0.09596997  0.83853739  0.38682704  1
  O  O41  1  0.09596997  0.16146261  0.61317296  1
  O  O42  1  0.90403003  0.66146261  0.88682704  1
  O  O43  1  0.90403003  0.33853739  0.11317296  1
  O  O44  1  0.21029317  0.50000000  0.00000000  1
  O  O45  1  0.78970683  -0.00000000  0.50000000  1
  O  O46  1  0.75197205  0.15297295  0.81800946  1
  O  O47  1  0.75197205  0.84702705  0.18199054  1
  O  O48  1  0.24802795  0.65297295  0.68199054  1
  O  O49  1  0.24802795  0.34702705  0.31800946  1
  O  O50  1  0.24802795  0.81800946  0.15297295  1
  O  O51  1  0.24802795  0.18199054  0.84702705  1
  O  O52  1  0.75197205  0.68199054  0.65297295  1
  O  O53  1  0.75197205  0.31800946  0.34702705  1
