# generated using pymatgen
data_Na3Gd(CO3)3
_symmetry_space_group_name_H-M   'P 1'
_cell_length_a   6.60919164
_cell_length_b   6.60919164
_cell_length_c   10.03651741
_cell_angle_alpha   90.00000000
_cell_angle_beta   90.00000000
_cell_angle_gamma   114.12296862
_symmetry_Int_Tables_number   1
_chemical_formula_structural   Na3Gd(CO3)3
_chemical_formula_sum   'Na6 Gd2 C6 O18'
_cell_volume   400.12317222
_cell_formula_units_Z   2
loop_
 _symmetry_equiv_pos_site_id
 _symmetry_equiv_pos_as_xyz
  1  'x, y, z'
loop_
 _atom_site_type_symbol
 _atom_site_label
 _atom_site_symmetry_multiplicity
 _atom_site_fract_x
 _atom_site_fract_y
 _atom_site_fract_z
 _atom_site_occupancy
  Na  Na0  1  0.64366015  0.60814153  0.75000000  1
  Na  Na1  1  0.60814153  0.64366015  0.25000000  1
  Na  Na2  1  0.94488553  0.94488553  -0.00000000  1
  Na  Na3  1  0.94488553  0.94488553  0.50000000  1
  Na  Na4  1  0.80516251  0.21593075  0.75000000  1
  Na  Na5  1  0.21593075  0.80516251  0.25000000  1
  Gd  Gd6  1  0.24108997  0.78562028  0.75000000  1
  Gd  Gd7  1  0.78562028  0.24108997  0.25000000  1
  C  C8  1  0.25166193  0.22868087  0.75000000  1
  C  C9  1  0.22868087  0.25166193  0.25000000  1
  C  C10  1  0.89095605  0.48181486  0.00090089  1
  C  C11  1  0.48181486  0.89095605  0.99909911  1
  C  C12  1  0.89095605  0.48181486  0.49909911  1
  C  C13  1  0.48181486  0.89095605  0.50090089  1
  O  O14  1  0.43614943  0.20422367  0.75000000  1
  O  O15  1  0.20422367  0.43614943  0.25000000  1
  O  O16  1  0.91051483  0.57990721  0.88672784  1
  O  O17  1  0.57990721  0.91051483  0.11327216  1
  O  O18  1  0.91051483  0.57990721  0.61327216  1
  O  O19  1  0.57990721  0.91051483  0.38672784  1
  O  O20  1  0.57123184  0.85411518  0.89083774  1
  O  O21  1  0.85411518  0.57123184  0.10916226  1
  O  O22  1  0.57123184  0.85411518  0.60916226  1
  O  O23  1  0.85411518  0.57123184  0.39083774  1
  O  O24  1  0.24653984  0.42177882  0.75000000  1
  O  O25  1  0.42177882  0.24653984  0.25000000  1
  O  O26  1  0.29213972  0.90224135  0.98900755  1
  O  O27  1  0.90224135  0.29213972  0.01099245  1
  O  O28  1  0.29213972  0.90224135  0.51099245  1
  O  O29  1  0.90224135  0.29213972  0.48900755  1
  O  O30  1  0.06611520  0.04713188  0.75000000  1
  O  O31  1  0.04713188  0.06611520  0.25000000  1
