# generated using pymatgen
data_KLa5V2O13
_symmetry_space_group_name_H-M   'P 1'
_cell_length_a   5.97096393
_cell_length_b   10.61767575
_cell_length_c   12.36016231
_cell_angle_alpha   66.54636239
_cell_angle_beta   76.02250979
_cell_angle_gamma   73.66933463
_symmetry_Int_Tables_number   1
_chemical_formula_structural   KLa5V2O13
_chemical_formula_sum   'K2 La10 V4 O26'
_cell_volume   682.34484558
_cell_formula_units_Z   2
loop_
 _symmetry_equiv_pos_site_id
 _symmetry_equiv_pos_as_xyz
  1  'x, y, z'
loop_
 _atom_site_type_symbol
 _atom_site_label
 _atom_site_symmetry_multiplicity
 _atom_site_fract_x
 _atom_site_fract_y
 _atom_site_fract_z
 _atom_site_occupancy
  K  K0  1  0.24885852  0.50000000  0.50000000  1
  K  K1  1  0.75114148  0.50000000  0.50000000  1
  La  La2  1  0.23625929  0.76854465  0.75893676  1
  La  La3  1  0.76374071  0.23145535  0.24106324  1
  La  La4  1  0.19213481  0.52955572  0.08617465  1
  La  La5  1  0.80786519  0.47044428  0.91382535  1
  La  La6  1  0.66402942  0.05630504  0.61563611  1
  La  La7  1  0.33597058  0.94369496  0.38436389  1
  La  La8  1  0.60854228  0.84125295  0.94166249  1
  La  La9  1  0.39145772  0.15874705  0.05833751  1
  La  La10  1  0.03078638  0.10305824  0.83536900  1
  La  La11  1  0.96921362  0.89694176  0.16463100  1
  V  V12  1  0.15760763  0.24299774  0.44178700  1
  V  V13  1  0.84239237  0.75700226  0.55821300  1
  V  V14  1  0.43944765  0.35925454  0.76185016  1
  V  V15  1  0.56055235  0.64074546  0.23814984  1
  O  O16  1  0.38747250  0.95680383  0.77066423  1
  O  O17  1  0.88505944  0.95680383  0.77066423  1
  O  O18  1  0.61252750  0.04319617  0.22933577  1
  O  O19  1  0.11494056  0.04319617  0.22933577  1
  O  O20  1  0.97662304  0.14494722  0.42805388  1
  O  O21  1  0.45037586  0.14494722  0.42805388  1
  O  O22  1  0.02337696  0.85505278  0.57194612  1
  O  O23  1  0.54962414  0.85505278  0.57194612  1
  O  O24  1  0.13131777  0.40543952  0.33192494  1
  O  O25  1  0.86868223  0.59456048  0.66807506  1
  O  O26  1  0.34025377  0.69879117  0.14655198  1
  O  O27  1  0.81440308  0.69879117  0.14655198  1
  O  O28  1  0.65974623  0.30120883  0.85344802  1
  O  O29  1  0.18559692  0.30120883  0.85344802  1
  O  O30  1  0.46258945  0.64937146  0.91751498  1
  O  O31  1  0.97052410  0.64937146  0.91751498  1
  O  O32  1  0.53741055  0.35062854  0.08248502  1
  O  O33  1  0.02947590  0.35062854  0.08248502  1
  O  O34  1  0.53237386  0.28260164  0.65265064  1
  O  O35  1  0.46762614  0.71739836  0.34734936  1
  O  O36  1  0.08141295  0.25564851  0.58152559  1
  O  O37  1  0.91858705  0.74435149  0.41847441  1
  O  O38  1  0.38261085  0.53865335  0.69612495  1
  O  O39  1  0.61738915  0.46134665  0.30387505  1
  O  O40  1  0.24275816  -0.00000000  0.00000000  1
  O  O41  1  0.75724184  -0.00000000  0.00000000  1
