# generated using pymatgen
data_K3GdGe3(HO5)2
_symmetry_space_group_name_H-M   'P 1'
_cell_length_a   6.15561749
_cell_length_b   13.83449792
_cell_length_c   14.07244727
_cell_angle_alpha   90.00000000
_cell_angle_beta   90.00000000
_cell_angle_gamma   90.00000000
_symmetry_Int_Tables_number   1
_chemical_formula_structural   K3GdGe3(HO5)2
_chemical_formula_sum   'K12 Gd4 Ge12 H8 O40'
_cell_volume   1198.40788369
_cell_formula_units_Z   4
loop_
 _symmetry_equiv_pos_site_id
 _symmetry_equiv_pos_as_xyz
  1  'x, y, z'
loop_
 _atom_site_type_symbol
 _atom_site_label
 _atom_site_symmetry_multiplicity
 _atom_site_fract_x
 _atom_site_fract_y
 _atom_site_fract_z
 _atom_site_occupancy
  K  K0  1  0.08792475  0.63461940  0.01614813  1
  K  K1  1  0.41207525  0.13461940  0.48385187  1
  K  K2  1  0.91207525  0.36538060  0.51614813  1
  K  K3  1  0.58792475  0.86538060  0.98385187  1
  K  K4  1  0.91207525  0.36538060  0.98385187  1
  K  K5  1  0.58792475  0.86538060  0.51614813  1
  K  K6  1  0.08792475  0.63461940  0.48385187  1
  K  K7  1  0.41207525  0.13461940  0.01614813  1
  K  K8  1  0.42052450  0.63141549  0.25000000  1
  K  K9  1  0.07947550  0.13141549  0.25000000  1
  K  K10  1  0.57947550  0.36858451  0.75000000  1
  K  K11  1  0.92052450  0.86858451  0.75000000  1
  Gd  Gd12  1  0.58824217  0.95912018  0.25000000  1
  Gd  Gd13  1  0.91175783  0.45912018  0.25000000  1
  Gd  Gd14  1  0.41175783  0.04087982  0.75000000  1
  Gd  Gd15  1  0.08824217  0.54087982  0.75000000  1
  Ge  Ge16  1  0.09041517  0.90116120  0.10210717  1
  Ge  Ge17  1  0.40958483  0.40116120  0.39789283  1
  Ge  Ge18  1  0.90958483  0.09883880  0.60210717  1
  Ge  Ge19  1  0.59041517  0.59883880  0.89789283  1
  Ge  Ge20  1  0.90958483  0.09883880  0.89789283  1
  Ge  Ge21  1  0.59041517  0.59883880  0.60210717  1
  Ge  Ge22  1  0.09041517  0.90116120  0.39789283  1
  Ge  Ge23  1  0.40958483  0.40116120  0.10210717  1
  Ge  Ge24  1  0.91368251  0.74508021  0.25000000  1
  Ge  Ge25  1  0.58631749  0.24508021  0.25000000  1
  Ge  Ge26  1  0.08631749  0.25491979  0.75000000  1
  Ge  Ge27  1  0.41368251  0.75491979  0.75000000  1
  H  H28  1  0.10937175  0.92714963  0.93656024  1
  H  H29  1  0.39062825  0.42714963  0.56343976  1
  H  H30  1  0.89062825  0.07285037  0.43656024  1
  H  H31  1  0.60937175  0.57285037  0.06343976  1
  H  H32  1  0.89062825  0.07285037  0.06343976  1
  H  H33  1  0.60937175  0.57285037  0.43656024  1
  H  H34  1  0.10937175  0.92714963  0.56343976  1
  H  H35  1  0.39062825  0.42714963  0.93656024  1
  O  O36  1  0.65766137  0.79654553  0.25000000  1
  O  O37  1  0.84233863  0.29654553  0.25000000  1
  O  O38  1  0.34233863  0.20345447  0.75000000  1
  O  O39  1  0.15766137  0.70345447  0.75000000  1
  O  O40  1  0.86190982  0.97133314  0.13075048  1
  O  O41  1  0.63809018  0.47133314  0.36924952  1
  O  O42  1  0.13809018  0.02866686  0.63075048  1
  O  O43  1  0.36190982  0.52866686  0.86924952  1
  O  O44  1  0.13809018  0.02866686  0.86924952  1
  O  O45  1  0.36190982  0.52866686  0.63075048  1
  O  O46  1  0.86190982  0.97133314  0.36924952  1
  O  O47  1  0.63809018  0.47133314  0.13075048  1
  O  O48  1  0.33626689  0.95774978  0.12820953  1
  O  O49  1  0.16373311  0.45774978  0.37179047  1
  O  O50  1  0.66373311  0.04225022  0.62820953  1
  O  O51  1  0.83626689  0.54225022  0.87179047  1
  O  O52  1  0.66373311  0.04225022  0.87179047  1
  O  O53  1  0.83626689  0.54225022  0.62820953  1
  O  O54  1  0.33626689  0.95774978  0.37179047  1
  O  O55  1  0.16373311  0.45774978  0.12820953  1
  O  O56  1  0.07774672  0.77989936  0.14853809  1
  O  O57  1  0.42225328  0.27989936  0.35146191  1
  O  O58  1  0.92225328  0.22010064  0.64853809  1
  O  O59  1  0.57774672  0.72010064  0.85146191  1
  O  O60  1  0.92225328  0.22010064  0.85146191  1
  O  O61  1  0.57774672  0.72010064  0.64853809  1
  O  O62  1  0.07774672  0.77989936  0.35146191  1
  O  O63  1  0.42225328  0.27989936  0.14853809  1
  O  O64  1  0.08293180  0.86796609  0.97691134  1
  O  O65  1  0.41706820  0.36796609  0.52308866  1
  O  O66  1  0.91706820  0.13203391  0.47691134  1
  O  O67  1  0.58293180  0.63203391  0.02308866  1
  O  O68  1  0.91706820  0.13203391  0.02308866  1
  O  O69  1  0.58293180  0.63203391  0.47691134  1
  O  O70  1  0.08293180  0.86796609  0.52308866  1
  O  O71  1  0.41706820  0.36796609  0.97691134  1
  O  O72  1  0.92678342  0.62030223  0.25000000  1
  O  O73  1  0.57321658  0.12030223  0.25000000  1
  O  O74  1  0.07321658  0.37969777  0.75000000  1
  O  O75  1  0.42678342  0.87969777  0.75000000  1
