# generated using pymatgen
data_Pr2Mn12Co5
_symmetry_space_group_name_H-M   'P 1'
_cell_length_a   8.01751622
_cell_length_b   8.67980792
_cell_length_c   8.67980792
_cell_angle_alpha   119.92571788
_cell_angle_beta   90.00000000
_cell_angle_gamma   90.00000000
_symmetry_Int_Tables_number   1
_chemical_formula_structural   Pr2Mn12Co5
_chemical_formula_sum   'Pr4 Mn24 Co10'
_cell_volume   523.49832718
_cell_formula_units_Z   2
loop_
 _symmetry_equiv_pos_site_id
 _symmetry_equiv_pos_as_xyz
  1  'x, y, z'
loop_
 _atom_site_type_symbol
 _atom_site_label
 _atom_site_symmetry_multiplicity
 _atom_site_fract_x
 _atom_site_fract_y
 _atom_site_fract_z
 _atom_site_occupancy
  Pr  Pr0  1  0.75000000  0.00020863  0.99979137  1
  Pr  Pr1  1  0.25000000  0.99979137  0.00020863  1
  Pr  Pr2  1  0.25000000  0.66641694  0.33358306  1
  Pr  Pr3  1  0.75000000  0.33358306  0.66641694  1
  Mn  Mn4  1  0.75000000  0.67237293  0.06474265  1
  Mn  Mn5  1  0.75000000  0.39285095  0.32748183  1
  Mn  Mn6  1  0.75000000  0.93456387  0.60679111  1
  Mn  Mn7  1  0.75000000  0.39320889  0.06543613  1
  Mn  Mn8  1  0.75000000  0.93525735  0.32762707  1
  Mn  Mn9  1  0.75000000  0.67251817  0.60714905  1
  Mn  Mn10  1  0.25000000  0.32762707  0.93525735  1
  Mn  Mn11  1  0.25000000  0.60714905  0.67251817  1
  Mn  Mn12  1  0.25000000  0.06543613  0.39320889  1
  Mn  Mn13  1  0.25000000  0.60679111  0.93456387  1
  Mn  Mn14  1  0.25000000  0.06474265  0.67237293  1
  Mn  Mn15  1  0.25000000  0.32748183  0.39285095  1
  Mn  Mn16  1  0.46664443  0.82714554  0.65448593  1
  Mn  Mn17  1  0.46669671  0.82704219  0.17295781  1
  Mn  Mn18  1  0.46664443  0.34551407  0.17285446  1
  Mn  Mn19  1  0.53335557  0.17285446  0.34551407  1
  Mn  Mn20  1  0.53330329  0.17295781  0.82704219  1
  Mn  Mn21  1  0.53335557  0.65448593  0.82714554  1
  Mn  Mn22  1  0.96664443  0.17285446  0.34551407  1
  Mn  Mn23  1  0.96669671  0.17295781  0.82704219  1
  Mn  Mn24  1  0.96664443  0.65448593  0.82714554  1
  Mn  Mn25  1  0.03335557  0.82714554  0.65448593  1
  Mn  Mn26  1  0.03330329  0.82704219  0.17295781  1
  Mn  Mn27  1  0.03335557  0.34551407  0.17285446  1
  Co  Co28  1  0.60428357  0.66671345  0.33328655  1
  Co  Co29  1  0.39571643  0.33328655  0.66671345  1
  Co  Co30  1  0.10428357  0.33328655  0.66671345  1
  Co  Co31  1  0.89571643  0.66671345  0.33328655  1
  Co  Co32  1  0.50000000  0.50000000  -0.00000000  1
  Co  Co33  1  0.50000000  0.50000000  0.50000000  1
  Co  Co34  1  0.50000000  -0.00000000  0.50000000  1
  Co  Co35  1  -0.00000000  0.50000000  -0.00000000  1
  Co  Co36  1  -0.00000000  0.50000000  0.50000000  1
  Co  Co37  1  -0.00000000  -0.00000000  0.50000000  1
