# generated using pymatgen
data_K4Yb2Si8O21
_symmetry_space_group_name_H-M   'P 1'
_cell_length_a   10.84423515
_cell_length_b   10.84423515
_cell_length_c   11.48337527
_cell_angle_alpha   105.12624966
_cell_angle_beta   109.36552972
_cell_angle_gamma   111.87212246
_symmetry_Int_Tables_number   1
_chemical_formula_structural   K4Yb2Si8O21
_chemical_formula_sum   'K8 Yb4 Si16 O42'
_cell_volume   1062.20225575
_cell_formula_units_Z   2
loop_
 _symmetry_equiv_pos_site_id
 _symmetry_equiv_pos_as_xyz
  1  'x, y, z'
loop_
 _atom_site_type_symbol
 _atom_site_label
 _atom_site_symmetry_multiplicity
 _atom_site_fract_x
 _atom_site_fract_y
 _atom_site_fract_z
 _atom_site_occupancy
  K  K0  1  0.99260649  0.99286224  0.30882913  1
  K  K1  1  0.18403311  0.68377736  0.19117087  1
  K  K2  1  0.00739351  0.00713776  0.69117087  1
  K  K3  1  0.81596689  0.31622264  0.80882913  1
  K  K4  1  0.26891219  0.52706163  0.49438098  1
  K  K5  1  0.53268065  0.77453121  0.00561902  1
  K  K6  1  0.73108781  0.47293837  0.50561902  1
  K  K7  1  0.46731935  0.22546879  0.99438098  1
  Yb  Yb8  1  0.38458890  0.08508934  0.52743057  1
  Yb  Yb9  1  0.05765877  0.85715833  0.97256943  1
  Yb  Yb10  1  0.61541110  0.91491066  0.47256943  1
  Yb  Yb11  1  0.94234123  0.14284167  0.02743057  1
  Si  Si12  1  0.55141327  0.96310897  0.76759764  1
  Si  Si13  1  0.69551134  0.78381563  0.73240236  1
  Si  Si14  1  0.44858673  0.03689103  0.23240236  1
  Si  Si15  1  0.30448866  0.21618437  0.26759764  1
  Si  Si16  1  0.05490856  0.74341300  0.44250856  1
  Si  Si17  1  0.80090444  0.61240001  0.05749144  1
  Si  Si18  1  0.94509144  0.25658700  0.55749144  1
  Si  Si19  1  0.19909556  0.38759999  0.94250856  1
  Si  Si20  1  0.27169180  0.29176780  0.70130855  1
  Si  Si21  1  0.09045925  0.57038325  0.79869145  1
  Si  Si22  1  0.72830820  0.70823220  0.29869145  1
  Si  Si23  1  0.90954075  0.42961675  0.20130855  1
  Si  Si24  1  0.57329178  0.46963858  0.73107065  1
  Si  Si25  1  0.23856793  0.84222113  0.76892935  1
  Si  Si26  1  0.42670822  0.53036142  0.26892935  1
  Si  Si27  1  0.76143207  0.15777887  0.23107065  1
  O  O28  1  0.52538373  0.98788933  0.63016976  1
  O  O29  1  0.85771957  0.89521397  0.86983024  1
  O  O30  1  0.47461627  0.01211067  0.36983024  1
  O  O31  1  0.14228043  0.10478603  0.13016976  1
  O  O32  1  0.29326848  0.15176563  0.66912031  1
  O  O33  1  0.98264532  0.62414817  0.83087969  1
  O  O34  1  0.70673152  0.84823437  0.33087969  1
  O  O35  1  0.01735468  0.37585183  0.16912031  1
  O  O36  1  0.28143416  0.18103071  0.38989624  1
  O  O37  1  0.29113447  0.89153791  0.11010376  1
  O  O38  1  0.71856584  0.81896929  0.61010376  1
  O  O39  1  0.70886553  0.10846209  0.88989624  1
  O  O40  1  0.16522680  0.85843738  0.41030058  1
  O  O41  1  0.94813680  0.75492622  0.08969942  1
  O  O42  1  0.83477320  0.14156262  0.58969942  1
  O  O43  1  0.05186320  0.24507378  0.91030058  1
  O  O44  1  0.58002666  0.33303781  0.64247425  1
  O  O45  1  0.19056356  0.93755241  0.85752575  1
  O  O46  1  0.41997334  0.66696219  0.35752575  1
  O  O47  1  0.80943644  0.06244759  0.14247425  1
  O  O48  1  0.63865970  0.60769614  0.69240564  1
  O  O49  1  0.41529050  0.94625406  0.80759436  1
  O  O50  1  0.36134030  0.39230386  0.30759436  1
  O  O51  1  0.58470950  0.05374594  0.19240564  1
  O  O52  1  0.44212112  0.19212112  0.25000000  1
  O  O53  1  0.55787888  0.80787888  0.75000000  1
  O  O54  1  0.66809834  0.52556654  0.89686785  1
  O  O55  1  0.12869869  0.77123049  0.60313215  1
  O  O56  1  0.33190166  0.47443346  0.10313215  1
  O  O57  1  0.87130131  0.22876951  0.39686785  1
  O  O58  1  0.28446909  0.34683501  0.85588445  1
  O  O59  1  0.99095056  0.42858465  0.64411555  1
  O  O60  1  0.71553091  0.65316499  0.14411555  1
  O  O61  1  0.00904944  0.57141535  0.35588445  1
  O  O62  1  0.10496857  0.25527491  0.58840573  1
  O  O63  1  0.16686918  0.51656284  0.91159427  1
  O  O64  1  0.89503143  0.74472509  0.41159427  1
  O  O65  1  0.83313082  0.48343716  0.08840573  1
  O  O66  1  0.40034492  0.43595881  0.70128405  1
  O  O67  1  0.23467476  0.69906087  0.79871595  1
  O  O68  1  0.59965508  0.56404119  0.29871595  1
  O  O69  1  0.76532524  0.30093913  0.20128405  1
