# generated using pymatgen
data_BeH12S2(NO5)2
_symmetry_space_group_name_H-M   'P 1'
_cell_length_a   7.55566429
_cell_length_b   11.65784201
_cell_length_c   11.90523171
_cell_angle_alpha   90.00000000
_cell_angle_beta   90.00000000
_cell_angle_gamma   95.46471002
_symmetry_Int_Tables_number   1
_chemical_formula_structural   BeH12S2(NO5)2
_chemical_formula_sum   'Be4 H48 S8 N8 O40'
_cell_volume   1043.87938785
_cell_formula_units_Z   4
loop_
 _symmetry_equiv_pos_site_id
 _symmetry_equiv_pos_as_xyz
  1  'x, y, z'
loop_
 _atom_site_type_symbol
 _atom_site_label
 _atom_site_symmetry_multiplicity
 _atom_site_fract_x
 _atom_site_fract_y
 _atom_site_fract_z
 _atom_site_occupancy
  Be  Be0  1  0.43221751  0.23381712  0.41991854  1
  Be  Be1  1  0.06778249  0.76618288  0.91991854  1
  Be  Be2  1  0.56778249  0.76618288  0.58008146  1
  Be  Be3  1  0.93221751  0.23381712  0.08008146  1
  H  H4  1  0.47221593  0.39929068  0.31766622  1
  H  H5  1  0.02778407  0.60070932  0.81766622  1
  H  H6  1  0.52778407  0.60070932  0.68233378  1
  H  H7  1  0.97221593  0.39929068  0.18233378  1
  H  H8  1  0.41320254  0.28731087  0.23560072  1
  H  H9  1  0.08679746  0.71268913  0.73560072  1
  H  H10  1  0.58679746  0.71268913  0.76439928  1
  H  H11  1  0.91320254  0.28731087  0.26439928  1
  H  H12  1  0.12621892  0.18198259  0.41590182  1
  H  H13  1  0.37378108  0.81801741  0.91590182  1
  H  H14  1  0.87378108  0.81801741  0.58409818  1
  H  H15  1  0.62621892  0.18198259  0.08409818  1
  H  H16  1  0.22991661  0.08835243  0.48272834  1
  H  H17  1  0.27008339  0.91164757  0.98272834  1
  H  H18  1  0.77008339  0.91164757  0.51727166  1
  H  H19  1  0.72991661  0.08835243  0.01727166  1
  H  H20  1  0.40181943  0.88927295  0.33053194  1
  H  H21  1  0.09818057  0.11072705  0.83053194  1
  H  H22  1  0.59818057  0.11072705  0.66946806  1
  H  H23  1  0.90181943  0.88927295  0.16946806  1
  H  H24  1  0.57596553  0.82987713  0.27267442  1
  H  H25  1  0.92403447  0.17012287  0.77267442  1
  H  H26  1  0.42403447  0.17012287  0.72732558  1
  H  H27  1  0.07596553  0.82987713  0.22732558  1
  H  H28  1  0.46316128  0.92436705  0.19621150  1
  H  H29  1  0.03683872  0.07563295  0.69621150  1
  H  H30  1  0.53683872  0.07563295  0.80378850  1
  H  H31  1  0.96316128  0.92436705  0.30378850  1
  H  H32  1  0.59437641  0.96917099  0.30650084  1
  H  H33  1  0.90562359  0.03082901  0.80650084  1
  H  H34  1  0.40562359  0.03082901  0.69349916  1
  H  H35  1  0.09437641  0.96917099  0.19349916  1
  H  H36  1  0.19864162  0.53321326  0.44602965  1
  H  H37  1  0.30135838  0.46678674  0.94602965  1
  H  H38  1  0.80135838  0.46678674  0.55397035  1
  H  H39  1  0.69864162  0.53321326  0.05397035  1
  H  H40  1  0.02649784  0.61492166  0.42955260  1
  H  H41  1  0.47350216  0.38507834  0.92955260  1
  H  H42  1  0.97350216  0.38507834  0.57044740  1
  H  H43  1  0.52649784  0.61492166  0.07044740  1
  H  H44  1  0.23934152  0.67423763  0.41310188  1
  H  H45  1  0.26065848  0.32576237  0.91310188  1
  H  H46  1  0.76065848  0.32576237  0.58689812  1
  H  H47  1  0.73934152  0.67423763  0.08689812  1
  H  H48  1  0.14311553  0.58239823  0.31664228  1
  H  H49  1  0.35688447  0.41760177  0.81664228  1
  H  H50  1  0.85688447  0.41760177  0.68335772  1
  H  H51  1  0.64311553  0.58239823  0.18335772  1
  S  S52  1  0.76468647  0.12634371  0.44418213  1
  S  S53  1  0.73531353  0.87365629  0.94418213  1
  S  S54  1  0.23531353  0.87365629  0.55581787  1
  S  S55  1  0.26468647  0.12634371  0.05581787  1
  S  S56  1  0.65316619  0.63547270  0.39300866  1
  S  S57  1  0.84683381  0.36452730  0.89300866  1
  S  S58  1  0.34683381  0.36452730  0.60699134  1
  S  S59  1  0.15316619  0.63547270  0.10699134  1
  N  N60  1  0.50782280  0.90343347  0.27452547  1
  N  N61  1  0.99217720  0.09656653  0.77452547  1
  N  N62  1  0.49217720  0.09656653  0.72547453  1
  N  N63  1  0.00782280  0.90343347  0.22547453  1
  N  N64  1  0.15326562  0.60141147  0.40163364  1
  N  N65  1  0.34673438  0.39858853  0.90163364  1
  N  N66  1  0.84673438  0.39858853  0.59836636  1
  N  N67  1  0.65326562  0.60141147  0.09836636  1
  O  O68  1  0.76602596  0.14192916  0.56726380  1
  O  O69  1  0.73397404  0.85807084  0.06726380  1
  O  O70  1  0.23397404  0.85807084  0.43273620  1
  O  O71  1  0.26602596  0.14192916  0.93273620  1
  O  O72  1  0.79602220  0.00547439  0.41419022  1
  O  O73  1  0.70397780  0.99452561  0.91419022  1
  O  O74  1  0.20397780  0.99452561  0.58580978  1
  O  O75  1  0.29602220  0.00547439  0.08580978  1
  O  O76  1  0.90135715  0.20884813  0.39051199  1
  O  O77  1  0.59864285  0.79115187  0.89051199  1
  O  O78  1  0.09864285  0.79115187  0.60948801  1
  O  O79  1  0.40135715  0.20884813  0.10948801  1
  O  O80  1  0.58324959  0.14444057  0.39700211  1
  O  O81  1  0.91675041  0.85555943  0.89700211  1
  O  O82  1  0.41675041  0.85555943  0.60299789  1
  O  O83  1  0.08324959  0.14444057  0.10299789  1
  O  O84  1  0.79225790  0.59086811  0.46368254  1
  O  O85  1  0.70774210  0.40913189  0.96368254  1
  O  O86  1  0.20774210  0.40913189  0.53631746  1
  O  O87  1  0.29225790  0.59086811  0.03631746  1
  O  O88  1  0.72924311  0.72826561  0.31765614  1
  O  O89  1  0.77075689  0.27173439  0.81765614  1
  O  O90  1  0.27075689  0.27173439  0.68234386  1
  O  O91  1  0.22924311  0.72826561  0.18234386  1
  O  O92  1  0.55436626  0.54308341  0.32570001  1
  O  O93  1  0.94563374  0.45691659  0.82570001  1
  O  O94  1  0.44563374  0.45691659  0.67429999  1
  O  O95  1  0.05436626  0.54308341  0.17429999  1
  O  O96  1  0.51825462  0.68563026  0.47080999  1
  O  O97  1  0.98174538  0.31436974  0.97080999  1
  O  O98  1  0.48174538  0.31436974  0.52919001  1
  O  O99  1  0.01825462  0.68563026  0.02919001  1
  O  O100  1  0.41146023  0.31983083  0.31275225  1
  O  O101  1  0.08853977  0.68016917  0.81275225  1
  O  O102  1  0.58853977  0.68016917  0.68724775  1
  O  O103  1  0.91146023  0.31983083  0.18724775  1
  O  O104  1  0.24356413  0.15085836  0.42430621  1
  O  O105  1  0.25643587  0.84914164  0.92430621  1
  O  O106  1  0.75643587  0.84914164  0.57569379  1
  O  O107  1  0.74356413  0.15085836  0.07569379  1
