# generated using pymatgen
data_RbHS2O7
_symmetry_space_group_name_H-M   'P 1'
_cell_length_a   7.47118747
_cell_length_b   8.73522783
_cell_length_c   11.18613456
_cell_angle_alpha   90.00000000
_cell_angle_beta   90.00000000
_cell_angle_gamma   107.42277223
_symmetry_Int_Tables_number   1
_chemical_formula_structural   RbHS2O7
_chemical_formula_sum   'Rb4 H4 S8 O28'
_cell_volume   696.54238094
_cell_formula_units_Z   4
loop_
 _symmetry_equiv_pos_site_id
 _symmetry_equiv_pos_as_xyz
  1  'x, y, z'
loop_
 _atom_site_type_symbol
 _atom_site_label
 _atom_site_symmetry_multiplicity
 _atom_site_fract_x
 _atom_site_fract_y
 _atom_site_fract_z
 _atom_site_occupancy
  Rb  Rb0  1  0.65628221  0.03279393  0.79944401  1
  Rb  Rb1  1  0.34371779  0.46720607  0.29944401  1
  Rb  Rb2  1  0.34371779  0.96720607  0.20055599  1
  Rb  Rb3  1  0.65628221  0.53279393  0.70055599  1
  H  H4  1  0.89617462  0.70814244  0.04773846  1
  H  H5  1  0.10382538  0.79185756  0.54773846  1
  H  H6  1  0.10382538  0.29185756  0.95226154  1
  H  H7  1  0.89617462  0.20814244  0.45226154  1
  S  S8  1  0.08635235  0.82254526  0.90398371  1
  S  S9  1  0.91364765  0.67745474  0.40398371  1
  S  S10  1  0.91364765  0.17745474  0.09601629  1
  S  S11  1  0.08635235  0.32254526  0.59601629  1
  S  S12  1  0.31825269  0.60897766  0.94336085  1
  S  S13  1  0.68174731  0.89102234  0.44336085  1
  S  S14  1  0.68174731  0.39102234  0.05663915  1
  S  S15  1  0.31825269  0.10897766  0.55663915  1
  O  O16  1  0.00973956  0.80865059  0.03443413  1
  O  O17  1  0.99026044  0.69134941  0.53443413  1
  O  O18  1  0.99026044  0.19134941  0.96556587  1
  O  O19  1  0.00973956  0.30865059  0.46556587  1
  O  O20  1  0.94091893  0.82197451  0.81965869  1
  O  O21  1  0.05908107  0.67802549  0.31965869  1
  O  O22  1  0.05908107  0.17802549  0.18034131  1
  O  O23  1  0.94091893  0.32197451  0.68034131  1
  O  O24  1  0.12520135  0.65392340  0.88059427  1
  O  O25  1  0.87479865  0.84607660  0.38059427  1
  O  O26  1  0.87479865  0.34607660  0.11940573  1
  O  O27  1  0.12520135  0.15392340  0.61940573  1
  O  O28  1  0.47664605  0.70480633  0.87483638  1
  O  O29  1  0.52335395  0.79519367  0.37483638  1
  O  O30  1  0.52335395  0.29519367  0.12516362  1
  O  O31  1  0.47664605  0.20480633  0.62516362  1
  O  O32  1  0.31405987  0.64832680  0.06893044  1
  O  O33  1  0.68594013  0.85167320  0.56893044  1
  O  O34  1  0.68594013  0.35167320  0.93106956  1
  O  O35  1  0.31405987  0.14832680  0.43106956  1
  O  O36  1  0.26505471  0.43844142  0.91405153  1
  O  O37  1  0.73494529  0.06155858  0.41405153  1
  O  O38  1  0.73494529  0.56155858  0.08594847  1
  O  O39  1  0.26505471  0.93844142  0.58594847  1
  O  O40  1  0.25917208  0.95129624  0.90561831  1
  O  O41  1  0.74082792  0.54870376  0.40561831  1
  O  O42  1  0.74082792  0.04870376  0.09438169  1
  O  O43  1  0.25917208  0.45129624  0.59438169  1
