# generated using pymatgen
data_Rb2U3MnO11
_symmetry_space_group_name_H-M   'P 1'
_cell_length_a   6.89564098
_cell_length_b   6.89564098
_cell_length_c   13.42389115
_cell_angle_alpha   75.11723284
_cell_angle_beta   75.11723284
_cell_angle_gamma   60.00000100
_symmetry_Int_Tables_number   1
_chemical_formula_structural   Rb2U3MnO11
_chemical_formula_sum   'Rb4 U6 Mn2 O22'
_cell_volume   527.91737770
_cell_formula_units_Z   2
loop_
 _symmetry_equiv_pos_site_id
 _symmetry_equiv_pos_as_xyz
  1  'x, y, z'
loop_
 _atom_site_type_symbol
 _atom_site_label
 _atom_site_symmetry_multiplicity
 _atom_site_fract_x
 _atom_site_fract_y
 _atom_site_fract_z
 _atom_site_occupancy
  Rb  Rb0  1  0.67301606  0.67301606  0.98095181  1
  Rb  Rb1  1  0.17301606  0.17301606  0.48095181  1
  Rb  Rb2  1  0.32698394  0.32698394  0.01904819  1
  Rb  Rb3  1  0.82698394  0.82698394  0.51904819  1
  U  U4  1  0.38362176  0.11637824  0.75000000  1
  U  U5  1  0.11637824  0.75000000  0.75000000  1
  U  U6  1  0.75000000  0.38362176  0.75000000  1
  U  U7  1  0.88362176  0.25000000  0.25000000  1
  U  U8  1  0.25000000  0.61637824  0.25000000  1
  U  U9  1  0.61637824  0.88362176  0.25000000  1
  Mn  Mn10  1  0.50000000  0.50000000  0.50000000  1
  Mn  Mn11  1  -0.00000000  0.00000000  -0.00000000  1
  O  O12  1  0.55790969  0.78429049  0.39800114  1
  O  O13  1  0.78429049  0.25979868  0.39800114  1
  O  O14  1  0.25979868  0.55790969  0.39800114  1
  O  O15  1  0.05790969  0.75979868  0.89800114  1
  O  O16  1  0.75979868  0.28429049  0.89800114  1
  O  O17  1  0.28429049  0.05790969  0.89800114  1
  O  O18  1  0.44209031  0.21570951  0.60199886  1
  O  O19  1  0.21570951  0.74020132  0.60199886  1
  O  O20  1  0.74020132  0.44209031  0.60199886  1
  O  O21  1  0.94209031  0.24020132  0.10199886  1
  O  O22  1  0.24020132  0.71570951  0.10199886  1
  O  O23  1  0.71570951  0.94209031  0.10199886  1
  O  O24  1  0.00142313  0.49857687  0.75000000  1
  O  O25  1  0.49857687  0.75000000  0.75000000  1
  O  O26  1  0.75000000  0.00142313  0.75000000  1
  O  O27  1  0.50142313  0.25000000  0.25000000  1
  O  O28  1  0.25000000  0.99857687  0.25000000  1
  O  O29  1  0.99857687  0.50142313  0.25000000  1
  O  O30  1  0.59475307  0.59475307  0.21574080  1
  O  O31  1  0.09475307  0.09475307  0.71574080  1
  O  O32  1  0.40524693  0.40524693  0.78425920  1
  O  O33  1  0.90524693  0.90524693  0.28425920  1
