# generated using pymatgen
data_Na2Er2B2TeO10
_symmetry_space_group_name_H-M   'P 1'
_cell_length_a   6.34853030
_cell_length_b   6.75724450
_cell_length_c   9.97563479
_cell_angle_alpha   90.00000000
_cell_angle_beta   90.00000000
_cell_angle_gamma   103.95718078
_symmetry_Int_Tables_number   1
_chemical_formula_structural   Na2Er2B2TeO10
_chemical_formula_sum   'Na4 Er4 B4 Te2 O20'
_cell_volume   415.30607495
_cell_formula_units_Z   2
loop_
 _symmetry_equiv_pos_site_id
 _symmetry_equiv_pos_as_xyz
  1  'x, y, z'
loop_
 _atom_site_type_symbol
 _atom_site_label
 _atom_site_symmetry_multiplicity
 _atom_site_fract_x
 _atom_site_fract_y
 _atom_site_fract_z
 _atom_site_occupancy
  Na  Na0  1  0.41490211  0.33342405  0.11109845  1
  Na  Na1  1  0.58509789  0.16657595  0.61109845  1
  Na  Na2  1  0.58509789  0.66657595  0.88890155  1
  Na  Na3  1  0.41490211  0.83342405  0.38890155  1
  Er  Er4  1  0.87306617  0.47611718  0.33424414  1
  Er  Er5  1  0.12693383  0.02388282  0.83424414  1
  Er  Er6  1  0.12693383  0.52388282  0.66575586  1
  Er  Er7  1  0.87306617  0.97611718  0.16575586  1
  B  B8  1  0.66328375  0.12660586  0.90017583  1
  B  B9  1  0.33671625  0.37339414  0.40017583  1
  B  B10  1  0.33671625  0.87339414  0.09982417  1
  B  B11  1  0.66328375  0.62660586  0.59982417  1
  Te  Te12  1  -0.00000000  0.50000000  0.00000000  1
  Te  Te13  1  -0.00000000  -0.00000000  0.50000000  1
  O  O14  1  0.52121197  0.44453762  0.32908466  1
  O  O15  1  0.47878803  0.05546238  0.82908466  1
  O  O16  1  0.47878803  0.55546238  0.67091534  1
  O  O17  1  0.52121197  0.94453762  0.17091534  1
  O  O18  1  0.00313841  0.32068747  0.15108391  1
  O  O19  1  0.99686159  0.17931253  0.65108391  1
  O  O20  1  0.99686159  0.67931253  0.84891609  1
  O  O21  1  0.00313841  0.82068747  0.34891609  1
  O  O22  1  0.70961968  0.33645001  0.93740203  1
  O  O23  1  0.29038032  0.16354999  0.43740203  1
  O  O24  1  0.29038032  0.66354999  0.06259797  1
  O  O25  1  0.70961968  0.83645001  0.56259797  1
  O  O26  1  0.19801149  0.49189572  0.43751546  1
  O  O27  1  0.80198851  0.00810428  0.93751546  1
  O  O28  1  0.80198851  0.50810428  0.56248454  1
  O  O29  1  0.19801149  0.99189572  0.06248454  1
  O  O30  1  0.16191472  0.36387630  0.88297578  1
  O  O31  1  0.83808528  0.13612370  0.38297578  1
  O  O32  1  0.83808528  0.63612370  0.11702422  1
  O  O33  1  0.16191472  0.86387630  0.61702422  1
