# generated using pymatgen
data_Cs2Sn3(SbS5)2
_symmetry_space_group_name_H-M   'P 1'
_cell_length_a   7.19443712
_cell_length_b   10.60976003
_cell_length_c   13.79491143
_cell_angle_alpha   90.00000000
_cell_angle_beta   90.00000000
_cell_angle_gamma   94.89073166
_symmetry_Int_Tables_number   1
_chemical_formula_structural   Cs2Sn3(SbS5)2
_chemical_formula_sum   'Cs4 Sn6 Sb4 S20'
_cell_volume   1049.14904732
_cell_formula_units_Z   2
loop_
 _symmetry_equiv_pos_site_id
 _symmetry_equiv_pos_as_xyz
  1  'x, y, z'
loop_
 _atom_site_type_symbol
 _atom_site_label
 _atom_site_symmetry_multiplicity
 _atom_site_fract_x
 _atom_site_fract_y
 _atom_site_fract_z
 _atom_site_occupancy
  Cs  Cs0  1  0.38380995  0.84462757  0.66499933  1
  Cs  Cs1  1  0.88380995  0.34462757  0.83500067  1
  Cs  Cs2  1  0.61619005  0.15537243  0.33500067  1
  Cs  Cs3  1  0.11619005  0.65537243  0.16499933  1
  Sn  Sn4  1  0.50000000  0.00000000  0.00000000  1
  Sn  Sn5  1  0.00000000  0.50000000  0.50000000  1
  Sn  Sn6  1  0.54515786  0.65189619  0.94674023  1
  Sn  Sn7  1  0.04515786  0.15189619  0.55325977  1
  Sn  Sn8  1  0.45484214  0.34810381  0.05325977  1
  Sn  Sn9  1  0.95484214  0.84810381  0.44674023  1
  Sb  Sb10  1  0.89470934  0.90335654  0.85813240  1
  Sb  Sb11  1  0.39470934  0.40335654  0.64186760  1
  Sb  Sb12  1  0.10529066  0.09664346  0.14186760  1
  Sb  Sb13  1  0.60529066  0.59664346  0.35813240  1
  S  S14  1  0.63742069  0.03803705  0.82951626  1
  S  S15  1  0.13742069  0.53803705  0.67048374  1
  S  S16  1  0.36257931  0.96196295  0.17048374  1
  S  S17  1  0.86257931  0.46196295  0.32951626  1
  S  S18  1  0.79069793  0.86879080  0.02872804  1
  S  S19  1  0.29069793  0.36879080  0.47127196  1
  S  S20  1  0.20930207  0.13120920  0.97127196  1
  S  S21  1  0.70930207  0.63120920  0.52872804  1
  S  S22  1  0.69608555  0.20328087  0.05985855  1
  S  S23  1  0.19608555  0.70328087  0.44014145  1
  S  S24  1  0.30391445  0.79671913  0.94014145  1
  S  S25  1  0.80391445  0.29671913  0.55985855  1
  S  S26  1  0.75555953  0.68440933  0.80922497  1
  S  S27  1  0.25555953  0.18440933  0.69077503  1
  S  S28  1  0.24444047  0.31559067  0.19077503  1
  S  S29  1  0.74444047  0.81559067  0.30922497  1
  S  S30  1  0.62455357  0.55652365  0.10234209  1
  S  S31  1  0.12455357  0.05652365  0.39765791  1
  S  S32  1  0.37544643  0.44347635  0.89765791  1
  S  S33  1  0.87544643  0.94347635  0.60234209  1
