# generated using pymatgen
data_LaTl(PS3)2
_symmetry_space_group_name_H-M   'P 1'
_cell_length_a   7.57980455
_cell_length_b   11.52879136
_cell_length_c   12.16404028
_cell_angle_alpha   109.47094661
_cell_angle_beta   90.00000000
_cell_angle_gamma   90.00000000
_symmetry_Int_Tables_number   1
_chemical_formula_structural   LaTl(PS3)2
_chemical_formula_sum   'La4 Tl4 P8 S24'
_cell_volume   1002.17625694
_cell_formula_units_Z   4
loop_
 _symmetry_equiv_pos_site_id
 _symmetry_equiv_pos_as_xyz
  1  'x, y, z'
loop_
 _atom_site_type_symbol
 _atom_site_label
 _atom_site_symmetry_multiplicity
 _atom_site_fract_x
 _atom_site_fract_y
 _atom_site_fract_z
 _atom_site_occupancy
  La  La0  1  0.10572590  0.59767224  0.35191120  1
  La  La1  1  0.60572590  0.90232776  0.64808880  1
  La  La2  1  0.89427410  0.40232776  0.64808880  1
  La  La3  1  0.39427410  0.09767224  0.35191120  1
  Tl  Tl4  1  0.90995728  0.87417766  0.12647574  1
  Tl  Tl5  1  0.40995728  0.62582234  0.87352426  1
  Tl  Tl6  1  0.09004272  0.12582234  0.87352426  1
  Tl  Tl7  1  0.59004272  0.37417766  0.12647574  1
  P  P8  1  0.37828194  0.77098671  0.21129488  1
  P  P9  1  0.87828194  0.72901329  0.78870512  1
  P  P10  1  0.62171806  0.22901329  0.78870512  1
  P  P11  1  0.12171806  0.27098671  0.21129488  1
  P  P12  1  0.10037134  0.74496837  0.67286213  1
  P  P13  1  0.60037134  0.75503163  0.32713787  1
  P  P14  1  0.89962866  0.25503163  0.32713787  1
  P  P15  1  0.39962866  0.24496837  0.67286213  1
  S  S16  1  0.47349041  0.87140638  0.11747716  1
  S  S17  1  0.97349041  0.62859362  0.88252284  1
  S  S18  1  0.52650959  0.12859362  0.88252284  1
  S  S19  1  0.02650959  0.37140638  0.11747716  1
  S  S20  1  0.29001213  0.59703039  0.13141071  1
  S  S21  1  0.79001213  0.90296961  0.86858929  1
  S  S22  1  0.70998787  0.40296961  0.86858929  1
  S  S23  1  0.20998787  0.09703039  0.13141071  1
  S  S24  1  0.78579877  0.64491860  0.22244183  1
  S  S25  1  0.28579877  0.85508140  0.77755817  1
  S  S26  1  0.21420123  0.35508140  0.77755817  1
  S  S27  1  0.71420123  0.14491860  0.22244183  1
  S  S28  1  0.19200053  0.86531453  0.32757195  1
  S  S29  1  0.69200053  0.63468547  0.67242805  1
  S  S30  1  0.80799947  0.13468547  0.67242805  1
  S  S31  1  0.30799947  0.36531453  0.32757195  1
  S  S32  1  0.48407972  0.68531898  0.44410081  1
  S  S33  1  0.98407972  0.81468102  0.55589919  1
  S  S34  1  0.51592028  0.31468102  0.55589919  1
  S  S35  1  0.01592028  0.18531898  0.44410081  1
  S  S36  1  0.18723784  0.56914300  0.59110846  1
  S  S37  1  0.68723784  0.93085700  0.40889154  1
  S  S38  1  0.81276216  0.43085700  0.40889154  1
  S  S39  1  0.31276216  0.06914300  0.59110846  1
