# generated using pymatgen
data_Ba2B11H7O22
_symmetry_space_group_name_H-M   'P 1'
_cell_length_a   6.87960186
_cell_length_b   6.91422505
_cell_length_c   22.04099649
_cell_angle_alpha   88.05275640
_cell_angle_beta   82.57450962
_cell_angle_gamma   60.11294632
_symmetry_Int_Tables_number   1
_chemical_formula_structural   Ba2B11H7O22
_chemical_formula_sum   'Ba4 B22 H14 O44'
_cell_volume   900.80829834
_cell_formula_units_Z   2
loop_
 _symmetry_equiv_pos_site_id
 _symmetry_equiv_pos_as_xyz
  1  'x, y, z'
loop_
 _atom_site_type_symbol
 _atom_site_label
 _atom_site_symmetry_multiplicity
 _atom_site_fract_x
 _atom_site_fract_y
 _atom_site_fract_z
 _atom_site_occupancy
  Ba  Ba0  1  0.69839707  0.64544991  0.94128222  1
  Ba  Ba1  1  0.30160293  0.35455009  0.05871778  1
  Ba  Ba2  1  0.65164065  0.15477504  0.55294978  1
  Ba  Ba3  1  0.34835935  0.84522496  0.44705022  1
  B  B4  1  0.77706509  0.65634867  0.78486797  1
  B  B5  1  0.22293491  0.34365133  0.21513203  1
  B  B6  1  0.38926141  0.31285235  0.90997392  1
  B  B7  1  0.61073859  0.68714765  0.09002608  1
  B  B8  1  0.35366401  0.48540805  0.80949918  1
  B  B9  1  0.64633599  0.51459195  0.19050082  1
  B  B10  1  0.20593666  0.73414003  0.90330707  1
  B  B11  1  0.79406334  0.26585997  0.09669293  1
  B  B12  1  0.81094852  0.05597575  0.92828119  1
  B  B13  1  0.18905148  0.94402425  0.07171881  1
  B  B14  1  0.12975597  0.12496048  0.92366218  1
  B  B15  1  0.87024403  0.87503952  0.07633782  1
  B  B16  1  0.12188072  0.56999736  0.57408725  1
  B  B17  1  0.87811928  0.43000264  0.42591275  1
  B  B18  1  0.73262324  0.64159533  0.57838664  1
  B  B19  1  0.26737676  0.35840467  0.42161336  1
  B  B20  1  0.04595434  0.25511572  0.59614759  1
  B  B21  1  0.95404566  0.74488428  0.40385241  1
  B  B22  1  0.12677262  0.04646958  0.69233932  1
  B  B23  1  0.87322738  0.95353042  0.30766068  1
  B  B24  1  0.28275271  0.83390361  0.59399246  1
  B  B25  1  0.71724729  0.16609639  0.40600754  1
  H  H26  1  0.69494935  0.94250309  0.69070009  1
  H  H27  1  0.30505065  0.05749691  0.30929991  1
  H  H28  1  0.55221947  0.20986275  0.70413620  1
  H  H29  1  0.44778053  0.79013725  0.29586380  1
  H  H30  1  0.93603975  0.31598516  0.79286035  1
  H  H31  1  0.06396025  0.68401484  0.20713965  1
  H  H32  1  0.88077323  0.51490868  0.70138289  1
  H  H33  1  0.11922677  0.48509132  0.29861711  1
  H  H34  1  0.60316583  0.99827980  0.81113872  1
  H  H35  1  0.39683417  0.00172020  0.18886128  1
  H  H36  1  0.33600907  0.59252093  0.72242545  1
  H  H37  1  0.66399093  0.40747907  0.27757455  1
  H  H38  1  0.15345055  0.92427478  0.77921827  1
  H  H39  1  0.84654945  0.07572522  0.22078173  1
  O  O40  1  0.64033384  0.08944885  0.67217558  1
  O  O41  1  0.35966616  0.91055115  0.32782442  1
  O  O42  1  0.85106362  0.46166916  0.81635401  1
  O  O43  1  0.14893638  0.53833084  0.18364599  1
  O  O44  1  0.79758637  0.66577133  0.72198194  1
  O  O45  1  0.20241363  0.33422867  0.27801806  1
  O  O46  1  0.68018998  0.84145121  0.82312955  1
  O  O47  1  0.31981002  0.15854879  0.17687045  1
  O  O48  1  0.34291729  0.52893358  0.93395924  1
  O  O49  1  0.65708271  0.47106642  0.06604076  1
  O  O50  1  0.58345292  0.12840201  0.93756066  1
  O  O51  1  0.41654708  0.87159799  0.06243934  1
  O  O52  1  0.43373320  0.29502663  0.84268507  1
  O  O53  1  0.56626680  0.70497337  0.15731493  1
  O  O54  1  0.39100608  0.45652036  0.74617529  1
  O  O55  1  0.60899392  0.54347964  0.25382471  1
  O  O56  1  0.24090634  0.69713280  0.83561740  1
  O  O57  1  0.75909366  0.30286720  0.16438260  1
  O  O58  1  0.96042503  0.83145901  0.92538023  1
  O  O59  1  0.03957497  0.16854099  0.07461977  1
  O  O60  1  0.89559574  0.20240911  0.92599696  1
  O  O61  1  0.10440426  0.79759089  0.07400304  1
  O  O62  1  0.18429427  0.28676599  0.93178823  1
  O  O63  1  0.81570573  0.71323401  0.06821177  1
  O  O64  1  0.27544129  0.90105814  0.91685516  1
  O  O65  1  0.72455871  0.09894186  0.08314484  1
  O  O66  1  0.88953127  0.71836269  0.57796688  1
  O  O67  1  0.11046873  0.28163731  0.42203312  1
  O  O68  1  0.51674415  0.80249643  0.57129524  1
  O  O69  1  0.48325585  0.19750357  0.42870476  1
  O  O70  1  0.80996016  0.41826545  0.58222289  1
  O  O71  1  0.19003984  0.58173455  0.41777711  1
  O  O72  1  0.03948655  0.24608296  0.66306903  1
  O  O73  1  0.96051345  0.75391704  0.33693097  1
  O  O74  1  0.09112501  0.06237859  0.75562777  1
  O  O75  1  0.90887499  0.93762141  0.24437223  1
  O  O76  1  0.24437513  0.84250605  0.66107516  1
  O  O77  1  0.75562487  0.15749395  0.33892484  1
  O  O78  1  0.27996824  0.63741334  0.56836505  1
  O  O79  1  0.72003176  0.36258666  0.43163495  1
  O  O80  1  0.11794515  0.03956469  0.56713642  1
  O  O81  1  0.88205485  0.96043531  0.43286358  1
  O  O82  1  0.19759487  0.34549098  0.57205242  1
  O  O83  1  0.80240513  0.65450902  0.42794758  1
