# generated using pymatgen
data_TeHO3
_symmetry_space_group_name_H-M   'P 1'
_cell_length_a   4.82682631
_cell_length_b   8.17201631
_cell_length_c   12.31589167
_cell_angle_alpha   90.00000000
_cell_angle_beta   90.00000000
_cell_angle_gamma   90.00000000
_symmetry_Int_Tables_number   1
_chemical_formula_structural   TeHO3
_chemical_formula_sum   'Te8 H8 O24'
_cell_volume   485.79915636
_cell_formula_units_Z   8
loop_
 _symmetry_equiv_pos_site_id
 _symmetry_equiv_pos_as_xyz
  1  'x, y, z'
loop_
 _atom_site_type_symbol
 _atom_site_label
 _atom_site_symmetry_multiplicity
 _atom_site_fract_x
 _atom_site_fract_y
 _atom_site_fract_z
 _atom_site_occupancy
  Te  Te0  1  0.00045677  0.53319126  0.39046385  1
  Te  Te1  1  0.50045677  0.46680874  0.60953615  1
  Te  Te2  1  0.50045677  0.03319126  0.10953615  1
  Te  Te3  1  0.00045677  0.96680874  0.89046385  1
  Te  Te4  1  0.13867913  0.64235323  0.05883983  1
  Te  Te5  1  0.63867913  0.35764677  0.94116017  1
  Te  Te6  1  0.63867913  0.14235323  0.44116017  1
  Te  Te7  1  0.13867913  0.85764677  0.55883983  1
  H  H8  1  0.28775418  0.38736054  0.25068331  1
  H  H9  1  0.78775418  0.61263946  0.74931669  1
  H  H10  1  0.78775418  0.88736054  0.24931669  1
  H  H11  1  0.28775418  0.11263946  0.75068331  1
  H  H12  1  0.59137326  0.61449065  0.28170026  1
  H  H13  1  0.09137326  0.38550935  0.71829974  1
  H  H14  1  0.09137326  0.11449065  0.21829974  1
  H  H15  1  0.59137326  0.88550935  0.78170026  1
  O  O16  1  0.26540945  0.50581631  0.26864465  1
  O  O17  1  0.76540945  0.49418369  0.73135535  1
  O  O18  1  0.76540945  0.00581631  0.23135535  1
  O  O19  1  0.26540945  0.99418369  0.76864465  1
  O  O20  1  0.49351626  0.54525474  0.04708928  1
  O  O21  1  0.99351626  0.45474526  0.95291072  1
  O  O22  1  0.99351626  0.04525474  0.45291072  1
  O  O23  1  0.49351626  0.95474526  0.54708928  1
  O  O24  1  0.31271743  0.66294082  0.64619792  1
  O  O25  1  0.81271743  0.33705918  0.35380208  1
  O  O26  1  0.81271743  0.16294082  0.85380208  1
  O  O27  1  0.31271743  0.83705918  0.14619792  1
  O  O28  1  0.76184527  0.59283335  0.51567229  1
  O  O29  1  0.26184527  0.40716665  0.48432771  1
  O  O30  1  0.26184527  0.09283335  0.98432771  1
  O  O31  1  0.76184527  0.90716665  0.01567229  1
  O  O32  1  0.20039442  0.73448277  0.42317118  1
  O  O33  1  0.70039442  0.26551723  0.57682882  1
  O  O34  1  0.70039442  0.23448277  0.07682882  1
  O  O35  1  0.20039442  0.76551723  0.92317118  1
  O  O36  1  0.77566283  0.66701459  0.29222687  1
  O  O37  1  0.27566283  0.33298541  0.70777313  1
  O  O38  1  0.27566283  0.16701459  0.20777313  1
  O  O39  1  0.77566283  0.83298541  0.79222687  1
