# generated using pymatgen
data_Li2Sn(H5O4)2
_symmetry_space_group_name_H-M   'P 1'
_cell_length_a   6.09610770
_cell_length_b   6.13823249
_cell_length_c   10.50412498
_cell_angle_alpha   90.00000000
_cell_angle_beta   90.00000000
_cell_angle_gamma   118.00461451
_symmetry_Int_Tables_number   1
_chemical_formula_structural   Li2Sn(H5O4)2
_chemical_formula_sum   'Li4 Sn2 H20 O16'
_cell_volume   347.03411682
_cell_formula_units_Z   2
loop_
 _symmetry_equiv_pos_site_id
 _symmetry_equiv_pos_as_xyz
  1  'x, y, z'
loop_
 _atom_site_type_symbol
 _atom_site_label
 _atom_site_symmetry_multiplicity
 _atom_site_fract_x
 _atom_site_fract_y
 _atom_site_fract_z
 _atom_site_occupancy
  Li  Li0  1  0.65501411  0.82613229  0.93561086  1
  Li  Li1  1  0.84498589  0.17386771  0.43561086  1
  Li  Li2  1  0.34498589  0.17386771  0.06438914  1
  Li  Li3  1  0.15501411  0.82613229  0.56438914  1
  Sn  Sn4  1  -0.00000000  0.50000000  0.00000000  1
  Sn  Sn5  1  0.50000000  0.50000000  0.50000000  1
  H  H6  1  0.61405943  0.43298477  0.87692646  1
  H  H7  1  0.88594057  0.56701523  0.37692646  1
  H  H8  1  0.38594057  0.56701523  0.12307354  1
  H  H9  1  0.11405943  0.43298477  0.62307354  1
  H  H10  1  0.71200887  0.34976827  0.20733260  1
  H  H11  1  0.78799113  0.65023173  0.70733260  1
  H  H12  1  0.28799113  0.65023173  0.79266740  1
  H  H13  1  0.21200887  0.34976827  0.29266740  1
  H  H14  1  0.86720304  0.19929659  0.80455245  1
  H  H15  1  0.63279696  0.80070341  0.30455245  1
  H  H16  1  0.13279696  0.80070341  0.19544755  1
  H  H17  1  0.36720304  0.19929659  0.69544755  1
  H  H18  1  0.85016849  0.85645490  0.12480853  1
  H  H19  1  0.64983151  0.14354510  0.62480853  1
  H  H20  1  0.14983151  0.14354510  0.87519147  1
  H  H21  1  0.35016849  0.85645490  0.37519147  1
  H  H22  1  0.69896818  0.02310158  0.13150427  1
  H  H23  1  0.80103182  0.97689842  0.63150427  1
  H  H24  1  0.30103182  0.97689842  0.86849573  1
  H  H25  1  0.19896818  0.02310158  0.36849573  1
  O  O26  1  0.77349950  0.58745903  0.88372389  1
  O  O27  1  0.72650050  0.41254097  0.38372389  1
  O  O28  1  0.22650050  0.41254097  0.11627611  1
  O  O29  1  0.27349950  0.58745903  0.61627611  1
  O  O30  1  0.69334694  0.28417992  0.11907747  1
  O  O31  1  0.80665306  0.71582008  0.61907747  1
  O  O32  1  0.30665306  0.71582008  0.88092253  1
  O  O33  1  0.19334694  0.28417992  0.38092253  1
  O  O34  1  0.90060596  0.17583256  0.89440838  1
  O  O35  1  0.59939404  0.82416744  0.39440838  1
  O  O36  1  0.09939404  0.82416744  0.10559162  1
  O  O37  1  0.40060596  0.17583256  0.60559162  1
  O  O38  1  0.68128645  0.85006236  0.13043023  1
  O  O39  1  0.81871355  0.14993764  0.63043023  1
  O  O40  1  0.31871355  0.14993764  0.86956977  1
  O  O41  1  0.18128645  0.85006236  0.36956977  1
