# generated using pymatgen
data_Na2Co(SO4)2
_symmetry_space_group_name_H-M   'P 1'
_cell_length_a   10.49955906
_cell_length_b   12.91527624
_cell_length_c   17.55389792
_cell_angle_alpha   97.84818276
_cell_angle_beta   90.00000000
_cell_angle_gamma   113.98379826
_symmetry_Int_Tables_number   1
_chemical_formula_structural   Na2Co(SO4)2
_chemical_formula_sum   'Na24 Co12 S24 O96'
_cell_volume   2150.44311643
_cell_formula_units_Z   12
loop_
 _symmetry_equiv_pos_site_id
 _symmetry_equiv_pos_as_xyz
  1  'x, y, z'
loop_
 _atom_site_type_symbol
 _atom_site_label
 _atom_site_symmetry_multiplicity
 _atom_site_fract_x
 _atom_site_fract_y
 _atom_site_fract_z
 _atom_site_occupancy
  Na  Na0  1  0.38544214  0.52726597  0.26919944  1
  Na  Na1  1  0.85817617  0.47273403  0.23080056  1
  Na  Na2  1  0.61455786  0.47273403  0.73080056  1
  Na  Na3  1  0.14182383  0.52726597  0.76919944  1
  Na  Na4  1  0.29138547  0.79673227  0.39413575  1
  Na  Na5  1  0.49465320  0.20326773  0.10586425  1
  Na  Na6  1  0.70861453  0.20326773  0.60586425  1
  Na  Na7  1  0.50534680  0.79673227  0.89413575  1
  Na  Na8  1  0.81250220  0.86873342  0.41950650  1
  Na  Na9  1  0.94376878  0.13126658  0.08049350  1
  Na  Na10  1  0.18749780  0.13126658  0.58049350  1
  Na  Na11  1  0.05623122  0.86873342  0.91950650  1
  Na  Na12  1  0.40676836  -0.00000000  0.25000000  1
  Na  Na13  1  0.59323164  -0.00000000  0.75000000  1
  Na  Na14  1  0.86227485  -0.00000000  0.25000000  1
  Na  Na15  1  0.13772515  -0.00000000  0.75000000  1
  Na  Na16  1  0.17377126  0.65908581  0.57128025  1
  Na  Na17  1  0.51468545  0.34091419  0.92871975  1
  Na  Na18  1  0.82622874  0.34091419  0.42871975  1
  Na  Na19  1  0.48531455  0.65908581  0.07128025  1
  Na  Na20  1  0.80038980  0.68558334  0.56842903  1
  Na  Na21  1  0.11480645  0.31441666  0.93157097  1
  Na  Na22  1  0.19961020  0.31441666  0.43157097  1
  Na  Na23  1  0.88519355  0.68558334  0.06842903  1
  Co  Co24  1  0.01293766  0.79861999  0.27527831  1
  Co  Co25  1  0.21431767  0.20138001  0.22472169  1
  Co  Co26  1  0.98706234  0.20138001  0.72472169  1
  Co  Co27  1  0.78568233  0.79861999  0.77527831  1
  Co  Co28  1  0.63728276  0.53173645  0.37840442  1
  Co  Co29  1  0.10554632  0.46826355  0.12159558  1
  Co  Co30  1  0.36271724  0.46826355  0.62159558  1
  Co  Co31  1  0.89445368  0.53173645  0.87840442  1
  Co  Co32  1  0.52679717  0.86040507  0.56748582  1
  Co  Co33  1  0.66639210  0.13959493  0.93251418  1
  Co  Co34  1  0.47320283  0.13959493  0.43251418  1
  Co  Co35  1  0.33360790  0.86040507  0.06748582  1
  S  S36  1  0.09314898  0.94541676  0.12424267  1
  S  S37  1  0.14773222  0.05458324  0.37575733  1
  S  S38  1  0.90685102  0.05458324  0.87575733  1
  S  S39  1  0.85226778  0.94541676  0.62424267  1
  S  S40  1  0.92156645  0.63306920  0.41146221  1
  S  S41  1  0.28849725  0.36693080  0.08853779  1
  S  S42  1  0.07843355  0.36693080  0.58853779  1
  S  S43  1  0.71150275  0.63306920  0.91146221  1
  S  S44  1  0.57221732  0.38148013  0.52705184  1
  S  S45  1  0.19073720  0.61851987  0.97294816  1
  S  S46  1  0.42778268  0.61851987  0.47294816  1
  S  S47  1  0.80926280  0.38148013  0.02705184  1
  S  S48  1  0.73329870  0.68014169  0.22970603  1
  S  S49  1  0.05315701  0.31985831  0.27029397  1
  S  S50  1  0.26670130  0.31985831  0.77029397  1
  S  S51  1  0.94684299  0.68014169  0.72970603  1
  S  S52  1  0.46507335  0.72113966  0.71480360  1
  S  S53  1  0.74393369  0.27886034  0.78519640  1
  S  S54  1  0.53492665  0.27886034  0.28519640  1
  S  S55  1  0.25606631  0.72113966  0.21480360  1
  S  S56  1  0.63479831  0.00941606  0.41636225  1
  S  S57  1  0.62538225  0.99058394  0.08363775  1
  S  S58  1  0.36520169  0.99058394  0.58363775  1
  S  S59  1  0.37461775  0.00941606  0.91636225  1
  O  O60  1  0.63649621  0.48462131  0.48718815  1
  O  O61  1  0.15187491  0.51537869  0.01281185  1
  O  O62  1  0.36350379  0.51537869  0.51281185  1
  O  O63  1  0.84812509  0.48462131  0.98718815  1
  O  O64  1  0.81548837  0.68354690  0.42901120  1
  O  O65  1  0.13194146  0.31645310  0.07098880  1
  O  O66  1  0.18451163  0.31645310  0.57098880  1
  O  O67  1  0.86805854  0.68354690  0.92901120  1
  O  O68  1  0.63219206  0.58793079  0.26940172  1
  O  O69  1  0.04426128  0.41206921  0.23059828  1
  O  O70  1  0.36780794  0.41206921  0.73059828  1
  O  O71  1  0.95573872  0.58793079  0.76940172  1
  O  O72  1  0.85635341  0.64975074  0.20853793  1
  O  O73  1  0.20660267  0.35024926  0.29146207  1
  O  O74  1  0.14364659  0.35024926  0.79146207  1
  O  O75  1  0.79339733  0.64975074  0.70853793  1
  O  O76  1  0.66524531  0.12490905  0.46356341  1
  O  O77  1  0.54033626  0.87509095  0.03643659  1
  O  O78  1  0.33475469  0.87509095  0.53643659  1
  O  O79  1  0.45966374  0.12490905  0.96356341  1
  O  O80  1  0.03057835  0.70485367  0.36358854  1
  O  O81  1  0.32572468  0.29514633  0.13641146  1
  O  O82  1  0.96942165  0.29514633  0.63641146  1
  O  O83  1  0.67427532  0.70485367  0.86358854  1
  O  O84  1  0.47323852  0.58108626  0.39701143  1
  O  O85  1  0.89215226  0.41891374  0.10298857  1
  O  O86  1  0.52676148  0.41891374  0.60298857  1
  O  O87  1  0.10784774  0.58108626  0.89701143  1
  O  O88  1  0.41759428  0.77390064  0.65545838  1
  O  O89  1  0.64369365  0.22609936  0.84454162  1
  O  O90  1  0.58240572  0.22609936  0.34454162  1
  O  O91  1  0.35630635  0.77390064  0.15545838  1
  O  O92  1  0.98409452  0.62276334  0.48273585  1
  O  O93  1  0.36133118  0.37723666  0.01726415  1
  O  O94  1  0.01590548  0.37723666  0.51726415  1
  O  O95  1  0.63866882  0.62276334  0.98273585  1
  O  O96  1  0.49719340  0.37212529  0.32337371  1
  O  O97  1  0.12506811  0.62787471  0.17662629  1
  O  O98  1  0.50280660  0.62787471  0.67662629  1
  O  O99  1  0.87493189  0.37212529  0.82337371  1
  O  O100  1  0.00546287  0.88908856  0.18669016  1
  O  O101  1  0.11637431  0.11091144  0.31330984  1
  O  O102  1  0.99453713  0.11091144  0.81330984  1
  O  O103  1  0.88362569  0.88908856  0.68669016  1
  O  O104  1  0.62292487  0.92404938  0.46856113  1
  O  O105  1  0.69887549  0.07595062  0.03143887  1
  O  O106  1  0.37707513  0.07595062  0.53143887  1
  O  O107  1  0.30112451  0.92404938  0.96856113  1
  O  O108  1  0.44793101  0.29053342  0.48065186  1
  O  O109  1  0.15739758  0.70946658  0.01934814  1
  O  O110  1  0.55206899  0.70946658  0.51934814  1
  O  O111  1  0.84260242  0.29053342  0.98065186  1
  O  O112  1  0.66831482  0.69304045  0.16037946  1
  O  O113  1  0.97527437  0.30695955  0.33962054  1
  O  O114  1  0.33168518  0.30695955  0.83962054  1
  O  O115  1  0.02472563  0.69304045  0.66037946  1
  O  O116  1  0.32546081  0.68175604  0.26953336  1
  O  O117  1  0.64370477  0.31824396  0.23046664  1
  O  O118  1  0.67453919  0.31824396  0.73046664  1
  O  O119  1  0.35629523  0.68175604  0.76953336  1
  O  O120  1  0.67803859  0.33700026  0.53970244  1
  O  O121  1  0.34103833  0.66299974  0.96029756  1
  O  O122  1  0.32196141  0.66299974  0.46029756  1
  O  O123  1  0.65896167  0.33700026  0.03970244  1
  O  O124  1  0.21741148  0.81318095  0.25792763  1
  O  O125  1  0.40423053  0.18681905  0.24207237  1
  O  O126  1  0.78258852  0.18681905  0.74207237  1
  O  O127  1  0.59576947  0.81318095  0.75792763  1
  O  O128  1  0.04591563  0.93184653  0.36561839  1
  O  O129  1  0.11406909  0.06815347  0.13438161  1
  O  O130  1  0.95408437  0.06815347  0.63438161  1
  O  O131  1  0.88593091  0.93184653  0.86561839  1
  O  O132  1  0.86652114  0.88655823  0.54955843  1
  O  O133  1  0.97996291  0.11344177  0.95044157  1
  O  O134  1  0.13347886  0.11344177  0.45044157  1
  O  O135  1  0.02003709  0.88655823  0.04955843  1
  O  O136  1  0.83662467  0.51629808  0.36500166  1
  O  O137  1  0.32032659  0.48370192  0.13499834  1
  O  O138  1  0.16337533  0.48370192  0.63499834  1
  O  O139  1  0.67967341  0.51629808  0.86500166  1
  O  O140  1  0.79699428  0.79035978  0.28472485  1
  O  O141  1  0.00663450  0.20964022  0.21527515  1
  O  O142  1  0.20300572  0.20964022  0.71527515  1
  O  O143  1  0.99336550  0.79035978  0.78472485  1
  O  O144  1  0.74539060  0.01397724  0.36392963  1
  O  O145  1  0.73141336  0.98602276  0.13607037  1
  O  O146  1  0.25460940  0.98602276  0.63607037  1
  O  O147  1  0.26858664  0.01397724  0.86392963  1
  O  O148  1  0.49637453  0.97635703  0.37357086  1
  O  O149  1  0.52001750  0.02364297  0.12642914  1
  O  O150  1  0.50362547  0.02364297  0.62642914  1
  O  O151  1  0.47998250  0.97635703  0.87357086  1
  O  O152  1  0.23312678  0.94230853  0.13254015  1
  O  O153  1  0.29081825  0.05769147  0.36745985  1
  O  O154  1  0.76687322  0.05769147  0.86745985  1
  O  O155  1  0.70918175  0.94230853  0.63254015  1
