# generated using pymatgen
data_Cs5(SO4)4
_symmetry_space_group_name_H-M   'P 1'
_cell_length_a   6.28148386
_cell_length_b   6.28148386
_cell_length_c   30.57606707
_cell_angle_alpha   90.00000000
_cell_angle_beta   90.00000000
_cell_angle_gamma   116.92195463
_symmetry_Int_Tables_number   1
_chemical_formula_structural   Cs5(SO4)4
_chemical_formula_sum   'Cs10 S8 O32'
_cell_volume   1075.69194807
_cell_formula_units_Z   2
loop_
 _symmetry_equiv_pos_site_id
 _symmetry_equiv_pos_as_xyz
  1  'x, y, z'
loop_
 _atom_site_type_symbol
 _atom_site_label
 _atom_site_symmetry_multiplicity
 _atom_site_fract_x
 _atom_site_fract_y
 _atom_site_fract_z
 _atom_site_occupancy
  Cs  Cs0  1  0.97931532  0.02068468  0.75000000  1
  Cs  Cs1  1  0.02068468  0.97931532  0.25000000  1
  Cs  Cs2  1  0.64850040  0.35149960  0.63349178  1
  Cs  Cs3  1  0.35149960  0.64850040  0.36650822  1
  Cs  Cs4  1  0.64850040  0.35149960  0.86650822  1
  Cs  Cs5  1  0.35149960  0.64850040  0.13349178  1
  Cs  Cs6  1  0.32953711  0.67046289  0.53184871  1
  Cs  Cs7  1  0.67046289  0.32953711  0.46815129  1
  Cs  Cs8  1  0.32953711  0.67046289  0.96815129  1
  Cs  Cs9  1  0.67046289  0.32953711  0.03184871  1
  S  S10  1  0.00120885  0.99879115  0.57351052  1
  S  S11  1  0.99879115  0.00120885  0.42648948  1
  S  S12  1  0.00120885  0.99879115  0.92648948  1
  S  S13  1  0.99879115  0.00120885  0.07351052  1
  S  S14  1  0.69171864  0.30828136  0.31692409  1
  S  S15  1  0.30828136  0.69171864  0.68307591  1
  S  S16  1  0.69171864  0.30828136  0.18307591  1
  S  S17  1  0.30828136  0.69171864  0.81692409  1
  O  O18  1  0.99646312  0.00353688  0.62221271  1
  O  O19  1  0.00353688  0.99646312  0.37778729  1
  O  O20  1  0.99646312  0.00353688  0.87778729  1
  O  O21  1  0.00353688  0.99646312  0.12221271  1
  O  O22  1  0.86786038  0.13213962  0.55829278  1
  O  O23  1  0.13213962  0.86786038  0.44170722  1
  O  O24  1  0.86786038  0.13213962  0.94170722  1
  O  O25  1  0.13213962  0.86786038  0.05829278  1
  O  O26  1  0.25189945  0.12005278  0.55742614  1
  O  O27  1  0.12005278  0.25189945  0.44257386  1
  O  O28  1  0.25189945  0.12005278  0.94257386  1
  O  O29  1  0.12005278  0.25189945  0.05742614  1
  O  O30  1  0.74810055  0.87994722  0.44257386  1
  O  O31  1  0.87994722  0.74810055  0.55742614  1
  O  O32  1  0.74810055  0.87994722  0.05742614  1
  O  O33  1  0.87994722  0.74810055  0.94257386  1
  O  O34  1  0.67487388  0.32512612  0.36545655  1
  O  O35  1  0.32512612  0.67487388  0.63454345  1
  O  O36  1  0.67487388  0.32512612  0.13454345  1
  O  O37  1  0.32512612  0.67487388  0.86545655  1
  O  O38  1  0.56397413  0.43602587  0.29720370  1
  O  O39  1  0.43602587  0.56397413  0.70279630  1
  O  O40  1  0.56397413  0.43602587  0.20279630  1
  O  O41  1  0.43602587  0.56397413  0.79720370  1
  O  O42  1  0.94604936  0.42581031  0.30349910  1
  O  O43  1  0.42581031  0.94604936  0.69650090  1
  O  O44  1  0.94604936  0.42581031  0.19650090  1
  O  O45  1  0.42581031  0.94604936  0.80349910  1
  O  O46  1  0.05395064  0.57418969  0.69650090  1
  O  O47  1  0.57418969  0.05395064  0.30349910  1
  O  O48  1  0.05395064  0.57418969  0.80349910  1
  O  O49  1  0.57418969  0.05395064  0.19650090  1
