# generated using pymatgen
data_Na3U6GaF30
_symmetry_space_group_name_H-M   'P 1'
_cell_length_a   9.89823488
_cell_length_b   9.90312160
_cell_length_c   13.01885613
_cell_angle_alpha   90.00000000
_cell_angle_beta   89.95726918
_cell_angle_gamma   120.01633655
_symmetry_Int_Tables_number   1
_chemical_formula_structural   Na3U6GaF30
_chemical_formula_sum   'Na6 U12 Ga2 F60'
_cell_volume   1104.99839937
_cell_formula_units_Z   2
loop_
 _symmetry_equiv_pos_site_id
 _symmetry_equiv_pos_as_xyz
  1  'x, y, z'
loop_
 _atom_site_type_symbol
 _atom_site_label
 _atom_site_symmetry_multiplicity
 _atom_site_fract_x
 _atom_site_fract_y
 _atom_site_fract_z
 _atom_site_occupancy
  Na  Na0  1  0.33331708  0.66666422  0.66404092  1
  Na  Na1  1  0.33331708  0.66665287  0.16404092  1
  Na  Na2  1  0.66668292  0.33333578  0.33595908  1
  Na  Na3  1  0.66668292  0.33334713  0.83595908  1
  Na  Na4  1  0.00000000  -0.00000000  0.50000000  1
  Na  Na5  1  0.00000000  -0.00000000  -0.00000000  1
  U  U6  1  0.92404121  0.32449702  0.60158383  1
  U  U7  1  0.67553083  0.59954021  0.60159673  1
  U  U8  1  0.40054134  0.07611952  0.60166550  1
  U  U9  1  0.92404121  0.59954419  0.10158383  1
  U  U10  1  0.40054134  0.32442182  0.10166550  1
  U  U11  1  0.67553083  0.07599062  0.10159673  1
  U  U12  1  0.07595879  0.67550298  0.39841617  1
  U  U13  1  0.32446917  0.40045979  0.39840327  1
  U  U14  1  0.59945866  0.92388048  0.39833450  1
  U  U15  1  0.07595879  0.40045581  0.89841617  1
  U  U16  1  0.59945866  0.67557818  0.89833450  1
  U  U17  1  0.32446917  0.92400938  0.89840327  1
  Ga  Ga18  1  0.00000000  0.00000392  0.75000000  1
  Ga  Ga19  1  1.00000000  -0.00000392  0.25000000  1
  F  F20  1  0.13059402  0.43282764  0.71534264  1
  F  F21  1  0.56705306  0.69782014  0.71552045  1
  F  F22  1  0.30225640  0.86943918  0.71517109  1
  F  F23  1  0.13059402  0.69776638  0.21534264  1
  F  F24  1  0.30225640  0.43281723  0.21517109  1
  F  F25  1  0.56705306  0.86923293  0.21552045  1
  F  F26  1  0.86940598  0.56717236  0.28465736  1
  F  F27  1  0.43294694  0.30217986  0.28447955  1
  F  F28  1  0.69774360  0.13056082  0.28482891  1
  F  F29  1  0.86940598  0.30223362  0.78465736  1
  F  F30  1  0.69774360  0.56718277  0.78482891  1
  F  F31  1  0.43294694  0.13076707  0.78447955  1
  F  F32  1  0.11373779  0.30698640  0.51793006  1
  F  F33  1  0.69302881  0.80717794  0.51767429  1
  F  F34  1  0.19308384  0.88600958  0.51780273  1
  F  F35  1  0.11373779  0.80675139  0.01793006  1
  F  F36  1  0.19308384  0.30707426  0.01780273  1
  F  F37  1  0.69302881  0.88585087  0.01767429  1
  F  F38  1  0.88626221  0.69301360  0.48206994  1
  F  F39  1  0.30697119  0.19282206  0.48232571  1
  F  F40  1  0.80691616  0.11399042  0.48219727  1
  F  F41  1  0.88626221  0.19324861  0.98206994  1
  F  F42  1  0.80691616  0.69292574  0.98219727  1
  F  F43  1  0.30697119  0.11414913  0.98232571  1
  F  F44  1  0.88049625  0.41238352  0.44910896  1
  F  F45  1  0.58763037  0.46807402  0.44903104  1
  F  F46  1  0.53187684  0.11945595  0.44915264  1
  F  F47  1  0.88049625  0.46811273  0.94910896  1
  F  F48  1  0.53187684  0.41242089  0.94915264  1
  F  F49  1  0.58763037  0.11955635  0.94903104  1
  F  F50  1  0.11950375  0.58761648  0.55089104  1
  F  F51  1  0.41236963  0.53192598  0.55096896  1
  F  F52  1  0.46812316  0.88054405  0.55084736  1
  F  F53  1  0.11950375  0.53188727  0.05089104  1
  F  F54  1  0.46812316  0.58757911  0.05084736  1
  F  F55  1  0.41236963  0.88044365  0.05096896  1
  F  F56  1  0.17960576  0.08203996  0.66287453  1
  F  F57  1  0.91800576  0.09754410  0.66293554  1
  F  F58  1  0.90262479  0.82057351  0.66291823  1
  F  F59  1  0.17960576  0.09756580  0.16287453  1
  F  F60  1  0.90262479  0.08205128  0.16291823  1
  F  F61  1  0.91800576  0.82046166  0.16293554  1
  F  F62  1  0.82039424  0.91796004  0.33712547  1
  F  F63  1  0.08199424  0.90245590  0.33706446  1
  F  F64  1  0.09737521  0.17942649  0.33708177  1
  F  F65  1  0.82039424  0.90243420  0.83712547  1
  F  F66  1  0.09737521  0.91794872  0.83708177  1
  F  F67  1  0.08199424  0.17953834  0.83706446  1
  F  F68  1  0.65892332  0.17113668  0.63816235  1
  F  F69  1  0.82901094  0.48764676  0.63820874  1
  F  F70  1  0.51201245  0.34071104  0.63820382  1
  F  F71  1  0.65892332  0.48778664  0.13816235  1
  F  F72  1  0.51201245  0.17130141  0.13820382  1
  F  F73  1  0.82901094  0.34136418  0.13820874  1
  F  F74  1  0.34107668  0.82886332  0.36183765  1
  F  F75  1  0.17098906  0.51235324  0.36179126  1
  F  F76  1  0.48798755  0.65928896  0.36179618  1
  F  F77  1  0.34107668  0.51221336  0.86183765  1
  F  F78  1  0.48798755  0.82869859  0.86179618  1
  F  F79  1  0.17098906  0.65863582  0.86179126  1
