# generated using pymatgen
data_LiCeF5
_symmetry_space_group_name_H-M   'P 1'
_cell_length_a   6.66529299
_cell_length_b   11.05723141
_cell_length_c   11.05723141
_cell_angle_alpha   84.78796208
_cell_angle_beta   72.45830462
_cell_angle_gamma   72.45830462
_symmetry_Int_Tables_number   1
_chemical_formula_structural   LiCeF5
_chemical_formula_sum   'Li8 Ce8 F40'
_cell_volume   740.88618170
_cell_formula_units_Z   8
loop_
 _symmetry_equiv_pos_site_id
 _symmetry_equiv_pos_as_xyz
  1  'x, y, z'
loop_
 _atom_site_type_symbol
 _atom_site_label
 _atom_site_symmetry_multiplicity
 _atom_site_fract_x
 _atom_site_fract_y
 _atom_site_fract_z
 _atom_site_occupancy
  Li  Li0  1  0.28422620  0.15890010  0.98931630  1
  Li  Li1  1  0.43244259  0.84109990  0.01068370  1
  Li  Li2  1  0.81755741  0.65890010  0.48931630  1
  Li  Li3  1  0.96577380  0.34109990  0.51068370  1
  Li  Li4  1  0.72645751  0.98931630  0.84109990  1
  Li  Li5  1  0.55687371  0.01068370  0.15890010  1
  Li  Li6  1  0.69312629  0.48931630  0.34109990  1
  Li  Li7  1  0.52354249  0.51068370  0.65890010  1
  Ce  Ce8  1  0.43054099  0.24216958  0.62999750  1
  Ce  Ce9  1  0.30270808  0.75783042  0.37000250  1
  Ce  Ce10  1  0.94729192  0.74216958  0.12999750  1
  Ce  Ce11  1  0.81945901  0.25783042  0.87000250  1
  Ce  Ce12  1  0.93946150  0.62999750  0.75783042  1
  Ce  Ce13  1  0.32728943  0.37000250  0.24216958  1
  Ce  Ce14  1  0.92271057  0.12999750  0.25783042  1
  Ce  Ce15  1  0.31053850  0.87000250  0.74216958  1
  F  F16  1  0.69334950  0.13321964  0.70907931  1
  F  F17  1  0.53564845  0.86678036  0.29092069  1
  F  F18  1  0.71435155  0.63321964  0.20907931  1
  F  F19  1  0.55665050  0.36678036  0.79092069  1
  F  F20  1  0.59757119  0.70907931  0.86678036  1
  F  F21  1  0.17343087  0.29092069  0.13321964  1
  F  F22  1  0.07656913  0.20907931  0.36678036  1
  F  F23  1  0.65242881  0.79092069  0.63321964  1
  F  F24  1  0.38721484  0.04991108  0.63443390  1
  F  F25  1  0.07155981  0.95008892  0.36556610  1
  F  F26  1  0.17844019  0.54991108  0.13443390  1
  F  F27  1  0.86278516  0.45008892  0.86556610  1
  F  F28  1  0.97835126  0.63443390  0.95008892  1
  F  F29  1  0.56287408  0.36556610  0.04991108  1
  F  F30  1  0.68712592  0.13443390  0.45008892  1
  F  F31  1  0.27164874  0.86556610  0.54991108  1
  F  F32  1  0.65227118  0.36413846  0.53966762  1
  F  F33  1  0.55607727  0.63586154  0.46033238  1
  F  F34  1  0.69392273  0.86413846  0.03966762  1
  F  F35  1  0.59772882  0.13586154  0.96033238  1
  F  F36  1  0.80806119  0.53966762  0.63586154  1
  F  F37  1  0.98359035  0.46033238  0.36413846  1
  F  F38  1  0.26640965  0.03966762  0.13586154  1
  F  F39  1  0.44193881  0.96033238  0.86413846  1
  F  F40  1  0.22404789  0.23384506  0.83450232  1
  F  F41  1  0.29239527  0.76615494  0.16549768  1
  F  F42  1  0.95760473  0.73384506  0.33450232  1
  F  F43  1  0.02595211  0.26615494  0.66549768  1
  F  F44  1  0.94144979  0.83450232  0.76615494  1
  F  F45  1  0.54210705  0.16549768  0.23384506  1
  F  F46  1  0.70789295  0.33450232  0.26615494  1
  F  F47  1  0.30855021  0.66549768  0.73384506  1
  F  F48  1  0.30439094  0.32111627  0.45854679  1
  F  F49  1  0.08405401  0.67888373  0.54145321  1
  F  F50  1  0.16594599  0.82111627  0.95854679  1
  F  F51  1  0.94560906  0.17888373  0.04145321  1
  F  F52  1  0.23706227  0.45854679  0.67888373  1
  F  F53  1  0.37449278  0.54145321  0.32111627  1
  F  F54  1  0.87550722  0.95854679  0.17888373  1
  F  F55  1  0.01293773  0.04145321  0.82111627  1
