# generated using pymatgen
data_Er5Ge4
_symmetry_space_group_name_H-M   'P 1'
_cell_length_a   7.54194656
_cell_length_b   7.68013193
_cell_length_c   14.57470433
_cell_angle_alpha   90.00000000
_cell_angle_beta   90.00000000
_cell_angle_gamma   90.00000000
_symmetry_Int_Tables_number   1
_chemical_formula_structural   Er5Ge4
_chemical_formula_sum   'Er20 Ge16'
_cell_volume   844.21270626
_cell_formula_units_Z   4
loop_
 _symmetry_equiv_pos_site_id
 _symmetry_equiv_pos_as_xyz
  1  'x, y, z'
loop_
 _atom_site_type_symbol
 _atom_site_label
 _atom_site_symmetry_multiplicity
 _atom_site_fract_x
 _atom_site_fract_y
 _atom_site_fract_z
 _atom_site_occupancy
  Er  Er0  1  0.36844864  0.83823187  0.88064524  1
  Er  Er1  1  0.86844864  0.66176813  0.61935476  1
  Er  Er2  1  0.63155136  0.16176813  0.38064524  1
  Er  Er3  1  0.13155136  0.33823187  0.11935476  1
  Er  Er4  1  0.63155136  0.16176813  0.11935476  1
  Er  Er5  1  0.13155136  0.33823187  0.38064524  1
  Er  Er6  1  0.36844864  0.83823187  0.61935476  1
  Er  Er7  1  0.86844864  0.66176813  0.88064524  1
  Er  Er8  1  0.51689643  0.31743874  0.90335967  1
  Er  Er9  1  0.01689643  0.18256126  0.59664033  1
  Er  Er10  1  0.48310357  0.68256126  0.40335967  1
  Er  Er11  1  0.98310357  0.81743874  0.09664033  1
  Er  Er12  1  0.48310357  0.68256126  0.09664033  1
  Er  Er13  1  0.98310357  0.81743874  0.40335967  1
  Er  Er14  1  0.51689643  0.31743874  0.59664033  1
  Er  Er15  1  0.01689643  0.18256126  0.90335967  1
  Er  Er16  1  0.20630534  0.49897533  0.75000000  1
  Er  Er17  1  0.70630534  0.00102467  0.75000000  1
  Er  Er18  1  0.79369466  0.50102467  0.25000000  1
  Er  Er19  1  0.29369466  0.99897533  0.25000000  1
  Ge  Ge20  1  0.28762798  0.03525381  0.04365340  1
  Ge  Ge21  1  0.78762798  0.46474619  0.45634660  1
  Ge  Ge22  1  0.71237202  0.96474619  0.54365340  1
  Ge  Ge23  1  0.21237202  0.53525381  0.95634660  1
  Ge  Ge24  1  0.71237202  0.96474619  0.95634660  1
  Ge  Ge25  1  0.21237202  0.53525381  0.54365340  1
  Ge  Ge26  1  0.28762798  0.03525381  0.45634660  1
  Ge  Ge27  1  0.78762798  0.46474619  0.04365340  1
  Ge  Ge28  1  0.57160845  0.61733668  0.75000000  1
  Ge  Ge29  1  0.07160845  0.88266332  0.75000000  1
  Ge  Ge30  1  0.42839155  0.38266332  0.25000000  1
  Ge  Ge31  1  0.92839155  0.11733668  0.25000000  1
  Ge  Ge32  1  0.32457572  0.14007891  0.75000000  1
  Ge  Ge33  1  0.82457572  0.35992109  0.75000000  1
  Ge  Ge34  1  0.67542428  0.85992109  0.25000000  1
  Ge  Ge35  1  0.17542428  0.64007891  0.25000000  1
