# generated using pymatgen
data_K4CaU(Si2O7)2
_symmetry_space_group_name_H-M   'P 1'
_cell_length_a   8.50482646
_cell_length_b   9.47697702
_cell_length_c   9.47697702
_cell_angle_alpha   90.00000000
_cell_angle_beta   90.00000000
_cell_angle_gamma   90.00000000
_symmetry_Int_Tables_number   1
_chemical_formula_structural   K4CaU(Si2O7)2
_chemical_formula_sum   'K8 Ca2 U2 Si8 O28'
_cell_volume   763.84477352
_cell_formula_units_Z   2
loop_
 _symmetry_equiv_pos_site_id
 _symmetry_equiv_pos_as_xyz
  1  'x, y, z'
loop_
 _atom_site_type_symbol
 _atom_site_label
 _atom_site_symmetry_multiplicity
 _atom_site_fract_x
 _atom_site_fract_y
 _atom_site_fract_z
 _atom_site_occupancy
  K  K0  1  0.25000000  0.34469547  0.84469547  1
  K  K1  1  0.75000000  0.15530453  0.34469547  1
  K  K2  1  0.25000000  0.65530453  0.15530453  1
  K  K3  1  0.75000000  0.84469547  0.65530453  1
  K  K4  1  0.25000000  0.21365803  0.28634197  1
  K  K5  1  0.75000000  0.28634197  0.78634197  1
  K  K6  1  0.75000000  0.71365803  0.21365803  1
  K  K7  1  0.25000000  0.78634197  0.71365803  1
  Ca  Ca8  1  -0.00000000  0.50000000  0.50000000  1
  Ca  Ca9  1  0.50000000  0.00000000  -0.00000000  1
  U  U10  1  0.50000000  0.50000000  0.50000000  1
  U  U11  1  0.00000000  -0.00000000  -0.00000000  1
  Si  Si12  1  0.44444979  0.88055470  0.38117642  1
  Si  Si13  1  0.94444979  0.61944530  0.88117642  1
  Si  Si14  1  0.55555021  0.61882358  0.88055470  1
  Si  Si15  1  0.05555021  0.88117642  0.38055470  1
  Si  Si16  1  0.44444979  0.11944530  0.61882358  1
  Si  Si17  1  0.94444979  0.38055470  0.11882358  1
  Si  Si18  1  0.55555021  0.38117642  0.11944530  1
  Si  Si19  1  0.05555021  0.11882358  0.61944530  1
  O  O20  1  0.27928892  0.50000000  0.50000000  1
  O  O21  1  0.77928892  -0.00000000  -0.00000000  1
  O  O22  1  0.72071108  0.50000000  0.50000000  1
  O  O23  1  0.22071108  -0.00000000  -0.00000000  1
  O  O24  1  0.51716431  0.91443188  0.23024202  1
  O  O25  1  0.01716431  0.58556812  0.73024202  1
  O  O26  1  0.48283569  0.76975798  0.91443188  1
  O  O27  1  0.98283569  0.73024202  0.41443188  1
  O  O28  1  0.51716431  0.08556812  0.76975798  1
  O  O29  1  0.01716431  0.41443188  0.26975798  1
  O  O30  1  0.48283569  0.23024202  0.08556812  1
  O  O31  1  0.98283569  0.26975798  0.58556812  1
  O  O32  1  0.50387940  0.72863398  0.44617659  1
  O  O33  1  0.00387940  0.77136602  0.94617659  1
  O  O34  1  0.49612060  0.55382341  0.72863398  1
  O  O35  1  0.99612060  0.94617659  0.22863398  1
  O  O36  1  0.50387940  0.27136602  0.55382341  1
  O  O37  1  0.00387940  0.22863398  0.05382341  1
  O  O38  1  0.49612060  0.44617659  0.27136602  1
  O  O39  1  0.99612060  0.05382341  0.77136602  1
  O  O40  1  0.50086867  -0.00000000  0.50000000  1
  O  O41  1  0.00086867  0.50000000  -0.00000000  1
  O  O42  1  0.49913133  0.50000000  -0.00000000  1
  O  O43  1  0.99913133  0.00000000  0.50000000  1
  O  O44  1  0.25000000  0.87988414  0.37988414  1
  O  O45  1  0.75000000  0.62011586  0.87988414  1
  O  O46  1  0.25000000  0.12011586  0.62011586  1
  O  O47  1  0.75000000  0.37988414  0.12011586  1
