# generated using pymatgen
data_Y2Re3Si5
_symmetry_space_group_name_H-M   'P 1'
_cell_length_a   5.56918121
_cell_length_b   10.98621067
_cell_length_c   10.98621067
_cell_angle_alpha   90.00000000
_cell_angle_beta   90.00000000
_cell_angle_gamma   90.00000000
_symmetry_Int_Tables_number   1
_chemical_formula_structural   Y2Re3Si5
_chemical_formula_sum   'Y8 Re12 Si20'
_cell_volume   672.18248926
_cell_formula_units_Z   4
loop_
 _symmetry_equiv_pos_site_id
 _symmetry_equiv_pos_as_xyz
  1  'x, y, z'
loop_
 _atom_site_type_symbol
 _atom_site_label
 _atom_site_symmetry_multiplicity
 _atom_site_fract_x
 _atom_site_fract_y
 _atom_site_fract_z
 _atom_site_occupancy
  Y  Y0  1  0.50000000  0.73753195  0.57680532  1
  Y  Y1  1  0.50000000  0.26246805  0.42319468  1
  Y  Y2  1  0.00000000  0.76246805  0.07680532  1
  Y  Y3  1  -0.00000000  0.23753195  0.92319468  1
  Y  Y4  1  0.50000000  0.57680532  0.26246805  1
  Y  Y5  1  0.50000000  0.42319468  0.73753195  1
  Y  Y6  1  -0.00000000  0.07680532  0.23753195  1
  Y  Y7  1  0.00000000  0.92319468  0.76246805  1
  Re  Re8  1  0.50000000  0.85289151  0.87529698  1
  Re  Re9  1  0.50000000  0.14710849  0.12470302  1
  Re  Re10  1  -0.00000000  0.64710849  0.37529698  1
  Re  Re11  1  0.00000000  0.35289151  0.62470302  1
  Re  Re12  1  0.50000000  0.87529698  0.14710849  1
  Re  Re13  1  0.50000000  0.12470302  0.85289151  1
  Re  Re14  1  -0.00000000  0.37529698  0.35289151  1
  Re  Re15  1  0.00000000  0.62470302  0.64710849  1
  Re  Re16  1  0.25000000  -0.00000000  0.50000000  1
  Re  Re17  1  0.75000000  0.50000000  0.00000000  1
  Re  Re18  1  0.25000000  0.50000000  0.00000000  1
  Re  Re19  1  0.75000000  -0.00000000  0.50000000  1
  Si  Si20  1  0.25000000  0.17311611  0.67311611  1
  Si  Si21  1  0.25000000  0.82688389  0.32688389  1
  Si  Si22  1  0.75000000  0.32688389  0.17311611  1
  Si  Si23  1  0.75000000  0.67311611  0.82688389  1
  Si  Si24  1  0.25000000  0.67311611  0.82688389  1
  Si  Si25  1  0.25000000  0.32688389  0.17311611  1
  Si  Si26  1  0.75000000  0.17311611  0.67311611  1
  Si  Si27  1  0.75000000  0.82688389  0.32688389  1
  Si  Si28  1  0.25264278  0.50000000  0.50000000  1
  Si  Si29  1  0.75264278  0.00000000  0.00000000  1
  Si  Si30  1  0.74735722  0.50000000  0.50000000  1
  Si  Si31  1  0.24735722  -0.00000000  0.00000000  1
  Si  Si32  1  0.50000000  0.97330224  0.68496035  1
  Si  Si33  1  0.50000000  0.02669776  0.31503965  1
  Si  Si34  1  -0.00000000  0.52669776  0.18496035  1
  Si  Si35  1  0.00000000  0.47330224  0.81503965  1
  Si  Si36  1  0.50000000  0.68496035  0.02669776  1
  Si  Si37  1  0.50000000  0.31503965  0.97330224  1
  Si  Si38  1  -0.00000000  0.18496035  0.47330224  1
  Si  Si39  1  0.00000000  0.81503965  0.52669776  1
