# generated using pymatgen
data_Pr4(LuS2)11
_symmetry_space_group_name_H-M   'P 1'
_cell_length_a   3.92041343
_cell_length_b   11.26918245
_cell_length_c   19.52539495
_cell_angle_alpha   91.34630872
_cell_angle_beta   95.76178463
_cell_angle_gamma   90.00000000
_symmetry_Int_Tables_number   1
_chemical_formula_structural   Pr4(LuS2)11
_chemical_formula_sum   'Pr4 Lu11 S22'
_cell_volume   858.03166433
_cell_formula_units_Z   1
loop_
 _symmetry_equiv_pos_site_id
 _symmetry_equiv_pos_as_xyz
  1  'x, y, z'
loop_
 _atom_site_type_symbol
 _atom_site_label
 _atom_site_symmetry_multiplicity
 _atom_site_fract_x
 _atom_site_fract_y
 _atom_site_fract_z
 _atom_site_occupancy
  Pr  Pr0  1  0.10424631  0.01306073  0.20849262  1
  Pr  Pr1  1  0.89575369  0.98693927  0.79150738  1
  Pr  Pr2  1  0.36683379  0.34834532  0.73366758  1
  Pr  Pr3  1  0.63316621  0.65165468  0.26633242  1
  Lu  Lu4  1  0.79762754  0.05814153  0.59525508  1
  Lu  Lu5  1  0.20237246  0.94185847  0.40474492  1
  Lu  Lu6  1  0.46189818  0.27077096  0.92379636  1
  Lu  Lu7  1  0.53810182  0.72922904  0.07620364  1
  Lu  Lu8  1  0.65780673  0.30098798  0.31561347  1
  Lu  Lu9  1  0.34219327  0.69901202  0.68438653  1
  Lu  Lu10  1  0.26327021  0.35186256  0.52654043  1
  Lu  Lu11  1  0.73672979  0.64813744  0.47345957  1
  Lu  Lu12  1  0.06957790  0.36153328  0.13915580  1
  Lu  Lu13  1  0.93042210  0.63846672  0.86084420  1
  Lu  Lu14  1  0.00000000  -0.00000000  0.00000000  1
  S  S15  1  0.08685880  0.75275851  0.17371760  1
  S  S16  1  0.91314120  0.24724149  0.82628240  1
  S  S17  1  0.18990959  0.69150274  0.37981918  1
  S  S18  1  0.81009041  0.30849726  0.62018082  1
  S  S19  1  0.28021177  0.58922634  0.56042354  1
  S  S20  1  0.71978823  0.41077366  0.43957646  1
  S  S21  1  0.44498792  0.49362560  0.88997584  1
  S  S22  1  0.55501208  0.50637440  0.11002416  1
  S  S23  1  0.13485606  0.45107539  0.26971212  1
  S  S24  1  0.86514394  0.54892461  0.73028788  1
  S  S25  1  0.59284890  0.21449761  0.18569781  1
  S  S26  1  0.40715110  0.78550239  0.81430219  1
  S  S27  1  0.45359405  0.03162335  0.90718810  1
  S  S28  1  0.54640595  0.96837665  0.09281190  1
  S  S29  1  0.34975890  0.09173855  0.69951781  1
  S  S30  1  0.65024110  0.90826145  0.30048219  1
  S  S31  1  0.16909595  0.15255288  0.33819190  1
  S  S32  1  0.83090405  0.84744712  0.66180810  1
  S  S33  1  0.00786405  0.24042386  0.01572809  1
  S  S34  1  0.99213595  0.75957614  0.98427191  1
  S  S35  1  0.25512853  0.11932817  0.51025707  1
  S  S36  1  0.74487147  0.88067183  0.48974293  1
