# generated using pymatgen
data_Rb2LuSi4O10F
_symmetry_space_group_name_H-M   'P 1'
_cell_length_a   8.63635868
_cell_length_b   11.80032384
_cell_length_c   11.94651484
_cell_angle_alpha   111.73663194
_cell_angle_beta   90.00000000
_cell_angle_gamma   90.00000000
_symmetry_Int_Tables_number   1
_chemical_formula_structural   Rb2LuSi4O10F
_chemical_formula_sum   'Rb8 Lu4 Si16 O40 F4'
_cell_volume   1130.92266928
_cell_formula_units_Z   4
loop_
 _symmetry_equiv_pos_site_id
 _symmetry_equiv_pos_as_xyz
  1  'x, y, z'
loop_
 _atom_site_type_symbol
 _atom_site_label
 _atom_site_symmetry_multiplicity
 _atom_site_fract_x
 _atom_site_fract_y
 _atom_site_fract_z
 _atom_site_occupancy
  Rb  Rb0  1  0.25000000  0.55331553  0.45004734  1
  Rb  Rb1  1  0.75000000  0.44668447  0.54995266  1
  Rb  Rb2  1  0.75000000  0.91799377  0.92087458  1
  Rb  Rb3  1  0.25000000  0.08200623  0.07912542  1
  Rb  Rb4  1  0.25000000  0.00049324  0.47132403  1
  Rb  Rb5  1  0.75000000  0.99950676  0.52867597  1
  Rb  Rb6  1  0.75000000  0.53560135  0.96858764  1
  Rb  Rb7  1  0.25000000  0.46439865  0.03141236  1
  Lu  Lu8  1  0.50357484  0.70654593  0.29052536  1
  Lu  Lu9  1  0.00357484  0.29345407  0.70947464  1
  Lu  Lu10  1  0.49642516  0.29345407  0.70947464  1
  Lu  Lu11  1  0.99642516  0.70654593  0.29052536  1
  Si  Si12  1  0.43733507  0.61283297  0.77038626  1
  Si  Si13  1  0.93733507  0.38716703  0.22961374  1
  Si  Si14  1  0.56266493  0.38716703  0.22961374  1
  Si  Si15  1  0.06266493  0.61283297  0.77038626  1
  Si  Si16  1  0.56869011  0.98113707  0.24444132  1
  Si  Si17  1  0.06869011  0.01886293  0.75555868  1
  Si  Si18  1  0.43130989  0.01886293  0.75555868  1
  Si  Si19  1  0.93130989  0.98113707  0.24444132  1
  Si  Si20  1  0.93345694  0.75695026  0.61590830  1
  Si  Si21  1  0.43345694  0.24304974  0.38409170  1
  Si  Si22  1  0.06654306  0.24304974  0.38409170  1
  Si  Si23  1  0.56654306  0.75695026  0.61590830  1
  Si  Si24  1  0.43209935  0.77489497  0.03639320  1
  Si  Si25  1  0.93209935  0.22510503  0.96360680  1
  Si  Si26  1  0.56790065  0.22510503  0.96360680  1
  Si  Si27  1  0.06790065  0.77489497  0.03639320  1
  O  O28  1  0.25000000  0.59819967  0.77899839  1
  O  O29  1  0.75000000  0.40180033  0.22100161  1
  O  O30  1  0.25000000  0.27367011  0.36723986  1
  O  O31  1  0.75000000  0.72632989  0.63276014  1
  O  O32  1  0.49435059  0.72553407  0.89521926  1
  O  O33  1  0.99435059  0.27446593  0.10478074  1
  O  O34  1  0.50564941  0.27446593  0.10478074  1
  O  O35  1  0.00564941  0.72553407  0.89521926  1
  O  O36  1  0.46904678  0.65823228  0.65685555  1
  O  O37  1  0.96904678  0.34176772  0.34314445  1
  O  O38  1  0.53095322  0.34176772  0.34314445  1
  O  O39  1  0.03095322  0.65823228  0.65685555  1
  O  O40  1  0.75000000  0.02666511  0.25095434  1
  O  O41  1  0.25000000  0.97333489  0.74904566  1
  O  O42  1  0.46075790  0.10486709  0.28161293  1
  O  O43  1  0.96075790  0.89513291  0.71838707  1
  O  O44  1  0.53924210  0.89513291  0.71838707  1
  O  O45  1  0.03924210  0.10486709  0.28161293  1
  O  O46  1  0.52820162  0.90550736  0.09961039  1
  O  O47  1  0.02820162  0.09449264  0.90038961  1
  O  O48  1  0.47179838  0.09449264  0.90038961  1
  O  O49  1  0.97179838  0.90550736  0.09961039  1
  O  O50  1  0.25000000  0.81714455  0.03675330  1
  O  O51  1  0.75000000  0.18285545  0.96324670  1
  O  O52  1  0.52700954  0.48842601  0.75155678  1
  O  O53  1  0.02700954  0.51157399  0.24844322  1
  O  O54  1  0.47299046  0.51157399  0.24844322  1
  O  O55  1  0.97299046  0.48842601  0.75155678  1
  O  O56  1  0.53186424  0.90241832  0.32500880  1
  O  O57  1  0.03186424  0.09758168  0.67499120  1
  O  O58  1  0.46813576  0.09758168  0.67499120  1
  O  O59  1  0.96813576  0.90241832  0.32500880  1
  O  O60  1  0.46227861  0.67986131  0.10035983  1
  O  O61  1  0.96227861  0.32013869  0.89964017  1
  O  O62  1  0.53772139  0.32013869  0.89964017  1
  O  O63  1  0.03772139  0.67986131  0.10035983  1
  O  O64  1  0.52224925  0.74565710  0.48285368  1
  O  O65  1  0.02224925  0.25434290  0.51714632  1
  O  O66  1  0.47775075  0.25434290  0.51714632  1
  O  O67  1  0.97775075  0.74565710  0.48285368  1
  F  F68  1  0.25000000  0.72973876  0.32102933  1
  F  F69  1  0.75000000  0.27026124  0.67897067  1
  F  F70  1  0.75000000  0.68182141  0.25371732  1
  F  F71  1  0.25000000  0.31817859  0.74628268  1
