# generated using pymatgen
data_VH4NF4
_symmetry_space_group_name_H-M   'P 1'
_cell_length_a   12.48423719
_cell_length_b   12.48423719
_cell_length_c   13.21569279
_cell_angle_alpha   90.00000000
_cell_angle_beta   90.00000000
_cell_angle_gamma   90.00000000
_symmetry_Int_Tables_number   1
_chemical_formula_structural   VH4NF4
_chemical_formula_sum   'V20 H80 N20 F80'
_cell_volume   2059.74737073
_cell_formula_units_Z   20
loop_
 _symmetry_equiv_pos_site_id
 _symmetry_equiv_pos_as_xyz
  1  'x, y, z'
loop_
 _atom_site_type_symbol
 _atom_site_label
 _atom_site_symmetry_multiplicity
 _atom_site_fract_x
 _atom_site_fract_y
 _atom_site_fract_z
 _atom_site_occupancy
  V  V0  1  0.75000000  0.75000000  0.74483262  1
  V  V1  1  0.75000000  0.75000000  0.24483262  1
  V  V2  1  0.25000000  0.25000000  0.25516738  1
  V  V3  1  0.25000000  0.25000000  0.75516738  1
  V  V4  1  0.45573462  0.67072688  0.75849639  1
  V  V5  1  0.45573462  0.82927312  0.25849639  1
  V  V6  1  0.04426538  0.67072688  0.25849639  1
  V  V7  1  0.04426538  0.82927312  0.75849639  1
  V  V8  1  0.67072688  0.45573462  0.75849639  1
  V  V9  1  0.82927312  0.45573462  0.25849639  1
  V  V10  1  0.67072688  0.04426538  0.25849639  1
  V  V11  1  0.82927312  0.04426538  0.75849639  1
  V  V12  1  0.54426538  0.32927312  0.24150361  1
  V  V13  1  0.54426538  0.17072688  0.74150361  1
  V  V14  1  0.95573462  0.32927312  0.74150361  1
  V  V15  1  0.95573462  0.17072688  0.24150361  1
  V  V16  1  0.32927312  0.54426538  0.24150361  1
  V  V17  1  0.17072688  0.54426538  0.74150361  1
  V  V18  1  0.32927312  0.95573462  0.74150361  1
  V  V19  1  0.17072688  0.95573462  0.24150361  1
  H  H20  1  0.65465594  0.65465594  0.05902326  1
  H  H21  1  0.65465594  0.84534406  0.55902326  1
  H  H22  1  0.84534406  0.65465594  0.55902326  1
  H  H23  1  0.84534406  0.84534406  0.05902326  1
  H  H24  1  0.34534406  0.34534406  0.94097674  1
  H  H25  1  0.34534406  0.15465594  0.44097674  1
  H  H26  1  0.15465594  0.34534406  0.44097674  1
  H  H27  1  0.15465594  0.15465594  0.94097674  1
  H  H28  1  0.53994395  0.63636569  0.99245188  1
  H  H29  1  0.53994395  0.86363431  0.49245188  1
  H  H30  1  0.96005605  0.63636569  0.49245188  1
  H  H31  1  0.96005605  0.86363431  0.99245188  1
  H  H32  1  0.63636569  0.53994395  0.99245188  1
  H  H33  1  0.86363431  0.53994395  0.49245188  1
  H  H34  1  0.63636569  0.96005605  0.49245188  1
  H  H35  1  0.86363431  0.96005605  0.99245188  1
  H  H36  1  0.46005605  0.36363431  0.00754812  1
  H  H37  1  0.46005605  0.13636569  0.50754812  1
  H  H38  1  0.03994395  0.36363431  0.50754812  1
  H  H39  1  0.03994395  0.13636569  0.00754812  1
  H  H40  1  0.36363431  0.46005605  0.00754812  1
  H  H41  1  0.13636569  0.46005605  0.50754812  1
  H  H42  1  0.36363431  0.03994395  0.50754812  1
  H  H43  1  0.13636569  0.03994395  0.00754812  1
  H  H44  1  0.68143802  0.24918467  0.54422703  1
  H  H45  1  0.68143802  0.25081533  0.04422703  1
  H  H46  1  0.81856198  0.24918467  0.04422703  1
  H  H47  1  0.81856198  0.25081533  0.54422703  1
  H  H48  1  0.24918467  0.68143802  0.54422703  1
  H  H49  1  0.25081533  0.68143802  0.04422703  1
  H  H50  1  0.24918467  0.81856198  0.04422703  1
  H  H51  1  0.25081533  0.81856198  0.54422703  1
  H  H52  1  0.31856198  0.75081533  0.45577297  1
  H  H53  1  0.31856198  0.74918467  0.95577297  1
  H  H54  1  0.18143802  0.75081533  0.95577297  1
  H  H55  1  0.18143802  0.74918467  0.45577297  1
  H  H56  1  0.75081533  0.31856198  0.45577297  1
  H  H57  1  0.74918467  0.31856198  0.95577297  1
  H  H58  1  0.75081533  0.18143802  0.95577297  1
  H  H59  1  0.74918467  0.18143802  0.45577297  1
  H  H60  1  0.64848819  0.64848819  0.42991941  1
  H  H61  1  0.64848819  0.85151181  0.92991941  1
  H  H62  1  0.85151181  0.64848819  0.92991941  1
  H  H63  1  0.85151181  0.85151181  0.42991941  1
  H  H64  1  0.35151181  0.35151181  0.57008059  1
  H  H65  1  0.35151181  0.14848819  0.07008059  1
  H  H66  1  0.14848819  0.35151181  0.07008059  1
  H  H67  1  0.14848819  0.14848819  0.57008059  1
  H  H68  1  0.56371597  0.56371597  0.09985389  1
  H  H69  1  0.56371597  0.93628403  0.59985389  1
  H  H70  1  0.93628403  0.56371597  0.59985389  1
  H  H71  1  0.93628403  0.93628403  0.09985389  1
  H  H72  1  0.43628403  0.43628403  0.90014611  1
  H  H73  1  0.43628403  0.06371597  0.40014611  1
  H  H74  1  0.06371597  0.43628403  0.40014611  1
  H  H75  1  0.06371597  0.06371597  0.90014611  1
  H  H76  1  0.58451167  0.58451167  0.52597595  1
  H  H77  1  0.58451167  0.91548833  0.02597595  1
  H  H78  1  0.91548833  0.58451167  0.02597595  1
  H  H79  1  0.91548833  0.91548833  0.52597595  1
  H  H80  1  0.41548833  0.41548833  0.47402405  1
  H  H81  1  0.41548833  0.08451167  0.97402405  1
  H  H82  1  0.08451167  0.41548833  0.97402405  1
  H  H83  1  0.08451167  0.08451167  0.47402405  1
  H  H84  1  0.61271926  0.51753358  0.41977045  1
  H  H85  1  0.61271926  0.98246642  0.91977045  1
  H  H86  1  0.88728074  0.51753358  0.91977045  1
  H  H87  1  0.88728074  0.98246642  0.41977045  1
  H  H88  1  0.51753358  0.61271926  0.41977045  1
  H  H89  1  0.98246642  0.61271926  0.91977045  1
  H  H90  1  0.51753358  0.88728074  0.91977045  1
  H  H91  1  0.98246642  0.88728074  0.41977045  1
  H  H92  1  0.38728074  0.48246642  0.58022955  1
  H  H93  1  0.38728074  0.01753358  0.08022955  1
  H  H94  1  0.11271926  0.48246642  0.08022955  1
  H  H95  1  0.11271926  0.01753358  0.58022955  1
  H  H96  1  0.48246642  0.38728074  0.58022955  1
  H  H97  1  0.01753358  0.38728074  0.08022955  1
  H  H98  1  0.48246642  0.11271926  0.08022955  1
  H  H99  1  0.01753358  0.11271926  0.58022955  1
  N  N100  1  0.75000000  0.25000000  0.50000000  1
  N  N101  1  0.75000000  0.25000000  -0.00000000  1
  N  N102  1  0.25000000  0.75000000  0.50000000  1
  N  N103  1  0.25000000  0.75000000  -0.00000000  1
  N  N104  1  0.59141663  0.59141663  0.44836725  1
  N  N105  1  0.59141663  0.90858337  0.94836725  1
  N  N106  1  0.90858337  0.59141663  0.94836725  1
  N  N107  1  0.90858337  0.90858337  0.44836725  1
  N  N108  1  0.40858337  0.40858337  0.55163275  1
  N  N109  1  0.40858337  0.09141663  0.05163275  1
  N  N110  1  0.09141663  0.40858337  0.05163275  1
  N  N111  1  0.09141663  0.09141663  0.55163275  1
  N  N112  1  0.59800355  0.59800355  0.03656293  1
  N  N113  1  0.59800355  0.90199645  0.53656293  1
  N  N114  1  0.90199645  0.59800355  0.53656293  1
  N  N115  1  0.90199645  0.90199645  0.03656293  1
  N  N116  1  0.40199645  0.40199645  0.96343707  1
  N  N117  1  0.40199645  0.09800355  0.46343707  1
  N  N118  1  0.09800355  0.40199645  0.46343707  1
  N  N119  1  0.09800355  0.09800355  0.96343707  1
  F  F120  1  0.45528443  0.63181441  0.61885989  1
  F  F121  1  0.45528443  0.86818559  0.11885989  1
  F  F122  1  0.04471557  0.63181441  0.11885989  1
  F  F123  1  0.04471557  0.86818559  0.61885989  1
  F  F124  1  0.63181441  0.45528443  0.61885989  1
  F  F125  1  0.86818559  0.45528443  0.11885989  1
  F  F126  1  0.63181441  0.04471557  0.11885989  1
  F  F127  1  0.86818559  0.04471557  0.61885989  1
  F  F128  1  0.54471557  0.36818559  0.38114011  1
  F  F129  1  0.54471557  0.13181441  0.88114011  1
  F  F130  1  0.95528443  0.36818559  0.88114011  1
  F  F131  1  0.95528443  0.13181441  0.38114011  1
  F  F132  1  0.36818559  0.54471557  0.38114011  1
  F  F133  1  0.13181441  0.54471557  0.88114011  1
  F  F134  1  0.36818559  0.95528443  0.88114011  1
  F  F135  1  0.13181441  0.95528443  0.38114011  1
  F  F136  1  0.75000000  0.75000000  0.89082608  1
  F  F137  1  0.75000000  0.75000000  0.39082608  1
  F  F138  1  0.25000000  0.25000000  0.10917392  1
  F  F139  1  0.25000000  0.25000000  0.60917392  1
  F  F140  1  0.75000000  0.75000000  0.59796130  1
  F  F141  1  0.75000000  0.75000000  0.09796130  1
  F  F142  1  0.25000000  0.25000000  0.40203870  1
  F  F143  1  0.25000000  0.25000000  0.90203870  1
  F  F144  1  0.31471982  0.60900847  0.77885586  1
  F  F145  1  0.31471982  0.89099153  0.27885586  1
  F  F146  1  0.18528018  0.60900847  0.27885586  1
  F  F147  1  0.18528018  0.89099153  0.77885586  1
  F  F148  1  0.60900847  0.31471982  0.77885586  1
  F  F149  1  0.89099153  0.31471982  0.27885586  1
  F  F150  1  0.60900847  0.18528018  0.27885586  1
  F  F151  1  0.89099153  0.18528018  0.77885586  1
  F  F152  1  0.68528018  0.39099153  0.22114414  1
  F  F153  1  0.68528018  0.10900847  0.72114414  1
  F  F154  1  0.81471982  0.39099153  0.72114414  1
  F  F155  1  0.81471982  0.10900847  0.22114414  1
  F  F156  1  0.39099153  0.68528018  0.22114414  1
  F  F157  1  0.10900847  0.68528018  0.72114414  1
  F  F158  1  0.39099153  0.81471982  0.72114414  1
  F  F159  1  0.10900847  0.81471982  0.22114414  1
  F  F160  1  0.52899895  0.52899895  0.79636694  1
  F  F161  1  0.52899895  0.97100105  0.29636694  1
  F  F162  1  0.97100105  0.52899895  0.29636694  1
  F  F163  1  0.97100105  0.97100105  0.79636694  1
  F  F164  1  0.47100105  0.47100105  0.20363306  1
  F  F165  1  0.47100105  0.02899895  0.70363306  1
  F  F166  1  0.02899895  0.47100105  0.70363306  1
  F  F167  1  0.02899895  0.02899895  0.20363306  1
  F  F168  1  0.45689745  0.70604263  0.90353362  1
  F  F169  1  0.45689745  0.79395737  0.40353362  1
  F  F170  1  0.04310255  0.70604263  0.40353362  1
  F  F171  1  0.04310255  0.79395737  0.90353362  1
  F  F172  1  0.70604263  0.45689745  0.90353362  1
  F  F173  1  0.79395737  0.45689745  0.40353362  1
  F  F174  1  0.70604263  0.04310255  0.40353362  1
  F  F175  1  0.79395737  0.04310255  0.90353362  1
  F  F176  1  0.54310255  0.29395737  0.09646638  1
  F  F177  1  0.54310255  0.20604263  0.59646638  1
  F  F178  1  0.95689745  0.29395737  0.59646638  1
  F  F179  1  0.95689745  0.20604263  0.09646638  1
  F  F180  1  0.29395737  0.54310255  0.09646638  1
  F  F181  1  0.20604263  0.54310255  0.59646638  1
  F  F182  1  0.29395737  0.95689745  0.59646638  1
  F  F183  1  0.20604263  0.95689745  0.09646638  1
  F  F184  1  0.59211847  0.75131941  0.74318242  1
  F  F185  1  0.59211847  0.74868059  0.24318242  1
  F  F186  1  0.90788153  0.75131941  0.24318242  1
  F  F187  1  0.90788153  0.74868059  0.74318242  1
  F  F188  1  0.75131941  0.59211847  0.74318242  1
  F  F189  1  0.74868059  0.59211847  0.24318242  1
  F  F190  1  0.75131941  0.90788153  0.24318242  1
  F  F191  1  0.74868059  0.90788153  0.74318242  1
  F  F192  1  0.40788153  0.24868059  0.25681758  1
  F  F193  1  0.40788153  0.25131941  0.75681758  1
  F  F194  1  0.09211847  0.24868059  0.75681758  1
  F  F195  1  0.09211847  0.25131941  0.25681758  1
  F  F196  1  0.24868059  0.40788153  0.25681758  1
  F  F197  1  0.25131941  0.40788153  0.75681758  1
  F  F198  1  0.24868059  0.09211847  0.75681758  1
  F  F199  1  0.25131941  0.09211847  0.25681758  1
