# generated using pymatgen
data_SbHSF10
_symmetry_space_group_name_H-M   'P 1'
_cell_length_a   5.73999517
_cell_length_b   10.64946596
_cell_length_c   12.97111438
_cell_angle_alpha   90.00000000
_cell_angle_beta   98.18512688
_cell_angle_gamma   90.00000000
_symmetry_Int_Tables_number   1
_chemical_formula_structural   SbHSF10
_chemical_formula_sum   'Sb4 H4 S4 F40'
_cell_volume   784.81970122
_cell_formula_units_Z   4
loop_
 _symmetry_equiv_pos_site_id
 _symmetry_equiv_pos_as_xyz
  1  'x, y, z'
loop_
 _atom_site_type_symbol
 _atom_site_label
 _atom_site_symmetry_multiplicity
 _atom_site_fract_x
 _atom_site_fract_y
 _atom_site_fract_z
 _atom_site_occupancy
  Sb  Sb0  1  0.12345108  0.74461774  0.96698028  1
  Sb  Sb1  1  0.87654892  0.24461774  0.53301972  1
  Sb  Sb2  1  0.87654892  0.25538226  0.03301972  1
  Sb  Sb3  1  0.12345108  0.75538226  0.46698028  1
  H  H4  1  0.25897124  0.10850979  0.88064934  1
  H  H5  1  0.74102876  0.60850979  0.61935066  1
  H  H6  1  0.74102876  0.89149021  0.11935066  1
  H  H7  1  0.25897124  0.39149021  0.38064934  1
  S  S8  1  0.45435059  0.47322986  0.79309877  1
  S  S9  1  0.54564941  0.97322986  0.70690123  1
  S  S10  1  0.54564941  0.52677014  0.20690123  1
  S  S11  1  0.45435059  0.02677014  0.29309877  1
  F  F12  1  0.22443245  0.67231103  0.10301436  1
  F  F13  1  0.77556755  0.17231103  0.39698564  1
  F  F14  1  0.77556755  0.32768897  0.89698564  1
  F  F15  1  0.22443245  0.82768897  0.60301436  1
  F  F16  1  0.03335041  0.81537980  0.83240825  1
  F  F17  1  0.96664959  0.31537980  0.66759175  1
  F  F18  1  0.96664959  0.18462020  0.16759175  1
  F  F19  1  0.03335041  0.68462020  0.33240825  1
  F  F20  1  0.34814430  0.87473167  0.99960244  1
  F  F21  1  0.65185570  0.37473167  0.50039756  1
  F  F22  1  0.65185570  0.12526833  0.00039756  1
  F  F23  1  0.34814430  0.62526833  0.49960244  1
  F  F24  1  0.89973821  0.61343393  0.93573557  1
  F  F25  1  0.10026179  0.11343393  0.56426443  1
  F  F26  1  0.10026179  0.38656607  0.06426443  1
  F  F27  1  0.89973821  0.88656607  0.43573557  1
  F  F28  1  0.36188514  0.64212280  0.91488882  1
  F  F29  1  0.63811486  0.14212280  0.58511118  1
  F  F30  1  0.63811486  0.35787720  0.08511118  1
  F  F31  1  0.36188514  0.85787720  0.41488882  1
  F  F32  1  0.88911026  0.84403935  0.02357363  1
  F  F33  1  0.11088974  0.34403935  0.47642637  1
  F  F34  1  0.11088974  0.15596065  0.97642637  1
  F  F35  1  0.88911026  0.65596065  0.52357363  1
  F  F36  1  0.48740548  0.36835146  0.71430780  1
  F  F37  1  0.51259452  0.86835146  0.78569220  1
  F  F38  1  0.51259452  0.63164854  0.28569220  1
  F  F39  1  0.48740548  0.13164854  0.21430780  1
  F  F40  1  0.29586184  0.39717521  0.85785453  1
  F  F41  1  0.70413816  0.89717521  0.64214547  1
  F  F42  1  0.70413816  0.60282479  0.14214547  1
  F  F43  1  0.29586184  0.10282479  0.35785453  1
  F  F44  1  0.25571566  0.54414603  0.72389747  1
  F  F45  1  0.74428434  0.04414603  0.77610253  1
  F  F46  1  0.74428434  0.45585397  0.27610253  1
  F  F47  1  0.25571566  0.95585397  0.22389747  1
  F  F48  1  0.29304051  0.09847013  0.81059931  1
  F  F49  1  0.70695949  0.59847013  0.68940069  1
  F  F50  1  0.70695949  0.90152987  0.18940069  1
  F  F51  1  0.29304051  0.40152987  0.31059931  1
