# generated using pymatgen
data_InSb(P2O7)2
_symmetry_space_group_name_H-M   'P 1'
_cell_length_a   8.08790290
_cell_length_b   8.12305915
_cell_length_c   16.38977715
_cell_angle_alpha   90.00000000
_cell_angle_beta   90.00000000
_cell_angle_gamma   90.00000000
_symmetry_Int_Tables_number   1
_chemical_formula_structural   InSb(P2O7)2
_chemical_formula_sum   'In4 Sb4 P16 O56'
_cell_volume   1076.78399791
_cell_formula_units_Z   4
loop_
 _symmetry_equiv_pos_site_id
 _symmetry_equiv_pos_as_xyz
  1  'x, y, z'
loop_
 _atom_site_type_symbol
 _atom_site_label
 _atom_site_symmetry_multiplicity
 _atom_site_fract_x
 _atom_site_fract_y
 _atom_site_fract_z
 _atom_site_occupancy
  In  In0  1  0.98642589  0.24623635  0.62726285  1
  In  In1  1  0.01357411  0.74623635  0.37273715  1
  In  In2  1  0.51357411  0.74623635  0.12726285  1
  In  In3  1  0.48642589  0.24623635  0.87273715  1
  Sb  Sb4  1  0.98590599  0.74535598  0.87780300  1
  Sb  Sb5  1  0.01409401  0.24535598  0.12219700  1
  Sb  Sb6  1  0.51409401  0.24535598  0.37780300  1
  Sb  Sb7  1  0.48590599  0.74535598  0.62219700  1
  P  P8  1  0.09056239  0.36624074  0.93305132  1
  P  P9  1  0.90943761  0.86624074  0.06694868  1
  P  P10  1  0.40943761  0.86624074  0.43305132  1
  P  P11  1  0.59056239  0.36624074  0.56694868  1
  P  P12  1  0.89310682  0.12988219  0.83049210  1
  P  P13  1  0.10689318  0.62988219  0.16950790  1
  P  P14  1  0.60689318  0.62988219  0.33049210  1
  P  P15  1  0.39310682  0.12988219  0.66950790  1
  P  P16  1  0.10057418  0.64440015  0.68653368  1
  P  P17  1  0.89942582  0.14440015  0.31346632  1
  P  P18  1  0.39942582  0.14440015  0.18653368  1
  P  P19  1  0.60057418  0.64440015  0.81346632  1
  P  P20  1  0.87827888  0.84674098  0.57600021  1
  P  P21  1  0.12172112  0.34674098  0.42399979  1
  P  P22  1  0.62172112  0.34674098  0.07600021  1
  P  P23  1  0.37827888  0.84674098  0.92399979  1
  O  O24  1  0.14104528  0.52662119  0.40284881  1
  O  O25  1  0.85895472  0.02662119  0.59715119  1
  O  O26  1  0.35895472  0.02662119  0.90284881  1
  O  O27  1  0.64104528  0.52662119  0.09715119  1
  O  O28  1  0.02275029  0.29899115  0.49735566  1
  O  O29  1  0.97724971  0.79899115  0.50264434  1
  O  O30  1  0.47724971  0.79899115  0.99735566  1
  O  O31  1  0.52275029  0.29899115  0.00264434  1
  O  O32  1  0.92065032  0.13446198  0.21980228  1
  O  O33  1  0.07934968  0.63446198  0.78019772  1
  O  O34  1  0.57934968  0.63446198  0.71980228  1
  O  O35  1  0.42065032  0.13446198  0.28019772  1
  O  O36  1  0.04536133  0.26038293  0.34260086  1
  O  O37  1  0.95463867  0.76038293  0.65739914  1
  O  O38  1  0.45463867  0.76038293  0.84260086  1
  O  O39  1  0.54536133  0.26038293  0.15739914  1
  O  O40  1  0.23721173  0.23708002  0.17040585  1
  O  O41  1  0.76278827  0.73708002  0.82959415  1
  O  O42  1  0.26278827  0.73708002  0.67040585  1
  O  O43  1  0.73721173  0.23708002  0.32959415  1
  O  O44  1  0.47217030  0.51792545  0.57509330  1
  O  O45  1  0.52782970  0.01792545  0.42490670  1
  O  O46  1  0.02782970  0.01792545  0.07509330  1
  O  O47  1  0.97217030  0.51792545  0.92490670  1
  O  O48  1  0.20359850  0.76389166  0.93097647  1
  O  O49  1  0.79640150  0.26389166  0.06902353  1
  O  O50  1  0.29640150  0.26389166  0.43097647  1
  O  O51  1  0.70359850  0.76389166  0.56902353  1
  O  O52  1  0.02196193  0.71392767  0.09000016  1
  O  O53  1  0.97803807  0.21392767  0.90999984  1
  O  O54  1  0.47803807  0.21392767  0.59000016  1
  O  O55  1  0.52196193  0.71392767  0.40999984  1
  O  O56  1  0.09949644  0.47852199  0.64707173  1
  O  O57  1  0.90050356  0.97852199  0.35292827  1
  O  O58  1  0.40050356  0.97852199  0.14707173  1
  O  O59  1  0.59949644  0.47852199  0.85292827  1
  O  O60  1  0.50541581  0.46424053  0.32391336  1
  O  O61  1  0.49458419  0.96424053  0.67608664  1
  O  O62  1  0.99458419  0.96424053  0.82391336  1
  O  O63  1  0.00541581  0.46424053  0.17608664  1
  O  O64  1  0.06876212  0.73302003  0.24340110  1
  O  O65  1  0.93123788  0.23302003  0.75659890  1
  O  O66  1  0.43123788  0.23302003  0.74340110  1
  O  O67  1  0.56876212  0.73302003  0.25659890  1
  O  O68  1  0.37168320  0.83673171  0.52500243  1
  O  O69  1  0.62831680  0.33673171  0.47499757  1
  O  O70  1  0.12831680  0.33673171  0.02500243  1
  O  O71  1  0.87168320  0.83673171  0.97499757  1
  O  O72  1  0.24771217  0.37688703  0.88509037  1
  O  O73  1  0.75228783  0.87688703  0.11490963  1
  O  O74  1  0.25228783  0.87688703  0.38509037  1
  O  O75  1  0.74771217  0.37688703  0.61490963  1
  O  O76  1  0.28604529  0.60586026  0.14622293  1
  O  O77  1  0.71395471  0.10586026  0.85377707  1
  O  O78  1  0.21395471  0.10586026  0.64622293  1
  O  O79  1  0.78604529  0.60586026  0.35377707  1
