# generated using pymatgen
data_Lu5(Ge5Ir2)2
_symmetry_space_group_name_H-M   'P 1'
_cell_length_a   4.29470786
_cell_length_b   12.97806881
_cell_length_c   12.97806881
_cell_angle_alpha   90.00000000
_cell_angle_beta   90.00000000
_cell_angle_gamma   90.00000000
_symmetry_Int_Tables_number   1
_chemical_formula_structural   Lu5(Ge5Ir2)2
_chemical_formula_sum   'Lu10 Ge20 Ir8'
_cell_volume   723.35880459
_cell_formula_units_Z   2
loop_
 _symmetry_equiv_pos_site_id
 _symmetry_equiv_pos_as_xyz
  1  'x, y, z'
loop_
 _atom_site_type_symbol
 _atom_site_label
 _atom_site_symmetry_multiplicity
 _atom_site_fract_x
 _atom_site_fract_y
 _atom_site_fract_z
 _atom_site_occupancy
  Lu  Lu0  1  0.00000000  0.50000000  0.50000000  1
  Lu  Lu1  1  -0.00000000  -0.00000000  -0.00000000  1
  Lu  Lu2  1  0.50000000  0.17392784  0.67392784  1
  Lu  Lu3  1  0.50000000  0.82607216  0.32607216  1
  Lu  Lu4  1  0.50000000  0.32607216  0.17392784  1
  Lu  Lu5  1  0.50000000  0.67392784  0.82607216  1
  Lu  Lu6  1  0.50000000  0.38412493  0.88412493  1
  Lu  Lu7  1  0.50000000  0.61587507  0.11587507  1
  Lu  Lu8  1  0.50000000  0.11587507  0.38412493  1
  Lu  Lu9  1  0.50000000  0.88412493  0.61587507  1
  Ge  Ge10  1  0.00000000  0.06620621  0.56620621  1
  Ge  Ge11  1  -0.00000000  0.93379379  0.43379379  1
  Ge  Ge12  1  -0.00000000  0.43379379  0.06620621  1
  Ge  Ge13  1  0.00000000  0.56620621  0.93379379  1
  Ge  Ge14  1  -0.00000000  0.70013896  0.66340053  1
  Ge  Ge15  1  0.00000000  0.29986104  0.33659947  1
  Ge  Ge16  1  -0.00000000  0.79986104  0.16340053  1
  Ge  Ge17  1  0.00000000  0.20013896  0.83659947  1
  Ge  Ge18  1  0.00000000  0.66340053  0.29986104  1
  Ge  Ge19  1  -0.00000000  0.33659947  0.70013896  1
  Ge  Ge20  1  0.00000000  0.16340053  0.20013896  1
  Ge  Ge21  1  -0.00000000  0.83659947  0.79986104  1
  Ge  Ge22  1  0.50000000  0.50910096  0.65437028  1
  Ge  Ge23  1  0.50000000  0.49089904  0.34562972  1
  Ge  Ge24  1  0.50000000  0.99089904  0.15437028  1
  Ge  Ge25  1  0.50000000  0.00910096  0.84562972  1
  Ge  Ge26  1  0.50000000  0.65437028  0.49089904  1
  Ge  Ge27  1  0.50000000  0.34562972  0.50910096  1
  Ge  Ge28  1  0.50000000  0.15437028  0.00910096  1
  Ge  Ge29  1  0.50000000  0.84562972  0.99089904  1
  Ir  Ir30  1  0.00000000  0.52086752  0.74696850  1
  Ir  Ir31  1  -0.00000000  0.47913248  0.25303150  1
  Ir  Ir32  1  0.00000000  0.97913248  0.24696850  1
  Ir  Ir33  1  -0.00000000  0.02086752  0.75303150  1
  Ir  Ir34  1  -0.00000000  0.74696850  0.47913248  1
  Ir  Ir35  1  0.00000000  0.25303150  0.52086752  1
  Ir  Ir36  1  -0.00000000  0.24696850  0.02086752  1
  Ir  Ir37  1  0.00000000  0.75303150  0.97913248  1
