# generated using pymatgen
data_CrSiH8(O2F3)2
_symmetry_space_group_name_H-M   'P 1'
_cell_length_a   5.82999786
_cell_length_b   7.33983569
_cell_length_c   9.75565545
_cell_angle_alpha   90.00000000
_cell_angle_beta   90.00000000
_cell_angle_gamma   103.98912501
_symmetry_Int_Tables_number   1
_chemical_formula_structural   CrSiH8(O2F3)2
_chemical_formula_sum   'Cr2 Si2 H16 O8 F12'
_cell_volume   405.07538110
_cell_formula_units_Z   2
loop_
 _symmetry_equiv_pos_site_id
 _symmetry_equiv_pos_as_xyz
  1  'x, y, z'
loop_
 _atom_site_type_symbol
 _atom_site_label
 _atom_site_symmetry_multiplicity
 _atom_site_fract_x
 _atom_site_fract_y
 _atom_site_fract_z
 _atom_site_occupancy
  Cr  Cr0  1  -0.00000000  0.50000000  0.50000000  1
  Cr  Cr1  1  -0.00000000  -0.00000000  -0.00000000  1
  Si  Si2  1  0.50000000  -0.00000000  0.50000000  1
  Si  Si3  1  0.50000000  0.50000000  -0.00000000  1
  H  H4  1  0.22835175  0.28327572  0.35257856  1
  H  H5  1  0.77164825  0.21672428  0.85257856  1
  H  H6  1  0.77164825  0.71672428  0.64742144  1
  H  H7  1  0.22835175  0.78327572  0.14742144  1
  H  H8  1  0.22951328  0.46037723  0.26159137  1
  H  H9  1  0.77048672  0.03962277  0.76159137  1
  H  H10  1  0.77048672  0.53962277  0.73840863  1
  H  H11  1  0.22951328  0.96037723  0.23840863  1
  H  H12  1  0.24754786  0.45214869  0.73092443  1
  H  H13  1  0.75245214  0.04785131  0.23092443  1
  H  H14  1  0.75245214  0.54785131  0.26907557  1
  H  H15  1  0.24754786  0.95214869  0.76907557  1
  H  H16  1  0.25751788  0.28377199  0.63000478  1
  H  H17  1  0.74248212  0.21622801  0.13000478  1
  H  H18  1  0.74248212  0.71622801  0.36999522  1
  H  H19  1  0.25751788  0.78377199  0.86999522  1
  O  O20  1  0.14223762  0.38099187  0.33583835  1
  O  O21  1  0.85776238  0.11900813  0.83583835  1
  O  O22  1  0.85776238  0.61900813  0.66416165  1
  O  O23  1  0.14223762  0.88099187  0.16416165  1
  O  O24  1  0.21729073  0.40636195  0.63605996  1
  O  O25  1  0.78270927  0.09363805  0.13605996  1
  O  O26  1  0.78270927  0.59363805  0.36394004  1
  O  O27  1  0.21729073  0.90636195  0.86394004  1
  F  F28  1  0.68749065  0.21173758  0.53006603  1
  F  F29  1  0.31250935  0.28826242  0.03006603  1
  F  F30  1  0.31250935  0.78826242  0.46993397  1
  F  F31  1  0.68749065  0.71173758  0.96993397  1
  F  F32  1  0.30220995  0.05550692  0.61558153  1
  F  F33  1  0.69779005  0.44449308  0.11558153  1
  F  F34  1  0.69779005  0.94449308  0.38441847  1
  F  F35  1  0.30220995  0.55550692  0.88441847  1
  F  F36  1  0.37000516  0.09898376  0.36841577  1
  F  F37  1  0.62999484  0.40101624  0.86841577  1
  F  F38  1  0.62999484  0.90101624  0.63158423  1
  F  F39  1  0.37000516  0.59898376  0.13158423  1
