# generated using pymatgen
data_Na6W6Se2O25
_symmetry_space_group_name_H-M   'P 1'
_cell_length_a   6.90209246
_cell_length_b   7.40878881
_cell_length_c   21.86272708
_cell_angle_alpha   99.75519289
_cell_angle_beta   98.21723617
_cell_angle_gamma   90.00000000
_symmetry_Int_Tables_number   1
_chemical_formula_structural   Na6W6Se2O25
_chemical_formula_sum   'Na12 W12 Se4 O50'
_cell_volume   1090.16232639
_cell_formula_units_Z   2
loop_
 _symmetry_equiv_pos_site_id
 _symmetry_equiv_pos_as_xyz
  1  'x, y, z'
loop_
 _atom_site_type_symbol
 _atom_site_label
 _atom_site_symmetry_multiplicity
 _atom_site_fract_x
 _atom_site_fract_y
 _atom_site_fract_z
 _atom_site_occupancy
  Na  Na0  1  0.51085905  0.99603297  0.23159815  1
  Na  Na1  1  0.48914095  0.76443482  0.76840185  1
  Na  Na2  1  0.22948355  0.84113977  0.92590163  1
  Na  Na3  1  0.77051645  0.91523814  0.07409837  1
  Na  Na4  1  0.81492954  0.41761137  0.07225449  1
  Na  Na5  1  0.18507046  0.34535688  0.92774551  1
  Na  Na6  1  0.26062096  0.06551561  0.35714081  1
  Na  Na7  1  0.73937904  0.70837480  0.64285919  1
  Na  Na8  1  0.95245266  0.68981131  0.50361554  1
  Na  Na9  1  0.04754734  0.18619576  0.49638446  1
  Na  Na10  1  0.75923289  0.34163591  0.36392087  1
  Na  Na11  1  0.24076711  0.97771504  0.63607913  1
  W  W12  1  0.03480698  0.74739063  0.21642274  1
  W  W13  1  0.96519302  0.53096788  0.78357726  1
  W  W14  1  0.30125914  0.67503205  0.09068440  1
  W  W15  1  0.69874086  0.58434764  0.90931560  1
  W  W16  1  0.03329065  0.23500007  0.21667757  1
  W  W17  1  0.96670935  0.01832250  0.78332243  1
  W  W18  1  0.30084542  0.17454489  0.09102170  1
  W  W19  1  0.69915458  0.08352319  0.90897830  1
  W  W20  1  0.23219247  0.56616659  0.36289723  1
  W  W21  1  0.76780753  0.20326936  0.63710277  1
  W  W22  1  0.52517081  0.40591918  0.50227258  1
  W  W23  1  0.47482919  0.90364660  0.49772742  1
  Se  Se24  1  0.49811598  0.49326260  0.22797064  1
  Se  Se25  1  0.50188402  0.26529196  0.77202936  1
  Se  Se26  1  0.76792012  0.92646493  0.37859628  1
  Se  Se27  1  0.23207988  0.54786866  0.62140372  1
  O  O28  1  0.78974071  0.80576699  0.22389817  1
  O  O29  1  0.21025929  0.58186882  0.77610183  1
  O  O30  1  0.03643006  0.73847944  0.12994924  1
  O  O31  1  0.96356994  0.60853020  0.87005076  1
  O  O32  1  0.98684475  0.48363099  0.20341923  1
  O  O33  1  0.01315525  0.28021176  0.79658077  1
  O  O34  1  0.14400580  0.00250153  0.23928305  1
  O  O35  1  0.85599420  0.76321848  0.76071695  1
  O  O36  1  0.14075643  0.72029385  0.30328028  1
  O  O37  1  0.85924357  0.41701358  0.69671972  1
  O  O38  1  0.34907585  0.66830977  0.20276412  1
  O  O39  1  0.65092415  0.46554565  0.79723588  1
  O  O40  1  0.35224868  0.93971900  0.12069656  1
  O  O41  1  0.64775132  0.81902244  0.87930344  1
  O  O42  1  0.76292092  0.37175271  0.47836194  1
  O  O43  1  0.23707908  0.89339078  0.52163806  1
  O  O44  1  0.20593618  0.42332115  0.08758344  1
  O  O45  1  0.79406382  0.33573771  0.91241656  1
  O  O46  1  0.22138710  0.68222904  0.01051021  1
  O  O47  1  0.77861290  0.67171883  0.98948979  1
  O  O48  1  0.34579520  0.29399280  0.20161545  1
  O  O49  1  0.65420480  0.09237735  0.79838455  1
  O  O50  1  0.02320020  0.57977544  0.40285774  1
  O  O51  1  0.97679980  0.17691769  0.59714226  1
  O  O52  1  0.22221055  0.08641439  0.01083588  1
  O  O53  1  0.77778945  0.07557851  0.98916412  1
  O  O54  1  0.49405181  0.52558999  0.30766906  1
  O  O55  1  0.50594819  0.21792093  0.69233094  1
  O  O56  1  0.03135169  0.15189561  0.13028425  1
  O  O57  1  0.96864831  0.02161136  0.86971575  1
  O  O58  1  0.78951549  0.18737448  0.22752977  1
  O  O59  1  0.21048451  0.95984471  0.77247023  1
  O  O60  1  0.55490853  0.23016489  0.09508410  1
  O  O61  1  0.44509147  0.13508079  0.90491590  1
  O  O62  1  0.58586213  0.05148754  0.34613955  1
  O  O63  1  0.41413787  0.70534799  0.65386045  1
  O  O64  1  0.55548736  0.62392522  0.09463663  1
  O  O65  1  0.44451264  0.52928859  0.90536337  1
  O  O66  1  0.62382923  0.37203851  0.58773883  1
  O  O67  1  0.37617077  0.78429968  0.41226117  1
  O  O68  1  0.57627424  0.67353100  0.51829438  1
  O  O69  1  0.42372576  0.15523662  0.48170562  1
  O  O70  1  0.14068708  0.34589194  0.30515348  1
  O  O71  1  0.85931292  0.04073846  0.69484652  1
  O  O72  1  0.96163569  0.07622959  0.39039116  1
  O  O73  1  0.03836431  0.68583843  0.60960884  1
  O  O74  1  0.39086484  0.42688160  0.41829162  1
  O  O75  1  0.60913516  0.00858998  0.58170838  1
  O  O76  1  0.73336301  0.93828679  0.46084151  1
  O  O77  1  0.26663699  0.47744528  0.53915849  1
