# generated using pymatgen
data_Mn3N2
_symmetry_space_group_name_H-M   'P 1'
_cell_length_a   2.86260020
_cell_length_b   2.86260020
_cell_length_c   6.35626658
_cell_angle_alpha   103.01342604
_cell_angle_beta   103.01342601
_cell_angle_gamma   89.99999990
_symmetry_Int_Tables_number   1
_chemical_formula_structural   Mn3N2
_chemical_formula_sum   'Mn3 N2'
_cell_volume   49.37463820
_cell_formula_units_Z   1
loop_
 _symmetry_equiv_pos_site_id
 _symmetry_equiv_pos_as_xyz
  1  'x, y, z'
loop_
 _atom_site_type_symbol
 _atom_site_label
 _atom_site_symmetry_multiplicity
 _atom_site_fract_x
 _atom_site_fract_y
 _atom_site_fract_z
 _atom_site_occupancy
  N  N0  1  0.84006534  0.84006534  0.68013069  1
  N  N1  1  0.15993466  0.15993466  0.31986931  1
  Mn  Mn2  1  0.66885111  0.66885111  0.33770221  1
  Mn  Mn3  1  0.33114889  0.33114889  0.66229779  1
  Mn  Mn4  1  0.00000000  0.00000000  0.00000000  1
