# generated using pymatgen
data_Pr2US5
_symmetry_space_group_name_H-M   'P 1'
_cell_length_a   7.54289361
_cell_length_b   8.12021378
_cell_length_c   11.99006547
_cell_angle_alpha   90.00000000
_cell_angle_beta   90.00000000
_cell_angle_gamma   90.00000000
_symmetry_Int_Tables_number   1
_chemical_formula_structural   Pr2US5
_chemical_formula_sum   'Pr8 U4 S20'
_cell_volume   734.39041454
_cell_formula_units_Z   4
loop_
 _symmetry_equiv_pos_site_id
 _symmetry_equiv_pos_as_xyz
  1  'x, y, z'
loop_
 _atom_site_type_symbol
 _atom_site_label
 _atom_site_symmetry_multiplicity
 _atom_site_fract_x
 _atom_site_fract_y
 _atom_site_fract_z
 _atom_site_occupancy
  Pr  Pr0  1  0.97617238  0.00029056  0.17705055  1
  Pr  Pr1  1  0.52382762  0.49970944  0.67705055  1
  Pr  Pr2  1  0.02382762  0.50029056  0.82294945  1
  Pr  Pr3  1  0.47617238  0.99970944  0.32294945  1
  Pr  Pr4  1  0.02382762  0.99970944  0.82294945  1
  Pr  Pr5  1  0.47617238  0.50029056  0.32294945  1
  Pr  Pr6  1  0.97617238  0.49970944  0.17705055  1
  Pr  Pr7  1  0.52382762  0.00029056  0.67705055  1
  U  U8  1  0.42844467  0.75000000  0.00931780  1
  U  U9  1  0.07155533  0.75000000  0.50931780  1
  U  U10  1  0.57155533  0.25000000  0.99068220  1
  U  U11  1  0.92844467  0.25000000  0.49068220  1
  S  S12  1  0.65958115  0.54230395  0.90590585  1
  S  S13  1  0.84041885  0.95769605  0.40590585  1
  S  S14  1  0.34041885  0.04230395  0.09409415  1
  S  S15  1  0.15958115  0.45769605  0.59409415  1
  S  S16  1  0.34041885  0.45769605  0.09409415  1
  S  S17  1  0.15958115  0.04230395  0.59409415  1
  S  S18  1  0.65958115  0.95769605  0.90590585  1
  S  S19  1  0.84041885  0.54230395  0.40590585  1
  S  S20  1  0.66915118  0.75000000  0.18543410  1
  S  S21  1  0.83084882  0.75000000  0.68543410  1
  S  S22  1  0.33084882  0.25000000  0.81456590  1
  S  S23  1  0.16915118  0.25000000  0.31456590  1
  S  S24  1  0.04647374  0.75000000  0.00077356  1
  S  S25  1  0.45352626  0.75000000  0.50077356  1
  S  S26  1  0.95352626  0.25000000  0.99922644  1
  S  S27  1  0.54647374  0.25000000  0.49922644  1
  S  S28  1  0.30356637  0.75000000  0.78658233  1
  S  S29  1  0.19643363  0.75000000  0.28658233  1
  S  S30  1  0.69643363  0.25000000  0.21341767  1
  S  S31  1  0.80356637  0.25000000  0.71341767  1
