# generated using pymatgen
data_Lu5Zr3(Ni4As3)4
_symmetry_space_group_name_H-M   'P 1'
_cell_length_a   3.88300883
_cell_length_b   12.73027502
_cell_length_c   12.73060368
_cell_angle_alpha   119.99914589
_cell_angle_beta   90.00000000
_cell_angle_gamma   90.00000000
_symmetry_Int_Tables_number   1
_chemical_formula_structural   Lu5Zr3(Ni4As3)4
_chemical_formula_sum   'Lu5 Zr3 Ni16 As12'
_cell_volume   544.99125289
_cell_formula_units_Z   1
loop_
 _symmetry_equiv_pos_site_id
 _symmetry_equiv_pos_as_xyz
  1  'x, y, z'
loop_
 _atom_site_type_symbol
 _atom_site_label
 _atom_site_symmetry_multiplicity
 _atom_site_fract_x
 _atom_site_fract_y
 _atom_site_fract_z
 _atom_site_occupancy
  Lu  Lu0  1  0.50000000  0.00000159  0.18099986  1
  Lu  Lu1  1  0.50000000  0.18100170  1.00000000  1
  Lu  Lu2  1  0.50000000  0.81900173  0.81900014  1
  Lu  Lu3  1  0.00000000  0.33330240  0.66669006  1
  Lu  Lu4  1  0.00000000  0.66661234  0.33330994  1
  Zr  Zr5  1  0.00000000  0.99999253  0.56235784  1
  Zr  Zr6  1  -0.00000000  0.56236947  0.00000000  1
  Zr  Zr7  1  -0.00000000  0.43763469  0.43764216  1
  Ni  Ni8  1  0.50000000  -0.00000273  0.72322807  1
  Ni  Ni9  1  0.50000000  0.72323099  0.00000000  1
  Ni  Ni10  1  0.50000000  0.27676920  0.27677193  1
  Ni  Ni11  1  0.00000000  0.19110499  0.37298655  1
  Ni  Ni12  1  0.00000000  0.18190181  0.80891518  1
  Ni  Ni13  1  -0.00000000  0.62699996  0.81810117  1
  Ni  Ni14  1  0.00000000  0.81811844  0.62701345  1
  Ni  Ni15  1  -0.00000000  0.37298664  0.19108482  1
  Ni  Ni16  1  0.00000000  0.80889879  0.18189883  1
  Ni  Ni17  1  0.50000000  0.12206937  0.48203187  1
  Ni  Ni18  1  0.50000000  0.35995553  0.87792694  1
  Ni  Ni19  1  0.50000000  0.51796439  0.64005197  1
  Ni  Ni20  1  0.50000000  0.64003751  0.51796813  1
  Ni  Ni21  1  0.50000000  0.48202859  0.12207306  1
  Ni  Ni22  1  0.50000000  0.87791241  0.35994803  1
  Ni  Ni23  1  0.00000000  0.00000224  0.00000000  1
  As  As24  1  -0.00000000  0.00000339  0.82337281  1
  As  As25  1  -0.00000000  0.82338279  0.00000000  1
  As  As26  1  -0.00000000  0.17663058  0.17662719  1
  As  As27  1  0.50000000  0.30824964  0.48147090  1
  As  As28  1  0.50000000  0.17320840  0.69174432  1
  As  As29  1  0.50000000  0.51853107  0.82678417  1
  As  As30  1  0.50000000  0.82677875  0.51852910  1
  As  As31  1  0.50000000  0.48146408  0.30825568  1
  As  As32  1  0.50000000  0.69174691  0.17321583  1
  As  As33  1  0.00000000  0.00000601  0.35384897  1
  As  As34  1  -0.00000000  0.35384676  1.00000000  1
  As  As35  1  -0.00000000  0.64615704  0.64615103  1
