# generated using pymatgen
data_Nd7Se4Cl3O17
_symmetry_space_group_name_H-M   'P 1'
_cell_length_a   7.02964255
_cell_length_b   9.59478648
_cell_length_c   15.86886232
_cell_angle_alpha   87.77130162
_cell_angle_beta   81.85382649
_cell_angle_gamma   84.65290320
_symmetry_Int_Tables_number   1
_chemical_formula_structural   Nd7Se4Cl3O17
_chemical_formula_sum   'Nd14 Se8 Cl6 O34'
_cell_volume   1054.55315799
_cell_formula_units_Z   2
loop_
 _symmetry_equiv_pos_site_id
 _symmetry_equiv_pos_as_xyz
  1  'x, y, z'
loop_
 _atom_site_type_symbol
 _atom_site_label
 _atom_site_symmetry_multiplicity
 _atom_site_fract_x
 _atom_site_fract_y
 _atom_site_fract_z
 _atom_site_occupancy
  Nd  Nd0  1  0.87343847  0.15977887  0.54587771  1
  Nd  Nd1  1  0.12656153  0.84022113  0.45412229  1
  Nd  Nd2  1  0.61338536  0.15979745  0.80900040  1
  Nd  Nd3  1  0.38661464  0.84020255  0.19099960  1
  Nd  Nd4  1  0.62057022  0.99349682  0.36609049  1
  Nd  Nd5  1  0.37942978  0.00650318  0.63390951  1
  Nd  Nd6  1  0.86475061  0.99688702  0.12860929  1
  Nd  Nd7  1  0.13524939  0.00311298  0.87139071  1
  Nd  Nd8  1  0.37077909  0.16091156  0.05171526  1
  Nd  Nd9  1  0.62922091  0.83908844  0.94828474  1
  Nd  Nd10  1  0.87287084  0.84484825  0.69263758  1
  Nd  Nd11  1  0.12712916  0.15515175  0.30736242  1
  Nd  Nd12  1  0.83170754  0.63933528  0.25463596  1
  Nd  Nd13  1  0.16829246  0.36066472  0.74536404  1
  Se  Se14  1  0.64722453  0.28670156  0.23262511  1
  Se  Se15  1  0.35277547  0.71329844  0.76737489  1
  Se  Se16  1  0.64060430  0.71023252  0.49747303  1
  Se  Se17  1  0.35939570  0.28976748  0.50252697  1
  Se  Se18  1  0.70533477  0.44592978  0.66512687  1
  Se  Se19  1  0.29466523  0.55407022  0.33487313  1
  Se  Se20  1  0.11632111  0.70765914  0.03883925  1
  Se  Se21  1  0.88367889  0.29234086  0.96116075  1
  Cl  Cl22  1  0.85119133  0.40341176  0.37606984  1
  Cl  Cl23  1  0.14880867  0.59658824  0.62393016  1
  Cl  Cl24  1  0.70257657  0.60687825  0.08592429  1
  Cl  Cl25  1  0.29742343  0.39312175  0.91407571  1
  Cl  Cl26  1  0.87265722  0.60626789  0.83009770  1
  Cl  Cl27  1  0.12734278  0.39373211  0.16990230  1
  O  O28  1  0.69510886  0.86888515  0.23848993  1
  O  O29  1  0.30489114  0.13111485  0.76151007  1
  O  O30  1  0.58083589  0.95860485  0.07593483  1
  O  O31  1  0.41916411  0.04139515  0.92406517  1
  O  O32  1  0.68853254  0.05155611  0.66387456  1
  O  O33  1  0.31146746  0.94844389  0.33612544  1
  O  O34  1  0.81083329  0.95774609  0.83097955  1
  O  O35  1  0.18916671  0.04225391  0.16902045  1
  O  O36  1  0.08018311  0.96584030  0.58328518  1
  O  O37  1  0.91981689  0.03415970  0.41671482  1
  O  O38  1  0.61459638  0.22414433  0.13698570  1
  O  O39  1  0.38540362  0.77585567  0.86301430  1
  O  O40  1  0.45927220  0.22777522  0.30308745  1
  O  O41  1  0.54072780  0.77222478  0.69691255  1
  O  O42  1  0.81682802  0.14704673  0.25570821  1
  O  O43  1  0.18317198  0.85295327  0.74429179  1
  O  O44  1  0.81347796  0.77616879  0.54767932  1
  O  O45  1  0.18652204  0.22383121  0.45232068  1
  O  O46  1  0.75153960  0.74644449  0.39474534  1
  O  O47  1  0.24846040  0.25355551  0.60525466  1
  O  O48  1  0.46543746  0.85601455  0.50200570  1
  O  O49  1  0.53456254  0.14398545  0.49799430  1
  O  O50  1  0.67972898  0.38695367  0.56823078  1
  O  O51  1  0.32027102  0.61304633  0.43176922  1
  O  O52  1  0.50595163  0.39140363  0.73155864  1
  O  O53  1  0.49404837  0.60859637  0.26844136  1
  O  O54  1  0.87275296  0.31155940  0.69427147  1
  O  O55  1  0.12724704  0.68844060  0.30572853  1
  O  O56  1  0.33412799  0.77264436  0.03790991  1
  O  O57  1  0.66587201  0.22735564  0.96209009  1
  O  O58  1  0.04059143  0.75577524  0.14481930  1
  O  O59  1  0.95940857  0.24422476  0.85518070  1
  O  O60  1  0.98339211  0.84852967  0.99117377  1
  O  O61  1  0.01660789  0.15147033  0.00882623  1
