# generated using pymatgen
data_Tb2Fe14C
_symmetry_space_group_name_H-M   'P 1'
_cell_length_a   8.72904105
_cell_length_b   8.72904105
_cell_length_c   11.77236911
_cell_angle_alpha   90.00000000
_cell_angle_beta   90.00000000
_cell_angle_gamma   90.00000000
_symmetry_Int_Tables_number   1
_chemical_formula_structural   Tb2Fe14C
_chemical_formula_sum   'Tb8 Fe56 C4'
_cell_volume   897.00929265
_cell_formula_units_Z   4
loop_
 _symmetry_equiv_pos_site_id
 _symmetry_equiv_pos_as_xyz
  1  'x, y, z'
loop_
 _atom_site_type_symbol
 _atom_site_label
 _atom_site_symmetry_multiplicity
 _atom_site_fract_x
 _atom_site_fract_y
 _atom_site_fract_z
 _atom_site_occupancy
  Tb  Tb0  1  0.24109431  0.75890569  0.50000000  1
  Tb  Tb1  1  0.75890569  0.24109431  0.50000000  1
  Tb  Tb2  1  0.25890569  0.25890569  -0.00000000  1
  Tb  Tb3  1  0.74109431  0.74109431  -0.00000000  1
  Tb  Tb4  1  0.64391996  0.64391996  0.50000000  1
  Tb  Tb5  1  0.35608004  0.35608004  0.50000000  1
  Tb  Tb6  1  0.85608004  0.14391996  -0.00000000  1
  Tb  Tb7  1  0.14391996  0.85608004  -0.00000000  1
  Fe  Fe8  1  -0.00000000  0.50000000  0.50000000  1
  Fe  Fe9  1  0.50000000  0.00000000  -0.00000000  1
  Fe  Fe10  1  0.50000000  -0.00000000  0.50000000  1
  Fe  Fe11  1  -0.00000000  0.50000000  -0.00000000  1
  Fe  Fe12  1  0.50000000  0.50000000  0.10641053  1
  Fe  Fe13  1  -0.00000000  -0.00000000  0.60641053  1
  Fe  Fe14  1  0.50000000  0.50000000  0.89358947  1
  Fe  Fe15  1  -0.00000000  0.00000000  0.39358947  1
  Fe  Fe16  1  0.18301074  0.81698926  0.25498104  1
  Fe  Fe17  1  0.81698926  0.18301074  0.25498104  1
  Fe  Fe18  1  0.31698926  0.31698926  0.75498104  1
  Fe  Fe19  1  0.68301074  0.68301074  0.75498104  1
  Fe  Fe20  1  0.81698926  0.18301074  0.74501896  1
  Fe  Fe21  1  0.18301074  0.81698926  0.74501896  1
  Fe  Fe22  1  0.68301074  0.68301074  0.24501896  1
  Fe  Fe23  1  0.31698926  0.31698926  0.24501896  1
  Fe  Fe24  1  0.40267898  0.59732102  0.29577847  1
  Fe  Fe25  1  0.59732102  0.40267898  0.29577847  1
  Fe  Fe26  1  0.09732102  0.09732102  0.79577847  1
  Fe  Fe27  1  0.90267898  0.90267898  0.79577847  1
  Fe  Fe28  1  0.59732102  0.40267898  0.70422153  1
  Fe  Fe29  1  0.40267898  0.59732102  0.70422153  1
  Fe  Fe30  1  0.90267898  0.90267898  0.20422153  1
  Fe  Fe31  1  0.09732102  0.09732102  0.20422153  1
  Fe  Fe32  1  0.14146920  0.53568370  0.32432125  1
  Fe  Fe33  1  0.85853080  0.46431630  0.32432125  1
  Fe  Fe34  1  0.35853080  0.03568370  0.82432125  1
  Fe  Fe35  1  0.64146920  0.96431630  0.82432125  1
  Fe  Fe36  1  0.85853080  0.46431630  0.67567875  1
  Fe  Fe37  1  0.14146920  0.53568370  0.67567875  1
  Fe  Fe38  1  0.64146920  0.96431630  0.17567875  1
  Fe  Fe39  1  0.35853080  0.03568370  0.17567875  1
  Fe  Fe40  1  0.53568370  0.14146920  0.32432125  1
  Fe  Fe41  1  0.46431630  0.85853080  0.32432125  1
  Fe  Fe42  1  0.03568370  0.35853080  0.82432125  1
  Fe  Fe43  1  0.96431630  0.64146920  0.82432125  1
  Fe  Fe44  1  0.46431630  0.85853080  0.67567875  1
  Fe  Fe45  1  0.53568370  0.14146920  0.67567875  1
  Fe  Fe46  1  0.96431630  0.64146920  0.17567875  1
  Fe  Fe47  1  0.03568370  0.35853080  0.17567875  1
  Fe  Fe48  1  0.93533378  0.72587760  0.37934864  1
  Fe  Fe49  1  0.06466622  0.27412240  0.37934864  1
  Fe  Fe50  1  0.56466622  0.22587760  0.87934864  1
  Fe  Fe51  1  0.43533378  0.77412240  0.87934864  1
  Fe  Fe52  1  0.06466622  0.27412240  0.62065136  1
  Fe  Fe53  1  0.93533378  0.72587760  0.62065136  1
  Fe  Fe54  1  0.43533378  0.77412240  0.12065136  1
  Fe  Fe55  1  0.56466622  0.22587760  0.12065136  1
  Fe  Fe56  1  0.72587760  0.93533378  0.37934864  1
  Fe  Fe57  1  0.27412240  0.06466622  0.37934864  1
  Fe  Fe58  1  0.22587760  0.56466622  0.87934864  1
  Fe  Fe59  1  0.77412240  0.43533378  0.87934864  1
  Fe  Fe60  1  0.27412240  0.06466622  0.62065136  1
  Fe  Fe61  1  0.72587760  0.93533378  0.62065136  1
  Fe  Fe62  1  0.77412240  0.43533378  0.12065136  1
  Fe  Fe63  1  0.22587760  0.56466622  0.12065136  1
  C  C64  1  0.87100067  0.87100067  0.50000000  1
  C  C65  1  0.12899933  0.12899933  0.50000000  1
  C  C66  1  0.62899933  0.37100067  -0.00000000  1
  C  C67  1  0.37100067  0.62899933  -0.00000000  1
