# generated using pymatgen
data_ScH11(BrO3)2
_symmetry_space_group_name_H-M   'P 1'
_cell_length_a   7.60599669
_cell_length_b   8.49898285
_cell_length_c   8.78517541
_cell_angle_alpha   96.33047725
_cell_angle_beta   114.97453021
_cell_angle_gamma   101.30737878
_symmetry_Int_Tables_number   1
_chemical_formula_structural   ScH11(BrO3)2
_chemical_formula_sum   'Sc2 H22 Br4 O12'
_cell_volume   492.75967072
_cell_formula_units_Z   2
loop_
 _symmetry_equiv_pos_site_id
 _symmetry_equiv_pos_as_xyz
  1  'x, y, z'
loop_
 _atom_site_type_symbol
 _atom_site_label
 _atom_site_symmetry_multiplicity
 _atom_site_fract_x
 _atom_site_fract_y
 _atom_site_fract_z
 _atom_site_occupancy
  Sc  Sc0  1  0.12094140  0.15902661  0.67341786  1
  Sc  Sc1  1  0.87905860  0.84097339  0.32658214  1
  H  H2  1  0.94101634  0.17341025  0.33029717  1
  H  H3  1  0.05898366  0.82658975  0.66970283  1
  H  H4  1  0.91753296  0.15444638  0.88504527  1
  H  H5  1  0.08246704  0.84555362  0.11495473  1
  H  H6  1  0.85462456  0.96961024  0.78108521  1
  H  H7  1  0.14537544  0.03038976  0.21891479  1
  H  H8  1  0.53310659  0.16285961  0.89315879  1
  H  H9  1  0.46689341  0.83714039  0.10684121  1
  H  H10  1  0.41355234  0.98078043  0.77973754  1
  H  H11  1  0.58644766  0.01921957  0.22026246  1
  H  H12  1  0.39557662  0.45165610  0.66649363  1
  H  H13  1  0.60442338  0.54834390  0.33350637  1
  H  H14  1  0.36042401  0.30912375  0.51569104  1
  H  H15  1  0.63957599  0.69087625  0.48430896  1
  H  H16  1  0.80298555  0.31773233  0.52701075  1
  H  H17  1  0.19701445  0.68226767  0.47298925  1
  H  H18  1  0.96600053  0.44098350  0.70620784  1
  H  H19  1  0.03399947  0.55901650  0.29379216  1
  H  H20  1  0.33738426  0.31555725  0.02956059  1
  H  H21  1  0.66261574  0.68444275  0.97043941  1
  H  H22  1  0.25755383  0.45656951  0.93721713  1
  H  H23  1  0.74244617  0.54343049  0.06278287  1
  Br  Br24  1  0.14416305  0.68927646  0.91893400  1
  Br  Br25  1  0.85583695  0.31072354  0.08106600  1
  Br  Br26  1  0.53354619  0.74673007  0.69412055  1
  Br  Br27  1  0.46645381  0.25326993  0.30587945  1
  O  O28  1  0.96494586  0.09707880  0.40855375  1
  O  O29  1  0.03505414  0.90292120  0.59144625  1
  O  O30  1  0.94901435  0.07856756  0.81195363  1
  O  O31  1  0.05098565  0.92143244  0.18804637  1
  O  O32  1  0.39705138  0.08780786  0.81719585  1
  O  O33  1  0.60294862  0.91219214  0.18280415  1
  O  O34  1  0.32884583  0.33468746  0.61239876  1
  O  O35  1  0.67115417  0.66531254  0.38760124  1
  O  O36  1  0.93810198  0.33863463  0.62498360  1
  O  O37  1  0.06189802  0.66136537  0.37501640  1
  O  O38  1  0.28739202  0.34977828  0.91825655  1
  O  O39  1  0.71260798  0.65022172  0.08174345  1
