# generated using pymatgen
data_CuAs12P4S12Cl
_symmetry_space_group_name_H-M   'P 1'
_cell_length_a   13.79830068
_cell_length_b   13.79820644
_cell_length_c   21.93252052
_cell_angle_alpha   90.00027744
_cell_angle_beta   89.99944518
_cell_angle_gamma   120.00022434
_symmetry_Int_Tables_number   1
_chemical_formula_structural   CuAs12P4S12Cl
_chemical_formula_sum   'Cu4 As48 P16 S48 Cl4'
_cell_volume   3616.31653311
_cell_formula_units_Z   4
loop_
 _symmetry_equiv_pos_site_id
 _symmetry_equiv_pos_as_xyz
  1  'x, y, z'
loop_
 _atom_site_type_symbol
 _atom_site_label
 _atom_site_symmetry_multiplicity
 _atom_site_fract_x
 _atom_site_fract_y
 _atom_site_fract_z
 _atom_site_occupancy
  Cu  Cu0  1  0.33342021  0.66654359  0.06285348  1
  Cu  Cu1  1  0.66687662  0.33345641  0.56285348  1
  Cu  Cu2  1  0.99999923  0.99999960  0.30794754  1
  Cu  Cu3  1  -0.00000037  0.00000040  0.80794754  1
  As  As4  1  0.58070357  0.51761895  0.19451980  1
  As  As5  1  0.93690844  0.41929357  0.19451948  1
  As  As6  1  0.48237831  0.06308701  0.19451860  1
  As  As7  1  0.06308462  0.48238105  0.69451980  1
  As  As8  1  0.51761487  0.58070643  0.69451948  1
  As  As9  1  0.41929130  0.93691299  0.69451860  1
  As  As10  1  0.43903056  0.34275176  0.14001218  1
  As  As11  1  0.90371363  0.56096422  0.14001139  1
  As  As12  1  0.65724394  0.09628176  0.14001188  1
  As  As13  1  0.09627880  0.65724824  0.64001218  1
  As  As14  1  0.34274941  0.43903578  0.64001139  1
  As  As15  1  0.56096218  0.90371824  0.64001188  1
  As  As16  1  0.61369137  0.48427374  0.08502620  1
  As  As17  1  0.87057529  0.38630659  0.08502683  1
  As  As18  1  0.51572260  0.12941874  0.08502662  1
  As  As19  1  0.12941763  0.51572626  0.58502620  1
  As  As20  1  0.48426870  0.61369341  0.58502683  1
  As  As21  1  0.38630386  0.87058126  0.58502662  1
  As  As22  1  0.29751046  0.54766623  0.81727925  1
  As  As23  1  0.25014582  0.70248401  0.81728076  1
  As  As24  1  0.45232892  0.74984987  0.81727986  1
  As  As25  1  0.74984423  0.45233377  0.31727925  1
  As  As26  1  0.54766182  0.29751599  0.31728076  1
  As  As27  1  0.70247905  0.25015013  0.31727986  1
  As  As28  1  0.26331712  0.40145073  0.43974904  1
  As  As29  1  0.13812755  0.73668103  0.43974950  1
  As  As30  1  0.59854415  0.86186778  0.43974891  1
  As  As31  1  0.86186639  0.59854927  0.93974904  1
  As  As32  1  0.40144652  0.26331897  0.93974950  1
  As  As33  1  0.73667636  0.13813222  0.93974891  1
  As  As34  1  0.11366521  0.42847241  0.39046457  1
  As  As35  1  0.31479936  0.88633275  0.39046651  1
  As  As36  1  0.57152434  0.68519584  0.39046484  1
  As  As37  1  0.68519280  0.57152759  0.89046457  1
  As  As38  1  0.42846662  0.11366725  0.89046651  1
  As  As39  1  0.88632850  0.31480416  0.89046484  1
  As  As40  1  0.28621117  0.46927238  0.33097174  1
  As  As41  1  0.18305367  0.71378538  0.33097215  1
  As  As42  1  0.53072412  0.81694259  0.33097163  1
  As  As43  1  0.81693879  0.53072762  0.83097174  1
  As  As44  1  0.46926830  0.28621462  0.83097215  1
  As  As45  1  0.71378153  0.18305741  0.83097163  1
  As  As46  1  0.11164997  0.01299023  0.06126206  1
  As  As47  1  0.90133258  0.88834686  0.06126206  1
  As  As48  1  0.98700582  0.09866433  0.06126161  1
  As  As49  1  0.09865974  0.98700977  0.56126206  1
  As  As50  1  0.01298572  0.11165314  0.56126206  1
  As  As51  1  0.88834149  0.90133567  0.56126161  1
  P  P52  1  0.42093038  0.57066444  0.09569033  1
  P  P53  1  0.14979363  0.57909197  0.09567945  1
  P  P54  1  0.42930069  0.85019726  0.09567919  1
  P  P55  1  0.85026594  0.42933556  0.59569033  1
  P  P56  1  0.57070166  0.42090803  0.59567945  1
  P  P57  1  0.57910343  0.14980274  0.59567919  1
  P  P58  1  0.33333329  0.66666211  0.95785227  1
  P  P59  1  0.66667118  0.33333789  0.45785227  1
  P  P60  1  0.10224095  0.18703118  0.34022654  1
  P  P61  1  0.08478361  0.89775450  0.34022575  1
  P  P62  1  0.81296452  0.91521412  0.34022532  1
  P  P63  1  0.91520976  0.81296882  0.84022654  1
  P  P64  1  0.18702911  0.10224550  0.84022575  1
  P  P65  1  0.89775041  0.08478588  0.84022532  1
  P  P66  1  0.99999629  -0.00000003  0.20202040  1
  P  P67  1  0.99999632  0.00000003  0.70202040  1
  S  S68  1  0.50073106  0.62464479  0.18043581  1
  S  S69  1  0.12390461  0.49926687  0.18043440  1
  S  S70  1  0.37535138  0.87608739  0.18043461  1
  S  S71  1  0.87608627  0.37535521  0.68043581  1
  S  S72  1  0.62463774  0.50073313  0.68043440  1
  S  S73  1  0.49926399  0.12391261  0.68043461  1
  S  S74  1  0.31788451  0.39655130  0.10669733  1
  S  S75  1  0.07866568  0.68211011  0.10669605  1
  S  S76  1  0.60343615  0.92133474  0.10669764  1
  S  S77  1  0.92133322  0.60344870  0.60669733  1
  S  S78  1  0.39655557  0.31788989  0.60669605  1
  S  S79  1  0.68210141  0.07866526  0.60669764  1
  S  S80  1  0.54897254  0.58610520  0.03732335  1
  S  S81  1  0.03712989  0.45102842  0.03732491  1
  S  S82  1  0.41388783  0.96286303  0.03732421  1
  S  S83  1  0.96286734  0.41389480  0.53732335  1
  S  S84  1  0.58610148  0.54897158  0.53732491  1
  S  S85  1  0.45102480  0.03713697  0.53732421  1
  S  S86  1  0.28739086  0.51096514  0.91840986  1
  S  S87  1  0.22356895  0.71260605  0.91841306  1
  S  S88  1  0.48903011  0.77642953  0.91841167  1
  S  S89  1  0.77642572  0.48903486  0.41840986  1
  S  S90  1  0.51096290  0.28739395  0.41841306  1
  S  S91  1  0.71260059  0.22357047  0.41841167  1
  S  S92  1  0.19062066  0.21535196  0.42265658  1
  S  S93  1  0.02472247  0.80937510  0.42265705  1
  S  S94  1  0.78464351  0.97527373  0.42265594  1
  S  S95  1  0.97526870  0.78464804  0.92265658  1
  S  S96  1  0.21534737  0.19062490  0.92265705  1
  S  S97  1  0.80936977  0.02472627  0.92265594  1
  S  S98  1  0.99576344  0.25223542  0.35697241  1
  S  S99  1  0.25646481  0.00423331  0.35697299  1
  S  S100  1  0.74776153  0.74353193  0.35697297  1
  S  S101  1  0.74352801  0.74776458  0.85697241  1
  S  S102  1  0.25223150  0.99576669  0.85697299  1
  S  S103  1  0.00422960  0.25646807  0.85697297  1
  S  S104  1  0.22318787  0.30480799  0.28051086  1
  S  S105  1  0.08161228  0.77680773  0.28051138  1
  S  S106  1  0.69518743  0.91838344  0.28051053  1
  S  S107  1  0.91837988  0.69519201  0.78051086  1
  S  S108  1  0.30480454  0.22319227  0.78051138  1
  S  S109  1  0.77680399  0.08161656  0.78051053  1
  S  S110  1  0.14640919  0.01797316  0.16191812  1
  S  S111  1  0.87155533  0.85358647  0.16191779  1
  S  S112  1  0.98202351  0.12844313  0.16191774  1
  S  S113  1  0.12843603  0.98202684  0.66191812  1
  S  S114  1  0.01796886  0.14641353  0.66191779  1
  S  S115  1  0.85358039  0.87155687  0.66191774  1
  Cl  Cl116  1  0.66666189  0.33333429  0.18189057  1
  Cl  Cl117  1  0.33332760  0.66666571  0.68189057  1
  Cl  Cl118  1  0.33332935  0.66666757  0.43099443  1
  Cl  Cl119  1  0.66666178  0.33333243  0.93099443  1
