# generated using pymatgen
data_Ca(Al10Cr)2
_symmetry_space_group_name_H-M   'P 1'
_cell_length_a   10.21432992
_cell_length_b   10.21432992
_cell_length_c   10.21432992
_cell_angle_alpha   60.00000000
_cell_angle_beta   60.00000000
_cell_angle_gamma   60.00000000
_symmetry_Int_Tables_number   1
_chemical_formula_structural   Ca(Al10Cr)2
_chemical_formula_sum   'Ca2 Al40 Cr4'
_cell_volume   753.55446219
_cell_formula_units_Z   2
loop_
 _symmetry_equiv_pos_site_id
 _symmetry_equiv_pos_as_xyz
  1  'x, y, z'
loop_
 _atom_site_type_symbol
 _atom_site_label
 _atom_site_symmetry_multiplicity
 _atom_site_fract_x
 _atom_site_fract_y
 _atom_site_fract_z
 _atom_site_occupancy
  Ca  Ca0  1  0.12500000  0.12500000  0.12500000  1
  Ca  Ca1  1  0.87500000  0.87500000  0.87500000  1
  Al  Al2  1  0.48752011  0.76247989  0.76247989  1
  Al  Al3  1  0.76247989  0.48752011  0.48752011  1
  Al  Al4  1  0.76247989  0.48752011  0.76247989  1
  Al  Al5  1  0.48752011  0.76247989  0.48752011  1
  Al  Al6  1  0.76247989  0.76247989  0.48752011  1
  Al  Al7  1  0.48752011  0.48752011  0.76247989  1
  Al  Al8  1  0.51247989  0.23752011  0.23752011  1
  Al  Al9  1  0.23752011  0.51247989  0.51247989  1
  Al  Al10  1  0.23752011  0.51247989  0.23752011  1
  Al  Al11  1  0.51247989  0.23752011  0.51247989  1
  Al  Al12  1  0.23752011  0.23752011  0.51247989  1
  Al  Al13  1  0.51247989  0.51247989  0.23752011  1
  Al  Al14  1  0.32593231  0.32593231  0.05646509  1
  Al  Al15  1  0.79167029  0.05646509  0.32593231  1
  Al  Al16  1  0.05646509  0.79167029  0.32593231  1
  Al  Al17  1  0.32593231  0.32593231  0.79167029  1
  Al  Al18  1  0.05646509  0.32593231  0.32593231  1
  Al  Al19  1  0.32593231  0.79167029  0.05646509  1
  Al  Al20  1  0.32593231  0.05646509  0.79167029  1
  Al  Al21  1  0.79167029  0.32593231  0.32593231  1
  Al  Al22  1  0.32593231  0.05646509  0.32593231  1
  Al  Al23  1  0.05646509  0.32593231  0.79167029  1
  Al  Al24  1  0.79167029  0.32593231  0.05646509  1
  Al  Al25  1  0.32593231  0.79167029  0.32593231  1
  Al  Al26  1  0.67406769  0.67406769  0.94353491  1
  Al  Al27  1  0.20832971  0.94353491  0.67406769  1
  Al  Al28  1  0.94353491  0.20832971  0.67406769  1
  Al  Al29  1  0.67406769  0.67406769  0.20832971  1
  Al  Al30  1  0.94353491  0.67406769  0.67406769  1
  Al  Al31  1  0.67406769  0.20832971  0.94353491  1
  Al  Al32  1  0.67406769  0.94353491  0.20832971  1
  Al  Al33  1  0.20832971  0.67406769  0.67406769  1
  Al  Al34  1  0.67406769  0.94353491  0.67406769  1
  Al  Al35  1  0.94353491  0.67406769  0.20832971  1
  Al  Al36  1  0.20832971  0.67406769  0.94353491  1
  Al  Al37  1  0.67406769  0.20832971  0.67406769  1
  Al  Al38  1  0.00000000  0.00000000  0.50000000  1
  Al  Al39  1  0.00000000  0.50000000  0.00000000  1
  Al  Al40  1  0.50000000  0.00000000  0.00000000  1
  Al  Al41  1  0.00000000  0.00000000  0.00000000  1
  Cr  Cr42  1  0.50000000  0.50000000  0.00000000  1
  Cr  Cr43  1  0.50000000  0.00000000  0.50000000  1
  Cr  Cr44  1  0.00000000  0.50000000  0.50000000  1
  Cr  Cr45  1  0.50000000  0.50000000  0.50000000  1
