# generated using pymatgen
data_Rb2B7H5O14
_symmetry_space_group_name_H-M   'P 1'
_cell_length_a   8.21020972
_cell_length_b   12.13185939
_cell_length_c   14.11530475
_cell_angle_alpha   90.00000000
_cell_angle_beta   102.79335664
_cell_angle_gamma   90.00000000
_symmetry_Int_Tables_number   1
_chemical_formula_structural   Rb2B7H5O14
_chemical_formula_sum   'Rb8 B28 H20 O56'
_cell_volume   1371.05366140
_cell_formula_units_Z   4
loop_
 _symmetry_equiv_pos_site_id
 _symmetry_equiv_pos_as_xyz
  1  'x, y, z'
loop_
 _atom_site_type_symbol
 _atom_site_label
 _atom_site_symmetry_multiplicity
 _atom_site_fract_x
 _atom_site_fract_y
 _atom_site_fract_z
 _atom_site_occupancy
  Rb  Rb0  1  0.26313975  0.98360883  0.57380764  1
  Rb  Rb1  1  0.76313975  0.51639117  0.07380764  1
  Rb  Rb2  1  0.73686025  0.01639117  0.42619236  1
  Rb  Rb3  1  0.23686025  0.48360883  0.92619236  1
  Rb  Rb4  1  0.46046738  0.67034950  0.43134009  1
  Rb  Rb5  1  0.96046738  0.82965050  0.93134009  1
  Rb  Rb6  1  0.53953262  0.32965050  0.56865991  1
  Rb  Rb7  1  0.03953262  0.17034950  0.06865991  1
  B  B8  1  0.94887272  0.76385300  0.52008520  1
  B  B9  1  0.44887272  0.73614700  0.02008520  1
  B  B10  1  0.05112728  0.23614700  0.47991480  1
  B  B11  1  0.55112728  0.26385300  0.97991480  1
  B  B12  1  0.04063035  0.82291527  0.36465859  1
  B  B13  1  0.54063035  0.67708473  0.86465859  1
  B  B14  1  0.95936965  0.17708473  0.63534141  1
  B  B15  1  0.45936965  0.32291527  0.13534141  1
  B  B16  1  0.01216827  0.62367286  0.40259771  1
  B  B17  1  0.51216827  0.87632714  0.90259771  1
  B  B18  1  0.98783173  0.37632714  0.59740229  1
  B  B19  1  0.48783173  0.12367286  0.09740229  1
  B  B20  1  0.03192594  0.78794108  0.70153779  1
  B  B21  1  0.53192594  0.71205892  0.20153779  1
  B  B22  1  0.96807406  0.21205892  0.29846221  1
  B  B23  1  0.46807406  0.28794108  0.79846221  1
  B  B24  1  0.74159636  0.80140931  0.62478604  1
  B  B25  1  0.24159636  0.69859069  0.12478604  1
  B  B26  1  0.25840364  0.19859069  0.37521396  1
  B  B27  1  0.75840364  0.30140931  0.87521396  1
  B  B28  1  0.25535143  0.91543621  0.29160722  1
  B  B29  1  0.75535143  0.58456379  0.79160722  1
  B  B30  1  0.74464857  0.08456379  0.70839278  1
  B  B31  1  0.24464857  0.41543621  0.20839278  1
  B  B32  1  0.97077009  0.90746179  0.20030776  1
  B  B33  1  0.47077009  0.59253821  0.70030776  1
  B  B34  1  0.02922991  0.09253821  0.79969224  1
  B  B35  1  0.52922991  0.40746179  0.29969224  1
  H  H36  1  0.03077631  0.45777360  0.42820510  1
  H  H37  1  0.53077631  0.04222640  0.92820510  1
  H  H38  1  0.96922369  0.54222640  0.57179490  1
  H  H39  1  0.46922369  0.95777360  0.07179490  1
  H  H40  1  0.57302042  0.82017090  0.70264474  1
  H  H41  1  0.07302042  0.67982910  0.20264474  1
  H  H42  1  0.42697958  0.17982910  0.29735526  1
  H  H43  1  0.92697958  0.32017090  0.79735526  1
  H  H44  1  0.42993322  0.97081056  0.22996896  1
  H  H45  1  0.92993322  0.52918944  0.72996896  1
  H  H46  1  0.57006678  0.02918944  0.77003104  1
  H  H47  1  0.07006678  0.47081056  0.27003104  1
  H  H48  1  0.25378278  0.75248701  0.78110741  1
  H  H49  1  0.75378278  0.74751299  0.28110741  1
  H  H50  1  0.74621722  0.24751299  0.21889259  1
  H  H51  1  0.24621722  0.25248701  0.71889259  1
  H  H52  1  0.75152758  0.89466452  0.11235216  1
  H  H53  1  0.25152758  0.60533548  0.61235216  1
  H  H54  1  0.24847242  0.10533548  0.88764784  1
  H  H55  1  0.74847242  0.39466452  0.38764784  1
  O  O56  1  0.98562098  0.84324675  0.45231406  1
  O  O57  1  0.48562098  0.65675325  0.95231406  1
  O  O58  1  0.01437902  0.15675325  0.54768594  1
  O  O59  1  0.51437902  0.34324675  0.04768594  1
  O  O60  1  0.04978422  0.70232313  0.34100676  1
  O  O61  1  0.54978422  0.79767687  0.84100676  1
  O  O62  1  0.95021578  0.29767687  0.65899324  1
  O  O63  1  0.45021578  0.20232313  0.15899324  1
  O  O64  1  0.96229983  0.64740801  0.48701907  1
  O  O65  1  0.46229983  0.85259199  0.98701907  1
  O  O66  1  0.03770017  0.35259199  0.51298093  1
  O  O67  1  0.53770017  0.14740801  0.01298093  1
  O  O68  1  0.07340186  0.77239245  0.61492036  1
  O  O69  1  0.57340186  0.72760755  0.11492036  1
  O  O70  1  0.92659814  0.22760755  0.38507964  1
  O  O71  1  0.42659814  0.27239245  0.88507964  1
  O  O72  1  0.86752060  0.80775696  0.70931139  1
  O  O73  1  0.36752060  0.69224304  0.20931139  1
  O  O74  1  0.13247940  0.19224304  0.29068861  1
  O  O75  1  0.63247940  0.30775696  0.79068861  1
  O  O76  1  0.77483272  0.78330817  0.53598720  1
  O  O77  1  0.27483272  0.71669183  0.03598720  1
  O  O78  1  0.22516728  0.21669183  0.46401280  1
  O  O79  1  0.72516728  0.28330817  0.96401280  1
  O  O80  1  0.21102917  0.87140928  0.37124329  1
  O  O81  1  0.71102917  0.62859072  0.87124329  1
  O  O82  1  0.78897083  0.12859072  0.62875671  1
  O  O83  1  0.28897083  0.37140928  0.12875671  1
  O  O84  1  0.13659655  0.93541105  0.20510486  1
  O  O85  1  0.63659655  0.56458895  0.70510486  1
  O  O86  1  0.86340345  0.06458895  0.79489514  1
  O  O87  1  0.36340345  0.43541105  0.29489514  1
  O  O88  1  0.91716500  0.87064765  0.27940434  1
  O  O89  1  0.41716500  0.62935235  0.77940434  1
  O  O90  1  0.08283500  0.12935235  0.72059566  1
  O  O91  1  0.58283500  0.37064765  0.22059566  1
  O  O92  1  0.03230085  0.51459545  0.37723869  1
  O  O93  1  0.53230085  0.98540455  0.87723869  1
  O  O94  1  0.96769915  0.48540455  0.62276131  1
  O  O95  1  0.46769915  0.01459545  0.12276131  1
  O  O96  1  0.14954792  0.78882348  0.78766409  1
  O  O97  1  0.64954792  0.71117652  0.28766409  1
  O  O98  1  0.85045208  0.21117652  0.21233591  1
  O  O99  1  0.35045208  0.28882348  0.71233591  1
  O  O100  1  0.57790090  0.81471790  0.63354579  1
  O  O101  1  0.07790090  0.68528210  0.13354579  1
  O  O102  1  0.42209910  0.18528210  0.36645421  1
  O  O103  1  0.92209910  0.31471790  0.86645421  1
  O  O104  1  0.41908999  0.94112727  0.29428137  1
  O  O105  1  0.91908999  0.55887273  0.79428137  1
  O  O106  1  0.58091001  0.05887273  0.70571863  1
  O  O107  1  0.08091001  0.44112727  0.20571863  1
  O  O108  1  0.86328690  0.92111328  0.11053356  1
  O  O109  1  0.36328690  0.57888672  0.61053356  1
  O  O110  1  0.13671310  0.07888672  0.88946644  1
  O  O111  1  0.63671310  0.42111328  0.38946644  1
