# generated using pymatgen
data_Rb2BiPWO8
_symmetry_space_group_name_H-M   'P 1'
_cell_length_a   7.18345128
_cell_length_b   12.71903875
_cell_length_c   12.71903875
_cell_angle_alpha   59.80931133
_cell_angle_beta   73.59711813
_cell_angle_gamma   73.59711813
_symmetry_Int_Tables_number   1
_chemical_formula_structural   Rb2BiPWO8
_chemical_formula_sum   'Rb8 Bi4 P4 W4 O32'
_cell_volume   949.67255492
_cell_formula_units_Z   4
loop_
 _symmetry_equiv_pos_site_id
 _symmetry_equiv_pos_as_xyz
  1  'x, y, z'
loop_
 _atom_site_type_symbol
 _atom_site_label
 _atom_site_symmetry_multiplicity
 _atom_site_fract_x
 _atom_site_fract_y
 _atom_site_fract_z
 _atom_site_occupancy
  Rb  Rb0  1  0.87626186  0.57577413  0.73934195  1
  Rb  Rb1  1  0.69137794  0.92422587  0.76065805  1
  Rb  Rb2  1  0.62373814  0.26065805  0.42422587  1
  Rb  Rb3  1  0.80862206  0.23934195  0.07577413  1
  Rb  Rb4  1  0.12373814  0.42422587  0.26065805  1
  Rb  Rb5  1  0.30862206  0.07577413  0.23934195  1
  Rb  Rb6  1  0.37626186  0.73934195  0.57577413  1
  Rb  Rb7  1  0.19137794  0.76065805  0.92422587  1
  Bi  Bi8  1  0.75000000  0.33408170  0.66591830  1
  Bi  Bi9  1  0.25000000  0.16591830  0.83408170  1
  Bi  Bi10  1  0.25000000  0.66591830  0.33408170  1
  Bi  Bi11  1  0.75000000  0.83408170  0.16591830  1
  P  P12  1  0.75000000  0.57326291  0.42673709  1
  P  P13  1  0.25000000  0.92673709  0.07326291  1
  P  P14  1  0.25000000  0.42673709  0.57326291  1
  P  P15  1  0.75000000  0.07326291  0.92673709  1
  W  W16  1  0.16281011  0.08718989  0.58718989  1
  W  W17  1  0.33718989  0.41281011  0.91281011  1
  W  W18  1  0.83718989  0.91281011  0.41281011  1
  W  W19  1  0.66281011  0.58718989  0.08718989  1
  O  O20  1  0.78418016  0.44039871  0.44211227  1
  O  O21  1  0.16669114  0.05960129  0.05788773  1
  O  O22  1  0.71581984  0.55788773  0.55960129  1
  O  O23  1  0.33330886  0.94211227  0.94039871  1
  O  O24  1  0.21581984  0.55960129  0.55788773  1
  O  O25  1  0.83330886  0.94039871  0.94211227  1
  O  O26  1  0.28418016  0.44211227  0.44039871  1
  O  O27  1  0.66669114  0.05788773  0.05960129  1
  O  O28  1  0.91124929  0.17179576  0.60076291  1
  O  O29  1  0.18380797  0.32820424  0.89923709  1
  O  O30  1  0.58875071  0.39923709  0.82820424  1
  O  O31  1  0.31619203  0.10076291  0.67179576  1
  O  O32  1  0.08875071  0.82820424  0.39923709  1
  O  O33  1  0.81619203  0.67179576  0.10076291  1
  O  O34  1  0.41124929  0.60076291  0.17179576  1
  O  O35  1  0.68380797  0.89923709  0.32820424  1
  O  O36  1  0.90839557  0.15960198  0.85998063  1
  O  O37  1  0.42797818  0.34039802  0.64001937  1
  O  O38  1  0.59160443  0.14001937  0.84039802  1
  O  O39  1  0.07202182  0.35998063  0.65960198  1
  O  O40  1  0.09160443  0.84039802  0.14001937  1
  O  O41  1  0.57202182  0.65960198  0.35998063  1
  O  O42  1  0.40839557  0.85998063  0.15960198  1
  O  O43  1  0.92797818  0.64001937  0.34039802  1
  O  O44  1  0.27709738  0.14869704  0.42662830  1
  O  O45  1  0.35242273  0.35130296  0.07337170  1
  O  O46  1  0.22290262  0.57337170  0.85130296  1
  O  O47  1  0.14757727  0.92662830  0.64869704  1
  O  O48  1  0.72290262  0.85130296  0.57337170  1
  O  O49  1  0.64757727  0.64869704  0.92662830  1
  O  O50  1  0.77709738  0.42662830  0.14869704  1
  O  O51  1  0.85242273  0.07337170  0.35130296  1
