# generated using pymatgen
data_Gd3InSe6
_symmetry_space_group_name_H-M   'P 1'
_cell_length_a   4.06796627
_cell_length_b   14.21458069
_cell_length_c   17.48520757
_cell_angle_alpha   90.00000000
_cell_angle_beta   90.00000000
_cell_angle_gamma   90.00000000
_symmetry_Int_Tables_number   1
_chemical_formula_structural   Gd3InSe6
_chemical_formula_sum   'Gd12 In4 Se24'
_cell_volume   1011.07224491
_cell_formula_units_Z   4
loop_
 _symmetry_equiv_pos_site_id
 _symmetry_equiv_pos_as_xyz
  1  'x, y, z'
loop_
 _atom_site_type_symbol
 _atom_site_label
 _atom_site_symmetry_multiplicity
 _atom_site_fract_x
 _atom_site_fract_y
 _atom_site_fract_z
 _atom_site_occupancy
  Gd  Gd0  1  0.50000000  0.81291018  0.35458201  1
  Gd  Gd1  1  0.50000000  0.18708982  0.64541799  1
  Gd  Gd2  1  0.00000000  0.31291018  0.14541799  1
  Gd  Gd3  1  -0.00000000  0.68708982  0.85458201  1
  Gd  Gd4  1  0.50000000  0.04003367  0.22401435  1
  Gd  Gd5  1  0.50000000  0.95996633  0.77598565  1
  Gd  Gd6  1  0.00000000  0.54003367  0.27598565  1
  Gd  Gd7  1  0.00000000  0.45996633  0.72401435  1
  Gd  Gd8  1  0.50000000  0.25065723  0.39390949  1
  Gd  Gd9  1  0.50000000  0.74934277  0.60609051  1
  Gd  Gd10  1  -0.00000000  0.75065723  0.10609051  1
  Gd  Gd11  1  -0.00000000  0.24934277  0.89390949  1
  In  In12  1  0.50000000  0.50000000  -0.00000000  1
  In  In13  1  -0.00000000  -0.00000000  0.50000000  1
  In  In14  1  0.50000000  0.50000000  0.50000000  1
  In  In15  1  0.00000000  -0.00000000  -0.00000000  1
  Se  Se16  1  0.50000000  0.61211163  0.75223604  1
  Se  Se17  1  0.50000000  0.38788837  0.24776396  1
  Se  Se18  1  0.00000000  0.11211163  0.74776396  1
  Se  Se19  1  -0.00000000  0.88788837  0.25223604  1
  Se  Se20  1  0.50000000  0.61287908  0.38283809  1
  Se  Se21  1  0.50000000  0.38712092  0.61716191  1
  Se  Se22  1  0.00000000  0.11287908  0.11716191  1
  Se  Se23  1  0.00000000  0.88712092  0.88283809  1
  Se  Se24  1  0.50000000  0.68192046  0.21400333  1
  Se  Se25  1  0.50000000  0.31807954  0.78599667  1
  Se  Se26  1  -0.00000000  0.18192046  0.28599667  1
  Se  Se27  1  -0.00000000  0.81807954  0.71400333  1
  Se  Se28  1  0.50000000  0.69231394  0.97965616  1
  Se  Se29  1  0.50000000  0.30768606  0.02034384  1
  Se  Se30  1  0.00000000  0.19231394  0.52034384  1
  Se  Se31  1  0.00000000  0.80768606  0.47965616  1
  Se  Se32  1  0.50000000  0.90395921  0.08731467  1
  Se  Se33  1  0.50000000  0.09604079  0.91268533  1
  Se  Se34  1  -0.00000000  0.40395921  0.41268533  1
  Se  Se35  1  0.00000000  0.59604079  0.58731467  1
  Se  Se36  1  0.50000000  0.02208446  0.39481684  1
  Se  Se37  1  0.50000000  0.97791554  0.60518316  1
  Se  Se38  1  0.00000000  0.52208446  0.10518316  1
  Se  Se39  1  -0.00000000  0.47791554  0.89481684  1
