# generated using pymatgen
data_Cs2U(Si2O5)3
_symmetry_space_group_name_H-M   'P 1'
_cell_length_a   7.40563029
_cell_length_b   9.08543907
_cell_length_c   13.70409568
_cell_angle_alpha   90.00000000
_cell_angle_beta   90.00000000
_cell_angle_gamma   114.05132929
_symmetry_Int_Tables_number   1
_chemical_formula_structural   Cs2U(Si2O5)3
_chemical_formula_sum   'Cs4 U2 Si12 O30'
_cell_volume   842.00575191
_cell_formula_units_Z   2
loop_
 _symmetry_equiv_pos_site_id
 _symmetry_equiv_pos_as_xyz
  1  'x, y, z'
loop_
 _atom_site_type_symbol
 _atom_site_label
 _atom_site_symmetry_multiplicity
 _atom_site_fract_x
 _atom_site_fract_y
 _atom_site_fract_z
 _atom_site_occupancy
  Cs  Cs0  1  0.88880004  0.77760008  0.17318466  1
  Cs  Cs1  1  0.11119996  0.22239992  0.67318466  1
  Cs  Cs2  1  0.77785991  0.55571982  0.86805966  1
  Cs  Cs3  1  0.22214009  0.44428018  0.36805966  1
  U  U4  1  0.63118937  0.26237874  0.51823093  1
  U  U5  1  0.36881063  0.73762126  0.01823093  1
  Si  Si6  1  0.64325441  0.28650881  0.24952782  1
  Si  Si7  1  0.35674559  0.71349119  0.74952782  1
  Si  Si8  1  0.01986118  0.63022462  0.59334045  1
  Si  Si9  1  0.61036344  0.63022462  0.59334045  1
  Si  Si10  1  0.98013882  0.36977538  0.09334045  1
  Si  Si11  1  0.38963656  0.36977538  0.09334045  1
  Si  Si12  1  0.74089626  0.91507493  0.44306262  1
  Si  Si13  1  0.17417867  0.91507493  0.44306262  1
  Si  Si14  1  0.25910374  0.08492507  0.94306262  1
  Si  Si15  1  0.82582133  0.08492507  0.94306262  1
  Si  Si16  1  0.45319532  0.90639064  0.27222775  1
  Si  Si17  1  0.54680468  0.09360936  0.77222775  1
  O  O18  1  0.67028621  0.34057243  0.36194479  1
  O  O19  1  0.32971379  0.65942757  0.86194479  1
  O  O20  1  0.85856012  0.36126970  0.19435929  1
  O  O21  1  0.50270958  0.36126970  0.19435929  1
  O  O22  1  0.14143988  0.63873030  0.69435929  1
  O  O23  1  0.49729042  0.63873030  0.69435929  1
  O  O24  1  0.54608901  0.09217803  0.23430169  1
  O  O25  1  0.45391099  0.90782197  0.73430169  1
  O  O26  1  0.94189702  0.45136047  0.54685837  1
  O  O27  1  0.50946345  0.45136047  0.54685837  1
  O  O28  1  0.05810298  0.54863953  0.04685837  1
  O  O29  1  0.49053655  0.54863953  0.04685837  1
  O  O30  1  0.15733995  0.76708363  0.51622307  1
  O  O31  1  0.60974368  0.76708363  0.51622307  1
  O  O32  1  0.84266005  0.23291637  0.01622307  1
  O  O33  1  0.39025632  0.23291637  0.01622307  1
  O  O34  1  0.83890260  0.67780520  0.62964794  1
  O  O35  1  0.16109740  0.32219480  0.12964794  1
  O  O36  1  0.77225622  0.08848280  0.48729608  1
  O  O37  1  0.31622658  0.08848280  0.48729608  1
  O  O38  1  0.22774378  0.91151720  0.98729608  1
  O  O39  1  0.68377342  0.91151720  0.98729608  1
  O  O40  1  0.95061221  0.90122441  0.41745091  1
  O  O41  1  0.04938779  0.09877559  0.91745091  1
  O  O42  1  0.61999737  0.87496410  0.33852305  1
  O  O43  1  0.25496673  0.87496410  0.33852305  1
  O  O44  1  0.38000263  0.12503590  0.83852305  1
  O  O45  1  0.74503327  0.12503590  0.83852305  1
  O  O46  1  0.39245283  0.78490565  0.18087797  1
  O  O47  1  0.60754717  0.21509435  0.68087797  1
