# generated using pymatgen
data_Fe2B(PO4)3
_symmetry_space_group_name_H-M   'P 1'
_cell_length_a   7.51286787
_cell_length_b   8.12703158
_cell_length_c   8.12704779
_cell_angle_alpha   119.99951087
_cell_angle_beta   90.00000000
_cell_angle_gamma   90.00000000
_symmetry_Int_Tables_number   1
_chemical_formula_structural   Fe2B(PO4)3
_chemical_formula_sum   'Fe4 B2 P6 O24'
_cell_volume   429.73753075
_cell_formula_units_Z   2
loop_
 _symmetry_equiv_pos_site_id
 _symmetry_equiv_pos_as_xyz
  1  'x, y, z'
loop_
 _atom_site_type_symbol
 _atom_site_label
 _atom_site_symmetry_multiplicity
 _atom_site_fract_x
 _atom_site_fract_y
 _atom_site_fract_z
 _atom_site_occupancy
  Fe  Fe0  1  0.45162547  0.66663066  0.33331483  1
  Fe  Fe1  1  0.95162547  0.33336934  0.66668517  1
  Fe  Fe2  1  0.54837453  0.33336934  0.66668517  1
  Fe  Fe3  1  0.04837453  0.66663066  0.33331483  1
  B  B4  1  0.75000000  -0.00000027  0.00000086  1
  B  B5  1  0.25000000  0.00000027  -0.00000086  1
  P  P6  1  0.75000000  0.68481530  0.63980199  1
  P  P7  1  0.75000000  0.36019039  0.04500194  1
  P  P8  1  0.75000000  0.95499050  0.31519616  1
  P  P9  1  0.25000000  0.31518470  0.36019801  1
  P  P10  1  0.25000000  0.63980961  0.95499806  1
  P  P11  1  0.25000000  0.04500950  0.68480384  1
  O  O12  1  0.75000000  0.81055904  0.86662603  1
  O  O13  1  0.75000000  0.13337475  0.94393277  1
  O  O14  1  0.75000000  0.05606838  0.18944102  1
  O  O15  1  0.25000000  0.18944096  0.13337397  1
  O  O16  1  0.25000000  0.86662525  0.05606723  1
  O  O17  1  0.25000000  0.94393162  0.81055898  1
  O  O18  1  0.58010559  0.72791884  0.56586257  1
  O  O19  1  0.58011043  0.43412745  0.16205267  1
  O  O20  1  0.58010553  0.83793792  0.27207811  1
  O  O21  1  0.08010559  0.27208116  0.43413743  1
  O  O22  1  0.08011043  0.56587255  0.83794733  1
  O  O23  1  0.08010553  0.16206208  0.72792189  1
  O  O24  1  0.41989441  0.27208116  0.43413743  1
  O  O25  1  0.41988957  0.56587255  0.83794733  1
  O  O26  1  0.41989447  0.16206208  0.72792189  1
  O  O27  1  0.91989441  0.72791884  0.56586257  1
  O  O28  1  0.91988957  0.43412745  0.16205267  1
  O  O29  1  0.91989447  0.83793792  0.27207811  1
  O  O30  1  0.75000000  0.47897953  0.60524802  1
  O  O31  1  0.75000000  0.39475744  0.87373287  1
  O  O32  1  0.75000000  0.12627622  0.52102657  1
  O  O33  1  0.25000000  0.52102047  0.39475198  1
  O  O34  1  0.25000000  0.60524256  0.12626713  1
  O  O35  1  0.25000000  0.87372378  0.47897343  1
