# generated using pymatgen
data_Sm2Re3Si5
_symmetry_space_group_name_H-M   'P 1'
_cell_length_a   5.67791416
_cell_length_b   11.02338450
_cell_length_c   11.02338450
_cell_angle_alpha   90.00000000
_cell_angle_beta   90.00000000
_cell_angle_gamma   90.00000000
_symmetry_Int_Tables_number   1
_chemical_formula_structural   Sm2Re3Si5
_chemical_formula_sum   'Sm8 Re12 Si20'
_cell_volume   689.95177228
_cell_formula_units_Z   4
loop_
 _symmetry_equiv_pos_site_id
 _symmetry_equiv_pos_as_xyz
  1  'x, y, z'
loop_
 _atom_site_type_symbol
 _atom_site_label
 _atom_site_symmetry_multiplicity
 _atom_site_fract_x
 _atom_site_fract_y
 _atom_site_fract_z
 _atom_site_occupancy
  Sm  Sm0  1  0.50000000  0.73789720  0.57612905  1
  Sm  Sm1  1  0.50000000  0.26210280  0.42387095  1
  Sm  Sm2  1  0.00000000  0.76210280  0.07612905  1
  Sm  Sm3  1  -0.00000000  0.23789720  0.92387095  1
  Sm  Sm4  1  0.50000000  0.57612905  0.26210280  1
  Sm  Sm5  1  0.50000000  0.42387095  0.73789720  1
  Sm  Sm6  1  -0.00000000  0.07612905  0.23789720  1
  Sm  Sm7  1  0.00000000  0.92387095  0.76210280  1
  Re  Re8  1  0.50000000  0.85292402  0.87503327  1
  Re  Re9  1  0.50000000  0.14707598  0.12496673  1
  Re  Re10  1  0.00000000  0.64707598  0.37503327  1
  Re  Re11  1  -0.00000000  0.35292402  0.62496673  1
  Re  Re12  1  0.50000000  0.87503327  0.14707598  1
  Re  Re13  1  0.50000000  0.12496673  0.85292402  1
  Re  Re14  1  -0.00000000  0.37503327  0.35292402  1
  Re  Re15  1  0.00000000  0.62496673  0.64707598  1
  Re  Re16  1  0.25000000  0.00000000  0.50000000  1
  Re  Re17  1  0.75000000  0.50000000  0.00000000  1
  Re  Re18  1  0.25000000  0.50000000  0.00000000  1
  Re  Re19  1  0.75000000  -0.00000000  0.50000000  1
  Si  Si20  1  0.25000000  0.17296977  0.67296977  1
  Si  Si21  1  0.25000000  0.82703023  0.32703023  1
  Si  Si22  1  0.75000000  0.32703023  0.17296977  1
  Si  Si23  1  0.75000000  0.67296977  0.82703023  1
  Si  Si24  1  0.25000000  0.67296977  0.82703023  1
  Si  Si25  1  0.25000000  0.32703023  0.17296977  1
  Si  Si26  1  0.75000000  0.17296977  0.67296977  1
  Si  Si27  1  0.75000000  0.82703023  0.32703023  1
  Si  Si28  1  0.24563386  0.50000000  0.50000000  1
  Si  Si29  1  0.74563386  0.00000000  0.00000000  1
  Si  Si30  1  0.75436614  0.50000000  0.50000000  1
  Si  Si31  1  0.25436614  -0.00000000  0.00000000  1
  Si  Si32  1  0.50000000  0.97592227  0.68398299  1
  Si  Si33  1  0.50000000  0.02407773  0.31601701  1
  Si  Si34  1  -0.00000000  0.52407773  0.18398299  1
  Si  Si35  1  0.00000000  0.47592227  0.81601701  1
  Si  Si36  1  0.50000000  0.68398299  0.02407773  1
  Si  Si37  1  0.50000000  0.31601701  0.97592227  1
  Si  Si38  1  -0.00000000  0.18398299  0.47592227  1
  Si  Si39  1  0.00000000  0.81601701  0.52407773  1
