# generated using pymatgen
data_AlH14SeNO14
_symmetry_space_group_name_H-M   'P 1'
_cell_length_a   6.24998914
_cell_length_b   7.85480491
_cell_length_c   12.48539350
_cell_angle_alpha   90.54559367
_cell_angle_beta   102.04490205
_cell_angle_gamma   96.82442464
_symmetry_Int_Tables_number   1
_chemical_formula_structural   AlH14SeNO14
_chemical_formula_sum   'Al2 H28 Se2 N2 O28'
_cell_volume   594.82533880
_cell_formula_units_Z   2
loop_
 _symmetry_equiv_pos_site_id
 _symmetry_equiv_pos_as_xyz
  1  'x, y, z'
loop_
 _atom_site_type_symbol
 _atom_site_label
 _atom_site_symmetry_multiplicity
 _atom_site_fract_x
 _atom_site_fract_y
 _atom_site_fract_z
 _atom_site_occupancy
  Al  Al0  1  0.41255612  0.74991826  0.78298269  1
  Al  Al1  1  0.58744388  0.25008174  0.21701731  1
  H  H2  1  0.64571904  0.80593178  0.97802235  1
  H  H3  1  0.35428096  0.19406822  0.02197765  1
  H  H4  1  0.40808599  0.44777346  0.86783143  1
  H  H5  1  0.59191401  0.55222654  0.13216857  1
  H  H6  1  0.64342917  0.99028848  0.92105073  1
  H  H7  1  0.35657083  0.00971152  0.07894927  1
  H  H8  1  0.69047085  0.75020132  0.65314460  1
  H  H9  1  0.30952915  0.24979868  0.34685540  1
  H  H10  1  0.16771626  0.73519238  0.92745783  1
  H  H11  1  0.83228374  0.26480762  0.07254217  1
  H  H12  1  0.22526873  0.67548787  0.57863787  1
  H  H13  1  0.77473127  0.32451213  0.42136213  1
  H  H14  1  0.32061337  0.00422710  0.65358978  1
  H  H15  1  0.67938663  0.99577290  0.34641022  1
  H  H16  1  0.77668228  0.90170471  0.74869254  1
  H  H17  1  0.22331772  0.09829529  0.25130746  1
  H  H18  1  0.18601316  0.00715772  0.74983685  1
  H  H19  1  0.81398684  0.99284228  0.25016315  1
  H  H20  1  0.19765477  0.84745618  0.42989277  1
  H  H21  1  0.80234523  0.15254382  0.57010723  1
  H  H22  1  0.28598637  0.50427615  0.64321190  1
  H  H23  1  0.71401363  0.49572385  0.35678810  1
  H  H24  1  0.05032995  0.60073672  0.82450837  1
  H  H25  1  0.94967005  0.39926328  0.17549163  1
  H  H26  1  0.18807095  0.65464962  0.39277149  1
  H  H27  1  0.81192905  0.34535038  0.60722851  1
  H  H28  1  0.63568881  0.48568392  0.82226396  1
  H  H29  1  0.36431119  0.51431608  0.17773604  1
  Se  Se30  1  0.96458846  0.24579714  0.85582988  1
  Se  Se31  1  0.03541154  0.75420286  0.14417012  1
  N  N32  1  0.69436509  0.75472694  0.45996773  1
  N  N33  1  0.30563491  0.24527306  0.54003227  1
  O  O34  1  0.25740374  0.62660260  0.65427181  1
  O  O35  1  0.74259626  0.37339740  0.34572819  1
  O  O36  1  0.51051310  0.53822543  0.84216871  1
  O  O37  1  0.48948690  0.46177457  0.15783129  1
  O  O38  1  0.31202751  0.95815397  0.72781260  1
  O  O39  1  0.68797249  0.04184603  0.27218740  1
  O  O40  1  0.67220222  0.79424783  0.72685067  1
  O  O41  1  0.32779778  0.20575217  0.27314933  1
  O  O42  1  0.56449090  0.87090773  0.91651589  1
  O  O43  1  0.43550910  0.12909227  0.08348411  1
  O  O44  1  0.16264133  0.70305680  0.84888120  1
  O  O45  1  0.83735867  0.29694320  0.15111880  1
  O  O46  1  0.95168138  0.08163453  0.76665099  1
  O  O47  1  0.04831862  0.91836547  0.23334901  1
  O  O48  1  0.22697559  0.30393914  0.92010382  1
  O  O49  1  0.77302441  0.69606086  0.07989618  1
  O  O50  1  0.87003716  0.41623684  0.78907954  1
  O  O51  1  0.12996284  0.58376316  0.21092046  1
  O  O52  1  0.80715281  0.18328351  0.94534785  1
  O  O53  1  0.19284719  0.81671649  0.05465215  1
  O  O54  1  0.70070372  0.91618121  0.47241473  1
  O  O55  1  0.29929628  0.08381879  0.52758527  1
  O  O56  1  0.66363006  0.68975923  0.36414224  1
  O  O57  1  0.33636994  0.31024077  0.63585776  1
  O  O58  1  0.71734164  0.66029291  0.54211214  1
  O  O59  1  0.28265836  0.33970709  0.45788786  1
  O  O60  1  0.18165999  0.73033073  0.45454587  1
  O  O61  1  0.81834001  0.26966927  0.54545413  1
