# generated using pymatgen
data_Rb2LiCo(CN)6
_symmetry_space_group_name_H-M   'P 1'
_cell_length_a   7.21179612
_cell_length_b   7.49181135
_cell_length_c   10.32459655
_cell_angle_alpha   90.00000000
_cell_angle_beta   90.17053889
_cell_angle_gamma   90.00000000
_symmetry_Int_Tables_number   1
_chemical_formula_structural   Rb2LiCo(CN)6
_chemical_formula_sum   'Rb4 Li2 Co2 C12 N12'
_cell_volume   557.82945098
_cell_formula_units_Z   2
loop_
 _symmetry_equiv_pos_site_id
 _symmetry_equiv_pos_as_xyz
  1  'x, y, z'
loop_
 _atom_site_type_symbol
 _atom_site_label
 _atom_site_symmetry_multiplicity
 _atom_site_fract_x
 _atom_site_fract_y
 _atom_site_fract_z
 _atom_site_occupancy
  Li  Li0  1  0.00000000  0.00000000  0.50000000  1
  Li  Li1  1  0.50000000  0.50000000  0.00000000  1
  C  C2  1  0.21082764  0.85656010  0.97680334  1
  C  C3  1  0.71082764  0.64343990  0.47680334  1
  C  C4  1  0.78917236  0.14343990  0.02319666  1
  C  C5  1  0.28917236  0.35656010  0.52319666  1
  C  C6  1  0.64310533  0.29396316  0.47316044  1
  C  C7  1  0.85689467  0.79396316  0.02683956  1
  C  C8  1  0.04876313  0.01016963  0.17828997  1
  C  C9  1  0.45123687  0.51016963  0.32171003  1
  C  C10  1  0.95123687  0.98983037  0.82171003  1
  C  C11  1  0.54876313  0.48983037  0.67828997  1
  C  C12  1  0.14310533  0.20603684  0.97316044  1
  C  C13  1  0.35689467  0.70603684  0.52683956  1
  N  N14  1  0.92325084  0.98172737  0.70968973  1
  N  N15  1  0.57674916  0.48172737  0.79031027  1
  N  N16  1  0.73317040  0.16530065  0.45631643  1
  N  N17  1  0.23317040  0.33469935  0.95631643  1
  N  N18  1  0.26682960  0.83469935  0.54368357  1
  N  N19  1  0.76682960  0.66530065  0.04368357  1
  N  N20  1  0.65850562  0.23495030  0.03794824  1
  N  N21  1  0.84149438  0.73495030  0.46205176  1
  N  N22  1  0.34149438  0.76504970  0.96205176  1
  N  N23  1  0.15850562  0.26504970  0.53794824  1
  N  N24  1  0.07674916  0.01827263  0.29031027  1
  N  N25  1  0.42325084  0.51827263  0.20968973  1
  Co  Co26  1  0.50000000  0.50000000  0.50000000  1
  Co  Co27  1  0.00000000  0.00000000  0.00000000  1
  Rb  Rb28  1  0.01303439  0.55422530  0.75057720  1
  Rb  Rb29  1  0.48696561  0.05422530  0.74942280  1
  Rb  Rb30  1  0.98696561  0.44577470  0.24942280  1
  Rb  Rb31  1  0.51303439  0.94577470  0.25057720  1
