# generated using pymatgen
data_GdHSO5
_symmetry_space_group_name_H-M   'P 1'
_cell_length_a   4.44566672
_cell_length_b   6.88364958
_cell_length_c   12.34516126
_cell_angle_alpha   90.00000000
_cell_angle_beta   90.00000000
_cell_angle_gamma   106.56491379
_symmetry_Int_Tables_number   1
_chemical_formula_structural   GdHSO5
_chemical_formula_sum   'Gd4 H4 S4 O20'
_cell_volume   362.11234886
_cell_formula_units_Z   4
loop_
 _symmetry_equiv_pos_site_id
 _symmetry_equiv_pos_as_xyz
  1  'x, y, z'
loop_
 _atom_site_type_symbol
 _atom_site_label
 _atom_site_symmetry_multiplicity
 _atom_site_fract_x
 _atom_site_fract_y
 _atom_site_fract_z
 _atom_site_occupancy
  Gd  Gd0  1  0.63583421  0.79877935  0.93941945  1
  Gd  Gd1  1  0.13583421  0.29877935  0.56058055  1
  Gd  Gd2  1  0.36416579  0.20122065  0.06058055  1
  Gd  Gd3  1  0.86416579  0.70122065  0.43941945  1
  H  H4  1  0.22798828  0.01392884  0.84706240  1
  H  H5  1  0.72798828  0.51392884  0.65293760  1
  H  H6  1  0.77201172  0.98607116  0.15293760  1
  H  H7  1  0.27201172  0.48607116  0.34706240  1
  S  S8  1  0.47942114  0.89242813  0.64847605  1
  S  S9  1  0.97942114  0.39242813  0.85152395  1
  S  S10  1  0.52057886  0.10757187  0.35152395  1
  S  S11  1  0.02057886  0.60757187  0.14847605  1
  O  O12  1  0.36307675  0.06901536  0.66543469  1
  O  O13  1  0.86307675  0.56901536  0.83456531  1
  O  O14  1  0.63692325  0.93098464  0.33456531  1
  O  O15  1  0.13692325  0.43098464  0.16543469  1
  O  O16  1  0.75433876  0.94915228  0.57021963  1
  O  O17  1  0.25433876  0.44915228  0.92978037  1
  O  O18  1  0.24566124  0.05084772  0.42978037  1
  O  O19  1  0.74566124  0.55084772  0.07021963  1
  O  O20  1  0.58933551  0.82921148  0.75157482  1
  O  O21  1  0.08933551  0.32921148  0.74842518  1
  O  O22  1  0.41066449  0.17078852  0.24842518  1
  O  O23  1  0.91066449  0.67078852  0.25157482  1
  O  O24  1  0.23690872  0.71983592  0.60051303  1
  O  O25  1  0.73690872  0.21983592  0.89948697  1
  O  O26  1  0.76309128  0.28016408  0.39948697  1
  O  O27  1  0.26309128  0.78016408  0.10051303  1
  O  O28  1  0.19157856  0.95367701  0.91946518  1
  O  O29  1  0.69157856  0.45367701  0.58053482  1
  O  O30  1  0.80842144  0.04632299  0.08053482  1
  O  O31  1  0.30842144  0.54632299  0.41946518  1
