# generated using pymatgen
data_Sc9Te2
_symmetry_space_group_name_H-M   'P 1'
_cell_length_a   7.75717867
_cell_length_b   8.72419585
_cell_length_c   17.35931679
_cell_angle_alpha   90.00000000
_cell_angle_beta   90.00000000
_cell_angle_gamma   116.39636681
_symmetry_Int_Tables_number   1
_chemical_formula_structural   Sc9Te2
_chemical_formula_sum   'Sc36 Te8'
_cell_volume   1052.31018945
_cell_formula_units_Z   4
loop_
 _symmetry_equiv_pos_site_id
 _symmetry_equiv_pos_as_xyz
  1  'x, y, z'
loop_
 _atom_site_type_symbol
 _atom_site_label
 _atom_site_symmetry_multiplicity
 _atom_site_fract_x
 _atom_site_fract_y
 _atom_site_fract_z
 _atom_site_occupancy
  Sc  Sc0  1  0.20157585  0.85193564  0.86911615  1
  Sc  Sc1  1  0.65035979  0.85193564  0.86911615  1
  Sc  Sc2  1  0.79842415  0.14806436  0.36911615  1
  Sc  Sc3  1  0.34964021  0.14806436  0.36911615  1
  Sc  Sc4  1  0.95166423  0.35147991  0.64108990  1
  Sc  Sc5  1  0.39981568  0.35147991  0.64108990  1
  Sc  Sc6  1  0.04833577  0.64852009  0.14108990  1
  Sc  Sc7  1  0.60018432  0.64852009  0.14108990  1
  Sc  Sc8  1  0.26504336  0.53008671  0.79486816  1
  Sc  Sc9  1  0.73495664  0.46991329  0.29486816  1
  Sc  Sc10  1  0.42423375  0.84846750  0.43118699  1
  Sc  Sc11  1  0.57576625  0.15153250  0.93118699  1
  Sc  Sc12  1  0.38555592  0.77111184  0.02140426  1
  Sc  Sc13  1  0.61444408  0.22888816  0.52140426  1
  Sc  Sc14  1  0.21013983  0.97749435  0.56071890  1
  Sc  Sc15  1  0.76735453  0.97749435  0.56071890  1
  Sc  Sc16  1  0.78986017  0.02250565  0.06071890  1
  Sc  Sc17  1  0.23264547  0.02250565  0.06071890  1
  Sc  Sc18  1  0.01540858  0.03081716  0.71502155  1
  Sc  Sc19  1  0.98459142  0.96918284  0.21502155  1
  Sc  Sc20  1  0.06902386  0.13804773  0.92499062  1
  Sc  Sc21  1  0.93097614  0.86195227  0.42499062  1
  Sc  Sc22  1  0.52451182  0.04902365  0.70193977  1
  Sc  Sc23  1  0.47548818  0.95097635  0.20193977  1
  Sc  Sc24  1  0.86415845  0.72831689  0.98733214  1
  Sc  Sc25  1  0.13584155  0.27168311  0.48733214  1
  Sc  Sc26  1  0.98345821  0.52347491  0.44905861  1
  Sc  Sc27  1  0.54001670  0.52347491  0.44905861  1
  Sc  Sc28  1  0.01654179  0.47652509  0.94905861  1
  Sc  Sc29  1  0.45998330  0.47652509  0.94905861  1
  Sc  Sc30  1  0.77415303  0.54830606  0.80636889  1
  Sc  Sc31  1  0.22584697  0.45169394  0.30636889  1
  Sc  Sc32  1  0.32552392  0.65104784  0.57881606  1
  Sc  Sc33  1  0.67447608  0.34895216  0.07881606  1
  Sc  Sc34  1  0.81929314  0.63858627  0.58454332  1
  Sc  Sc35  1  0.18070686  0.36141373  0.08454332  1
  Te  Te36  1  0.12169486  0.74036048  0.70364183  1
  Te  Te37  1  0.61866562  0.74036048  0.70364183  1
  Te  Te38  1  0.87830514  0.25963952  0.20364183  1
  Te  Te39  1  0.38133438  0.25963952  0.20364183  1
  Te  Te40  1  0.86656780  0.23886760  0.80591874  1
  Te  Te41  1  0.37229980  0.23886760  0.80591874  1
  Te  Te42  1  0.13343220  0.76113240  0.30591874  1
  Te  Te43  1  0.62770020  0.76113240  0.30591874  1
