# generated using pymatgen
data_MgTl2H12(SeO7)2
_symmetry_space_group_name_H-M   'P 1'
_cell_length_a   6.47587900
_cell_length_b   9.54437500
_cell_length_c   12.91012454
_cell_angle_alpha   90.00000000
_cell_angle_beta   90.00000000
_cell_angle_gamma   105.82679729
_symmetry_Int_Tables_number   1
_chemical_formula_structural   MgTl2H12(SeO7)2
_chemical_formula_sum   'Mg2 Tl4 H24 Se4 O28'
_cell_volume   767.70186817
_cell_formula_units_Z   2
loop_
 _symmetry_equiv_pos_site_id
 _symmetry_equiv_pos_as_xyz
  1  'x, y, z'
loop_
 _atom_site_type_symbol
 _atom_site_label
 _atom_site_symmetry_multiplicity
 _atom_site_fract_x
 _atom_site_fract_y
 _atom_site_fract_z
 _atom_site_occupancy
  Mg  Mg0  1  -0.00000000  0.50000000  0.50000000  1
  Mg  Mg1  1  -0.00000000  0.00000000  0.00000000  1
  Tl  Tl2  1  0.35346342  0.62035887  0.14196331  1
  Tl  Tl3  1  0.64653658  0.87964113  0.64196331  1
  Tl  Tl4  1  0.64653658  0.37964113  0.85803669  1
  Tl  Tl5  1  0.35346342  0.12035887  0.35803669  1
  H  H6  1  0.31996203  0.70913579  0.41180336  1
  H  H7  1  0.68003797  0.79086421  0.91180336  1
  H  H8  1  0.68003797  0.29086421  0.58819664  1
  H  H9  1  0.31996203  0.20913579  0.08819664  1
  H  H10  1  0.09842861  0.73721706  0.37452725  1
  H  H11  1  0.90157139  0.76278294  0.87452725  1
  H  H12  1  0.90157139  0.26278294  0.62547275  1
  H  H13  1  0.09842861  0.23721706  0.12547275  1
  H  H14  1  0.93510457  0.23781283  0.40314194  1
  H  H15  1  0.06489543  0.26218717  0.90314194  1
  H  H16  1  0.06489543  0.76218717  0.59685806  1
  H  H17  1  0.93510457  0.73781283  0.09685806  1
  H  H18  1  0.00256429  0.36030881  0.31751214  1
  H  H19  1  0.99743571  0.13969119  0.81751214  1
  H  H20  1  0.99743571  0.63969119  0.68248786  1
  H  H21  1  0.00256429  0.86030881  0.18248786  1
  H  H22  1  0.33065877  0.40098372  0.55877507  1
  H  H23  1  0.66934123  0.09901628  0.05877507  1
  H  H24  1  0.66934123  0.59901628  0.44122493  1
  H  H25  1  0.33065877  0.90098372  0.94122493  1
  H  H26  1  0.32481656  0.52537461  0.63861068  1
  H  H27  1  0.67518344  0.97462539  0.13861068  1
  H  H28  1  0.67518344  0.47462539  0.36138932  1
  H  H29  1  0.32481656  0.02537461  0.86138932  1
  Se  Se30  1  0.73859243  0.90566570  0.35891387  1
  Se  Se31  1  0.26140757  0.59433430  0.85891387  1
  Se  Se32  1  0.26140757  0.09433430  0.64108613  1
  Se  Se33  1  0.73859243  0.40566570  0.14108613  1
  O  O34  1  0.57840120  0.91036823  0.25747100  1
  O  O35  1  0.42159880  0.58963177  0.75747100  1
  O  O36  1  0.42159880  0.08963177  0.74252900  1
  O  O37  1  0.57840120  0.41036823  0.24252900  1
  O  O38  1  0.78267875  0.06086958  0.42661442  1
  O  O39  1  0.21732125  0.43913042  0.92661442  1
  O  O40  1  0.21732125  0.93913042  0.57338558  1
  O  O41  1  0.78267875  0.56086958  0.07338558  1
  O  O42  1  0.60662575  0.77002794  0.43829523  1
  O  O43  1  0.39337425  0.72997206  0.93829523  1
  O  O44  1  0.39337425  0.22997206  0.56170477  1
  O  O45  1  0.60662575  0.27002794  0.06170477  1
  O  O46  1  0.97115262  0.87726565  0.31846999  1
  O  O47  1  0.02884738  0.62273435  0.81846999  1
  O  O48  1  0.02884738  0.12273435  0.68153001  1
  O  O49  1  0.97115262  0.37726565  0.18153001  1
  O  O50  1  0.16717378  0.66139102  0.39621526  1
  O  O51  1  0.83282622  0.83860898  0.89621526  1
  O  O52  1  0.83282622  0.33860898  0.60378474  1
  O  O53  1  0.16717378  0.16139102  0.10378474  1
  O  O54  1  0.02261711  0.33966303  0.39190348  1
  O  O55  1  0.97738289  0.16033697  0.89190348  1
  O  O56  1  0.97738289  0.66033697  0.60809652  1
  O  O57  1  0.02261711  0.83966303  0.10809652  1
  O  O58  1  0.28418004  0.49085708  0.56675135  1
  O  O59  1  0.71581996  0.00914292  0.06675135  1
  O  O60  1  0.71581996  0.50914292  0.43324865  1
  O  O61  1  0.28418004  0.99085708  0.93324865  1
