# generated using pymatgen
data_Si4Mo8Pt5
_symmetry_space_group_name_H-M   'P 1'
_cell_length_a   7.99964208
_cell_length_b   7.99964208
_cell_length_c   9.67214053
_cell_angle_alpha   80.19028448
_cell_angle_beta   80.19028448
_cell_angle_gamma   60.48326966
_symmetry_Int_Tables_number   1
_chemical_formula_structural   Si4Mo8Pt5
_chemical_formula_sum   'Si8 Mo16 Pt10'
_cell_volume   528.04913342
_cell_formula_units_Z   2
loop_
 _symmetry_equiv_pos_site_id
 _symmetry_equiv_pos_as_xyz
  1  'x, y, z'
loop_
 _atom_site_type_symbol
 _atom_site_label
 _atom_site_symmetry_multiplicity
 _atom_site_fract_x
 _atom_site_fract_y
 _atom_site_fract_z
 _atom_site_occupancy
  Si  Si0  1  0.29121693  0.02533736  0.80803438  1
  Si  Si1  1  0.02533736  0.29121693  0.30803438  1
  Si  Si2  1  0.80777138  0.50024068  0.82296372  1
  Si  Si3  1  0.50024068  0.80777138  0.32296372  1
  Si  Si4  1  0.92386935  0.39297010  0.55908822  1
  Si  Si5  1  0.39297010  0.92386935  0.05908822  1
  Si  Si6  1  0.81937667  0.02261964  0.80739023  1
  Si  Si7  1  0.02261964  0.81937667  0.30739023  1
  Mo  Mo8  1  0.53510806  0.12852758  0.63331229  1
  Mo  Mo9  1  0.12852758  0.53510806  0.13331229  1
  Mo  Mo10  1  0.41492846  0.59262122  0.91509186  1
  Mo  Mo11  1  0.59262122  0.41492846  0.41509186  1
  Mo  Mo12  1  0.07903877  0.90227241  0.01550414  1
  Mo  Mo13  1  0.90227241  0.07903877  0.51550414  1
  Mo  Mo14  1  0.55528594  0.75763914  0.60828501  1
  Mo  Mo15  1  0.75763914  0.55528594  0.10828501  1
  Mo  Mo16  1  0.90659773  0.75214173  0.60607351  1
  Mo  Mo17  1  0.75214173  0.90659773  0.10607351  1
  Mo  Mo18  1  0.26778329  0.08738409  0.50735264  1
  Mo  Mo19  1  0.08738409  0.26778329  0.00735264  1
  Mo  Mo20  1  0.41691510  0.28026534  0.91434768  1
  Mo  Mo21  1  0.28026534  0.41691510  0.41434768  1
  Mo  Mo22  1  0.63117367  0.03057024  0.39455335  1
  Mo  Mo23  1  0.03057024  0.63117367  0.89455335  1
  Pt  Pt24  1  0.36494620  0.15288611  0.20926403  1
  Pt  Pt25  1  0.15288611  0.36494620  0.70926403  1
  Pt  Pt26  1  0.74744522  0.25668213  0.97380327  1
  Pt  Pt27  1  0.25668213  0.74744522  0.47380327  1
  Pt  Pt28  1  0.16365596  0.85578423  0.72468549  1
  Pt  Pt29  1  0.85578423  0.16365596  0.22468549  1
  Pt  Pt30  1  0.63575445  0.83934619  0.86129584  1
  Pt  Pt31  1  0.83934619  0.63575445  0.36129584  1
  Pt  Pt32  1  0.64852062  0.37552398  0.69435436  1
  Pt  Pt33  1  0.37552398  0.64852062  0.19435436  1
