# generated using pymatgen
data_CrPb2F7
_symmetry_space_group_name_H-M   'P 1'
_cell_length_a   5.52511253
_cell_length_b   9.65910610
_cell_length_c   11.32334574
_cell_angle_alpha   90.00000000
_cell_angle_beta   90.00000000
_cell_angle_gamma   91.16035632
_symmetry_Int_Tables_number   1
_chemical_formula_structural   CrPb2F7
_chemical_formula_sum   'Cr4 Pb8 F28'
_cell_volume   604.17641059
_cell_formula_units_Z   4
loop_
 _symmetry_equiv_pos_site_id
 _symmetry_equiv_pos_as_xyz
  1  'x, y, z'
loop_
 _atom_site_type_symbol
 _atom_site_label
 _atom_site_symmetry_multiplicity
 _atom_site_fract_x
 _atom_site_fract_y
 _atom_site_fract_z
 _atom_site_occupancy
  Cr  Cr0  1  0.70056893  0.29285854  0.63286753  1
  Cr  Cr1  1  0.29943107  0.20714146  0.13286753  1
  Cr  Cr2  1  0.29943107  0.70714146  0.36713247  1
  Cr  Cr3  1  0.70056893  0.79285854  0.86713247  1
  Pb  Pb4  1  0.77775338  0.44498108  0.31361190  1
  Pb  Pb5  1  0.22224662  0.05501892  0.81361190  1
  Pb  Pb6  1  0.22224662  0.55501892  0.68638810  1
  Pb  Pb7  1  0.77775338  0.94498108  0.18638810  1
  Pb  Pb8  1  0.76018079  0.36422925  0.93848152  1
  Pb  Pb9  1  0.23981921  0.13577075  0.43848152  1
  Pb  Pb10  1  0.23981921  0.63577075  0.06151848  1
  Pb  Pb11  1  0.76018079  0.86422925  0.56151848  1
  F  F12  1  0.87901884  0.49503764  0.11433798  1
  F  F13  1  0.12098116  0.00496236  0.61433798  1
  F  F14  1  0.12098116  0.50496236  0.88566202  1
  F  F15  1  0.87901884  0.99503764  0.38566202  1
  F  F16  1  0.44537725  0.35590024  0.53149627  1
  F  F17  1  0.55462275  0.14409976  0.03149627  1
  F  F18  1  0.55462275  0.64409976  0.46850373  1
  F  F19  1  0.44537725  0.85590024  0.96850373  1
  F  F20  1  0.59867416  0.10446011  0.59397846  1
  F  F21  1  0.40132584  0.39553989  0.09397846  1
  F  F22  1  0.40132584  0.89553989  0.40602154  1
  F  F23  1  0.59867416  0.60446011  0.90602154  1
  F  F24  1  0.78957635  0.48180968  0.67517532  1
  F  F25  1  0.21042365  0.01819032  0.17517532  1
  F  F26  1  0.21042365  0.51819032  0.32482468  1
  F  F27  1  0.78957635  0.98180968  0.82482468  1
  F  F28  1  0.92001142  0.30438221  0.49749407  1
  F  F29  1  0.07998858  0.19561779  0.99749407  1
  F  F30  1  0.07998858  0.69561779  0.50250593  1
  F  F31  1  0.92001142  0.80438221  0.00250593  1
  F  F32  1  0.46774870  0.28585746  0.76411503  1
  F  F33  1  0.53225130  0.21414254  0.26411503  1
  F  F34  1  0.53225130  0.71414254  0.23588497  1
  F  F35  1  0.46774870  0.78585746  0.73588497  1
  F  F36  1  0.96003267  0.24148089  0.74298980  1
  F  F37  1  0.03996733  0.25851911  0.24298980  1
  F  F38  1  0.03996733  0.75851911  0.25701020  1
  F  F39  1  0.96003267  0.74148089  0.75701020  1
