# generated using pymatgen
data_TaTe4Cl4O
_symmetry_space_group_name_H-M   'P 1'
_cell_length_a   8.17165062
_cell_length_b   13.79076365
_cell_length_c   22.66073708
_cell_angle_alpha   90.00000000
_cell_angle_beta   99.07415155
_cell_angle_gamma   90.00000000
_symmetry_Int_Tables_number   1
_chemical_formula_structural   TaTe4Cl4O
_chemical_formula_sum   'Ta8 Te32 Cl32 O8'
_cell_volume   2521.75372115
_cell_formula_units_Z   8
loop_
 _symmetry_equiv_pos_site_id
 _symmetry_equiv_pos_as_xyz
  1  'x, y, z'
loop_
 _atom_site_type_symbol
 _atom_site_label
 _atom_site_symmetry_multiplicity
 _atom_site_fract_x
 _atom_site_fract_y
 _atom_site_fract_z
 _atom_site_occupancy
  Ta  Ta0  1  0.51421153  0.81625574  0.96193261  1
  Ta  Ta1  1  0.48578847  0.31625574  0.53806739  1
  Ta  Ta2  1  0.48578847  0.18374426  0.03806739  1
  Ta  Ta3  1  0.51421153  0.68374426  0.46193261  1
  Ta  Ta4  1  0.50180311  0.06552874  0.88690828  1
  Ta  Ta5  1  0.49819689  0.56552874  0.61309172  1
  Ta  Ta6  1  0.49819689  0.93447126  0.11309172  1
  Ta  Ta7  1  0.50180311  0.43447126  0.38690828  1
  Te  Te8  1  0.16700163  0.55427512  0.76211749  1
  Te  Te9  1  0.83299837  0.05427512  0.73788251  1
  Te  Te10  1  0.83299837  0.44572488  0.23788251  1
  Te  Te11  1  0.16700163  0.94572488  0.26211749  1
  Te  Te12  1  0.09225767  0.82163694  0.71965819  1
  Te  Te13  1  0.90774233  0.32163694  0.78034181  1
  Te  Te14  1  0.90774233  0.17836306  0.28034181  1
  Te  Te15  1  0.09225767  0.67836306  0.21965819  1
  Te  Te16  1  0.87054273  0.81083197  0.79779439  1
  Te  Te17  1  0.12945727  0.31083197  0.70220561  1
  Te  Te18  1  0.12945727  0.18916803  0.20220561  1
  Te  Te19  1  0.87054273  0.68916803  0.29779439  1
  Te  Te20  1  0.85444346  0.81728723  0.61689773  1
  Te  Te21  1  0.14555654  0.31728723  0.88310227  1
  Te  Te22  1  0.14555654  0.18271277  0.38310227  1
  Te  Te23  1  0.85444346  0.68271277  0.11689773  1
  Te  Te24  1  0.84426537  0.60538690  0.79543717  1
  Te  Te25  1  0.15573463  0.10538690  0.70456283  1
  Te  Te26  1  0.15573463  0.39461310  0.20456283  1
  Te  Te27  1  0.84426537  0.89461310  0.29543717  1
  Te  Te28  1  0.31181721  0.49682530  0.87098630  1
  Te  Te29  1  0.68818279  0.99682530  0.62901370  1
  Te  Te30  1  0.68818279  0.50317470  0.12901370  1
  Te  Te31  1  0.31181721  0.00317470  0.37098630  1
  Te  Te32  1  0.13402555  0.90173264  0.56618441  1
  Te  Te33  1  0.86597445  0.40173264  0.93381559  1
  Te  Te34  1  0.86597445  0.09826736  0.43381559  1
  Te  Te35  1  0.13402555  0.59826736  0.06618441  1
  Te  Te36  1  0.94473050  0.58998155  0.92213551  1
  Te  Te37  1  0.05526950  0.08998155  0.57786449  1
  Te  Te38  1  0.05526950  0.41001845  0.07786449  1
  Te  Te39  1  0.94473050  0.91001845  0.42213551  1
  Cl  Cl40  1  0.80899643  0.81902221  0.97825933  1
  Cl  Cl41  1  0.19100357  0.31902221  0.52174067  1
  Cl  Cl42  1  0.19100357  0.18097779  0.02174067  1
  Cl  Cl43  1  0.80899643  0.68097779  0.47825933  1
  Cl  Cl44  1  0.51448640  0.97868969  0.79152471  1
  Cl  Cl45  1  0.48551360  0.47868969  0.70847529  1
  Cl  Cl46  1  0.48551360  0.02131031  0.20847529  1
  Cl  Cl47  1  0.51448640  0.52131031  0.29152471  1
  Cl  Cl48  1  0.22332815  0.79790877  0.94904138  1
  Cl  Cl49  1  0.77667185  0.29790877  0.55095862  1
  Cl  Cl50  1  0.77667185  0.20209123  0.05095862  1
  Cl  Cl51  1  0.22332815  0.70209123  0.44904138  1
  Cl  Cl52  1  0.20398662  0.05773496  0.86114479  1
  Cl  Cl53  1  0.79601338  0.55773496  0.63885521  1
  Cl  Cl54  1  0.79601338  0.94226504  0.13885521  1
  Cl  Cl55  1  0.20398662  0.44226504  0.36114479  1
  Cl  Cl56  1  0.53822363  0.64771610  0.00735933  1
  Cl  Cl57  1  0.46177637  0.14771610  0.49264067  1
  Cl  Cl58  1  0.46177637  0.35228390  0.99264067  1
  Cl  Cl59  1  0.53822363  0.85228390  0.50735933  1
  Cl  Cl60  1  0.48945648  0.21517017  0.82964620  1
  Cl  Cl61  1  0.51054352  0.71517017  0.67035380  1
  Cl  Cl62  1  0.51054352  0.78482983  0.17035380  1
  Cl  Cl63  1  0.48945648  0.28482983  0.32964620  1
  Cl  Cl64  1  0.51659942  0.73621837  0.86626866  1
  Cl  Cl65  1  0.48340058  0.23621837  0.63373134  1
  Cl  Cl66  1  0.48340058  0.26378163  0.13373134  1
  Cl  Cl67  1  0.51659942  0.76378163  0.36626866  1
  Cl  Cl68  1  0.79248674  0.07316820  0.90271169  1
  Cl  Cl69  1  0.20751326  0.57316820  0.59728831  1
  Cl  Cl70  1  0.20751326  0.92683180  0.09728831  1
  Cl  Cl71  1  0.79248674  0.42683180  0.40271169  1
  O  O72  1  0.51421573  0.86494709  0.04195170  1
  O  O73  1  0.48578427  0.36494709  0.45804830  1
  O  O74  1  0.48578427  0.13505291  0.95804830  1
  O  O75  1  0.51421573  0.63505291  0.54195170  1
  O  O76  1  0.50311403  0.93943395  0.92522829  1
  O  O77  1  0.49688597  0.43943395  0.57477171  1
  O  O78  1  0.49688597  0.06056605  0.07477171  1
  O  O79  1  0.50311403  0.56056605  0.42522829  1
