# generated using pymatgen
data_Sn2Bi2O7
_symmetry_space_group_name_H-M   'P 1'
_cell_length_a   7.65048067
_cell_length_b   7.65048068
_cell_length_c   37.48751139
_cell_angle_alpha   90.00000000
_cell_angle_beta   90.00000000
_cell_angle_gamma   120.00000073
_symmetry_Int_Tables_number   1
_chemical_formula_structural   Sn2Bi2O7
_chemical_formula_sum   'Sn24 Bi24 O84'
_cell_volume   1900.17974371
_cell_formula_units_Z   12
loop_
 _symmetry_equiv_pos_site_id
 _symmetry_equiv_pos_as_xyz
  1  'x, y, z'
loop_
 _atom_site_type_symbol
 _atom_site_label
 _atom_site_symmetry_multiplicity
 _atom_site_fract_x
 _atom_site_fract_y
 _atom_site_fract_z
 _atom_site_occupancy
  Sn  Sn0  1  0.99883727  0.83489428  0.34632101  1
  Sn  Sn1  1  0.16510572  0.16394299  0.67965501  1
  Sn  Sn2  1  0.83605701  0.00116273  0.01298801  1
  Sn  Sn3  1  0.50346846  0.83604387  0.34517693  1
  Sn  Sn4  1  0.16395613  0.66742458  0.67851093  1
  Sn  Sn5  1  0.33257542  0.49653154  0.01184393  1
  Sn  Sn6  1  0.49971865  0.33105517  0.34577014  1
  Sn  Sn7  1  0.66894483  0.16866348  0.67910414  1
  Sn  Sn8  1  0.83133652  0.50028135  0.01243714  1
  Sn  Sn9  1  0.33352011  0.00029247  0.26227626  1
  Sn  Sn10  1  -0.00029247  0.33322764  0.59561026  1
  Sn  Sn11  1  0.66677236  0.66647989  0.92894326  1
  Sn  Sn12  1  0.00322894  0.83445700  0.84659836  1
  Sn  Sn13  1  0.16554300  0.16877194  0.17993236  1
  Sn  Sn14  1  0.83122806  0.99677106  0.51326536  1
  Sn  Sn15  1  0.49878181  0.83371951  0.84501950  1
  Sn  Sn16  1  0.16628049  0.66506230  0.17835350  1
  Sn  Sn17  1  0.33493770  0.50121819  0.51168650  1
  Sn  Sn18  1  0.50018860  0.33579694  0.84646432  1
  Sn  Sn19  1  0.66420306  0.16439166  0.17979832  1
  Sn  Sn20  1  0.83560834  0.49981140  0.51313132  1
  Sn  Sn21  1  0.33147846  0.99967794  0.76230499  1
  Sn  Sn22  1  0.00032206  0.33180052  0.09563899  1
  Sn  Sn23  1  0.66819948  0.66852154  0.42897199  1
  Bi  Bi24  1  0.02024730  0.37316883  0.34626252  1
  Bi  Bi25  1  0.62683117  0.64707846  0.67959652  1
  Bi  Bi26  1  0.35292154  0.97975270  0.01292952  1
  Bi  Bi27  1  0.87225288  0.99925420  0.26515897  1
  Bi  Bi28  1  0.00074580  0.87299867  0.59849297  1
  Bi  Bi29  1  0.12700133  0.12774712  0.93182597  1
  Bi  Bi30  1  0.32997958  0.53946730  0.25959263  1
  Bi  Bi31  1  0.46053270  0.79051229  0.59292663  1
  Bi  Bi32  1  0.20948771  0.67002042  0.92625963  1
  Bi  Bi33  1  0.79062999  0.45992679  0.26449862  1
  Bi  Bi34  1  0.54007321  0.33070320  0.59783262  1
  Bi  Bi35  1  0.66929680  0.20937001  0.93116562  1
  Bi  Bi36  1  0.96660379  0.29815238  0.84633764  1
  Bi  Bi37  1  0.70184762  0.66845141  0.17967164  1
  Bi  Bi38  1  0.33154859  0.03339621  0.51300464  1
  Bi  Bi39  1  0.79751834  0.00768307  0.75878390  1
  Bi  Bi40  1  0.99231693  0.78983527  0.09211790  1
  Bi  Bi41  1  0.21016473  0.20248166  0.42545090  1
  Bi  Bi42  1  0.33929709  0.46626060  0.76750994  1
  Bi  Bi43  1  0.53373940  0.87303649  0.10084394  1
  Bi  Bi44  1  0.12696351  0.66070291  0.43417694  1
  Bi  Bi45  1  0.87559093  0.54370095  0.76271743  1
  Bi  Bi46  1  0.45629905  0.33188999  0.09605143  1
  Bi  Bi47  1  0.66811001  0.12440907  0.42938443  1
  O  O48  1  0.00867646  0.34515370  0.28449989  1
  O  O49  1  0.65484630  0.66352276  0.61783389  1
  O  O50  1  0.33647724  0.99132354  0.95116689  1
  O  O51  1  0.00354153  0.34147444  0.40984769  1
  O  O52  1  0.65852556  0.66206709  0.74318169  1
  O  O53  1  0.33793291  0.99645847  0.07651469  1
  O  O54  1  0.99004498  0.32819115  0.78444393  1
  O  O55  1  0.67180885  0.66185383  0.11777793  1
  O  O56  1  0.33814617  0.00995502  0.45111093  1
  O  O57  1  0.99650141  0.32380901  0.91001625  1
  O  O58  1  0.67619099  0.67269239  0.24335025  1
  O  O59  1  0.32730761  0.00349859  0.57668325  1
  O  O60  1  0.38749595  0.52588146  0.33389602  1
  O  O61  1  0.47411854  0.86161449  0.66723002  1
  O  O62  1  0.13838551  0.61250405  0.00056302  1
  O  O63  1  0.79903965  0.92877592  0.33025323  1
  O  O64  1  0.07122408  0.87026374  0.66358723  1
  O  O65  1  0.12973626  0.20096035  0.99692023  1
  O  O66  1  0.80558657  0.52817877  0.33185213  1
  O  O67  1  0.47182123  0.27740780  0.66518613  1
  O  O68  1  0.72259220  0.19441343  0.99851913  1
  O  O69  1  0.48267865  0.26942094  0.29127605  1
  O  O70  1  0.73057906  0.21325771  0.62461005  1
  O  O71  1  0.78674229  0.51732135  0.95794305  1
  O  O72  1  0.45396982  0.85019768  0.29042078  1
  O  O73  1  0.14980232  0.60377214  0.62375478  1
  O  O74  1  0.39622786  0.54603018  0.95708778  1
  O  O75  1  0.06714104  0.88286139  0.29155224  1
  O  O76  1  0.11713861  0.18427966  0.62488624  1
  O  O77  1  0.81572034  0.93285896  0.95821924  1
  O  O78  1  0.21433873  0.73402521  0.23296449  1
  O  O79  1  0.26597479  0.48031352  0.56629849  1
  O  O80  1  0.51968648  0.78566127  0.89963149  1
  O  O81  1  0.18610161  0.12454249  0.23460354  1
  O  O82  1  0.87545751  0.06155913  0.56793754  1
  O  O83  1  0.93844087  0.81389839  0.90127054  1
  O  O84  1  0.60443364  0.15073850  0.23430677  1
  O  O85  1  0.84926150  0.45369513  0.56764077  1
  O  O86  1  0.54630487  0.39556636  0.90097377  1
  O  O87  1  0.93754018  0.78839267  0.40077208  1
  O  O88  1  0.21160733  0.14914751  0.73410608  1
  O  O89  1  0.85085249  0.06245982  0.06743908  1
  O  O90  1  0.54801531  0.81696905  0.40016007  1
  O  O91  1  0.18303095  0.73104626  0.73349407  1
  O  O92  1  0.26895374  0.45198469  0.06682707  1
  O  O93  1  0.52277537  0.39889335  0.40029807  1
  O  O94  1  0.60110665  0.12388202  0.73363207  1
  O  O95  1  0.87611798  0.47722463  0.06696507  1
  O  O96  1  0.40526606  0.53767588  0.82995713  1
  O  O97  1  0.46232412  0.86759018  0.16329113  1
  O  O98  1  0.13240982  0.59473394  0.49662413  1
  O  O99  1  0.80853435  0.94902542  0.83469049  1
  O  O100  1  0.05097458  0.85950893  0.16802449  1
  O  O101  1  0.14049107  0.19146565  0.50135749  1
  O  O102  1  0.80290334  0.53234896  0.83287672  1
  O  O103  1  0.46765104  0.27055438  0.16621072  1
  O  O104  1  0.72944562  0.19709666  0.49954372  1
  O  O105  1  0.45038320  0.26651972  0.79170167  1
  O  O106  1  0.73348028  0.18386348  0.12503567  1
  O  O107  1  0.81613652  0.54961680  0.45836867  1
  O  O108  1  0.48412070  0.88157297  0.79048117  1
  O  O109  1  0.11842703  0.60254773  0.12381517  1
  O  O110  1  0.39745227  0.51587930  0.45714817  1
  O  O111  1  0.06521541  0.84867122  0.79166909  1
  O  O112  1  0.15132878  0.21654418  0.12500309  1
  O  O113  1  0.78345582  0.93478459  0.45833609  1
  O  O114  1  0.53067747  0.39574297  0.02599023  1
  O  O115  1  0.60425703  0.13493450  0.35932423  1
  O  O116  1  0.86506550  0.46932253  0.69265723  1
  O  O117  1  0.85982395  0.05775955  0.19247338  1
  O  O118  1  0.94224045  0.80206439  0.52580738  1
  O  O119  1  0.19793561  0.14017605  0.85914038  1
  O  O120  1  0.26315671  0.46734419  0.19406928  1
  O  O121  1  0.53265581  0.79581252  0.52740328  1
  O  O122  1  0.20418748  0.73684329  0.86073628  1
  O  O123  1  0.93343950  0.80010847  0.02783805  1
  O  O124  1  0.19989153  0.13333103  0.36117205  1
  O  O125  1  0.86666897  0.06656050  0.69450505  1
  O  O126  1  0.85946268  0.47286507  0.19125635  1
  O  O127  1  0.52713493  0.38659760  0.52459035  1
  O  O128  1  0.61340240  0.14053732  0.85792335  1
  O  O129  1  0.52717068  0.80650569  0.02339207  1
  O  O130  1  0.19349431  0.72066499  0.35672607  1
  O  O131  1  0.27933501  0.47282932  0.69005907  1
