# generated using pymatgen
data_GePb(S2O7)3
_symmetry_space_group_name_H-M   'P 1'
_cell_length_a   9.28730745
_cell_length_b   9.55410616
_cell_length_c   10.98411257
_cell_angle_alpha   89.26417624
_cell_angle_beta   86.72131080
_cell_angle_gamma   61.70574619
_symmetry_Int_Tables_number   1
_chemical_formula_structural   GePb(S2O7)3
_chemical_formula_sum   'Ge2 Pb2 S12 O42'
_cell_volume   856.67844972
_cell_formula_units_Z   2
loop_
 _symmetry_equiv_pos_site_id
 _symmetry_equiv_pos_as_xyz
  1  'x, y, z'
loop_
 _atom_site_type_symbol
 _atom_site_label
 _atom_site_symmetry_multiplicity
 _atom_site_fract_x
 _atom_site_fract_y
 _atom_site_fract_z
 _atom_site_occupancy
  Ge  Ge0  1  0.02101240  0.99008916  0.25230189  1
  Ge  Ge1  1  0.97898760  0.00991084  0.74769811  1
  Pb  Pb2  1  0.32285334  0.38196188  0.37461153  1
  Pb  Pb3  1  0.67714666  0.61803812  0.62538847  1
  S  S4  1  0.80479920  0.35190612  0.32020435  1
  S  S5  1  0.19520080  0.64809388  0.67979565  1
  S  S6  1  0.36164312  0.77714193  0.34769831  1
  S  S7  1  0.63835688  0.22285807  0.65230169  1
  S  S8  1  0.30243907  0.67138029  0.12185054  1
  S  S9  1  0.69756093  0.32861971  0.87814946  1
  S  S10  1  0.07333827  0.25941482  0.13700157  1
  S  S11  1  0.92666173  0.74058518  0.86299843  1
  S  S12  1  0.89905161  0.76528543  0.37616450  1
  S  S13  1  0.10094839  0.23471457  0.62383550  1
  S  S14  1  0.68706780  0.00036656  0.21025492  1
  S  S15  1  0.31293220  0.99963344  0.78974508  1
  O  O16  1  0.08126976  0.09519472  0.12888389  1
  O  O17  1  0.91873024  0.90480528  0.87111611  1
  O  O18  1  0.91784288  0.17911653  0.35146350  1
  O  O19  1  0.08215712  0.82088347  0.64853650  1
  O  O20  1  0.21294944  0.94047170  0.33812313  1
  O  O21  1  0.78705056  0.05952830  0.66187687  1
  O  O22  1  0.41669332  0.72303068  0.20479444  1
  O  O23  1  0.58330668  0.27696932  0.79520556  1
  O  O24  1  0.78738653  0.81302651  0.25825365  1
  O  O25  1  0.21261347  0.18697349  0.74174635  1
  O  O26  1  0.87827362  0.37289362  0.18605908  1
  O  O27  1  0.12172638  0.62710638  0.81394092  1
  O  O28  1  0.82882598  0.03380202  0.17095317  1
  O  O29  1  0.17117402  0.96619798  0.82904683  1
  O  O30  1  0.95431575  0.89122406  0.38174722  1
  O  O31  1  0.04568425  0.10877594  0.61825278  1
  O  O32  1  0.31866265  0.66380005  0.40575210  1
  O  O33  1  0.68133735  0.33619995  0.59424790  1
  O  O34  1  0.12823675  0.79873720  0.15768374  1
  O  O35  1  0.87176325  0.20126280  0.84231626  1
  O  O36  1  0.17502707  0.26488716  0.22938951  1
  O  O37  1  0.82497293  0.73511284  0.77061049  1
  O  O38  1  0.32532265  0.51904797  0.16513194  1
  O  O39  1  0.67467735  0.48095203  0.83486806  1
  O  O40  1  0.79811039  0.77967126  0.48452207  1
  O  O41  1  0.20188961  0.22032874  0.51547793  1
  O  O42  1  0.82613214  0.45375890  0.40497334  1
  O  O43  1  0.17386786  0.54624110  0.59502666  1
  O  O44  1  0.35272749  0.68376425  0.99962762  1
  O  O45  1  0.64727251  0.31623575  0.00037238  1
  O  O46  1  0.08024970  0.31552452  0.01771482  1
  O  O47  1  0.91975030  0.68447548  0.98228518  1
  O  O48  1  0.59160292  0.09570174  0.31563982  1
  O  O49  1  0.40839708  0.90429826  0.68436018  1
  O  O50  1  0.60809581  0.98816113  0.10748699  1
  O  O51  1  0.39190419  0.01183887  0.89251301  1
  O  O52  1  0.49348390  0.79335062  0.39413376  1
  O  O53  1  0.50651610  0.20664938  0.60586624  1
  O  O54  1  0.02975780  0.60954167  0.34245388  1
  O  O55  1  0.97024220  0.39045833  0.65754612  1
  O  O56  1  0.64121998  0.38403924  0.29987525  1
  O  O57  1  0.35878002  0.61596076  0.70012475  1
