# generated using pymatgen
data_Ca11Sn3C8
_symmetry_space_group_name_H-M   'P 1'
_cell_length_a   10.72332734
_cell_length_b   13.25063177
_cell_length_c   14.27899633
_cell_angle_alpha   105.68517346
_cell_angle_beta   90.00000000
_cell_angle_gamma   90.00000000
_symmetry_Int_Tables_number   1
_chemical_formula_structural   Ca11Sn3C8
_chemical_formula_sum   'Ca44 Sn12 C32'
_cell_volume   1953.36163047
_cell_formula_units_Z   4
loop_
 _symmetry_equiv_pos_site_id
 _symmetry_equiv_pos_as_xyz
  1  'x, y, z'
loop_
 _atom_site_type_symbol
 _atom_site_label
 _atom_site_symmetry_multiplicity
 _atom_site_fract_x
 _atom_site_fract_y
 _atom_site_fract_z
 _atom_site_occupancy
  Ca  Ca0  1  0.25331261  0.98141212  0.22601380  1
  Ca  Ca1  1  0.75331261  0.01858788  0.27398620  1
  Ca  Ca2  1  0.74668739  0.01858788  0.77398620  1
  Ca  Ca3  1  0.24668739  0.98141212  0.72601380  1
  Ca  Ca4  1  0.77009535  0.97431577  0.01444414  1
  Ca  Ca5  1  0.27009535  0.02568423  0.48555586  1
  Ca  Ca6  1  0.22990465  0.02568423  0.98555586  1
  Ca  Ca7  1  0.72990465  0.97431577  0.51444414  1
  Ca  Ca8  1  0.00424328  0.89220679  0.35363763  1
  Ca  Ca9  1  0.50424328  0.10779321  0.14636237  1
  Ca  Ca10  1  0.99575672  0.10779321  0.64636237  1
  Ca  Ca11  1  0.49575672  0.89220679  0.85363763  1
  Ca  Ca12  1  0.50362236  0.85602133  0.33513409  1
  Ca  Ca13  1  0.00362236  0.14397867  0.16486591  1
  Ca  Ca14  1  0.49637764  0.14397867  0.66486591  1
  Ca  Ca15  1  0.99637764  0.85602133  0.83513409  1
  Ca  Ca16  1  0.20102984  0.73930134  0.46047746  1
  Ca  Ca17  1  0.70102984  0.26069866  0.03952254  1
  Ca  Ca18  1  0.79897016  0.26069866  0.53952254  1
  Ca  Ca19  1  0.29897016  0.73930134  0.96047746  1
  Ca  Ca20  1  0.80218062  0.73449499  0.15762131  1
  Ca  Ca21  1  0.30218062  0.26550501  0.34237869  1
  Ca  Ca22  1  0.19781938  0.26550501  0.84237869  1
  Ca  Ca23  1  0.69781938  0.73449499  0.65762131  1
  Ca  Ca24  1  0.84255747  0.69440075  0.42782940  1
  Ca  Ca25  1  0.34255747  0.30559925  0.07217060  1
  Ca  Ca26  1  0.15744253  0.30559925  0.57217060  1
  Ca  Ca27  1  0.65744253  0.69440075  0.92782940  1
  Ca  Ca28  1  0.50664772  0.60969834  0.40504375  1
  Ca  Ca29  1  0.00664772  0.39030166  0.09495625  1
  Ca  Ca30  1  0.49335228  0.39030166  0.59495625  1
  Ca  Ca31  1  0.99335228  0.60969834  0.90504375  1
  Ca  Ca32  1  0.74798468  0.49550689  0.22992297  1
  Ca  Ca33  1  0.24798468  0.50449311  0.27007703  1
  Ca  Ca34  1  0.25201532  0.50449311  0.77007703  1
  Ca  Ca35  1  0.75201532  0.49550689  0.72992297  1
  Ca  Ca36  1  0.99233946  0.38987394  0.35115803  1
  Ca  Ca37  1  0.49233946  0.61012606  0.14884197  1
  Ca  Ca38  1  0.00766054  0.61012606  0.64884197  1
  Ca  Ca39  1  0.50766054  0.38987394  0.85115803  1
  Ca  Ca40  1  0.66332059  0.29732747  0.32862755  1
  Ca  Ca41  1  0.16332059  0.70267253  0.17137245  1
  Ca  Ca42  1  0.33667941  0.70267253  0.67137245  1
  Ca  Ca43  1  0.83667941  0.29732747  0.82862755  1
  Sn  Sn44  1  0.01855375  0.86552259  0.08437161  1
  Sn  Sn45  1  0.51855375  0.13447741  0.41562839  1
  Sn  Sn46  1  0.98144625  0.13447741  0.91562839  1
  Sn  Sn47  1  0.48144625  0.86552259  0.58437161  1
  Sn  Sn48  1  0.51953480  0.85564446  0.09941353  1
  Sn  Sn49  1  0.01953480  0.14435554  0.40058647  1
  Sn  Sn50  1  0.48046520  0.14435554  0.90058647  1
  Sn  Sn51  1  0.98046520  0.85564446  0.59941353  1
  Sn  Sn52  1  0.74853177  0.49806446  0.49960245  1
  Sn  Sn53  1  0.24853177  0.50193554  0.00039755  1
  Sn  Sn54  1  0.25146823  0.50193554  0.50039755  1
  Sn  Sn55  1  0.75146823  0.49806446  0.99960245  1
  C  C56  1  0.84510260  0.32063889  0.20324857  1
  C  C57  1  0.34510260  0.67936111  0.29675143  1
  C  C58  1  0.15489740  0.67936111  0.79675143  1
  C  C59  1  0.65489740  0.32063889  0.70324857  1
  C  C60  1  0.29512153  0.77424981  0.31650708  1
  C  C61  1  0.79512153  0.22575019  0.18349292  1
  C  C62  1  0.70487847  0.22575019  0.68349292  1
  C  C63  1  0.20487847  0.77424981  0.81650708  1
  C  C64  1  0.23966548  0.86702847  0.34165067  1
  C  C65  1  0.73966548  0.13297153  0.15834933  1
  C  C66  1  0.76033452  0.13297153  0.65834933  1
  C  C67  1  0.26033452  0.86702847  0.84165067  1
  C  C68  1  0.77007697  0.85956846  0.34166769  1
  C  C69  1  0.27007697  0.14043154  0.15833231  1
  C  C70  1  0.22992303  0.14043154  0.65833231  1
  C  C71  1  0.72992303  0.85956846  0.84166769  1
  C  C72  1  0.71069060  0.76818080  0.32020735  1
  C  C73  1  0.21069060  0.23181920  0.17979265  1
  C  C74  1  0.28930940  0.23181920  0.67979265  1
  C  C75  1  0.78930940  0.76818080  0.82020735  1
  C  C76  1  0.65846254  0.67411055  0.29123259  1
  C  C77  1  0.15846254  0.32588945  0.20876741  1
  C  C78  1  0.34153746  0.32588945  0.70876741  1
  C  C79  1  0.84153746  0.67411055  0.79123259  1
  C  C80  1  0.99025677  0.56758890  0.26415415  1
  C  C81  1  0.49025677  0.43241110  0.23584585  1
  C  C82  1  0.00974323  0.43241110  0.73584585  1
  C  C83  1  0.50974323  0.56758890  0.76415415  1
  C  C84  1  0.01679460  0.66401230  0.29854561  1
  C  C85  1  0.51679460  0.33598770  0.20145439  1
  C  C86  1  0.98320540  0.33598770  0.70145439  1
  C  C87  1  0.48320540  0.66401230  0.79854561  1
