# generated using pymatgen
data_Ba2HRu3O10
_symmetry_space_group_name_H-M   'P 1'
_cell_length_a   7.16095718
_cell_length_b   10.07833466
_cell_length_c   12.33789010
_cell_angle_alpha   90.00000000
_cell_angle_beta   90.00000000
_cell_angle_gamma   90.00000000
_symmetry_Int_Tables_number   1
_chemical_formula_structural   Ba2HRu3O10
_chemical_formula_sum   'Ba8 H4 Ru12 O40'
_cell_volume   890.43198057
_cell_formula_units_Z   4
loop_
 _symmetry_equiv_pos_site_id
 _symmetry_equiv_pos_as_xyz
  1  'x, y, z'
loop_
 _atom_site_type_symbol
 _atom_site_label
 _atom_site_symmetry_multiplicity
 _atom_site_fract_x
 _atom_site_fract_y
 _atom_site_fract_z
 _atom_site_occupancy
  Ba  Ba0  1  0.47236579  0.41153889  0.35654175  1
  Ba  Ba1  1  0.97236579  0.58846111  0.14345825  1
  Ba  Ba2  1  0.52763421  0.08846111  0.85654175  1
  Ba  Ba3  1  0.02763421  0.91153889  0.64345825  1
  Ba  Ba4  1  0.52752926  0.62171415  0.63800977  1
  Ba  Ba5  1  0.02752926  0.37828585  0.86199023  1
  Ba  Ba6  1  0.47247074  0.87828585  0.13800977  1
  Ba  Ba7  1  0.97247074  0.12171415  0.36199023  1
  H  H8  1  0.88507986  0.87201529  0.22629371  1
  H  H9  1  0.38507986  0.12798471  0.27370629  1
  H  H10  1  0.11492014  0.62798471  0.72629371  1
  H  H11  1  0.61492014  0.37201529  0.77370629  1
  Ru  Ru12  1  0.80914322  0.24386141  0.10106736  1
  Ru  Ru13  1  0.30914322  0.75613859  0.39893264  1
  Ru  Ru14  1  0.19085678  0.25613859  0.60106736  1
  Ru  Ru15  1  0.69085678  0.74386141  0.89893264  1
  Ru  Ru16  1  0.18221541  0.74307743  0.91059614  1
  Ru  Ru17  1  0.68221541  0.25692257  0.58940386  1
  Ru  Ru18  1  0.81778459  0.75692257  0.41059614  1
  Ru  Ru19  1  0.31778459  0.24307743  0.08940386  1
  Ru  Ru20  1  0.50320916  0.49005522  0.99516663  1
  Ru  Ru21  1  0.00320916  0.50994478  0.50483337  1
  Ru  Ru22  1  0.49679084  0.00994478  0.49516663  1
  Ru  Ru23  1  0.99679084  0.99005522  0.00483337  1
  O  O24  1  0.74635787  0.40105924  0.01684892  1
  O  O25  1  0.24635787  0.59894076  0.48315108  1
  O  O26  1  0.25364213  0.09894076  0.51684892  1
  O  O27  1  0.75364213  0.90105924  0.98315108  1
  O  O28  1  0.91077839  0.06203631  0.14184694  1
  O  O29  1  0.41077839  0.93796369  0.35815306  1
  O  O30  1  0.08922161  0.43796369  0.64184694  1
  O  O31  1  0.58922161  0.56203631  0.85815306  1
  O  O32  1  0.06502899  0.84065933  0.40703411  1
  O  O33  1  0.56502899  0.15934067  0.09296589  1
  O  O34  1  0.93497101  0.65934067  0.90703411  1
  O  O35  1  0.43497101  0.34065933  0.59296589  1
  O  O36  1  0.37883604  0.84604250  0.54245945  1
  O  O37  1  0.87883604  0.15395750  0.95754055  1
  O  O38  1  0.62116396  0.65395750  0.04245945  1
  O  O39  1  0.12116396  0.34604250  0.45754055  1
  O  O40  1  0.78126875  0.30682703  0.23819077  1
  O  O41  1  0.28126875  0.69317297  0.26180923  1
  O  O42  1  0.21873125  0.19317297  0.73819077  1
  O  O43  1  0.71873125  0.80682703  0.76180923  1
  O  O44  1  0.62046105  0.17957291  0.44580925  1
  O  O45  1  0.12046105  0.82042709  0.05419075  1
  O  O46  1  0.37953895  0.32042709  0.94580925  1
  O  O47  1  0.87953895  0.67957291  0.55419075  1
  O  O48  1  0.41864786  0.41687611  0.13272871  1
  O  O49  1  0.91864786  0.58312389  0.36727129  1
  O  O50  1  0.58135214  0.08312389  0.63272871  1
  O  O51  1  0.08135214  0.91687611  0.86727129  1
  O  O52  1  0.56779209  0.68257750  0.40408392  1
  O  O53  1  0.06779209  0.31742250  0.09591608  1
  O  O54  1  0.43220791  0.81742250  0.90408392  1
  O  O55  1  0.93220791  0.18257750  0.59591608  1
  O  O56  1  0.24255141  0.07690276  0.02491743  1
  O  O57  1  0.74255141  0.92309724  0.47508257  1
  O  O58  1  0.75744859  0.42309724  0.52491743  1
  O  O59  1  0.25744859  0.57690276  0.97508257  1
  O  O60  1  0.20831444  0.69410330  0.74887969  1
  O  O61  1  0.70831444  0.30589670  0.75112031  1
  O  O62  1  0.79168556  0.80589670  0.24887969  1
  O  O63  1  0.29168556  0.19410330  0.25112031  1
