# generated using pymatgen
data_NaUP3O11
_symmetry_space_group_name_H-M   'P 1'
_cell_length_a   7.13807524
_cell_length_b   9.95839325
_cell_length_c   13.68943753
_cell_angle_alpha   90.00000000
_cell_angle_beta   90.00000000
_cell_angle_gamma   105.40137777
_symmetry_Int_Tables_number   1
_chemical_formula_structural   NaUP3O11
_chemical_formula_sum   'Na4 U4 P12 O44'
_cell_volume   938.15183897
_cell_formula_units_Z   4
loop_
 _symmetry_equiv_pos_site_id
 _symmetry_equiv_pos_as_xyz
  1  'x, y, z'
loop_
 _atom_site_type_symbol
 _atom_site_label
 _atom_site_symmetry_multiplicity
 _atom_site_fract_x
 _atom_site_fract_y
 _atom_site_fract_z
 _atom_site_occupancy
  Na  Na0  1  0.75220596  0.42884649  0.97660954  1
  Na  Na1  1  0.24779404  0.07115351  0.47660954  1
  Na  Na2  1  0.24779404  0.57115351  0.02339046  1
  Na  Na3  1  0.75220596  0.92884649  0.52339046  1
  U  U4  1  0.62562709  0.24830880  0.65463171  1
  U  U5  1  0.37437291  0.25169120  0.15463171  1
  U  U6  1  0.37437291  0.75169120  0.34536829  1
  U  U7  1  0.62562709  0.74830880  0.84536829  1
  P  P8  1  0.31257439  0.15676565  0.88689071  1
  P  P9  1  0.68742561  0.34323435  0.38689071  1
  P  P10  1  0.68742561  0.84323435  0.11310929  1
  P  P11  1  0.31257439  0.65676565  0.61310929  1
  P  P12  1  0.02968769  0.31102153  0.83206512  1
  P  P13  1  0.97031231  0.18897847  0.33206512  1
  P  P14  1  0.97031231  0.68897847  0.16793488  1
  P  P15  1  0.02968769  0.81102153  0.66793488  1
  P  P16  1  0.16361071  0.34453330  0.62995758  1
  P  P17  1  0.83638929  0.15546670  0.12995758  1
  P  P18  1  0.83638929  0.65546670  0.37004242  1
  P  P19  1  0.16361071  0.84453330  0.87004242  1
  O  O20  1  0.39615705  0.23638714  0.97728854  1
  O  O21  1  0.60384295  0.26361286  0.47728854  1
  O  O22  1  0.60384295  0.76361286  0.02271146  1
  O  O23  1  0.39615705  0.73638714  0.52271146  1
  O  O24  1  0.43221114  0.18522885  0.79553814  1
  O  O25  1  0.56778886  0.31477115  0.29553814  1
  O  O26  1  0.56778886  0.81477115  0.20446186  1
  O  O27  1  0.43221114  0.68522885  0.70446186  1
  O  O28  1  0.25839089  0.99521847  0.91614302  1
  O  O29  1  0.74160911  0.50478153  0.41614302  1
  O  O30  1  0.74160911  0.00478153  0.08385698  1
  O  O31  1  0.25839089  0.49521847  0.58385698  1
  O  O32  1  0.10048211  0.17546735  0.86266018  1
  O  O33  1  0.89951789  0.32453265  0.36266018  1
  O  O34  1  0.89951789  0.82453265  0.13733982  1
  O  O35  1  0.10048211  0.67546735  0.63733982  1
  O  O36  1  0.05493970  0.41423331  0.91291947  1
  O  O37  1  0.94506030  0.08576669  0.41291947  1
  O  O38  1  0.94506030  0.58576669  0.08708053  1
  O  O39  1  0.05493970  0.91423331  0.58708053  1
  O  O40  1  0.82976549  0.25243159  0.79012197  1
  O  O41  1  0.17023451  0.24756841  0.29012197  1
  O  O42  1  0.17023451  0.74756841  0.20987803  1
  O  O43  1  0.82976549  0.75243159  0.70987803  1
  O  O44  1  0.17853593  0.37943846  0.74493986  1
  O  O45  1  0.82146407  0.12056154  0.24493986  1
  O  O46  1  0.82146407  0.62056154  0.25506014  1
  O  O47  1  0.17853593  0.87943846  0.75506014  1
  O  O48  1  0.29321929  0.25205208  0.60452623  1
  O  O49  1  0.70678071  0.24794792  0.10452623  1
  O  O50  1  0.70678071  0.74794792  0.39547377  1
  O  O51  1  0.29321929  0.75205208  0.89547377  1
  O  O52  1  0.95472804  0.29422689  0.59829402  1
  O  O53  1  0.04527196  0.20577311  0.09829402  1
  O  O54  1  0.04527196  0.70577311  0.40170598  1
  O  O55  1  0.95472804  0.79422689  0.90170598  1
  O  O56  1  0.58679376  0.06397265  0.62658497  1
  O  O57  1  0.41320624  0.43602735  0.12658497  1
  O  O58  1  0.41320624  0.93602735  0.37341503  1
  O  O59  1  0.58679376  0.56397265  0.87341503  1
  O  O60  1  0.66155035  0.43159711  0.67169067  1
  O  O61  1  0.33844965  0.06840289  0.17169067  1
  O  O62  1  0.33844965  0.56840289  0.32830933  1
  O  O63  1  0.66155035  0.93159711  0.82830933  1
