# generated using pymatgen
data_Dy5Zr3(Ni4As3)4
_symmetry_space_group_name_H-M   'P 1'
_cell_length_a   3.93328229
_cell_length_b   12.78079710
_cell_length_c   12.78196884
_cell_angle_alpha   119.99696498
_cell_angle_beta   90.00000000
_cell_angle_gamma   90.00000000
_symmetry_Int_Tables_number   1
_chemical_formula_structural   Dy5Zr3(Ni4As3)4
_chemical_formula_sum   'Dy5 Zr3 Ni16 As12'
_cell_volume   556.48661730
_cell_formula_units_Z   1
loop_
 _symmetry_equiv_pos_site_id
 _symmetry_equiv_pos_as_xyz
  1  'x, y, z'
loop_
 _atom_site_type_symbol
 _atom_site_label
 _atom_site_symmetry_multiplicity
 _atom_site_fract_x
 _atom_site_fract_y
 _atom_site_fract_z
 _atom_site_occupancy
  Dy  Dy0  1  0.50000000  0.99981719  0.18225871  1
  Dy  Dy1  1  0.50000000  0.18264720  1.00000000  1
  Dy  Dy2  1  0.50000000  0.81755848  0.81774129  1
  Dy  Dy3  1  0.00000000  0.33338145  0.66665504  1
  Dy  Dy4  1  0.00000000  0.66672641  0.33334496  1
  Zr  Zr5  1  -0.00000000  0.00017748  0.56240607  1
  Zr  Zr6  1  0.00000000  0.56197864  0.00000000  1
  Zr  Zr7  1  -0.00000000  0.43777141  0.43759393  1
  Ni  Ni8  1  0.50000000  0.00030874  0.72234962  1
  Ni  Ni9  1  0.50000000  0.72210585  0.00000000  1
  Ni  Ni10  1  0.50000000  0.27795912  0.27765038  1
  Ni  Ni11  1  0.00000000  0.19248600  0.37418033  1
  Ni  Ni12  1  0.00000000  0.18118074  0.80727493  1
  Ni  Ni13  1  0.00000000  0.62557077  0.81745113  1
  Ni  Ni14  1  0.00000000  0.81830566  0.62581967  1
  Ni  Ni15  1  0.00000000  0.37390581  0.19272507  1
  Ni  Ni16  1  -0.00000000  0.80811964  0.18254887  1
  Ni  Ni17  1  0.50000000  0.12107286  0.48157806  1
  Ni  Ni18  1  0.50000000  0.36059212  0.87878172  1
  Ni  Ni19  1  0.50000000  0.51845088  0.64013380  1
  Ni  Ni20  1  0.50000000  0.63949480  0.51842194  1
  Ni  Ni21  1  0.50000000  0.48181040  0.12121828  1
  Ni  Ni22  1  0.50000000  0.87831708  0.35986620  1
  Ni  Ni23  1  0.00000000  0.00006310  1.00000000  1
  As  As24  1  0.00000000  0.99991124  0.82213780  1
  As  As25  1  -0.00000000  0.82209399  0.00000000  1
  As  As26  1  0.00000000  0.17777343  0.17786220  1
  As  As27  1  0.50000000  0.30680423  0.47911185  1
  As  As28  1  0.50000000  0.17232550  0.69286817  1
  As  As29  1  0.50000000  0.52078783  0.82790443  1
  As  As30  1  0.50000000  0.82769238  0.52088815  1
  As  As31  1  0.50000000  0.47945733  0.30713183  1
  As  As32  1  0.50000000  0.69288341  0.17209557  1
  As  As33  1  0.00000000  0.00036954  0.35656708  1
  As  As34  1  0.00000000  0.35619683  1.00000000  1
  As  As35  1  0.00000000  0.64380245  0.64343292  1
