# generated using pymatgen
data_NaAu(S2O7)2
_symmetry_space_group_name_H-M   'P 1'
_cell_length_a   5.53336601
_cell_length_b   9.48550636
_cell_length_c   12.31866758
_cell_angle_alpha   90.00000000
_cell_angle_beta   90.00000000
_cell_angle_gamma   99.36031165
_symmetry_Int_Tables_number   1
_chemical_formula_structural   NaAu(S2O7)2
_chemical_formula_sum   'Na2 Au2 S8 O28'
_cell_volume   637.95817314
_cell_formula_units_Z   2
loop_
 _symmetry_equiv_pos_site_id
 _symmetry_equiv_pos_as_xyz
  1  'x, y, z'
loop_
 _atom_site_type_symbol
 _atom_site_label
 _atom_site_symmetry_multiplicity
 _atom_site_fract_x
 _atom_site_fract_y
 _atom_site_fract_z
 _atom_site_occupancy
  Na  Na0  1  0.50000000  0.00000000  0.50000000  1
  Na  Na1  1  -0.00000000  0.50000000  0.00000000  1
  Au  Au2  1  -0.00000000  0.00000000  0.00000000  1
  Au  Au3  1  0.50000000  0.50000000  0.50000000  1
  S  S4  1  0.45504325  0.23825284  0.03779795  1
  S  S5  1  0.95504325  0.73825284  0.46220205  1
  S  S6  1  0.54495675  0.76174716  0.96220205  1
  S  S7  1  0.04495675  0.26174716  0.53779795  1
  S  S8  1  0.22830716  0.08379582  0.22504555  1
  S  S9  1  0.72830716  0.58379582  0.27495445  1
  S  S10  1  0.77169284  0.91620418  0.77495445  1
  S  S11  1  0.27169284  0.41620418  0.72504555  1
  O  O12  1  0.70632182  0.27308154  0.00467175  1
  O  O13  1  0.20632182  0.77308154  0.49532825  1
  O  O14  1  0.29367818  0.72691846  0.99532825  1
  O  O15  1  0.79367818  0.22691846  0.50467175  1
  O  O16  1  0.47583432  0.16113447  0.15598071  1
  O  O17  1  0.97583432  0.66113447  0.34401929  1
  O  O18  1  0.52416568  0.83886553  0.84401929  1
  O  O19  1  0.02416568  0.33886553  0.65598071  1
  O  O20  1  0.06766278  0.18643292  0.23801878  1
  O  O21  1  0.56766278  0.68643292  0.26198122  1
  O  O22  1  0.93233722  0.81356708  0.76198122  1
  O  O23  1  0.43233722  0.31356708  0.73801878  1
  O  O24  1  0.33439692  0.11517965  0.96461647  1
  O  O25  1  0.83439692  0.61517965  0.53538353  1
  O  O26  1  0.66560308  0.88482035  0.03538353  1
  O  O27  1  0.16560308  0.38482035  0.46461647  1
  O  O28  1  0.31085649  0.35020358  0.04965860  1
  O  O29  1  0.81085649  0.85020358  0.45034140  1
  O  O30  1  0.68914351  0.64979642  0.95034140  1
  O  O31  1  0.18914351  0.14979642  0.54965860  1
  O  O32  1  0.12486938  0.95769046  0.15053780  1
  O  O33  1  0.62486938  0.45769046  0.34946220  1
  O  O34  1  0.87513062  0.04230954  0.84946220  1
  O  O35  1  0.37513062  0.54230954  0.65053780  1
  O  O36  1  0.33654268  0.02536250  0.31665845  1
  O  O37  1  0.83654268  0.52536250  0.18334155  1
  O  O38  1  0.66345732  0.97463750  0.68334155  1
  O  O39  1  0.16345732  0.47463750  0.81665845  1
