# generated using pymatgen
data_Sn15Ru3O14
_symmetry_space_group_name_H-M   'P 1'
_cell_length_a   7.20978666
_cell_length_b   7.26278034
_cell_length_c   13.15106393
_cell_angle_alpha   74.00660690
_cell_angle_beta   74.09076695
_cell_angle_gamma   60.24107783
_symmetry_Int_Tables_number   1
_chemical_formula_structural   Sn15Ru3O14
_chemical_formula_sum   'Sn15 Ru3 O14'
_cell_volume   566.83788817
_cell_formula_units_Z   1
loop_
 _symmetry_equiv_pos_site_id
 _symmetry_equiv_pos_as_xyz
  1  'x, y, z'
loop_
 _atom_site_type_symbol
 _atom_site_label
 _atom_site_symmetry_multiplicity
 _atom_site_fract_x
 _atom_site_fract_y
 _atom_site_fract_z
 _atom_site_occupancy
  Sn  Sn0  1  0.09832360  0.98095431  0.82239848  1
  Sn  Sn1  1  0.51233834  0.39518346  0.58013986  1
  Sn  Sn2  1  0.99667936  0.91850045  0.57415929  1
  Sn  Sn3  1  0.51066090  0.91850045  0.57415929  1
  Sn  Sn4  1  0.90468891  0.85039844  0.34022373  1
  Sn  Sn5  1  0.55709147  0.01103562  0.87478144  1
  Sn  Sn6  1  0.84845359  0.22228007  0.08081274  1
  Sn  Sn7  1  0.09086960  0.50027363  0.83834127  1
  Sn  Sn8  1  0.57051550  0.50027363  0.83834127  1
  Sn  Sn9  1  0.31977434  0.24833969  0.11211163  1
  Sn  Sn10  1  0.85461137  0.72980583  0.08829427  1
  Sn  Sn11  1  0.32728853  0.72980583  0.08829427  1
  Sn  Sn12  1  0.90506004  0.32605154  0.34675629  1
  Sn  Sn13  1  0.42213213  0.32605154  0.34675629  1
  Sn  Sn14  1  0.98465401  0.41134028  0.61935171  1
  Ru  Ru15  1  0.30212750  0.70122270  0.69452229  1
  Ru  Ru16  1  0.11563929  0.53757637  0.23114506  1
  Ru  Ru17  1  0.71100224  0.61247196  0.96552357  1
  O  O18  1  0.30399182  0.28487490  0.53429125  1
  O  O19  1  0.87684203  0.28487490  0.53429125  1
  O  O20  1  0.04109026  0.92644526  0.99137421  1
  O  O21  1  0.87798252  0.71869590  0.52533906  1
  O  O22  1  0.37518756  0.30703451  0.94259036  1
  O  O23  1  0.57646529  0.43531819  0.41175124  1
  O  O24  1  0.65688773  0.05694304  0.62928150  1
  O  O25  1  0.02229692  0.99606554  0.40666553  1
  O  O26  1  0.57497201  0.99606554  0.40666553  1
  O  O27  1  0.18222921  0.05525842  0.11676455  1
  O  O28  1  0.64574782  0.05525842  0.11676455  1
  O  O29  1  0.76374355  0.16274151  0.81777589  1
  O  O30  1  0.25573904  0.16274151  0.81777589  1
  O  O31  1  0.77454354  0.19912651  0.25178642  1
