# generated using pymatgen
data_LiSbO2
_symmetry_space_group_name_H-M   'P 1'
_cell_length_a   4.94774860
_cell_length_b   5.68528961
_cell_length_c   18.21342082
_cell_angle_alpha   90.00000000
_cell_angle_beta   90.00000000
_cell_angle_gamma   89.84697529
_symmetry_Int_Tables_number   1
_chemical_formula_structural   LiSbO2
_chemical_formula_sum   'Li8 Sb8 O16'
_cell_volume   512.33047533
_cell_formula_units_Z   8
loop_
 _symmetry_equiv_pos_site_id
 _symmetry_equiv_pos_as_xyz
  1  'x, y, z'
loop_
 _atom_site_type_symbol
 _atom_site_label
 _atom_site_symmetry_multiplicity
 _atom_site_fract_x
 _atom_site_fract_y
 _atom_site_fract_z
 _atom_site_occupancy
  Li  Li0  1  0.73564364  0.45392731  0.71451743  1
  Li  Li1  1  0.26435636  0.04607269  0.21451743  1
  Li  Li2  1  0.26435636  0.54607269  0.28548257  1
  Li  Li3  1  0.73564364  0.95392731  0.78548257  1
  Li  Li4  1  0.23570230  0.12505404  0.71192389  1
  Li  Li5  1  0.76429770  0.37494596  0.21192389  1
  Li  Li6  1  0.76429770  0.87494596  0.28807611  1
  Li  Li7  1  0.23570230  0.62505404  0.78807611  1
  Sb  Sb8  1  0.73794162  0.92157300  0.10032480  1
  Sb  Sb9  1  0.26205838  0.57842700  0.60032480  1
  Sb  Sb10  1  0.26205838  0.07842700  0.89967520  1
  Sb  Sb11  1  0.73794162  0.42157300  0.39967520  1
  Sb  Sb12  1  0.76044407  0.50470932  0.90070282  1
  Sb  Sb13  1  0.23955593  0.99529068  0.40070282  1
  Sb  Sb14  1  0.23955593  0.49529068  0.09929718  1
  Sb  Sb15  1  0.76044407  0.00470932  0.59929718  1
  O  O16  1  0.66619490  0.03759720  0.19720692  1
  O  O17  1  0.33380510  0.46240280  0.69720692  1
  O  O18  1  0.33380510  0.96240280  0.80279308  1
  O  O19  1  0.66619490  0.53759720  0.30279308  1
  O  O20  1  0.83569042  0.62216794  0.80426364  1
  O  O21  1  0.16430958  0.87783206  0.30426364  1
  O  O22  1  0.16430958  0.37783206  0.19573636  1
  O  O23  1  0.83569042  0.12216794  0.69573636  1
  O  O24  1  0.63358185  0.57941796  0.11782141  1
  O  O25  1  0.36641815  0.92058204  0.61782141  1
  O  O26  1  0.36641815  0.42058204  0.88217859  1
  O  O27  1  0.63358185  0.07941796  0.38217859  1
  O  O28  1  0.86692942  0.16440341  0.88249789  1
  O  O29  1  0.13307058  0.33559659  0.38249789  1
  O  O30  1  0.13307058  0.83559659  0.11750211  1
  O  O31  1  0.86692942  0.66440341  0.61750211  1
