# generated using pymatgen
data_Sm6Fe13Pb
_symmetry_space_group_name_H-M   'P 1'
_cell_length_a   8.04740407
_cell_length_b   8.04740407
_cell_length_c   12.94040031
_cell_angle_alpha   108.11595345
_cell_angle_beta   108.11595345
_cell_angle_gamma   90.00000000
_symmetry_Int_Tables_number   1
_chemical_formula_structural   Sm6Fe13Pb
_chemical_formula_sum   'Sm12 Fe26 Pb2'
_cell_volume   752.65657625
_cell_formula_units_Z   2
loop_
 _symmetry_equiv_pos_site_id
 _symmetry_equiv_pos_as_xyz
  1  'x, y, z'
loop_
 _atom_site_type_symbol
 _atom_site_label
 _atom_site_symmetry_multiplicity
 _atom_site_fract_x
 _atom_site_fract_y
 _atom_site_fract_z
 _atom_site_occupancy
  Sm  Sm0  1  0.60388952  0.60388952  0.20777904  1
  Sm  Sm1  1  0.10388952  0.10388952  0.20777904  1
  Sm  Sm2  1  0.39611048  0.39611048  0.79222096  1
  Sm  Sm3  1  0.89611048  0.89611048  0.79222096  1
  Sm  Sm4  1  0.97841779  0.47841779  0.63164804  1
  Sm  Sm5  1  0.65323025  0.15323025  0.63164804  1
  Sm  Sm6  1  0.15323025  0.97841779  0.63164804  1
  Sm  Sm7  1  0.47841779  0.65323025  0.63164804  1
  Sm  Sm8  1  0.02158221  0.52158221  0.36835196  1
  Sm  Sm9  1  0.34676975  0.84676975  0.36835196  1
  Sm  Sm10  1  0.84676975  0.02158221  0.36835196  1
  Sm  Sm11  1  0.52158221  0.34676975  0.36835196  1
  Fe  Fe12  1  0.00000000  0.50000000  0.00000000  1
  Fe  Fe13  1  0.50000000  0.00000000  0.00000000  1
  Fe  Fe14  1  0.70973214  0.56655613  0.00000000  1
  Fe  Fe15  1  0.29026786  0.43344387  -0.00000000  1
  Fe  Fe16  1  0.79026786  0.06655613  -0.00000000  1
  Fe  Fe17  1  0.20973214  0.93344387  -0.00000000  1
  Fe  Fe18  1  0.56655613  0.29026786  0.00000000  1
  Fe  Fe19  1  0.43344387  0.70973214  0.00000000  1
  Fe  Fe20  1  0.06655613  0.20973214  0.00000000  1
  Fe  Fe21  1  0.93344387  0.79026786  -0.00000000  1
  Fe  Fe22  1  0.11995451  0.61995451  0.88143548  1
  Fe  Fe23  1  0.76148097  0.26148097  0.88143548  1
  Fe  Fe24  1  0.26148097  0.11995451  0.88143548  1
  Fe  Fe25  1  0.61995451  0.76148097  0.88143548  1
  Fe  Fe26  1  0.88004549  0.38004549  0.11856452  1
  Fe  Fe27  1  0.23851903  0.73851903  0.11856452  1
  Fe  Fe28  1  0.73851903  0.88004549  0.11856452  1
  Fe  Fe29  1  0.38004549  0.23851903  0.11856452  1
  Fe  Fe30  1  0.29130217  0.79130217  0.81076197  1
  Fe  Fe31  1  0.51945980  0.01945980  0.81076197  1
  Fe  Fe32  1  0.01945980  0.29130217  0.81076197  1
  Fe  Fe33  1  0.79130217  0.51945980  0.81076197  1
  Fe  Fe34  1  0.70869783  0.20869783  0.18923803  1
  Fe  Fe35  1  0.48054020  0.98054020  0.18923803  1
  Fe  Fe36  1  0.98054020  0.70869783  0.18923803  1
  Fe  Fe37  1  0.20869783  0.48054020  0.18923803  1
  Pb  Pb38  1  0.25000000  0.25000000  0.50000000  1
  Pb  Pb39  1  0.75000000  0.75000000  0.50000000  1
