# generated using pymatgen
data_Nd(SeO4)3
_symmetry_space_group_name_H-M   'P 1'
_cell_length_a   6.32066749
_cell_length_b   9.70461501
_cell_length_c   9.69208059
_cell_angle_alpha   119.92596913
_cell_angle_beta   90.00000000
_cell_angle_gamma   90.00000000
_symmetry_Int_Tables_number   1
_chemical_formula_structural   Nd(SeO4)3
_chemical_formula_sum   'Nd2 Se6 O24'
_cell_volume   515.24335244
_cell_formula_units_Z   2
loop_
 _symmetry_equiv_pos_site_id
 _symmetry_equiv_pos_as_xyz
  1  'x, y, z'
loop_
 _atom_site_type_symbol
 _atom_site_label
 _atom_site_symmetry_multiplicity
 _atom_site_fract_x
 _atom_site_fract_y
 _atom_site_fract_z
 _atom_site_occupancy
  Nd  Nd0  1  0.75000000  0.33330535  0.66652228  1
  Nd  Nd1  1  0.25000000  0.66669465  0.33347772  1
  Se  Se2  1  0.75000000  0.39071421  0.09227229  1
  Se  Se3  1  0.75000000  0.90770199  0.29849187  1
  Se  Se4  1  0.75000000  0.70165074  0.60950913  1
  Se  Se5  1  0.25000000  0.60928579  0.90772771  1
  Se  Se6  1  0.25000000  0.09229801  0.70150813  1
  Se  Se7  1  0.25000000  0.29834926  0.39049087  1
  O  O8  1  0.75000000  0.45281442  0.95999646  1
  O  O9  1  0.75000000  0.04006390  0.49279727  1
  O  O10  1  0.75000000  0.50767107  0.54757550  1
  O  O11  1  0.25000000  0.54718558  0.04000354  1
  O  O12  1  0.25000000  0.95993610  0.50720273  1
  O  O13  1  0.25000000  0.49232893  0.45242450  1
  O  O14  1  0.46337508  0.53853944  0.78932463  1
  O  O15  1  0.46325829  0.21080621  0.74915369  1
  O  O16  1  0.46310332  0.25074100  0.46171613  1
  O  O17  1  0.96337508  0.46146056  0.21067537  1
  O  O18  1  0.96325829  0.78919379  0.25084631  1
  O  O19  1  0.96310332  0.74925900  0.53828387  1
  O  O20  1  0.53662492  0.46146056  0.21067537  1
  O  O21  1  0.53674171  0.78919379  0.25084631  1
  O  O22  1  0.53689668  0.74925900  0.53828387  1
  O  O23  1  0.03662492  0.53853944  0.78932463  1
  O  O24  1  0.03674171  0.21080621  0.74915369  1
  O  O25  1  0.03689668  0.25074100  0.46171613  1
  O  O26  1  0.75000000  0.19349945  0.01116318  1
  O  O27  1  0.75000000  0.98913089  0.18227788  1
  O  O28  1  0.75000000  0.81733822  0.80645017  1
  O  O29  1  0.25000000  0.80650055  0.98883682  1
  O  O30  1  0.25000000  0.01086911  0.81772212  1
  O  O31  1  0.25000000  0.18266178  0.19354983  1
