# generated using pymatgen
data_Sr2Sn(HO)8
_symmetry_space_group_name_H-M   'P 1'
_cell_length_a   6.13662293
_cell_length_b   6.19042074
_cell_length_c   11.30040454
_cell_angle_alpha   90.00000000
_cell_angle_beta   90.00000000
_cell_angle_gamma   113.75634906
_symmetry_Int_Tables_number   1
_chemical_formula_structural   Sr2Sn(HO)8
_chemical_formula_sum   'Sr4 Sn2 H16 O16'
_cell_volume   392.90841209
_cell_formula_units_Z   2
loop_
 _symmetry_equiv_pos_site_id
 _symmetry_equiv_pos_as_xyz
  1  'x, y, z'
loop_
 _atom_site_type_symbol
 _atom_site_label
 _atom_site_symmetry_multiplicity
 _atom_site_fract_x
 _atom_site_fract_y
 _atom_site_fract_z
 _atom_site_occupancy
  Sr  Sr0  1  0.72638751  0.39005474  0.87034586  1
  Sr  Sr1  1  0.27361249  0.10994526  0.37034586  1
  Sr  Sr2  1  0.27361249  0.60994526  0.12965414  1
  Sr  Sr3  1  0.72638751  0.89005474  0.62965414  1
  Sn  Sn4  1  -0.00000000  0.50000000  0.50000000  1
  Sn  Sn5  1  -0.00000000  -0.00000000  0.00000000  1
  H  H6  1  0.14105714  0.72620377  0.69693557  1
  H  H7  1  0.85894286  0.77379623  0.19693557  1
  H  H8  1  0.85894286  0.27379623  0.30306443  1
  H  H9  1  0.14105714  0.22620377  0.80306443  1
  H  H10  1  0.24546982  0.32778300  0.62097333  1
  H  H11  1  0.75453018  0.17221700  0.12097333  1
  H  H12  1  0.75453018  0.67221700  0.37902667  1
  H  H13  1  0.24546982  0.82778300  0.87902667  1
  H  H14  1  0.58468305  0.31385090  0.58446478  1
  H  H15  1  0.41531695  0.18614910  0.08446478  1
  H  H16  1  0.41531695  0.68614910  0.41553522  1
  H  H17  1  0.58468305  0.81385090  0.91553522  1
  H  H18  1  0.36704909  0.55334318  0.76191696  1
  H  H19  1  0.63295091  0.94665682  0.26191696  1
  H  H20  1  0.63295091  0.44665682  0.23808304  1
  H  H21  1  0.36704909  0.05334318  0.73808304  1
  O  O22  1  0.97941528  0.62414335  0.67115794  1
  O  O23  1  0.02058472  0.87585665  0.17115794  1
  O  O24  1  0.02058472  0.37585665  0.32884206  1
  O  O25  1  0.97941528  0.12414335  0.82884206  1
  O  O26  1  0.11999540  0.24588416  0.55969054  1
  O  O27  1  0.88000460  0.25411584  0.05969054  1
  O  O28  1  0.88000460  0.75411584  0.44030946  1
  O  O29  1  0.11999540  0.74588416  0.94030946  1
  O  O30  1  0.65049081  0.24947918  0.52168018  1
  O  O31  1  0.34950919  0.25052082  0.02168018  1
  O  O32  1  0.34950919  0.75052082  0.47831982  1
  O  O33  1  0.65049081  0.74947918  0.97831982  1
  O  O34  1  0.45564974  0.47170751  0.72441803  1
  O  O35  1  0.54435026  0.02829249  0.22441803  1
  O  O36  1  0.54435026  0.52829249  0.27558197  1
  O  O37  1  0.45564974  0.97170751  0.77558197  1
