# generated using pymatgen
data_Pr2Re3Si5
_symmetry_space_group_name_H-M   'P 1'
_cell_length_a   5.80298979
_cell_length_b   11.06116650
_cell_length_c   11.06116650
_cell_angle_alpha   90.00000000
_cell_angle_beta   90.00000000
_cell_angle_gamma   90.00000000
_symmetry_Int_Tables_number   1
_chemical_formula_structural   Pr2Re3Si5
_chemical_formula_sum   'Pr8 Re12 Si20'
_cell_volume   709.99234420
_cell_formula_units_Z   4
loop_
 _symmetry_equiv_pos_site_id
 _symmetry_equiv_pos_as_xyz
  1  'x, y, z'
loop_
 _atom_site_type_symbol
 _atom_site_label
 _atom_site_symmetry_multiplicity
 _atom_site_fract_x
 _atom_site_fract_y
 _atom_site_fract_z
 _atom_site_occupancy
  Pr  Pr0  1  0.50000000  0.73752887  0.57554365  1
  Pr  Pr1  1  0.50000000  0.26247113  0.42445635  1
  Pr  Pr2  1  0.00000000  0.76247113  0.07554365  1
  Pr  Pr3  1  -0.00000000  0.23752887  0.92445635  1
  Pr  Pr4  1  0.50000000  0.57554365  0.26247113  1
  Pr  Pr5  1  0.50000000  0.42445635  0.73752887  1
  Pr  Pr6  1  0.00000000  0.07554365  0.23752887  1
  Pr  Pr7  1  -0.00000000  0.92445635  0.76247113  1
  Re  Re8  1  0.50000000  0.85242958  0.87385836  1
  Re  Re9  1  0.50000000  0.14757042  0.12614164  1
  Re  Re10  1  0.00000000  0.64757042  0.37385836  1
  Re  Re11  1  -0.00000000  0.35242958  0.62614164  1
  Re  Re12  1  0.50000000  0.87385836  0.14757042  1
  Re  Re13  1  0.50000000  0.12614164  0.85242958  1
  Re  Re14  1  0.00000000  0.37385836  0.35242958  1
  Re  Re15  1  -0.00000000  0.62614164  0.64757042  1
  Re  Re16  1  0.25000000  -0.00000000  0.50000000  1
  Re  Re17  1  0.75000000  0.50000000  0.00000000  1
  Re  Re18  1  0.25000000  0.50000000  0.00000000  1
  Re  Re19  1  0.75000000  -0.00000000  0.50000000  1
  Si  Si20  1  0.25000000  0.17299392  0.67299392  1
  Si  Si21  1  0.25000000  0.82700608  0.32700608  1
  Si  Si22  1  0.75000000  0.32700608  0.17299392  1
  Si  Si23  1  0.75000000  0.67299392  0.82700608  1
  Si  Si24  1  0.25000000  0.67299392  0.82700608  1
  Si  Si25  1  0.25000000  0.32700608  0.17299392  1
  Si  Si26  1  0.75000000  0.17299392  0.67299392  1
  Si  Si27  1  0.75000000  0.82700608  0.32700608  1
  Si  Si28  1  0.23316019  0.50000000  0.50000000  1
  Si  Si29  1  0.73316019  -0.00000000  0.00000000  1
  Si  Si30  1  0.76683981  0.50000000  0.50000000  1
  Si  Si31  1  0.26683981  -0.00000000  0.00000000  1
  Si  Si32  1  0.50000000  0.97868404  0.68241079  1
  Si  Si33  1  0.50000000  0.02131596  0.31758921  1
  Si  Si34  1  -0.00000000  0.52131596  0.18241079  1
  Si  Si35  1  0.00000000  0.47868404  0.81758921  1
  Si  Si36  1  0.50000000  0.68241079  0.02131596  1
  Si  Si37  1  0.50000000  0.31758921  0.97868404  1
  Si  Si38  1  -0.00000000  0.18241079  0.47868404  1
  Si  Si39  1  0.00000000  0.81758921  0.52131596  1
