# generated using pymatgen
data_CsVPO5
_symmetry_space_group_name_H-M   'P 1'
_cell_length_a   7.57046700
_cell_length_b   7.81943211
_cell_length_c   9.92038942
_cell_angle_alpha   90.00000000
_cell_angle_beta   90.00000000
_cell_angle_gamma   90.00000000
_symmetry_Int_Tables_number   1
_chemical_formula_structural   CsVPO5
_chemical_formula_sum   'Cs4 V4 P4 O20'
_cell_volume   587.25483965
_cell_formula_units_Z   4
loop_
 _symmetry_equiv_pos_site_id
 _symmetry_equiv_pos_as_xyz
  1  'x, y, z'
loop_
 _atom_site_type_symbol
 _atom_site_label
 _atom_site_symmetry_multiplicity
 _atom_site_fract_x
 _atom_site_fract_y
 _atom_site_fract_z
 _atom_site_occupancy
  Cs  Cs0  1  0.12913523  0.63421626  0.33736730  1
  Cs  Cs1  1  0.37086477  0.36578374  0.83736730  1
  Cs  Cs2  1  0.62913523  0.86578374  0.66263270  1
  Cs  Cs3  1  0.87086477  0.13421626  0.16263270  1
  V  V4  1  0.11289799  0.07327651  0.54227623  1
  V  V5  1  0.38710201  0.92672349  0.04227623  1
  V  V6  1  0.61289799  0.42672349  0.45772377  1
  V  V7  1  0.88710201  0.57327651  0.95772377  1
  P  P8  1  0.34220716  0.13018606  0.34616835  1
  P  P9  1  0.15779284  0.86981394  0.84616835  1
  P  P10  1  0.84220716  0.36981394  0.65383165  1
  P  P11  1  0.65779284  0.63018606  0.15383165  1
  O  O12  1  0.34100871  0.99013569  0.46010003  1
  O  O13  1  0.15899129  0.00986431  0.96010003  1
  O  O14  1  0.84100871  0.50986431  0.53989997  1
  O  O15  1  0.65899129  0.49013569  0.03989997  1
  O  O16  1  0.94888175  0.96060181  0.47909699  1
  O  O17  1  0.55111825  0.03939819  0.97909699  1
  O  O18  1  0.44888175  0.53939819  0.52090301  1
  O  O19  1  0.05111825  0.46060181  0.02090301  1
  O  O20  1  0.01281829  0.26189954  0.65547007  1
  O  O21  1  0.48718171  0.73810046  0.15547007  1
  O  O22  1  0.51281829  0.23810046  0.34452993  1
  O  O23  1  0.98718171  0.76189954  0.84452993  1
  O  O24  1  0.17732926  0.23881125  0.39183793  1
  O  O25  1  0.32267074  0.76118875  0.89183793  1
  O  O26  1  0.67732926  0.26118875  0.60816207  1
  O  O27  1  0.82267074  0.73881125  0.10816207  1
  O  O28  1  0.19079370  0.94982443  0.70714387  1
  O  O29  1  0.30920630  0.05017557  0.20714387  1
  O  O30  1  0.69079370  0.55017557  0.29285613  1
  O  O31  1  0.80920630  0.44982443  0.79285613  1
