# generated using pymatgen
data_OsSeS3Cl4
_symmetry_space_group_name_H-M   'P 1'
_cell_length_a   9.31596502
_cell_length_b   9.56841246
_cell_length_c   11.87890837
_cell_angle_alpha   105.81612795
_cell_angle_beta   90.00000000
_cell_angle_gamma   90.00000000
_symmetry_Int_Tables_number   1
_chemical_formula_structural   OsSeS3Cl4
_chemical_formula_sum   'Os4 Se4 S12 Cl16'
_cell_volume   1018.78638450
_cell_formula_units_Z   4
loop_
 _symmetry_equiv_pos_site_id
 _symmetry_equiv_pos_as_xyz
  1  'x, y, z'
loop_
 _atom_site_type_symbol
 _atom_site_label
 _atom_site_symmetry_multiplicity
 _atom_site_fract_x
 _atom_site_fract_y
 _atom_site_fract_z
 _atom_site_occupancy
  Os  Os0  1  0.30217847  0.04768290  0.22513075  1
  Os  Os1  1  0.80217847  0.95231710  0.77486925  1
  Os  Os2  1  0.17070784  0.31066639  0.29072822  1
  Os  Os3  1  0.67070784  0.68933361  0.70927178  1
  Se  Se4  1  0.29722216  0.50410008  0.21409324  1
  Se  Se5  1  0.79722216  0.49589992  0.78590676  1
  Se  Se6  1  0.89304015  0.01308776  0.13336525  1
  Se  Se7  1  0.39304015  0.98691224  0.86663475  1
  S  S8  1  0.47883231  0.15141468  0.78080143  1
  S  S9  1  0.97883231  0.84858532  0.21919857  1
  S  S10  1  0.82093743  0.16629443  0.30451861  1
  S  S11  1  0.32093743  0.83370557  0.69548139  1
  S  S12  1  0.00561578  0.22440002  0.39556572  1
  S  S13  1  0.50561578  0.77559998  0.60443428  1
  S  S14  1  0.36247394  0.23971876  0.37992283  1
  S  S15  1  0.86247394  0.76028124  0.62007717  1
  S  S16  1  0.14137896  0.95280558  0.32406476  1
  S  S17  1  0.64137896  0.04719442  0.67593524  1
  S  S18  1  0.14023881  0.13720141  0.12312789  1
  S  S19  1  0.64023881  0.86279859  0.87687211  1
  Cl  Cl20  1  0.98350162  0.07797920  0.69355021  1
  Cl  Cl21  1  0.48350162  0.92202080  0.30644979  1
  Cl  Cl22  1  0.50199813  0.12274599  0.12200716  1
  Cl  Cl23  1  0.00199813  0.87725401  0.87799284  1
  Cl  Cl24  1  0.31045020  0.20544911  0.54094885  1
  Cl  Cl25  1  0.81045020  0.79455089  0.45905115  1
  Cl  Cl26  1  0.31250168  0.42046209  0.02155752  1
  Cl  Cl27  1  0.81250168  0.57953791  0.97844248  1
  Cl  Cl28  1  0.99755817  0.45004789  0.21428844  1
  Cl  Cl29  1  0.49755817  0.54995211  0.78571156  1
  Cl  Cl30  1  0.52630964  0.51214313  0.25881837  1
  Cl  Cl31  1  0.02630964  0.48785687  0.74118163  1
  Cl  Cl32  1  0.19577320  0.54204198  0.44247848  1
  Cl  Cl33  1  0.69577320  0.45795802  0.55752152  1
  Cl  Cl34  1  0.30228149  0.83014541  0.06557117  1
  Cl  Cl35  1  0.80228149  0.16985459  0.93442883  1
