# generated using pymatgen
data_Rb5Er(MoO4)4
_symmetry_space_group_name_H-M   'P 1'
_cell_length_a   8.11194574
_cell_length_b   11.42876531
_cell_length_c   11.65190815
_cell_angle_alpha   113.47099006
_cell_angle_beta   90.00000000
_cell_angle_gamma   90.00000000
_symmetry_Int_Tables_number   1
_chemical_formula_structural   Rb5Er(MoO4)4
_chemical_formula_sum   'Rb10 Er2 Mo8 O32'
_cell_volume   990.86556458
_cell_formula_units_Z   2
loop_
 _symmetry_equiv_pos_site_id
 _symmetry_equiv_pos_as_xyz
  1  'x, y, z'
loop_
 _atom_site_type_symbol
 _atom_site_label
 _atom_site_symmetry_multiplicity
 _atom_site_fract_x
 _atom_site_fract_y
 _atom_site_fract_z
 _atom_site_occupancy
  Rb  Rb0  1  0.61484959  0.75000000  0.50000000  1
  Rb  Rb1  1  0.38515041  0.25000000  0.50000000  1
  Rb  Rb2  1  0.64929069  0.15823971  0.10705577  1
  Rb  Rb3  1  0.64929069  0.34176029  0.89294423  1
  Rb  Rb4  1  0.35070931  0.84176029  0.89294423  1
  Rb  Rb5  1  0.35070931  0.65823971  0.10705577  1
  Rb  Rb6  1  0.13113402  0.85538538  0.40928750  1
  Rb  Rb7  1  0.13113402  0.64461462  0.59071250  1
  Rb  Rb8  1  0.86886598  0.14461462  0.59071250  1
  Rb  Rb9  1  0.86886598  0.35538538  0.40928750  1
  Er  Er10  1  0.90635751  0.75000000  -0.00000000  1
  Er  Er11  1  0.09364249  0.25000000  -0.00000000  1
  Mo  Mo12  1  0.14497424  0.05671986  0.19677964  1
  Mo  Mo13  1  0.14497424  0.44328014  0.80322036  1
  Mo  Mo14  1  0.85502576  0.94328014  0.80322036  1
  Mo  Mo15  1  0.85502576  0.55671986  0.19677964  1
  Mo  Mo16  1  0.65047585  0.94643536  0.28522752  1
  Mo  Mo17  1  0.65047585  0.55356464  0.71477248  1
  Mo  Mo18  1  0.34952415  0.05356464  0.71477248  1
  Mo  Mo19  1  0.34952415  0.44643536  0.28522752  1
  O  O20  1  0.10640328  0.88512832  0.11734203  1
  O  O21  1  0.10640328  0.61487168  0.88265797  1
  O  O22  1  0.89359672  0.11487168  0.88265797  1
  O  O23  1  0.89359672  0.38512832  0.11734203  1
  O  O24  1  0.09535897  0.10677169  0.35758112  1
  O  O25  1  0.09535897  0.39322831  0.64241888  1
  O  O26  1  0.90464103  0.89322831  0.64241888  1
  O  O27  1  0.90464103  0.60677169  0.35758112  1
  O  O28  1  0.02774015  0.14833658  0.12670497  1
  O  O29  1  0.02774015  0.35166342  0.87329503  1
  O  O30  1  0.97225985  0.85166342  0.87329503  1
  O  O31  1  0.97225985  0.64833658  0.12670497  1
  O  O32  1  0.35591098  0.08512177  0.17805628  1
  O  O33  1  0.35591098  0.41487823  0.82194372  1
  O  O34  1  0.64408902  0.91487823  0.82194372  1
  O  O35  1  0.64408902  0.58512177  0.17805628  1
  O  O36  1  0.70797402  0.87958052  0.11637540  1
  O  O37  1  0.70797402  0.62041948  0.88362460  1
  O  O38  1  0.29202598  0.12041948  0.88362460  1
  O  O39  1  0.29202598  0.37958052  0.11637540  1
  O  O40  1  0.66728055  0.11643120  0.35097699  1
  O  O41  1  0.66728055  0.38356880  0.64902301  1
  O  O42  1  0.33271945  0.88356880  0.64902301  1
  O  O43  1  0.33271945  0.61643120  0.35097699  1
  O  O44  1  0.44898745  0.89878673  0.31241362  1
  O  O45  1  0.44898745  0.60121327  0.68758638  1
  O  O46  1  0.55101255  0.10121327  0.68758638  1
  O  O47  1  0.55101255  0.39878673  0.31241362  1
  O  O48  1  0.79265117  0.89020780  0.36762815  1
  O  O49  1  0.79265117  0.60979220  0.63237185  1
  O  O50  1  0.20734883  0.10979220  0.63237185  1
  O  O51  1  0.20734883  0.39020780  0.36762815  1
