# generated using pymatgen
data_LiSm(PO3)4
_symmetry_space_group_name_H-M   'P 1'
_cell_length_a   7.13857856
_cell_length_b   9.02292963
_cell_length_c   9.02979855
_cell_angle_alpha   65.86864468
_cell_angle_beta   66.71662746
_cell_angle_gamma   66.69785638
_symmetry_Int_Tables_number   1
_chemical_formula_structural   LiSm(PO3)4
_chemical_formula_sum   'Li2 Sm2 P8 O24'
_cell_volume   468.18648826
_cell_formula_units_Z   2
loop_
 _symmetry_equiv_pos_site_id
 _symmetry_equiv_pos_as_xyz
  1  'x, y, z'
loop_
 _atom_site_type_symbol
 _atom_site_label
 _atom_site_symmetry_multiplicity
 _atom_site_fract_x
 _atom_site_fract_y
 _atom_site_fract_z
 _atom_site_occupancy
  Li  Li0  1  0.79744536  0.75000000  0.25000000  1
  Li  Li1  1  0.20255464  0.25000000  0.75000000  1
  Sm  Sm2  1  0.70055495  0.25000000  0.75000000  1
  Sm  Sm3  1  0.29944505  0.75000000  0.25000000  1
  P  P4  1  0.19270225  0.88585995  0.83794683  1
  P  P5  1  0.91650902  0.61414005  0.66205317  1
  P  P6  1  0.80729775  0.11414005  0.16205317  1
  P  P7  1  0.08349098  0.38585995  0.33794683  1
  P  P8  1  0.80316683  0.80189847  0.90254879  1
  P  P9  1  0.50761410  0.69810153  0.59745121  1
  P  P10  1  0.19683317  0.19810153  0.09745121  1
  P  P11  1  0.49238590  0.30189847  0.40254879  1
  O  O12  1  0.33006513  0.81878898  0.95397717  1
  O  O13  1  0.10283128  0.68121102  0.54602283  1
  O  O14  1  0.66993487  0.18121102  0.04602283  1
  O  O15  1  0.89716872  0.31878898  0.45397717  1
  O  O16  1  0.03784444  0.76693317  0.91478355  1
  O  O17  1  0.71956116  0.73306683  0.58521645  1
  O  O18  1  0.96215556  0.23306683  0.08521645  1
  O  O19  1  0.28043884  0.26693317  0.41478355  1
  O  O20  1  0.66624344  0.76972401  0.08274634  1
  O  O21  1  0.51871379  0.73027599  0.41725366  1
  O  O22  1  0.33375656  0.23027599  0.91725366  1
  O  O23  1  0.48128621  0.26972401  0.58274634  1
  O  O24  1  0.74381777  0.96870981  0.77460738  1
  O  O25  1  0.48713495  0.53129019  0.72539262  1
  O  O26  1  0.25618223  0.03129019  0.22539262  1
  O  O27  1  0.51286505  0.46870981  0.27460738  1
  O  O28  1  0.07001720  0.07083372  0.79672006  1
  O  O29  1  0.93757098  0.42916628  0.70327994  1
  O  O30  1  0.92998280  0.92916628  0.20327994  1
  O  O31  1  0.06242902  0.57083372  0.29672006  1
  O  O32  1  0.32829013  0.85433125  0.65707621  1
  O  O33  1  0.83969760  0.64566875  0.84292379  1
  O  O34  1  0.67170987  0.14566875  0.34292379  1
  O  O35  1  0.16030240  0.35433125  0.15707621  1
