# generated using pymatgen
data_La3(GaRu)2
_symmetry_space_group_name_H-M   'P 1'
_cell_length_a   5.81700287
_cell_length_b   12.41661262
_cell_length_c   13.88087791
_cell_angle_alpha   90.00000000
_cell_angle_beta   90.00000000
_cell_angle_gamma   97.45247273
_symmetry_Int_Tables_number   1
_chemical_formula_structural   La3(GaRu)2
_chemical_formula_sum   'La18 Ga12 Ru12'
_cell_volume   994.11170342
_cell_formula_units_Z   6
loop_
 _symmetry_equiv_pos_site_id
 _symmetry_equiv_pos_as_xyz
  1  'x, y, z'
loop_
 _atom_site_type_symbol
 _atom_site_label
 _atom_site_symmetry_multiplicity
 _atom_site_fract_x
 _atom_site_fract_y
 _atom_site_fract_z
 _atom_site_occupancy
  La  La0  1  0.72988942  0.76564796  0.09305538  1
  La  La1  1  0.27011058  0.23435204  0.59305538  1
  La  La2  1  0.27011058  0.23435204  0.90694462  1
  La  La3  1  0.72988942  0.76564796  0.40694462  1
  La  La4  1  0.68005351  0.56277979  0.59304834  1
  La  La5  1  0.31994649  0.43722021  0.09304834  1
  La  La6  1  0.31994649  0.43722021  0.40695166  1
  La  La7  1  0.68005351  0.56277979  0.90695166  1
  La  La8  1  0.45825469  0.89567854  0.59450135  1
  La  La9  1  0.54174531  0.10432146  0.09450135  1
  La  La10  1  0.54174531  0.10432146  0.40549865  1
  La  La11  1  0.45825469  0.89567854  0.90549865  1
  La  La12  1  0.97518732  0.99649256  0.75000000  1
  La  La13  1  0.02481268  0.00350744  0.25000000  1
  La  La14  1  0.82634006  0.32806616  0.75000000  1
  La  La15  1  0.17365994  0.67193384  0.25000000  1
  La  La16  1  0.17000381  0.66216945  0.75000000  1
  La  La17  1  0.82999619  0.33783055  0.25000000  1
  Ga  Ga18  1  0.83035453  0.33078329  0.50151444  1
  Ga  Ga19  1  0.16964547  0.66921671  0.00151444  1
  Ga  Ga20  1  0.16964547  0.66921671  0.49848556  1
  Ga  Ga21  1  0.83035453  0.33078329  0.99848556  1
  Ga  Ga22  1  0.71278524  0.76001942  0.75000000  1
  Ga  Ga23  1  0.28721476  0.23998058  0.25000000  1
  Ga  Ga24  1  0.52234995  0.10070686  0.75000000  1
  Ga  Ga25  1  0.47765005  0.89929314  0.25000000  1
  Ga  Ga26  1  0.34110594  0.43109026  0.75000000  1
  Ga  Ga27  1  0.65889406  0.56890974  0.25000000  1
  Ga  Ga28  1  -0.00000000  -0.00000000  0.50000000  1
  Ga  Ga29  1  -0.00000000  -0.00000000  0.00000000  1
  Ru  Ru30  1  0.94230790  0.81531099  0.59150301  1
  Ru  Ru31  1  0.05769210  0.18468901  0.09150301  1
  Ru  Ru32  1  0.05769210  0.18468901  0.40849699  1
  Ru  Ru33  1  0.94230790  0.81531099  0.90849699  1
  Ru  Ru34  1  0.85939518  0.52012561  0.09070551  1
  Ru  Ru35  1  0.14060482  0.47987439  0.59070551  1
  Ru  Ru36  1  0.14060482  0.47987439  0.90929449  1
  Ru  Ru37  1  0.85939518  0.52012561  0.40929449  1
  Ru  Ru38  1  0.75834576  0.13589763  0.58766310  1
  Ru  Ru39  1  0.24165424  0.86410237  0.08766310  1
  Ru  Ru40  1  0.24165424  0.86410237  0.41233690  1
  Ru  Ru41  1  0.75834576  0.13589763  0.91233690  1
