# generated using pymatgen
data_Cs2P4Pd3O14
_symmetry_space_group_name_H-M   'P 1'
_cell_length_a   7.74436151
_cell_length_b   8.29385902
_cell_length_c   14.63633225
_cell_angle_alpha   90.00000000
_cell_angle_beta   90.00000000
_cell_angle_gamma   117.83152401
_symmetry_Int_Tables_number   1
_chemical_formula_structural   Cs2P4Pd3O14
_chemical_formula_sum   'Cs4 P8 Pd6 O28'
_cell_volume   831.35412128
_cell_formula_units_Z   2
loop_
 _symmetry_equiv_pos_site_id
 _symmetry_equiv_pos_as_xyz
  1  'x, y, z'
loop_
 _atom_site_type_symbol
 _atom_site_label
 _atom_site_symmetry_multiplicity
 _atom_site_fract_x
 _atom_site_fract_y
 _atom_site_fract_z
 _atom_site_occupancy
  Cs  Cs0  1  0.06654236  0.13308471  0.08978514  1
  Cs  Cs1  1  0.93345764  0.86691529  0.58978514  1
  Cs  Cs2  1  0.21758460  0.43516920  0.82493570  1
  Cs  Cs3  1  0.78241540  0.56483080  0.32493570  1
  P  P4  1  0.32826048  0.02537123  0.29456571  1
  P  P5  1  0.69711075  0.02537123  0.29456571  1
  P  P6  1  0.67173952  0.97462877  0.79456571  1
  P  P7  1  0.30288925  0.97462877  0.79456571  1
  P  P8  1  0.03228230  0.43421475  0.55091655  1
  P  P9  1  0.40193245  0.43421475  0.55091655  1
  P  P10  1  0.96771770  0.56578525  0.05091655  1
  P  P11  1  0.59806755  0.56578525  0.05091655  1
  Pd  Pd12  1  0.11116474  0.22232948  0.39559602  1
  Pd  Pd13  1  0.88883526  0.77767052  0.89559602  1
  Pd  Pd14  1  0.37939426  0.75878853  0.16182199  1
  Pd  Pd15  1  0.62060574  0.24121147  0.66182199  1
  Pd  Pd16  1  0.37405879  0.74811758  0.43357360  1
  Pd  Pd17  1  0.62594121  0.25188242  0.93357360  1
  O  O18  1  0.56621914  0.13243828  0.30276558  1
  O  O19  1  0.43378086  0.86756172  0.80276558  1
  O  O20  1  0.24773171  0.89123065  0.37484582  1
  O  O21  1  0.64349893  0.89123065  0.37484582  1
  O  O22  1  0.75226829  0.10876935  0.87484582  1
  O  O23  1  0.35650107  0.10876935  0.87484582  1
  O  O24  1  0.27722006  0.93552178  0.19913585  1
  O  O25  1  0.65830172  0.93552178  0.19913585  1
  O  O26  1  0.72277994  0.06447822  0.69913585  1
  O  O27  1  0.34169828  0.06447822  0.69913585  1
  O  O28  1  0.26815609  0.17689082  0.29647853  1
  O  O29  1  0.90873473  0.17689082  0.29647853  1
  O  O30  1  0.73184391  0.82310918  0.79647853  1
  O  O31  1  0.09126527  0.82310918  0.79647853  1
  O  O32  1  0.21921253  0.43842506  0.60551507  1
  O  O33  1  0.78078747  0.56157494  0.10551507  1
  O  O34  1  0.89508362  0.43261702  0.62599042  1
  O  O35  1  0.53753340  0.43261702  0.62599042  1
  O  O36  1  0.10491638  0.56738298  0.12599042  1
  O  O37  1  0.46246660  0.56738298  0.12599042  1
  O  O38  1  0.10930271  0.61511977  0.49745604  1
  O  O39  1  0.50581706  0.61511977  0.49745604  1
  O  O40  1  0.89069729  0.38488023  0.99745604  1
  O  O41  1  0.49418294  0.38488023  0.99745604  1
  O  O42  1  0.94320720  0.26170767  0.49103953  1
  O  O43  1  0.31850047  0.26170767  0.49103953  1
  O  O44  1  0.05679280  0.73829233  0.99103953  1
  O  O45  1  0.68149953  0.73829233  0.99103953  1
