# generated using pymatgen
data_Nd(NO3)3
_symmetry_space_group_name_H-M   'P 1'
_cell_length_a   10.87934590
_cell_length_b   10.87934590
_cell_length_c   13.05398016
_cell_angle_alpha   98.61466536
_cell_angle_beta   98.61466536
_cell_angle_gamma   102.07902215
_symmetry_Int_Tables_number   1
_chemical_formula_structural   Nd(NO3)3
_chemical_formula_sum   'Nd8 N24 O72'
_cell_volume   1467.36770297
_cell_formula_units_Z   8
loop_
 _symmetry_equiv_pos_site_id
 _symmetry_equiv_pos_as_xyz
  1  'x, y, z'
loop_
 _atom_site_type_symbol
 _atom_site_label
 _atom_site_symmetry_multiplicity
 _atom_site_fract_x
 _atom_site_fract_y
 _atom_site_fract_z
 _atom_site_occupancy
  Nd  Nd0  1  0.00000000  0.50000000  0.00000000  1
  Nd  Nd1  1  0.50000000  -0.00000000  0.50000000  1
  Nd  Nd2  1  0.72388949  0.27611051  0.25000000  1
  Nd  Nd3  1  0.27611051  0.72388949  0.75000000  1
  Nd  Nd4  1  0.76188682  0.78371662  0.25082109  1
  Nd  Nd5  1  0.21628338  0.23811318  0.24917891  1
  Nd  Nd6  1  0.23811318  0.21628338  0.74917891  1
  Nd  Nd7  1  0.78371662  0.76188682  0.75082109  1
  N  N8  1  0.65110052  0.50469505  0.15637460  1
  N  N9  1  0.49530495  0.34889948  0.34362540  1
  N  N10  1  0.34889948  0.49530495  0.84362540  1
  N  N11  1  0.50469505  0.65110052  0.65637460  1
  N  N12  1  0.73728929  0.17094511  0.45175760  1
  N  N13  1  0.82905489  0.26271071  0.04824240  1
  N  N14  1  0.26271071  0.82905489  0.54824240  1
  N  N15  1  0.17094511  0.73728929  0.95175760  1
  N  N16  1  0.75999546  0.54159492  0.87228177  1
  N  N17  1  0.45840508  0.24000454  0.62771823  1
  N  N18  1  0.24000454  0.45840508  0.12771823  1
  N  N19  1  0.54159492  0.75999546  0.37228177  1
  N  N20  1  0.99298297  0.67831115  0.19963125  1
  N  N21  1  0.32168885  0.00701703  0.30036875  1
  N  N22  1  0.00701703  0.32168885  0.80036875  1
  N  N23  1  0.67831115  0.99298297  0.69963125  1
  N  N24  1  0.83370594  0.86326130  0.97947585  1
  N  N25  1  0.13673870  0.16629406  0.52052415  1
  N  N26  1  0.16629406  0.13673870  0.02052415  1
  N  N27  1  0.86326130  0.83370594  0.47947585  1
  N  N28  1  0.62036980  0.97845235  0.18052262  1
  N  N29  1  0.02154765  0.37963020  0.31947738  1
  N  N30  1  0.37963020  0.02154765  0.81947738  1
  N  N31  1  0.97845235  0.62036980  0.68052262  1
  O  O32  1  0.73982688  0.53726757  0.23992485  1
  O  O33  1  0.46273243  0.26017312  0.26007515  1
  O  O34  1  0.26017312  0.46273243  0.76007515  1
  O  O35  1  0.53726757  0.73982688  0.73992485  1
  O  O36  1  0.59990291  0.38755838  0.12397883  1
  O  O37  1  0.61244162  0.40009709  0.37602117  1
  O  O38  1  0.40009709  0.61244162  0.87602117  1
  O  O39  1  0.38755838  0.59990291  0.62397883  1
  O  O40  1  0.62007213  0.59075809  0.11164731  1
  O  O41  1  0.40924191  0.37992787  0.38835269  1
  O  O42  1  0.37992787  0.40924191  0.88835269  1
  O  O43  1  0.59075809  0.62007213  0.61164731  1
  O  O44  1  0.62770363  0.14464986  0.38735744  1
  O  O45  1  0.85535014  0.37229637  0.11264256  1
  O  O46  1  0.37229637  0.85535014  0.61264256  1
  O  O47  1  0.14464986  0.62770363  0.88735744  1
  O  O48  1  0.74417986  0.12170158  0.53171837  1
  O  O49  1  0.87829842  0.25582014  0.96828163  1
  O  O50  1  0.25582014  0.87829842  0.46828163  1
  O  O51  1  0.12170158  0.74417986  0.03171837  1
  O  O52  1  0.82999306  0.24456461  0.42864580  1
  O  O53  1  0.75543539  0.17000694  0.07135420  1
  O  O54  1  0.17000694  0.75543539  0.57135420  1
  O  O55  1  0.24456461  0.82999306  0.92864580  1
  O  O56  1  0.75203660  0.45771409  0.92831322  1
  O  O57  1  0.54228591  0.24796340  0.57168678  1
  O  O58  1  0.24796340  0.54228591  0.07168678  1
  O  O59  1  0.45771409  0.75203660  0.42831322  1
  O  O60  1  0.87093743  0.62082953  0.88167246  1
  O  O61  1  0.37917047  0.12906257  0.61832754  1
  O  O62  1  0.12906257  0.37917047  0.11832754  1
  O  O63  1  0.62082953  0.87093743  0.38167246  1
  O  O64  1  0.66908029  0.55458809  0.80775958  1
  O  O65  1  0.44541191  0.33091971  0.69224042  1
  O  O66  1  0.33091971  0.44541191  0.19224042  1
  O  O67  1  0.55458809  0.66908029  0.30775958  1
  O  O68  1  0.07938075  0.61877863  0.19533208  1
  O  O69  1  0.38122137  0.92061925  0.30466792  1
  O  O70  1  0.92061925  0.38122137  0.80466792  1
  O  O71  1  0.61877863  0.07938075  0.69533208  1
  O  O72  1  0.99112538  0.75831919  0.27920462  1
  O  O73  1  0.24168081  0.00887462  0.22079538  1
  O  O74  1  0.00887462  0.24168081  0.72079538  1
  O  O75  1  0.75831919  0.99112538  0.77920462  1
  O  O76  1  0.90119271  0.65545659  0.11914719  1
  O  O77  1  0.34454341  0.09880729  0.38085281  1
  O  O78  1  0.09880729  0.34454341  0.88085281  1
  O  O79  1  0.65545659  0.90119271  0.61914719  1
  O  O80  1  0.72136042  0.80565847  0.92701365  1
  O  O81  1  0.19434153  0.27863958  0.57298635  1
  O  O82  1  0.27863958  0.19434153  0.07298635  1
  O  O83  1  0.80565847  0.72136042  0.42701365  1
  O  O84  1  0.85482434  0.89109473  0.07746925  1
  O  O85  1  0.10890527  0.14517566  0.42253075  1
  O  O86  1  0.14517566  0.10890527  0.92253075  1
  O  O87  1  0.89109473  0.85482434  0.57746925  1
  O  O88  1  0.92160695  0.88778748  0.92550653  1
  O  O89  1  0.11221252  0.07839305  0.57449347  1
  O  O90  1  0.07839305  0.11221252  0.07449347  1
  O  O91  1  0.88778748  0.92160695  0.42550653  1
  O  O92  1  0.57675590  0.85921178  0.15388361  1
  O  O93  1  0.14078822  0.42324410  0.34611639  1
  O  O94  1  0.42324410  0.14078822  0.84611639  1
  O  O95  1  0.85921178  0.57675590  0.65388361  1
  O  O96  1  0.55700222  0.05758295  0.15888225  1
  O  O97  1  0.94241705  0.44299778  0.34111775  1
  O  O98  1  0.44299778  0.94241705  0.84111775  1
  O  O99  1  0.05758295  0.55700222  0.65888225  1
  O  O100  1  0.73615778  0.02040595  0.23449320  1
  O  O101  1  0.97959405  0.26384222  0.26550680  1
  O  O102  1  0.26384222  0.97959405  0.76550680  1
  O  O103  1  0.02040595  0.73615778  0.73449320  1
