# generated using pymatgen
data_Nd12(ReC3)5
_symmetry_space_group_name_H-M   'P 1'
_cell_length_a   5.34844954
_cell_length_b   11.02571445
_cell_length_c   11.02613204
_cell_angle_alpha   119.99874573
_cell_angle_beta   90.00000000
_cell_angle_gamma   90.00000000
_symmetry_Int_Tables_number   1
_chemical_formula_structural   Nd12(ReC3)5
_chemical_formula_sum   'Nd12 Re5 C15'
_cell_volume   563.11092461
_cell_formula_units_Z   1
loop_
 _symmetry_equiv_pos_site_id
 _symmetry_equiv_pos_as_xyz
  1  'x, y, z'
loop_
 _atom_site_type_symbol
 _atom_site_label
 _atom_site_symmetry_multiplicity
 _atom_site_fract_x
 _atom_site_fract_y
 _atom_site_fract_z
 _atom_site_occupancy
  Nd  Nd0  1  0.00000000  0.27023510  0.45731836  1
  Nd  Nd1  1  -0.00000000  0.18705563  0.72975221  1
  Nd  Nd2  1  -0.00000000  0.54268119  0.81293729  1
  Nd  Nd3  1  0.00000000  0.81291674  0.54268164  1
  Nd  Nd4  1  -0.00000000  0.45730342  0.27024779  1
  Nd  Nd5  1  -0.00000000  0.72974391  0.18706271  1
  Nd  Nd6  1  0.50000000  0.42386072  1.00000000  1
  Nd  Nd7  1  0.50000000  0.57613451  0.57613566  1
  Nd  Nd8  1  0.50000000  -0.00000115  0.42386434  1
  Nd  Nd9  1  0.50000000  0.79538433  0.00000000  1
  Nd  Nd10  1  0.50000000  0.20461248  0.20461760  1
  Nd  Nd11  1  0.50000000  -0.00000513  0.79538240  1
  Re  Re12  1  0.00000000  0.15382293  0.00000000  1
  Re  Re13  1  0.00000000  0.84615872  0.84617009  1
  Re  Re14  1  0.00000000  0.99998863  0.15382991  1
  Re  Re15  1  0.50000000  0.33329012  0.66669906  1
  Re  Re16  1  0.50000000  0.66659105  0.33330094  1
  C  C17  1  0.50000000  0.28149894  0.47333934  1
  C  C18  1  0.50000000  0.19191716  0.71848643  1
  C  C19  1  0.50000000  0.52665308  0.80814508  1
  C  C20  1  0.50000000  0.80815960  0.52666066  1
  C  C21  1  0.50000000  0.47343072  0.28151357  1
  C  C22  1  0.50000000  0.71850800  0.19185492  1
  C  C23  1  -0.00000000  0.32943461  1.00000000  1
  C  C24  1  0.00000000  0.67055182  0.67055837  1
  C  C25  1  -0.00000000  0.99999345  0.32944163  1
  C  C26  1  -0.00000000  0.45254952  0.00000000  1
  C  C27  1  0.00000000  0.54744282  0.54744441  1
  C  C28  1  -0.00000000  0.99999841  0.45255559  1
  C  C29  1  0.00000000  0.79309975  1.00000000  1
  C  C30  1  -0.00000000  0.20689188  0.20689484  1
  C  C31  1  0.00000000  0.99999704  0.79310516  1
