# generated using pymatgen
data_NdMoClO4
_symmetry_space_group_name_H-M   'P 1'
_cell_length_a   7.03452945
_cell_length_b   7.55326247
_cell_length_c   20.17651287
_cell_angle_alpha   90.00000000
_cell_angle_beta   90.00000000
_cell_angle_gamma   90.00000000
_symmetry_Int_Tables_number   1
_chemical_formula_structural   NdMoClO4
_chemical_formula_sum   'Nd8 Mo8 Cl8 O32'
_cell_volume   1072.05171835
_cell_formula_units_Z   8
loop_
 _symmetry_equiv_pos_site_id
 _symmetry_equiv_pos_as_xyz
  1  'x, y, z'
loop_
 _atom_site_type_symbol
 _atom_site_label
 _atom_site_symmetry_multiplicity
 _atom_site_fract_x
 _atom_site_fract_y
 _atom_site_fract_z
 _atom_site_occupancy
  Nd  Nd0  1  0.47279453  -0.00000000  0.61108030  1
  Nd  Nd1  1  0.52720547  -0.00000000  0.38891970  1
  Nd  Nd2  1  0.02720547  -0.00000000  0.11108030  1
  Nd  Nd3  1  0.97279453  -0.00000000  0.88891970  1
  Nd  Nd4  1  0.23054013  0.50000000  0.85977217  1
  Nd  Nd5  1  0.76945987  0.50000000  0.14022783  1
  Nd  Nd6  1  0.26945987  0.50000000  0.35977217  1
  Nd  Nd7  1  0.73054013  0.50000000  0.64022783  1
  Mo  Mo8  1  0.41750560  -0.00000000  0.81785458  1
  Mo  Mo9  1  0.58249440  -0.00000000  0.18214542  1
  Mo  Mo10  1  0.08249440  -0.00000000  0.31785458  1
  Mo  Mo11  1  0.91750560  -0.00000000  0.68214542  1
  Mo  Mo12  1  0.28821120  0.50000000  0.56781688  1
  Mo  Mo13  1  0.71178880  0.50000000  0.43218312  1
  Mo  Mo14  1  0.21178880  0.50000000  0.06781688  1
  Mo  Mo15  1  0.78821120  0.50000000  0.93218312  1
  Cl  Cl16  1  0.24140315  -0.00000000  0.99162162  1
  Cl  Cl17  1  0.75859685  -0.00000000  0.00837838  1
  Cl  Cl18  1  0.25859685  -0.00000000  0.49162162  1
  Cl  Cl19  1  0.74140315  -0.00000000  0.50837838  1
  Cl  Cl20  1  0.46519112  0.50000000  0.74478104  1
  Cl  Cl21  1  0.53480888  0.50000000  0.25521896  1
  Cl  Cl22  1  0.03480888  0.50000000  0.24478104  1
  Cl  Cl23  1  0.96519112  0.50000000  0.75521896  1
  O  O24  1  0.14095265  -0.00000000  0.64197272  1
  O  O25  1  0.85904735  -0.00000000  0.35802728  1
  O  O26  1  0.35904735  -0.00000000  0.14197272  1
  O  O27  1  0.64095265  -0.00000000  0.85802728  1
  O  O28  1  0.45818498  -0.00000000  0.73099393  1
  O  O29  1  0.54181502  -0.00000000  0.26900607  1
  O  O30  1  0.04181502  -0.00000000  0.23099393  1
  O  O31  1  0.95818498  -0.00000000  0.76900607  1
  O  O32  1  0.27047587  0.18542560  0.84396435  1
  O  O33  1  0.72952413  0.18542560  0.15603565  1
  O  O34  1  0.22952413  0.81457440  0.34396435  1
  O  O35  1  0.77047587  0.81457440  0.65603565  1
  O  O36  1  0.72952413  0.81457440  0.15603565  1
  O  O37  1  0.27047587  0.81457440  0.84396435  1
  O  O38  1  0.77047587  0.18542560  0.65603565  1
  O  O39  1  0.22952413  0.18542560  0.34396435  1
  O  O40  1  0.05519897  0.50000000  0.60109604  1
  O  O41  1  0.94480103  0.50000000  0.39890396  1
  O  O42  1  0.44480103  0.50000000  0.10109604  1
  O  O43  1  0.55519897  0.50000000  0.89890396  1
  O  O44  1  0.22349406  0.50000000  0.97978303  1
  O  O45  1  0.77650594  0.50000000  0.02021697  1
  O  O46  1  0.27650594  0.50000000  0.47978303  1
  O  O47  1  0.72349406  0.50000000  0.52021697  1
  O  O48  1  0.42891879  0.31452082  0.59752253  1
  O  O49  1  0.57108121  0.31452082  0.40247747  1
  O  O50  1  0.07108121  0.68547918  0.09752253  1
  O  O51  1  0.92891879  0.68547918  0.90247747  1
  O  O52  1  0.57108121  0.68547918  0.40247747  1
  O  O53  1  0.42891879  0.68547918  0.59752253  1
  O  O54  1  0.92891879  0.31452082  0.90247747  1
  O  O55  1  0.07108121  0.31452082  0.09752253  1
