# generated using pymatgen
data_TbNiSn2
_symmetry_space_group_name_H-M   'P 1'
_cell_length_a   4.46406928
_cell_length_b   14.71101275
_cell_length_c   16.17928983
_cell_angle_alpha   90.00000000
_cell_angle_beta   90.00000000
_cell_angle_gamma   90.00000000
_symmetry_Int_Tables_number   1
_chemical_formula_structural   TbNiSn2
_chemical_formula_sum   'Tb12 Ni12 Sn24'
_cell_volume   1062.50982038
_cell_formula_units_Z   12
loop_
 _symmetry_equiv_pos_site_id
 _symmetry_equiv_pos_as_xyz
  1  'x, y, z'
loop_
 _atom_site_type_symbol
 _atom_site_label
 _atom_site_symmetry_multiplicity
 _atom_site_fract_x
 _atom_site_fract_y
 _atom_site_fract_z
 _atom_site_occupancy
  Tb  Tb0  1  0.25000000  0.97268909  0.34948977  1
  Tb  Tb1  1  0.25000000  0.52731091  0.84948977  1
  Tb  Tb2  1  0.75000000  0.02731091  0.65051023  1
  Tb  Tb3  1  0.75000000  0.47268909  0.15051023  1
  Tb  Tb4  1  0.25000000  0.27344051  0.87352266  1
  Tb  Tb5  1  0.25000000  0.22655949  0.37352266  1
  Tb  Tb6  1  0.75000000  0.72655949  0.12647734  1
  Tb  Tb7  1  0.75000000  0.77344051  0.62647734  1
  Tb  Tb8  1  0.25000000  0.39729693  0.64558509  1
  Tb  Tb9  1  0.25000000  0.10270307  0.14558509  1
  Tb  Tb10  1  0.75000000  0.60270307  0.35441491  1
  Tb  Tb11  1  0.75000000  0.89729693  0.85441491  1
  Ni  Ni12  1  0.25000000  0.60626810  0.05194534  1
  Ni  Ni13  1  0.25000000  0.89373190  0.55194534  1
  Ni  Ni14  1  0.75000000  0.39373190  0.94805466  1
  Ni  Ni15  1  0.75000000  0.10626810  0.44805466  1
  Ni  Ni16  1  0.25000000  0.74570389  0.30687222  1
  Ni  Ni17  1  0.25000000  0.75429611  0.80687222  1
  Ni  Ni18  1  0.75000000  0.25429611  0.69312778  1
  Ni  Ni19  1  0.75000000  0.24570389  0.19312778  1
  Ni  Ni20  1  0.25000000  0.04739302  0.79951144  1
  Ni  Ni21  1  0.25000000  0.45260698  0.29951144  1
  Ni  Ni22  1  0.75000000  0.95260698  0.20048856  1
  Ni  Ni23  1  0.75000000  0.54739302  0.70048856  1
  Sn  Sn24  1  0.25000000  0.17706880  0.68329144  1
  Sn  Sn25  1  0.25000000  0.32293120  0.18329144  1
  Sn  Sn26  1  0.75000000  0.82293120  0.31670856  1
  Sn  Sn27  1  0.75000000  0.67706880  0.81670856  1
  Sn  Sn28  1  0.25000000  0.05220655  0.95597270  1
  Sn  Sn29  1  0.25000000  0.44779345  0.45597270  1
  Sn  Sn30  1  0.75000000  0.94779345  0.04402730  1
  Sn  Sn31  1  0.75000000  0.55220655  0.54402730  1
  Sn  Sn32  1  0.25000000  0.07770832  0.51945807  1
  Sn  Sn33  1  0.25000000  0.42229168  0.01945807  1
  Sn  Sn34  1  0.75000000  0.92229168  0.48054193  1
  Sn  Sn35  1  0.75000000  0.57770832  0.98054193  1
  Sn  Sn36  1  0.25000000  0.60443042  0.21497766  1
  Sn  Sn37  1  0.25000000  0.89556958  0.71497766  1
  Sn  Sn38  1  0.75000000  0.39556958  0.78502234  1
  Sn  Sn39  1  0.75000000  0.10443042  0.28502234  1
  Sn  Sn40  1  0.25000000  0.73599522  0.46824150  1
  Sn  Sn41  1  0.25000000  0.76400478  0.96824150  1
  Sn  Sn42  1  0.75000000  0.26400478  0.53175850  1
  Sn  Sn43  1  0.75000000  0.23599522  0.03175850  1
  Sn  Sn44  1  0.25000000  0.86902303  0.17556920  1
  Sn  Sn45  1  0.25000000  0.63097697  0.67556920  1
  Sn  Sn46  1  0.75000000  0.13097697  0.82443080  1
  Sn  Sn47  1  0.75000000  0.36902303  0.32443080  1
