# generated using pymatgen
data_Cs2ZnBi2S5
_symmetry_space_group_name_H-M   'P 1'
_cell_length_a   4.15067510
_cell_length_b   16.04346951
_cell_length_c   18.49327306
_cell_angle_alpha   90.00000000
_cell_angle_beta   90.00000000
_cell_angle_gamma   90.00000000
_symmetry_Int_Tables_number   1
_chemical_formula_structural   Cs2ZnBi2S5
_chemical_formula_sum   'Cs8 Zn4 Bi8 S20'
_cell_volume   1231.48978893
_cell_formula_units_Z   4
loop_
 _symmetry_equiv_pos_site_id
 _symmetry_equiv_pos_as_xyz
  1  'x, y, z'
loop_
 _atom_site_type_symbol
 _atom_site_label
 _atom_site_symmetry_multiplicity
 _atom_site_fract_x
 _atom_site_fract_y
 _atom_site_fract_z
 _atom_site_occupancy
  Cs  Cs0  1  0.75000000  0.49359338  0.12173909  1
  Cs  Cs1  1  0.75000000  0.99359338  0.37826091  1
  Cs  Cs2  1  0.25000000  0.50640662  0.87826091  1
  Cs  Cs3  1  0.25000000  0.00640662  0.62173909  1
  Cs  Cs4  1  0.75000000  0.03922138  0.88104889  1
  Cs  Cs5  1  0.75000000  0.53922138  0.61895111  1
  Cs  Cs6  1  0.25000000  0.96077862  0.11895111  1
  Cs  Cs7  1  0.25000000  0.46077862  0.38104889  1
  Zn  Zn8  1  0.75000000  0.29430000  0.85565478  1
  Zn  Zn9  1  0.75000000  0.79430000  0.64434522  1
  Zn  Zn10  1  0.25000000  0.70570000  0.14434522  1
  Zn  Zn11  1  0.25000000  0.20570000  0.35565478  1
  Bi  Bi12  1  0.75000000  0.24971170  0.51725415  1
  Bi  Bi13  1  0.75000000  0.74971170  0.98274585  1
  Bi  Bi14  1  0.25000000  0.75028830  0.48274585  1
  Bi  Bi15  1  0.25000000  0.25028830  0.01725415  1
  Bi  Bi16  1  0.75000000  0.20846474  0.19906066  1
  Bi  Bi17  1  0.75000000  0.70846474  0.30093934  1
  Bi  Bi18  1  0.25000000  0.79153526  0.80093934  1
  Bi  Bi19  1  0.25000000  0.29153526  0.69906066  1
  S  S20  1  0.75000000  0.39127548  0.75708808  1
  S  S21  1  0.75000000  0.89127548  0.74291192  1
  S  S22  1  0.25000000  0.60872452  0.24291192  1
  S  S23  1  0.25000000  0.10872452  0.25708808  1
  S  S24  1  0.75000000  0.35701173  0.97131807  1
  S  S25  1  0.75000000  0.85701173  0.52868193  1
  S  S26  1  0.25000000  0.64298827  0.02868193  1
  S  S27  1  0.25000000  0.14298827  0.47131807  1
  S  S28  1  0.75000000  0.28479957  0.34344917  1
  S  S29  1  0.75000000  0.78479957  0.15655083  1
  S  S30  1  0.25000000  0.71520043  0.65655083  1
  S  S31  1  0.25000000  0.21520043  0.84344917  1
  S  S32  1  0.75000000  0.18202828  0.64775852  1
  S  S33  1  0.75000000  0.68202828  0.85224148  1
  S  S34  1  0.25000000  0.81797172  0.35224148  1
  S  S35  1  0.25000000  0.31797172  0.14775852  1
  S  S36  1  0.75000000  0.13421482  0.06304460  1
  S  S37  1  0.75000000  0.63421482  0.43695540  1
  S  S38  1  0.25000000  0.86578518  0.93695540  1
  S  S39  1  0.25000000  0.36578518  0.56304460  1
