# generated using pymatgen
data_Zn3TeP2Pb3O14
_symmetry_space_group_name_H-M   'P 1'
_cell_length_a   5.26602854
_cell_length_b   14.80734333
_cell_length_c   25.54870911
_cell_angle_alpha   90.00000000
_cell_angle_beta   90.00000000
_cell_angle_gamma   89.91554558
_symmetry_Int_Tables_number   1
_chemical_formula_structural   Zn3TeP2Pb3O14
_chemical_formula_sum   'Zn18 Te6 P12 Pb18 O84'
_cell_volume   1992.18123330
_cell_formula_units_Z   6
loop_
 _symmetry_equiv_pos_site_id
 _symmetry_equiv_pos_as_xyz
  1  'x, y, z'
loop_
 _atom_site_type_symbol
 _atom_site_label
 _atom_site_symmetry_multiplicity
 _atom_site_fract_x
 _atom_site_fract_y
 _atom_site_fract_z
 _atom_site_occupancy
  Zn  Zn0  1  0.50000000  -0.00000000  0.57305877  1
  Zn  Zn1  1  0.50000000  0.50000000  0.07794359  1
  Zn  Zn2  1  0.50000000  -0.00000000  0.91297431  1
  Zn  Zn3  1  0.50000000  0.50000000  0.41148735  1
  Zn  Zn4  1  0.50000000  -0.00000000  0.24929691  1
  Zn  Zn5  1  0.50000000  0.50000000  0.74909817  1
  Zn  Zn6  1  0.50233064  0.87528985  0.03922365  1
  Zn  Zn7  1  0.49766936  0.12471015  0.03922365  1
  Zn  Zn8  1  0.49015467  0.37791045  0.53950969  1
  Zn  Zn9  1  0.50984533  0.62208955  0.53950969  1
  Zn  Zn10  1  0.49843652  0.87474087  0.70009113  1
  Zn  Zn11  1  0.50156348  0.12525913  0.70009113  1
  Zn  Zn12  1  0.50100592  0.37488628  0.20155999  1
  Zn  Zn13  1  0.49899408  0.62511372  0.20155999  1
  Zn  Zn14  1  0.50827132  0.87084406  0.37284537  1
  Zn  Zn15  1  0.49172868  0.12915594  0.37284537  1
  Zn  Zn16  1  0.50840583  0.37111545  0.87178837  1
  Zn  Zn17  1  0.49159417  0.62888455  0.87178837  1
  Te  Te18  1  0.00000000  -0.00000000  0.65532040  1
  Te  Te19  1  0.00000000  0.50000000  0.15943271  1
  Te  Te20  1  0.00000000  -0.00000000  0.99722978  1
  Te  Te21  1  0.00000000  0.50000000  0.49299492  1
  Te  Te22  1  0.00000000  -0.00000000  0.33464616  1
  Te  Te23  1  0.00000000  0.50000000  0.83237955  1
  P  P24  1  0.45417498  0.83467384  0.16409129  1
  P  P25  1  0.54582502  0.16532616  0.16409129  1
  P  P26  1  0.54568452  0.66429747  0.66418660  1
  P  P27  1  0.45431548  0.33570253  0.66418660  1
  P  P28  1  0.45544686  0.83647519  0.82733988  1
  P  P29  1  0.54455314  0.16352481  0.82733988  1
  P  P30  1  0.54593721  0.66626976  0.32594775  1
  P  P31  1  0.45406279  0.33373024  0.32594775  1
  P  P32  1  0.50007109  0.82696632  0.49606675  1
  P  P33  1  0.49992891  0.17303368  0.49606675  1
  P  P34  1  0.54724470  0.66989065  0.99676442  1
  P  P35  1  0.45275530  0.33010935  0.99676442  1
  Pb  Pb36  1  0.00000000  -0.00000000  0.47261988  1
  Pb  Pb37  1  0.00000000  0.50000000  0.96628757  1
  Pb  Pb38  1  0.00000000  -0.00000000  0.79151633  1
  Pb  Pb39  1  0.00000000  0.50000000  0.29351253  1
  Pb  Pb40  1  0.00000000  -0.00000000  0.13268979  1
  Pb  Pb41  1  0.00000000  0.50000000  0.62895869  1
  Pb  Pb42  1  0.00077287  0.70490668  0.09477187  1
  Pb  Pb43  1  0.99922713  0.29509332  0.09477187  1
  Pb  Pb44  1  0.00286854  0.21107383  0.59454500  1
  Pb  Pb45  1  0.99713146  0.78892617  0.59454500  1
  Pb  Pb46  1  0.99288541  0.70077626  0.76388391  1
  Pb  Pb47  1  0.00711459  0.29922374  0.76388391  1
  Pb  Pb48  1  0.99852146  0.19936896  0.26327092  1
  Pb  Pb49  1  0.00147854  0.80063104  0.26327092  1
  Pb  Pb50  1  0.98770572  0.70161219  0.42157200  1
  Pb  Pb51  1  0.01229428  0.29838781  0.42157200  1
  Pb  Pb52  1  0.99478796  0.19983063  0.92907711  1
  Pb  Pb53  1  0.00521204  0.80016937  0.92907711  1
  O  O54  1  0.79355972  0.95210955  0.71271171  1
  O  O55  1  0.20644028  0.04789045  0.71271171  1
  O  O56  1  0.77858202  0.10651244  0.64982722  1
  O  O57  1  0.22141798  0.89348756  0.64982722  1
  O  O58  1  0.79243252  0.93728498  0.60362146  1
  O  O59  1  0.20756748  0.06271502  0.60362146  1
  O  O60  1  0.78990880  0.45350520  0.21627937  1
  O  O61  1  0.21009120  0.54649480  0.21627937  1
  O  O62  1  0.78555811  0.60732359  0.15438115  1
  O  O63  1  0.21444189  0.39267641  0.15438115  1
  O  O64  1  0.79086633  0.43701460  0.10817114  1
  O  O65  1  0.20913367  0.56298540  0.10817114  1
  O  O66  1  0.79434989  0.95193746  0.05426455  1
  O  O67  1  0.20565011  0.04806254  0.05426455  1
  O  O68  1  0.78909543  0.93771077  0.94564436  1
  O  O69  1  0.21090457  0.06228923  0.94564436  1
  O  O70  1  0.78146685  0.10622255  0.99102987  1
  O  O71  1  0.21853315  0.89377745  0.99102987  1
  O  O72  1  0.79550270  0.45052760  0.55035736  1
  O  O73  1  0.20449730  0.54947240  0.55035736  1
  O  O74  1  0.77883964  0.60543661  0.48785656  1
  O  O75  1  0.22116036  0.39456339  0.48785656  1
  O  O76  1  0.79228135  0.43609400  0.44142504  1
  O  O77  1  0.20771865  0.56390600  0.44142504  1
  O  O78  1  0.78119346  0.95544202  0.39070522  1
  O  O79  1  0.21880654  0.04455798  0.39070522  1
  O  O80  1  0.79523845  0.11032069  0.32975525  1
  O  O81  1  0.20476155  0.88967931  0.32975525  1
  O  O82  1  0.78888427  0.93988808  0.28201166  1
  O  O83  1  0.21111573  0.06011192  0.28201166  1
  O  O84  1  0.79287249  0.45099939  0.88912487  1
  O  O85  1  0.20712751  0.54900061  0.88912487  1
  O  O86  1  0.78554073  0.60735738  0.82675545  1
  O  O87  1  0.21445927  0.39264262  0.82675545  1
  O  O88  1  0.78920002  0.43769523  0.78110794  1
  O  O89  1  0.21079998  0.56230477  0.78110794  1
  O  O90  1  0.74601613  0.83387063  0.16386034  1
  O  O91  1  0.25398387  0.16612937  0.16386034  1
  O  O92  1  0.33975972  0.86623544  0.11029713  1
  O  O93  1  0.66024028  0.13376456  0.11029713  1
  O  O94  1  0.34233073  0.89994911  0.20671616  1
  O  O95  1  0.65766927  0.10005089  0.20671616  1
  O  O96  1  0.33792001  0.73907324  0.17511692  1
  O  O97  1  0.66207999  0.26092676  0.17511692  1
  O  O98  1  0.25393857  0.66664090  0.66264800  1
  O  O99  1  0.74606143  0.33335910  0.66264800  1
  O  O100  1  0.65210183  0.60402240  0.70964127  1
  O  O101  1  0.34789817  0.39597760  0.70964127  1
  O  O102  1  0.66321896  0.76069542  0.67248780  1
  O  O103  1  0.33678104  0.23930458  0.67248780  1
  O  O104  1  0.66311902  0.62534833  0.61232506  1
  O  O105  1  0.33688098  0.37465167  0.61232506  1
  O  O106  1  0.74749626  0.83558589  0.82814641  1
  O  O107  1  0.25250374  0.16441411  0.82814641  1
  O  O108  1  0.33916621  0.90185346  0.86937266  1
  O  O109  1  0.66083379  0.09814654  0.86937266  1
  O  O110  1  0.34042000  0.74048366  0.83895725  1
  O  O111  1  0.65958000  0.25951634  0.83895725  1
  O  O112  1  0.34629286  0.86698008  0.77283539  1
  O  O113  1  0.65370714  0.13301992  0.77283539  1
  O  O114  1  0.25383446  0.66895041  0.32616350  1
  O  O115  1  0.74616554  0.33104959  0.32616350  1
  O  O116  1  0.65626057  0.60138088  0.36886256  1
  O  O117  1  0.34373943  0.39861912  0.36886256  1
  O  O118  1  0.66614296  0.76181654  0.33606203  1
  O  O119  1  0.33385704  0.23818346  0.33606203  1
  O  O120  1  0.65870878  0.63316583  0.27258833  1
  O  O121  1  0.34129122  0.36683417  0.27258833  1
  O  O122  1  0.79345272  0.83355882  0.49580961  1
  O  O123  1  0.20654728  0.16644118  0.49580961  1
  O  O124  1  0.37225385  0.91560485  0.51632031  1
  O  O125  1  0.62774615  0.08439515  0.51632031  1
  O  O126  1  0.40654076  0.75080689  0.53377118  1
  O  O127  1  0.59345924  0.24919311  0.53377118  1
  O  O128  1  0.39944078  0.80709530  0.43950153  1
  O  O129  1  0.60055922  0.19290470  0.43950153  1
  O  O130  1  0.25527432  0.67319068  0.99776972  1
  O  O131  1  0.74472568  0.32680932  0.99776972  1
  O  O132  1  0.66010964  0.60303269  0.03833324  1
  O  O133  1  0.33989036  0.39696731  0.03833324  1
  O  O134  1  0.66881040  0.76453561  0.00880096  1
  O  O135  1  0.33118960  0.23546439  0.00880096  1
  O  O136  1  0.65593573  0.63923529  0.94252303  1
  O  O137  1  0.34406427  0.36076471  0.94252303  1
