# generated using pymatgen
data_NdH12(ClO2)3
_symmetry_space_group_name_H-M   'P 1'
_cell_length_a   6.65876241
_cell_length_b   8.08397450
_cell_length_c   9.80302645
_cell_angle_alpha   93.42353432
_cell_angle_beta   90.00000000
_cell_angle_gamma   90.00000000
_symmetry_Int_Tables_number   1
_chemical_formula_structural   NdH12(ClO2)3
_chemical_formula_sum   'Nd2 H24 Cl6 O12'
_cell_volume   526.74798985
_cell_formula_units_Z   2
loop_
 _symmetry_equiv_pos_site_id
 _symmetry_equiv_pos_as_xyz
  1  'x, y, z'
loop_
 _atom_site_type_symbol
 _atom_site_label
 _atom_site_symmetry_multiplicity
 _atom_site_fract_x
 _atom_site_fract_y
 _atom_site_fract_z
 _atom_site_occupancy
  Nd  Nd0  1  0.64515061  0.75000000  0.75000000  1
  Nd  Nd1  1  0.35484939  0.25000000  0.25000000  1
  H  H2  1  0.97191793  0.48204049  0.68286234  1
  H  H3  1  0.02808207  0.51795951  0.31713766  1
  H  H4  1  0.97191793  0.01795951  0.81713766  1
  H  H5  1  0.02808207  0.98204049  0.18286234  1
  H  H6  1  0.04950292  0.64175889  0.61533098  1
  H  H7  1  0.95049708  0.35824111  0.38466902  1
  H  H8  1  0.04950292  0.85824111  0.88466902  1
  H  H9  1  0.95049708  0.14175889  0.11533098  1
  H  H10  1  0.75229864  0.00775998  0.54053293  1
  H  H11  1  0.24770136  0.99224002  0.45946707  1
  H  H12  1  0.75229864  0.49224002  0.95946707  1
  H  H13  1  0.24770136  0.50775998  0.04053293  1
  H  H14  1  0.83000062  0.84182553  0.46768463  1
  H  H15  1  0.16999938  0.15817447  0.53231537  1
  H  H16  1  0.83000062  0.65817447  0.03231537  1
  H  H17  1  0.16999938  0.34182553  0.96768463  1
  H  H18  1  0.41217666  0.08950124  0.76125244  1
  H  H19  1  0.58782334  0.91049876  0.23874756  1
  H  H20  1  0.41217666  0.41049876  0.73874756  1
  H  H21  1  0.58782334  0.58950124  0.26125244  1
  H  H22  1  0.59031667  0.11111635  0.86587611  1
  H  H23  1  0.40968333  0.88888365  0.13412389  1
  H  H24  1  0.59031667  0.38888365  0.63412389  1
  H  H25  1  0.40968333  0.61111635  0.36587611  1
  Cl  Cl26  1  0.32612843  0.74475274  0.94860420  1
  Cl  Cl27  1  0.67387157  0.25524726  0.05139580  1
  Cl  Cl28  1  0.32612843  0.75524726  0.55139580  1
  Cl  Cl29  1  0.67387157  0.24475274  0.44860420  1
  Cl  Cl30  1  0.86078838  0.75000000  0.25000000  1
  Cl  Cl31  1  0.13921162  0.25000000  0.75000000  1
  O  O32  1  0.92581934  0.58640169  0.64604136  1
  O  O33  1  0.07418066  0.41359831  0.35395864  1
  O  O34  1  0.92581934  0.91359831  0.85395864  1
  O  O35  1  0.07418066  0.08640169  0.14604136  1
  O  O36  1  0.79649286  0.89442868  0.55849100  1
  O  O37  1  0.20350714  0.10557132  0.44150900  1
  O  O38  1  0.79649286  0.60557132  0.94150900  1
  O  O39  1  0.20350714  0.39442868  0.05849100  1
  O  O40  1  0.54600488  0.04544335  0.78268757  1
  O  O41  1  0.45399512  0.95455665  0.21731243  1
  O  O42  1  0.54600488  0.45455665  0.71731243  1
  O  O43  1  0.45399512  0.54544335  0.28268757  1
