# generated using pymatgen
data_Dy5Pb4
_symmetry_space_group_name_H-M   'P 1'
_cell_length_a   8.20707753
_cell_length_b   8.27695025
_cell_length_c   15.70901414
_cell_angle_alpha   90.00000000
_cell_angle_beta   90.00000000
_cell_angle_gamma   90.00000000
_symmetry_Int_Tables_number   1
_chemical_formula_structural   Dy5Pb4
_chemical_formula_sum   'Dy20 Pb16'
_cell_volume   1067.10661357
_cell_formula_units_Z   4
loop_
 _symmetry_equiv_pos_site_id
 _symmetry_equiv_pos_as_xyz
  1  'x, y, z'
loop_
 _atom_site_type_symbol
 _atom_site_label
 _atom_site_symmetry_multiplicity
 _atom_site_fract_x
 _atom_site_fract_y
 _atom_site_fract_z
 _atom_site_occupancy
  Dy  Dy0  1  0.37637384  0.84116925  0.87947409  1
  Dy  Dy1  1  0.87637384  0.65883075  0.62052591  1
  Dy  Dy2  1  0.62362616  0.15883075  0.37947409  1
  Dy  Dy3  1  0.12362616  0.34116925  0.12052591  1
  Dy  Dy4  1  0.62362616  0.15883075  0.12052591  1
  Dy  Dy5  1  0.12362616  0.34116925  0.37947409  1
  Dy  Dy6  1  0.37637384  0.84116925  0.62052591  1
  Dy  Dy7  1  0.87637384  0.65883075  0.87947409  1
  Dy  Dy8  1  0.53635467  0.32298817  0.89987339  1
  Dy  Dy9  1  0.03635467  0.17701183  0.60012661  1
  Dy  Dy10  1  0.46364533  0.67701183  0.39987339  1
  Dy  Dy11  1  0.96364533  0.82298817  0.10012661  1
  Dy  Dy12  1  0.46364533  0.67701183  0.10012661  1
  Dy  Dy13  1  0.96364533  0.82298817  0.39987339  1
  Dy  Dy14  1  0.53635467  0.32298817  0.60012661  1
  Dy  Dy15  1  0.03635467  0.17701183  0.89987339  1
  Dy  Dy16  1  0.20838243  0.50409231  0.75000000  1
  Dy  Dy17  1  0.70838243  0.99590769  0.75000000  1
  Dy  Dy18  1  0.79161757  0.49590769  0.25000000  1
  Dy  Dy19  1  0.29161757  0.00409231  0.25000000  1
  Pb  Pb20  1  0.28131109  0.03221027  0.04249699  1
  Pb  Pb21  1  0.78131109  0.46778973  0.45750301  1
  Pb  Pb22  1  0.71868891  0.96778973  0.54249699  1
  Pb  Pb23  1  0.21868891  0.53221027  0.95750301  1
  Pb  Pb24  1  0.71868891  0.96778973  0.95750301  1
  Pb  Pb25  1  0.21868891  0.53221027  0.54249699  1
  Pb  Pb26  1  0.28131109  0.03221027  0.45750301  1
  Pb  Pb27  1  0.78131109  0.46778973  0.04249699  1
  Pb  Pb28  1  0.57079981  0.62633324  0.75000000  1
  Pb  Pb29  1  0.07079981  0.87366676  0.75000000  1
  Pb  Pb30  1  0.42920019  0.37366676  0.25000000  1
  Pb  Pb31  1  0.92920019  0.12633324  0.25000000  1
  Pb  Pb32  1  0.34642318  0.15314240  0.75000000  1
  Pb  Pb33  1  0.84642318  0.34685760  0.75000000  1
  Pb  Pb34  1  0.65357682  0.84685760  0.25000000  1
  Pb  Pb35  1  0.15357682  0.65314240  0.25000000  1
