# generated using pymatgen
data_Fe3Sb5(IO3)3
_symmetry_space_group_name_H-M   'P 1'
_cell_length_a   8.14555141
_cell_length_b   9.09179936
_cell_length_c   12.39656360
_cell_angle_alpha   78.95351743
_cell_angle_beta   85.73097429
_cell_angle_gamma   70.49383854
_symmetry_Int_Tables_number   1
_chemical_formula_structural   Fe3Sb5(IO3)3
_chemical_formula_sum   'Fe6 Sb10 I6 O18'
_cell_volume   849.28182668
_cell_formula_units_Z   2
loop_
 _symmetry_equiv_pos_site_id
 _symmetry_equiv_pos_as_xyz
  1  'x, y, z'
loop_
 _atom_site_type_symbol
 _atom_site_label
 _atom_site_symmetry_multiplicity
 _atom_site_fract_x
 _atom_site_fract_y
 _atom_site_fract_z
 _atom_site_occupancy
  Fe  Fe0  1  0.70794702  0.98939199  0.35268327  1
  Fe  Fe1  1  0.29205298  0.01060801  0.64731673  1
  Fe  Fe2  1  0.02211004  0.96309402  0.12863349  1
  Fe  Fe3  1  0.97788996  0.03690598  0.87136651  1
  Fe  Fe4  1  0.61293522  0.09451553  0.05867708  1
  Fe  Fe5  1  0.38706478  0.90548447  0.94132292  1
  Sb  Sb6  1  0.87835297  0.18462573  0.50099168  1
  Sb  Sb7  1  0.12164703  0.81537427  0.49900832  1
  Sb  Sb8  1  0.24383265  0.16572131  0.25718799  1
  Sb  Sb9  1  0.75616735  0.83427869  0.74281201  1
  Sb  Sb10  1  0.53179444  0.21023851  0.75439695  1
  Sb  Sb11  1  0.46820556  0.78976149  0.24560305  1
  Sb  Sb12  1  0.18811375  0.27042606  0.98021335  1
  Sb  Sb13  1  0.81188625  0.72957394  0.01978665  1
  Sb  Sb14  1  0.78843880  0.32134042  0.20175492  1
  Sb  Sb15  1  0.21156120  0.67865958  0.79824508  1
  I  I16  1  0.71917838  0.36078748  0.92455011  1
  I  I17  1  0.28082162  0.63921252  0.07544989  1
  I  I18  1  0.90201947  0.67495646  0.31575327  1
  I  I19  1  0.09798053  0.32504354  0.68424673  1
  I  I20  1  0.48891427  0.30484334  0.41976192  1
  I  I21  1  0.51108573  0.69515666  0.58023808  1
  O  O22  1  0.14765968  0.06106913  0.98256319  1
  O  O23  1  0.85234032  0.93893087  0.01743681  1
  O  O24  1  0.85974903  0.97113055  0.47984978  1
  O  O25  1  0.14025097  0.02886945  0.52015022  1
  O  O26  1  0.77930031  0.10494650  0.19587899  1
  O  O27  1  0.22069969  0.89505350  0.80412101  1
  O  O28  1  0.43980659  0.14045727  0.90542906  1
  O  O29  1  0.56019341  0.85954273  0.09457094  1
  O  O30  1  0.78527474  0.04619239  0.76974483  1
  O  O31  1  0.21472526  0.95380761  0.23025517  1
  O  O32  1  0.50823650  0.02576565  0.69799963  1
  O  O33  1  0.49176350  0.97423435  0.30200037  1
  O  O34  1  0.03270297  0.27023093  0.13515863  1
  O  O35  1  0.96729703  0.72976907  0.86484137  1
  O  O36  1  0.06988032  0.76018309  0.65785412  1
  O  O37  1  0.93011968  0.23981691  0.34214588  1
  O  O38  1  0.63704386  0.79835107  0.89461518  1
  O  O39  1  0.36295614  0.20164893  0.10538482  1
