# generated using pymatgen
data_Eu3(SiAs2)2
_symmetry_space_group_name_H-M   'P 1'
_cell_length_a   7.35648717
_cell_length_b   7.50222391
_cell_length_c   17.96766935
_cell_angle_alpha   90.00000000
_cell_angle_beta   90.00000000
_cell_angle_gamma   111.44036025
_symmetry_Int_Tables_number   1
_chemical_formula_structural   Eu3(SiAs2)2
_chemical_formula_sum   'Eu12 Si8 As16'
_cell_volume   923.01328657
_cell_formula_units_Z   4
loop_
 _symmetry_equiv_pos_site_id
 _symmetry_equiv_pos_as_xyz
  1  'x, y, z'
loop_
 _atom_site_type_symbol
 _atom_site_label
 _atom_site_symmetry_multiplicity
 _atom_site_fract_x
 _atom_site_fract_y
 _atom_site_fract_z
 _atom_site_occupancy
  Eu  Eu0  1  0.51314992  0.22419718  0.68495650  1
  Eu  Eu1  1  0.98685008  0.77580282  0.18495650  1
  Eu  Eu2  1  0.48685008  0.77580282  0.31504350  1
  Eu  Eu3  1  0.01314992  0.22419718  0.81504350  1
  Eu  Eu4  1  0.51062708  0.25216943  0.93682146  1
  Eu  Eu5  1  0.98937292  0.74783057  0.43682146  1
  Eu  Eu6  1  0.48937292  0.74783057  0.06317854  1
  Eu  Eu7  1  0.01062708  0.25216943  0.56317854  1
  Eu  Eu8  1  0.49981665  0.25911648  0.44133854  1
  Eu  Eu9  1  0.00018335  0.74088352  0.94133854  1
  Eu  Eu10  1  0.50018335  0.74088352  0.55866146  1
  Eu  Eu11  1  0.99981665  0.25911648  0.05866146  1
  Si  Si12  1  0.52942139  0.21103100  0.12933073  1
  Si  Si13  1  0.97057861  0.78896900  0.62933073  1
  Si  Si14  1  0.47057861  0.78896900  0.87066927  1
  Si  Si15  1  0.02942139  0.21103100  0.37066927  1
  Si  Si16  1  0.91748446  0.31277186  0.25985317  1
  Si  Si17  1  0.58251554  0.68722814  0.75985317  1
  Si  Si18  1  0.08251554  0.68722814  0.74014683  1
  Si  Si19  1  0.41748446  0.31277186  0.24014683  1
  As  As20  1  0.75387172  0.01009712  0.43860188  1
  As  As21  1  0.74612828  0.98990288  0.93860188  1
  As  As22  1  0.24612828  0.98990288  0.56139812  1
  As  As23  1  0.25387172  0.01009712  0.06139812  1
  As  As24  1  0.72309795  0.03844728  0.18715377  1
  As  As25  1  0.77690205  0.96155272  0.68715377  1
  As  As26  1  0.27690205  0.96155272  0.81284623  1
  As  As27  1  0.22309795  0.03844728  0.31284623  1
  As  As28  1  0.73761704  0.49441470  0.06765524  1
  As  As29  1  0.76238296  0.50558530  0.56765524  1
  As  As30  1  0.26238296  0.50558530  0.93234476  1
  As  As31  1  0.23761704  0.49441470  0.43234476  1
  As  As32  1  0.72441775  0.49776446  0.30324821  1
  As  As33  1  0.77558225  0.50223554  0.80324821  1
  As  As34  1  0.27558225  0.50223554  0.69675179  1
  As  As35  1  0.22441775  0.49776446  0.19675179  1
