# generated using pymatgen
data_Cs2MnSO4F3
_symmetry_space_group_name_H-M   'P 1'
_cell_length_a   7.56489136
_cell_length_b   9.40642148
_cell_length_c   11.94097382
_cell_angle_alpha   90.00000000
_cell_angle_beta   90.00000000
_cell_angle_gamma   92.55540443
_symmetry_Int_Tables_number   1
_chemical_formula_structural   Cs2MnSO4F3
_chemical_formula_sum   'Cs8 Mn4 S4 O16 F12'
_cell_volume   848.85749570
_cell_formula_units_Z   4
loop_
 _symmetry_equiv_pos_site_id
 _symmetry_equiv_pos_as_xyz
  1  'x, y, z'
loop_
 _atom_site_type_symbol
 _atom_site_label
 _atom_site_symmetry_multiplicity
 _atom_site_fract_x
 _atom_site_fract_y
 _atom_site_fract_z
 _atom_site_occupancy
  Cs  Cs0  1  0.79141016  0.16945552  0.68777569  1
  Cs  Cs1  1  0.20858984  0.33054448  0.18777569  1
  Cs  Cs2  1  0.20858984  0.83054448  0.31222431  1
  Cs  Cs3  1  0.79141016  0.66945552  0.81222431  1
  Cs  Cs4  1  0.28828526  0.32474687  0.80963216  1
  Cs  Cs5  1  0.71171474  0.17525313  0.30963216  1
  Cs  Cs6  1  0.71171474  0.67525313  0.19036784  1
  Cs  Cs7  1  0.28828526  0.82474687  0.69036784  1
  Mn  Mn8  1  0.50000000  0.50000000  0.50000000  1
  Mn  Mn9  1  0.50000000  0.00000000  0.00000000  1
  Mn  Mn10  1  0.00000000  0.50000000  0.50000000  1
  Mn  Mn11  1  0.00000000  0.00000000  0.00000000  1
  S  S12  1  0.25420591  0.20940606  0.49798986  1
  S  S13  1  0.74579409  0.29059394  0.99798986  1
  S  S14  1  0.74579409  0.79059394  0.50201014  1
  S  S15  1  0.25420591  0.70940606  0.00201014  1
  O  O16  1  0.89218838  0.20424548  0.95317373  1
  O  O17  1  0.10781162  0.29575452  0.45317373  1
  O  O18  1  0.10781162  0.79575452  0.04682627  1
  O  O19  1  0.89218838  0.70424548  0.54682627  1
  O  O20  1  0.39897084  0.31165703  0.54710749  1
  O  O21  1  0.60102916  0.18834297  0.04710749  1
  O  O22  1  0.60102916  0.68834297  0.45289251  1
  O  O23  1  0.39897084  0.81165703  0.95289251  1
  O  O24  1  0.32916172  0.12723768  0.40616974  1
  O  O25  1  0.67083828  0.37276232  0.90616974  1
  O  O26  1  0.67083828  0.87276232  0.59383026  1
  O  O27  1  0.32916172  0.62723768  0.09383026  1
  O  O28  1  0.19172903  0.12024737  0.59257489  1
  O  O29  1  0.80827097  0.37975263  0.09257489  1
  O  O30  1  0.80827097  0.87975263  0.40742511  1
  O  O31  1  0.19172903  0.62024737  0.90742511  1
  F  F32  1  0.51792969  0.04669165  0.84736700  1
  F  F33  1  0.48207031  0.45330835  0.34736700  1
  F  F34  1  0.48207031  0.95330835  0.15263300  1
  F  F35  1  0.51792969  0.54669165  0.65263300  1
  F  F36  1  0.01955384  0.46241048  0.65276662  1
  F  F37  1  0.98044616  0.03758952  0.15276662  1
  F  F38  1  0.98044616  0.53758952  0.34723338  1
  F  F39  1  0.01955384  0.96241048  0.84723338  1
  F  F40  1  0.76261081  0.40889304  0.50154738  1
  F  F41  1  0.23738919  0.09110696  0.00154738  1
  F  F42  1  0.23738919  0.59110696  0.49845262  1
  F  F43  1  0.76261081  0.90889304  0.99845262  1
