# generated using pymatgen
data_Ho3(Si3Ru)4
_symmetry_space_group_name_H-M   'P 1'
_cell_length_a   8.12728585
_cell_length_b   8.12967706
_cell_length_c   10.10096359
_cell_angle_alpha   90.00000000
_cell_angle_beta   113.72219545
_cell_angle_gamma   90.00000000
_symmetry_Int_Tables_number   1
_chemical_formula_structural   Ho3(Si3Ru)4
_chemical_formula_sum   'Ho6 Si24 Ru8'
_cell_volume   611.00282322
_cell_formula_units_Z   2
loop_
 _symmetry_equiv_pos_site_id
 _symmetry_equiv_pos_as_xyz
  1  'x, y, z'
loop_
 _atom_site_type_symbol
 _atom_site_label
 _atom_site_symmetry_multiplicity
 _atom_site_fract_x
 _atom_site_fract_y
 _atom_site_fract_z
 _atom_site_occupancy
  Ho  Ho0  1  0.50000000  0.50000000  -0.00000000  1
  Ho  Ho1  1  -0.00000000  -0.00000000  -0.00000000  1
  Ho  Ho2  1  0.00378701  0.75000000  0.50000000  1
  Ho  Ho3  1  0.49621299  0.25000000  0.50000000  1
  Ho  Ho4  1  0.99621299  0.25000000  0.50000000  1
  Ho  Ho5  1  0.50378701  0.75000000  0.50000000  1
  Si  Si6  1  0.20483979  0.50000000  0.40967959  1
  Si  Si7  1  0.70483979  0.00000000  0.40967959  1
  Si  Si8  1  0.79516021  0.50000000  0.59032041  1
  Si  Si9  1  0.29516021  0.00000000  0.59032041  1
  Si  Si10  1  0.33332814  0.83338596  1.00000000  1
  Si  Si11  1  0.66667186  0.16661404  0.00000000  1
  Si  Si12  1  0.16667186  0.33338596  0.00000000  1
  Si  Si13  1  0.83332814  0.66661404  1.00000000  1
  Si  Si14  1  0.88908977  0.72874066  0.76579328  1
  Si  Si15  1  0.87670351  0.27125934  0.76579328  1
  Si  Si16  1  0.37670351  0.22874066  0.76579328  1
  Si  Si17  1  0.38908977  0.77125934  0.76579328  1
  Si  Si18  1  0.11091023  0.27125934  0.23420672  1
  Si  Si19  1  0.12329649  0.72874066  0.23420672  1
  Si  Si20  1  0.62329649  0.77125934  0.23420672  1
  Si  Si21  1  0.61091023  0.22874066  0.23420672  1
  Si  Si22  1  0.11238755  0.50712873  0.76584761  1
  Si  Si23  1  0.65346006  0.49287127  0.76584761  1
  Si  Si24  1  0.15346006  0.00712873  0.76584761  1
  Si  Si25  1  0.61238755  0.99287127  0.76584761  1
  Si  Si26  1  0.88761245  0.49287127  0.23415239  1
  Si  Si27  1  0.34653994  0.50712873  0.23415239  1
  Si  Si28  1  0.84653994  0.99287127  0.23415239  1
  Si  Si29  1  0.38761245  0.00712873  0.23415239  1
  Ru  Ru30  1  0.33048630  0.50000000  0.66097260  1
  Ru  Ru31  1  0.83048630  -0.00000000  0.66097260  1
  Ru  Ru32  1  0.66951370  0.50000000  0.33902740  1
  Ru  Ru33  1  0.16951370  0.00000000  0.33902740  1
  Ru  Ru34  1  0.12730682  0.62725337  0.00000000  1
  Ru  Ru35  1  0.87269318  0.37274663  1.00000000  1
  Ru  Ru36  1  0.37269318  0.12725337  1.00000000  1
  Ru  Ru37  1  0.62730682  0.87274663  0.00000000  1
