# generated using pymatgen
data_RbGeB3O7
_symmetry_space_group_name_H-M   'P 1'
_cell_length_a   7.04844678
_cell_length_b   9.49597081
_cell_length_c   9.61371805
_cell_angle_alpha   90.00000000
_cell_angle_beta   90.00000000
_cell_angle_gamma   90.00000000
_symmetry_Int_Tables_number   1
_chemical_formula_structural   RbGeB3O7
_chemical_formula_sum   'Rb4 Ge4 B12 O28'
_cell_volume   643.46388523
_cell_formula_units_Z   4
loop_
 _symmetry_equiv_pos_site_id
 _symmetry_equiv_pos_as_xyz
  1  'x, y, z'
loop_
 _atom_site_type_symbol
 _atom_site_label
 _atom_site_symmetry_multiplicity
 _atom_site_fract_x
 _atom_site_fract_y
 _atom_site_fract_z
 _atom_site_occupancy
  Rb  Rb0  1  0.75412958  0.51463725  0.17435778  1
  Rb  Rb1  1  0.25412958  0.48536275  0.82564222  1
  Rb  Rb2  1  0.25412958  0.98536275  0.67435778  1
  Rb  Rb3  1  0.75412958  0.01463725  0.32564222  1
  Ge  Ge4  1  0.27066432  0.75697604  0.10014220  1
  Ge  Ge5  1  0.77066432  0.24302396  0.89985780  1
  Ge  Ge6  1  0.77066432  0.74302396  0.60014220  1
  Ge  Ge7  1  0.27066432  0.25697604  0.39985780  1
  B  B8  1  0.30517806  0.52523740  0.27693537  1
  B  B9  1  0.80517806  0.47476260  0.72306463  1
  B  B10  1  0.80517806  0.97476260  0.77693537  1
  B  B11  1  0.30517806  0.02523740  0.22306463  1
  B  B12  1  0.89669908  0.82283645  0.98126599  1
  B  B13  1  0.39669908  0.17716355  0.01873401  1
  B  B14  1  0.39669908  0.67716355  0.48126599  1
  B  B15  1  0.89669908  0.32283645  0.51873401  1
  B  B16  1  0.56579027  0.84893035  0.92551623  1
  B  B17  1  0.06579027  0.15106965  0.07448377  1
  B  B18  1  0.06579027  0.65106965  0.42551623  1
  B  B19  1  0.56579027  0.34893035  0.57448377  1
  O  O20  1  0.60903291  0.93782285  0.81898771  1
  O  O21  1  0.10903291  0.06217715  0.18101229  1
  O  O22  1  0.10903291  0.56217715  0.31898771  1
  O  O23  1  0.60903291  0.43782285  0.68101229  1
  O  O24  1  0.70516453  0.79625975  0.01410857  1
  O  O25  1  0.20516453  0.20374025  0.98589143  1
  O  O26  1  0.20516453  0.70374025  0.51410857  1
  O  O27  1  0.70516453  0.29625975  0.48589143  1
  O  O28  1  0.44536322  0.58452583  0.37938922  1
  O  O29  1  0.94536322  0.41547417  0.62061078  1
  O  O30  1  0.94536322  0.91547417  0.87938922  1
  O  O31  1  0.44536322  0.08452583  0.12061078  1
  O  O32  1  0.02224865  0.74894060  0.06389485  1
  O  O33  1  0.52224865  0.25105940  0.93610515  1
  O  O34  1  0.52224865  0.75105940  0.56389485  1
  O  O35  1  0.02224865  0.24894060  0.43610515  1
  O  O36  1  0.37839399  0.80757634  0.93914194  1
  O  O37  1  0.87839399  0.19242366  0.06085806  1
  O  O38  1  0.87839399  0.69242366  0.43914194  1
  O  O39  1  0.37839399  0.30757634  0.56085806  1
  O  O40  1  0.34434534  0.58384569  0.13614136  1
  O  O41  1  0.84434534  0.41615431  0.86385864  1
  O  O42  1  0.84434534  0.91615431  0.63614136  1
  O  O43  1  0.34434534  0.08384569  0.36385864  1
  O  O44  1  0.32877004  0.87219305  0.23583540  1
  O  O45  1  0.82877004  0.12780695  0.76416460  1
  O  O46  1  0.82877004  0.62780695  0.73583540  1
  O  O47  1  0.32877004  0.37219305  0.26416460  1
