# generated using pymatgen
data_Tb(BRu)4
_symmetry_space_group_name_H-M   'P 1'
_cell_length_a   7.49390112
_cell_length_b   7.49390112
_cell_length_c   9.19092687
_cell_angle_alpha   114.05913471
_cell_angle_beta   114.05913471
_cell_angle_gamma   90.00000000
_symmetry_Int_Tables_number   1
_chemical_formula_structural   Tb(BRu)4
_chemical_formula_sum   'Tb4 B16 Ru16'
_cell_volume   421.72740776
_cell_formula_units_Z   4
loop_
 _symmetry_equiv_pos_site_id
 _symmetry_equiv_pos_as_xyz
  1  'x, y, z'
loop_
 _atom_site_type_symbol
 _atom_site_label
 _atom_site_symmetry_multiplicity
 _atom_site_fract_x
 _atom_site_fract_y
 _atom_site_fract_z
 _atom_site_occupancy
  Tb  Tb0  1  0.12500000  0.37500000  0.25000000  1
  Tb  Tb1  1  0.62500000  0.87500000  0.25000000  1
  Tb  Tb2  1  0.87500000  0.62500000  0.75000000  1
  Tb  Tb3  1  0.37500000  0.12500000  0.75000000  1
  B  B4  1  0.78707610  0.34503494  0.91258287  1
  B  B5  1  0.62550678  0.84503494  0.91258287  1
  B  B6  1  0.84503494  0.28707610  0.41258287  1
  B  B7  1  0.06754794  0.78707610  0.41258287  1
  B  B8  1  0.21292390  0.65496506  0.08741713  1
  B  B9  1  0.37449322  0.15496506  0.08741713  1
  B  B10  1  0.15496506  0.71292390  0.58741713  1
  B  B11  1  0.93245206  0.21292390  0.58741713  1
  B  B12  1  0.28707610  0.56754794  0.91258287  1
  B  B13  1  0.12550678  0.06754794  0.91258287  1
  B  B14  1  0.34503494  0.12550678  0.41258287  1
  B  B15  1  0.56754794  0.62550678  0.41258287  1
  B  B16  1  0.71292390  0.43245206  0.08741713  1
  B  B17  1  0.87449322  0.93245206  0.08741713  1
  B  B18  1  0.65496506  0.87449322  0.58741713  1
  B  B19  1  0.43245206  0.37449322  0.58741713  1
  Ru  Ru20  1  0.94800376  0.66425997  0.12595767  1
  Ru  Ru21  1  0.67795391  0.16425997  0.12595767  1
  Ru  Ru22  1  0.16425997  0.44800376  0.62595767  1
  Ru  Ru23  1  0.96169770  0.94800376  0.62595767  1
  Ru  Ru24  1  0.05199624  0.33574003  0.87404233  1
  Ru  Ru25  1  0.32204609  0.83574003  0.87404233  1
  Ru  Ru26  1  0.83574003  0.55199624  0.37404233  1
  Ru  Ru27  1  0.03830230  0.05199624  0.37404233  1
  Ru  Ru28  1  0.44800376  0.46169770  0.12595767  1
  Ru  Ru29  1  0.17795391  0.96169770  0.12595767  1
  Ru  Ru30  1  0.66425997  0.17795391  0.62595767  1
  Ru  Ru31  1  0.46169770  0.67795391  0.62595767  1
  Ru  Ru32  1  0.55199624  0.53830230  0.87404233  1
  Ru  Ru33  1  0.82204609  0.03830230  0.87404233  1
  Ru  Ru34  1  0.33574003  0.82204609  0.37404233  1
  Ru  Ru35  1  0.53830230  0.32204609  0.37404233  1
