# generated using pymatgen
data_HgS2O7
_symmetry_space_group_name_H-M   'P 1'
_cell_length_a   5.28409353
_cell_length_b   8.43673345
_cell_length_c   13.25262828
_cell_angle_alpha   90.00000000
_cell_angle_beta   90.00000000
_cell_angle_gamma   92.46150000
_symmetry_Int_Tables_number   1
_chemical_formula_structural   HgS2O7
_chemical_formula_sum   'Hg4 S8 O28'
_cell_volume   590.26350947
_cell_formula_units_Z   4
loop_
 _symmetry_equiv_pos_site_id
 _symmetry_equiv_pos_as_xyz
  1  'x, y, z'
loop_
 _atom_site_type_symbol
 _atom_site_label
 _atom_site_symmetry_multiplicity
 _atom_site_fract_x
 _atom_site_fract_y
 _atom_site_fract_z
 _atom_site_occupancy
  Hg  Hg0  1  0.68175279  0.82855335  0.34281350  1
  Hg  Hg1  1  0.18175279  0.32855335  0.15718650  1
  Hg  Hg2  1  0.31824721  0.17144665  0.65718650  1
  Hg  Hg3  1  0.81824721  0.67144665  0.84281350  1
  S  S4  1  0.16831744  0.80731267  0.52095574  1
  S  S5  1  0.66831744  0.30731267  0.97904426  1
  S  S6  1  0.83168256  0.19268733  0.47904426  1
  S  S7  1  0.33168256  0.69268733  0.02095574  1
  S  S8  1  0.16669461  0.90987366  0.17619429  1
  S  S9  1  0.66669461  0.40987366  0.32380571  1
  S  S10  1  0.83330539  0.09012634  0.82380571  1
  S  S11  1  0.33330539  0.59012634  0.67619429  1
  O  O12  1  0.33926331  0.65781558  0.55885943  1
  O  O13  1  0.83926331  0.15781558  0.94114057  1
  O  O14  1  0.66073669  0.34218442  0.44114057  1
  O  O15  1  0.16073669  0.84218442  0.05885943  1
  O  O16  1  0.03392941  0.05661077  0.16479441  1
  O  O17  1  0.53392941  0.55661077  0.33520559  1
  O  O18  1  0.96607059  0.94338923  0.83520559  1
  O  O19  1  0.46607059  0.44338923  0.66479441  1
  O  O20  1  0.02152485  0.78878754  0.23480043  1
  O  O21  1  0.52152485  0.28878754  0.26519957  1
  O  O22  1  0.97847515  0.21121246  0.76519957  1
  O  O23  1  0.47847515  0.71121246  0.73480043  1
  O  O24  1  0.14093068  0.91110400  0.60831166  1
  O  O25  1  0.64093068  0.41110400  0.89168834  1
  O  O26  1  0.85906932  0.08889600  0.39168834  1
  O  O27  1  0.35906932  0.58889600  0.10831166  1
  O  O28  1  0.32564242  0.87716692  0.44024250  1
  O  O29  1  0.82564242  0.37716692  0.05975750  1
  O  O30  1  0.67435758  0.12283308  0.55975750  1
  O  O31  1  0.17435758  0.62283308  0.94024250  1
  O  O32  1  0.92934282  0.73292252  0.48637883  1
  O  O33  1  0.42934282  0.23292252  0.01362117  1
  O  O34  1  0.07065718  0.26707748  0.51362117  1
  O  O35  1  0.57065718  0.76707748  0.98637883  1
  O  O36  1  0.43385593  0.92814223  0.20375509  1
  O  O37  1  0.93385593  0.42814223  0.29624491  1
  O  O38  1  0.56614407  0.07185777  0.79624491  1
  O  O39  1  0.06614407  0.57185777  0.70375509  1
