# generated using pymatgen
data_Pr2USe5
_symmetry_space_group_name_H-M   'P 1'
_cell_length_a   7.89366894
_cell_length_b   8.48254040
_cell_length_c   12.46125342
_cell_angle_alpha   90.00000000
_cell_angle_beta   90.00000000
_cell_angle_gamma   90.00000000
_symmetry_Int_Tables_number   1
_chemical_formula_structural   Pr2USe5
_chemical_formula_sum   'Pr8 U4 Se20'
_cell_volume   834.38516342
_cell_formula_units_Z   4
loop_
 _symmetry_equiv_pos_site_id
 _symmetry_equiv_pos_as_xyz
  1  'x, y, z'
loop_
 _atom_site_type_symbol
 _atom_site_label
 _atom_site_symmetry_multiplicity
 _atom_site_fract_x
 _atom_site_fract_y
 _atom_site_fract_z
 _atom_site_occupancy
  Pr  Pr0  1  0.97089320  0.00143326  0.17778313  1
  Pr  Pr1  1  0.52910680  0.49856674  0.67778313  1
  Pr  Pr2  1  0.02910680  0.50143326  0.82221687  1
  Pr  Pr3  1  0.47089320  0.99856674  0.32221687  1
  Pr  Pr4  1  0.02910680  0.99856674  0.82221687  1
  Pr  Pr5  1  0.47089320  0.50143326  0.32221687  1
  Pr  Pr6  1  0.97089320  0.49856674  0.17778313  1
  Pr  Pr7  1  0.52910680  0.00143326  0.67778313  1
  U  U8  1  0.42595583  0.75000000  0.00947173  1
  U  U9  1  0.07404417  0.75000000  0.50947173  1
  U  U10  1  0.57404417  0.25000000  0.99052827  1
  U  U11  1  0.92595583  0.25000000  0.49052827  1
  Se  Se12  1  0.66687286  0.54479246  0.90838057  1
  Se  Se13  1  0.83312714  0.95520754  0.40838057  1
  Se  Se14  1  0.33312714  0.04479246  0.09161943  1
  Se  Se15  1  0.16687286  0.45520754  0.59161943  1
  Se  Se16  1  0.33312714  0.45520754  0.09161943  1
  Se  Se17  1  0.16687286  0.04479246  0.59161943  1
  Se  Se18  1  0.66687286  0.95520754  0.90838057  1
  Se  Se19  1  0.83312714  0.54479246  0.40838057  1
  Se  Se20  1  0.66716345  0.75000000  0.18640649  1
  Se  Se21  1  0.83283655  0.75000000  0.68640649  1
  Se  Se22  1  0.33283655  0.25000000  0.81359351  1
  Se  Se23  1  0.16716345  0.25000000  0.31359351  1
  Se  Se24  1  0.04311322  0.75000000  0.00014470  1
  Se  Se25  1  0.45688678  0.75000000  0.50014470  1
  Se  Se26  1  0.95688678  0.25000000  0.99985530  1
  Se  Se27  1  0.54311322  0.25000000  0.49985530  1
  Se  Se28  1  0.30723710  0.75000000  0.78396515  1
  Se  Se29  1  0.19276290  0.75000000  0.28396515  1
  Se  Se30  1  0.69276290  0.25000000  0.21603485  1
  Se  Se31  1  0.80723710  0.25000000  0.71603485  1
