# generated using pymatgen
data_Eu3(GeAs2)2
_symmetry_space_group_name_H-M   'P 1'
_cell_length_a   7.46448253
_cell_length_b   7.51939781
_cell_length_c   18.14580429
_cell_angle_alpha   90.00000000
_cell_angle_beta   90.00000000
_cell_angle_gamma   111.37993437
_symmetry_Int_Tables_number   1
_chemical_formula_structural   Eu3(GeAs2)2
_chemical_formula_sum   'Eu12 Ge8 As16'
_cell_volume   948.40597649
_cell_formula_units_Z   4
loop_
 _symmetry_equiv_pos_site_id
 _symmetry_equiv_pos_as_xyz
  1  'x, y, z'
loop_
 _atom_site_type_symbol
 _atom_site_label
 _atom_site_symmetry_multiplicity
 _atom_site_fract_x
 _atom_site_fract_y
 _atom_site_fract_z
 _atom_site_occupancy
  Eu  Eu0  1  0.51231477  0.22126681  0.68439729  1
  Eu  Eu1  1  0.98768523  0.77873319  0.18439729  1
  Eu  Eu2  1  0.48768523  0.77873319  0.31560271  1
  Eu  Eu3  1  0.01231477  0.22126681  0.81560271  1
  Eu  Eu4  1  0.51095400  0.25405996  0.93812804  1
  Eu  Eu5  1  0.98904600  0.74594004  0.43812804  1
  Eu  Eu6  1  0.48904600  0.74594004  0.06187196  1
  Eu  Eu7  1  0.01095400  0.25405996  0.56187196  1
  Eu  Eu8  1  0.50099766  0.26016115  0.43965328  1
  Eu  Eu9  1  0.99900234  0.73983885  0.93965328  1
  Eu  Eu10  1  0.49900234  0.73983885  0.56034672  1
  Eu  Eu11  1  0.00099766  0.26016115  0.06034672  1
  Ge  Ge12  1  0.53045775  0.20862443  0.12653817  1
  Ge  Ge13  1  0.96954225  0.79137557  0.62653817  1
  Ge  Ge14  1  0.46954225  0.79137557  0.87346183  1
  Ge  Ge15  1  0.03045775  0.20862443  0.37346183  1
  Ge  Ge16  1  0.91547008  0.31549863  0.25860066  1
  Ge  Ge17  1  0.58452992  0.68450137  0.75860066  1
  Ge  Ge18  1  0.08452992  0.68450137  0.74139934  1
  Ge  Ge19  1  0.41547008  0.31549863  0.24139934  1
  As  As20  1  0.74671446  0.00336809  0.44164177  1
  As  As21  1  0.75328554  0.99663191  0.94164177  1
  As  As22  1  0.25328554  0.99663191  0.55835823  1
  As  As23  1  0.24671446  0.00336809  0.05835823  1
  As  As24  1  0.72279002  0.02819462  0.18562881  1
  As  As25  1  0.77720998  0.97180538  0.68562881  1
  As  As26  1  0.27720998  0.97180538  0.81437119  1
  As  As27  1  0.22279002  0.02819462  0.31437119  1
  As  As28  1  0.74521398  0.50262129  0.06545385  1
  As  As29  1  0.75478602  0.49737871  0.56545385  1
  As  As30  1  0.25478602  0.49737871  0.93454615  1
  As  As31  1  0.24521398  0.50262129  0.43454615  1
  As  As32  1  0.72674811  0.50963984  0.30495757  1
  As  As33  1  0.77325189  0.49036016  0.80495757  1
  As  As34  1  0.27325189  0.49036016  0.69504243  1
  As  As35  1  0.22674811  0.50963984  0.19504243  1
