# generated using pymatgen
data_Rb3P3H5N
_symmetry_space_group_name_H-M   'P 1'
_cell_length_a   9.74477293
_cell_length_b   13.06342876
_cell_length_c   15.41759369
_cell_angle_alpha   90.00000000
_cell_angle_beta   90.00000000
_cell_angle_gamma   90.00000000
_symmetry_Int_Tables_number   1
_chemical_formula_structural   Rb3P3H5N
_chemical_formula_sum   'Rb24 P24 H40 N8'
_cell_volume   1962.66194241
_cell_formula_units_Z   8
loop_
 _symmetry_equiv_pos_site_id
 _symmetry_equiv_pos_as_xyz
  1  'x, y, z'
loop_
 _atom_site_type_symbol
 _atom_site_label
 _atom_site_symmetry_multiplicity
 _atom_site_fract_x
 _atom_site_fract_y
 _atom_site_fract_z
 _atom_site_occupancy
  Rb  Rb0  1  0.89820670  0.91139837  0.10797288  1
  Rb  Rb1  1  0.60179330  0.41139837  0.89202712  1
  Rb  Rb2  1  0.39820670  0.08860163  0.39202712  1
  Rb  Rb3  1  0.10179330  0.58860163  0.60797288  1
  Rb  Rb4  1  0.10179330  0.08860163  0.89202712  1
  Rb  Rb5  1  0.39820670  0.58860163  0.10797288  1
  Rb  Rb6  1  0.60179330  0.91139837  0.60797288  1
  Rb  Rb7  1  0.89820670  0.41139837  0.39202712  1
  Rb  Rb8  1  0.05976176  0.58831199  0.90576808  1
  Rb  Rb9  1  0.44023824  0.08831199  0.09423192  1
  Rb  Rb10  1  0.55976176  0.41168801  0.59423192  1
  Rb  Rb11  1  0.94023824  0.91168801  0.40576808  1
  Rb  Rb12  1  0.94023824  0.41168801  0.09423192  1
  Rb  Rb13  1  0.55976176  0.91168801  0.90576808  1
  Rb  Rb14  1  0.44023824  0.58831199  0.40576808  1
  Rb  Rb15  1  0.05976176  0.08831199  0.59423192  1
  Rb  Rb16  1  0.76611452  0.17210474  0.23742442  1
  Rb  Rb17  1  0.73388548  0.67210474  0.76257558  1
  Rb  Rb18  1  0.26611452  0.82789526  0.26257558  1
  Rb  Rb19  1  0.23388548  0.32789526  0.73742442  1
  Rb  Rb20  1  0.23388548  0.82789526  0.76257558  1
  Rb  Rb21  1  0.26611452  0.32789526  0.23742442  1
  Rb  Rb22  1  0.73388548  0.17210474  0.73742442  1
  Rb  Rb23  1  0.76611452  0.67210474  0.26257558  1
  P  P24  1  0.04673355  0.16064317  0.35933564  1
  P  P25  1  0.45326645  0.66064317  0.64066436  1
  P  P26  1  0.54673355  0.83935683  0.14066436  1
  P  P27  1  0.95326645  0.33935683  0.85933564  1
  P  P28  1  0.95326645  0.83935683  0.64066436  1
  P  P29  1  0.54673355  0.33935683  0.35933564  1
  P  P30  1  0.45326645  0.16064317  0.85933564  1
  P  P31  1  0.04673355  0.66064317  0.14066436  1
  P  P32  1  0.12802351  0.07644364  0.24443673  1
  P  P33  1  0.37197649  0.57644364  0.75556327  1
  P  P34  1  0.62802351  0.92355636  0.25556327  1
  P  P35  1  0.87197649  0.42355636  0.74443673  1
  P  P36  1  0.87197649  0.92355636  0.75556327  1
  P  P37  1  0.62802351  0.42355636  0.24443673  1
  P  P38  1  0.37197649  0.07644364  0.74443673  1
  P  P39  1  0.12802351  0.57644364  0.25556327  1
  P  P40  1  0.06647798  0.14508171  0.11836337  1
  P  P41  1  0.43352202  0.64508171  0.88163663  1
  P  P42  1  0.56647798  0.85491829  0.38163663  1
  P  P43  1  0.93352202  0.35491829  0.61836337  1
  P  P44  1  0.93352202  0.85491829  0.88163663  1
  P  P45  1  0.56647798  0.35491829  0.11836337  1
  P  P46  1  0.43352202  0.14508171  0.61836337  1
  P  P47  1  0.06647798  0.64508171  0.38163663  1
  H  H48  1  0.15828052  0.22497106  0.39045666  1
  H  H49  1  0.34171948  0.72497106  0.60954334  1
  H  H50  1  0.65828052  0.77502894  0.10954334  1
  H  H51  1  0.84171948  0.27502894  0.89045666  1
  H  H52  1  0.84171948  0.77502894  0.60954334  1
  H  H53  1  0.65828052  0.27502894  0.39045666  1
  H  H54  1  0.34171948  0.22497106  0.89045666  1
  H  H55  1  0.15828052  0.72497106  0.10954334  1
  H  H56  1  0.17672159  0.21409223  0.09200135  1
  H  H57  1  0.32327841  0.71409223  0.90799865  1
  H  H58  1  0.67672159  0.78590777  0.40799865  1
  H  H59  1  0.82327841  0.28590777  0.59200135  1
  H  H60  1  0.82327841  0.78590777  0.90799865  1
  H  H61  1  0.67672159  0.28590777  0.09200135  1
  H  H62  1  0.32327841  0.21409223  0.59200135  1
  H  H63  1  0.17672159  0.71409223  0.40799865  1
  H  H64  1  0.82648326  0.13587919  0.02613134  1
  H  H65  1  0.67351674  0.63587919  0.97386866  1
  H  H66  1  0.32648326  0.86412081  0.47386866  1
  H  H67  1  0.17351674  0.36412081  0.52613134  1
  H  H68  1  0.17351674  0.86412081  0.97386866  1
  H  H69  1  0.32648326  0.36412081  0.02613134  1
  H  H70  1  0.67351674  0.13587919  0.52613134  1
  H  H71  1  0.82648326  0.63587919  0.47386866  1
  H  H72  1  0.79762663  0.04835713  0.95197539  1
  H  H73  1  0.70237337  0.54835713  0.04802461  1
  H  H74  1  0.29762663  0.95164287  0.54802461  1
  H  H75  1  0.20237337  0.45164287  0.45197539  1
  H  H76  1  0.20237337  0.95164287  0.04802461  1
  H  H77  1  0.29762663  0.45164287  0.95197539  1
  H  H78  1  0.70237337  0.04835713  0.45197539  1
  H  H79  1  0.79762663  0.54835713  0.54802461  1
  H  H80  1  0.68735032  0.14352606  0.96391258  1
  H  H81  1  0.81264968  0.64352606  0.03608742  1
  H  H82  1  0.18735032  0.85647394  0.53608742  1
  H  H83  1  0.31264968  0.35647394  0.46391258  1
  H  H84  1  0.31264968  0.85647394  0.03608742  1
  H  H85  1  0.18735032  0.35647394  0.96391258  1
  H  H86  1  0.81264968  0.14352606  0.46391258  1
  H  H87  1  0.68735032  0.64352606  0.53608742  1
  N  N88  1  0.74987241  0.09350083  0.99751787  1
  N  N89  1  0.75012759  0.59350083  0.00248213  1
  N  N90  1  0.24987241  0.90649917  0.50248213  1
  N  N91  1  0.25012759  0.40649917  0.49751787  1
  N  N92  1  0.25012759  0.90649917  0.00248213  1
  N  N93  1  0.24987241  0.40649917  0.99751787  1
  N  N94  1  0.75012759  0.09350083  0.49751787  1
  N  N95  1  0.74987241  0.59350083  0.50248213  1
