# generated using pymatgen
data_K2SrVB5O12
_symmetry_space_group_name_H-M   'P 1'
_cell_length_a   6.72399266
_cell_length_b   8.57450336
_cell_length_c   10.09677061
_cell_angle_alpha   90.00000000
_cell_angle_beta   99.80981652
_cell_angle_gamma   90.00000000
_symmetry_Int_Tables_number   1
_chemical_formula_structural   K2SrVB5O12
_chemical_formula_sum   'K4 Sr2 V2 B10 O24'
_cell_volume   573.61681673
_cell_formula_units_Z   2
loop_
 _symmetry_equiv_pos_site_id
 _symmetry_equiv_pos_as_xyz
  1  'x, y, z'
loop_
 _atom_site_type_symbol
 _atom_site_label
 _atom_site_symmetry_multiplicity
 _atom_site_fract_x
 _atom_site_fract_y
 _atom_site_fract_z
 _atom_site_occupancy
  K  K0  1  0.39876392  0.34306211  0.59650497  1
  K  K1  1  0.60123608  0.84306211  0.40349503  1
  K  K2  1  0.66712063  0.42840303  0.25896854  1
  K  K3  1  0.33287937  0.92840303  0.74103146  1
  Sr  Sr4  1  0.07185982  0.81035209  0.02810986  1
  Sr  Sr5  1  0.92814018  0.31035209  0.97189014  1
  V  V6  1  0.15911689  0.59928904  0.30757359  1
  V  V7  1  0.84088311  0.09928904  0.69242641  1
  B  B8  1  0.15991548  0.56586389  0.80055713  1
  B  B9  1  0.84008452  0.06586389  0.19944287  1
  B  B10  1  0.37821796  0.35847212  0.92976377  1
  B  B11  1  0.62178204  0.85847212  0.07023623  1
  B  B12  1  0.51970577  0.62153190  0.90604394  1
  B  B13  1  0.48029423  0.12153190  0.09395606  1
  B  B14  1  0.21960650  0.11703772  0.25625129  1
  B  B15  1  0.78039350  0.61703772  0.74374871  1
  B  B16  1  0.97692364  0.60358469  0.56392212  1
  B  B17  1  0.02307636  0.10358469  0.43607788  1
  O  O18  1  0.04430843  0.51704981  0.15708585  1
  O  O19  1  0.95569157  0.01704981  0.84291415  1
  O  O20  1  0.95544386  0.59863949  0.83761905  1
  O  O21  1  0.04455614  0.09863949  0.16238095  1
  O  O22  1  0.20840369  0.12343527  0.39345817  1
  O  O23  1  0.79159631  0.62343527  0.60654183  1
  O  O24  1  0.97180082  0.60202271  0.42748818  1
  O  O25  1  0.02819918  0.10202271  0.57251182  1
  O  O26  1  0.23014742  0.78276625  0.26984123  1
  O  O27  1  0.76985258  0.28276625  0.73015877  1
  O  O28  1  0.15212746  0.58992859  0.65448364  1
  O  O29  1  0.84787254  0.08992859  0.34551636  1
  O  O30  1  0.30518247  0.66706361  0.88313107  1
  O  O31  1  0.69481753  0.16706361  0.11686893  1
  O  O32  1  0.36953104  0.50263205  0.37573739  1
  O  O33  1  0.63046896  0.00263205  0.62426261  1
  O  O34  1  0.20968844  0.40018150  0.83605544  1
  O  O35  1  0.79031156  0.90018150  0.16394456  1
  O  O36  1  0.54395689  0.45491648  0.95718715  1
  O  O37  1  0.45604311  0.95491648  0.04281285  1
  O  O38  1  0.40496079  0.13383721  0.22263833  1
  O  O39  1  0.59503921  0.63383721  0.77736167  1
  O  O40  1  0.35906427  0.21851043  0.99067907  1
  O  O41  1  0.64093573  0.71851043  0.00932093  1
