# generated using pymatgen
data_Rb2PH4Se3O2
_symmetry_space_group_name_H-M   'P 1'
_cell_length_a   7.70262696
_cell_length_b   9.96975884
_cell_length_c   12.68311290
_cell_angle_alpha   90.00000000
_cell_angle_beta   90.00000000
_cell_angle_gamma   90.00000000
_symmetry_Int_Tables_number   1
_chemical_formula_structural   Rb2PH4Se3O2
_chemical_formula_sum   'Rb8 P4 H16 Se12 O8'
_cell_volume   973.97851527
_cell_formula_units_Z   4
loop_
 _symmetry_equiv_pos_site_id
 _symmetry_equiv_pos_as_xyz
  1  'x, y, z'
loop_
 _atom_site_type_symbol
 _atom_site_label
 _atom_site_symmetry_multiplicity
 _atom_site_fract_x
 _atom_site_fract_y
 _atom_site_fract_z
 _atom_site_occupancy
  Rb  Rb0  1  0.00000000  -0.00000000  0.00000000  1
  Rb  Rb1  1  0.50000000  0.50000000  0.50000000  1
  Rb  Rb2  1  0.50000000  -0.00000000  0.00000000  1
  Rb  Rb3  1  0.00000000  0.50000000  0.50000000  1
  Rb  Rb4  1  0.50000000  0.39625404  0.15778895  1
  Rb  Rb5  1  0.50000000  0.60374596  0.84221105  1
  Rb  Rb6  1  0.00000000  0.89625404  0.34221105  1
  Rb  Rb7  1  0.00000000  0.10374596  0.65778895  1
  P  P8  1  0.00000000  0.38442959  0.00819898  1
  P  P9  1  0.00000000  0.61557041  0.99180102  1
  P  P10  1  0.50000000  0.88442959  0.49180102  1
  P  P11  1  0.50000000  0.11557041  0.50819898  1
  H  H12  1  0.79704728  0.85010251  0.80822186  1
  H  H13  1  0.79704728  0.14989749  0.19177814  1
  H  H14  1  0.70295272  0.35010251  0.69177814  1
  H  H15  1  0.70295272  0.64989749  0.30822186  1
  H  H16  1  0.20295272  0.14989749  0.19177814  1
  H  H17  1  0.20295272  0.85010251  0.80822186  1
  H  H18  1  0.29704728  0.64989749  0.30822186  1
  H  H19  1  0.29704728  0.35010251  0.69177814  1
  H  H20  1  0.67942669  0.96935253  0.76857903  1
  H  H21  1  0.67942669  0.03064747  0.23142097  1
  H  H22  1  0.82057331  0.46935253  0.73142097  1
  H  H23  1  0.82057331  0.53064747  0.26857903  1
  H  H24  1  0.32057331  0.03064747  0.23142097  1
  H  H25  1  0.32057331  0.96935253  0.76857903  1
  H  H26  1  0.17942669  0.53064747  0.26857903  1
  H  H27  1  0.17942669  0.46935253  0.73142097  1
  Se  Se28  1  0.23778173  0.31109001  0.93210985  1
  Se  Se29  1  0.23778173  0.68890999  0.06789015  1
  Se  Se30  1  0.26221827  0.81109001  0.56789015  1
  Se  Se31  1  0.26221827  0.18890999  0.43210985  1
  Se  Se32  1  0.76221827  0.68890999  0.06789015  1
  Se  Se33  1  0.76221827  0.31109001  0.93210985  1
  Se  Se34  1  0.73778173  0.18890999  0.43210985  1
  Se  Se35  1  0.73778173  0.81109001  0.56789015  1
  Se  Se36  1  0.00000000  0.34769358  0.18258109  1
  Se  Se37  1  -0.00000000  0.65230642  0.81741891  1
  Se  Se38  1  0.50000000  0.84769358  0.31741891  1
  Se  Se39  1  0.50000000  0.15230642  0.68258109  1
  O  O40  1  0.74503587  0.93610814  0.83033877  1
  O  O41  1  0.74503587  0.06389186  0.16966123  1
  O  O42  1  0.75496413  0.43610814  0.66966123  1
  O  O43  1  0.75496413  0.56389186  0.33033877  1
  O  O44  1  0.25496413  0.06389186  0.16966123  1
  O  O45  1  0.25496413  0.93610814  0.83033877  1
  O  O46  1  0.24503587  0.56389186  0.33033877  1
  O  O47  1  0.24503587  0.43610814  0.66966123  1
