# generated using pymatgen
data_NaLiNiPO4F
_symmetry_space_group_name_H-M   'P 1'
_cell_length_a   5.07851865
_cell_length_b   6.84765675
_cell_length_c   11.29737435
_cell_angle_alpha   90.00000000
_cell_angle_beta   90.00000000
_cell_angle_gamma   89.73857397
_symmetry_Int_Tables_number   1
_chemical_formula_structural   NaLiNiPO4F
_chemical_formula_sum   'Na4 Li4 Ni4 P4 O16 F4'
_cell_volume   392.87286423
_cell_formula_units_Z   4
loop_
 _symmetry_equiv_pos_site_id
 _symmetry_equiv_pos_as_xyz
  1  'x, y, z'
loop_
 _atom_site_type_symbol
 _atom_site_label
 _atom_site_symmetry_multiplicity
 _atom_site_fract_x
 _atom_site_fract_y
 _atom_site_fract_z
 _atom_site_occupancy
  Na  Na0  1  0.24819627  0.50970547  0.33489056  1
  Na  Na1  1  0.25180373  0.49029453  0.83489056  1
  Na  Na2  1  0.75180373  0.49029453  0.66510944  1
  Na  Na3  1  0.74819627  0.50970547  0.16510944  1
  Li  Li4  1  0.73401004  0.74486596  0.41837986  1
  Li  Li5  1  0.76598996  0.25513404  0.91837986  1
  Li  Li6  1  0.26598996  0.25513404  0.58162014  1
  Li  Li7  1  0.23401004  0.74486596  0.08162014  1
  Ni  Ni8  1  0.26577670  0.98030712  0.32786855  1
  Ni  Ni9  1  0.23422330  0.01969288  0.82786855  1
  Ni  Ni10  1  0.73422330  0.01969288  0.67213145  1
  Ni  Ni11  1  0.76577670  0.98030712  0.17213145  1
  P  P12  1  0.27438253  0.24350786  0.08180982  1
  P  P13  1  0.22561747  0.75649214  0.58180982  1
  P  P14  1  0.72561747  0.75649214  0.91819018  1
  P  P15  1  0.77438253  0.24350786  0.41819018  1
  O  O16  1  0.73743183  0.45555647  0.37580301  1
  O  O17  1  0.76256817  0.54444353  0.87580301  1
  O  O18  1  0.26256817  0.54444353  0.62419699  1
  O  O19  1  0.23743183  0.45555647  0.12419699  1
  O  O20  1  0.13672548  0.10229401  0.17095235  1
  O  O21  1  0.36327452  0.89770599  0.67095235  1
  O  O22  1  0.86327452  0.89770599  0.82904765  1
  O  O23  1  0.63672548  0.10229401  0.32904765  1
  O  O24  1  0.07526358  0.19473588  0.42624429  1
  O  O25  1  0.42473642  0.80526412  0.92624429  1
  O  O26  1  0.92473642  0.80526412  0.57375571  1
  O  O27  1  0.57526358  0.19473588  0.07375571  1
  O  O28  1  0.64336572  0.21633266  0.54140703  1
  O  O29  1  0.85663428  0.78366734  0.04140703  1
  O  O30  1  0.35663428  0.78366734  0.45859297  1
  O  O31  1  0.14336572  0.21633266  0.95859297  1
  F  F32  1  0.96502076  0.78962321  0.28656262  1
  F  F33  1  0.53497924  0.21037679  0.78656262  1
  F  F34  1  0.03497924  0.21037679  0.71343738  1
  F  F35  1  0.46502076  0.78962321  0.21343738  1
