# generated using pymatgen
data_Er6Co30P19
_symmetry_space_group_name_H-M   'P 1'
_cell_length_a   3.56943714
_cell_length_b   14.68507439
_cell_length_c   14.68507439
_cell_angle_alpha   119.99999969
_cell_angle_beta   90.00000000
_cell_angle_gamma   90.00000000
_symmetry_Int_Tables_number   1
_chemical_formula_structural   Er6Co30P19
_chemical_formula_sum   'Er6 Co30 P19'
_cell_volume   666.62665216
_cell_formula_units_Z   1
loop_
 _symmetry_equiv_pos_site_id
 _symmetry_equiv_pos_as_xyz
  1  'x, y, z'
loop_
 _atom_site_type_symbol
 _atom_site_label
 _atom_site_symmetry_multiplicity
 _atom_site_fract_x
 _atom_site_fract_y
 _atom_site_fract_z
 _atom_site_occupancy
  Er  Er0  1  0.50000000  0.29524162  0.90275277  1
  Er  Er1  1  0.50000000  0.09724723  0.39248885  1
  Er  Er2  1  0.50000000  0.60751115  0.70475838  1
  Er  Er3  1  0.00000000  0.70478886  0.09727307  1
  Er  Er4  1  -0.00000000  0.90272693  0.60751579  1
  Er  Er5  1  0.00000000  0.39248421  0.29521114  1
  Co  Co6  1  0.50000000  0.42717182  0.77507232  1
  Co  Co7  1  0.50000000  0.22492768  0.65209950  1
  Co  Co8  1  0.50000000  0.34790050  0.57282818  1
  Co  Co9  1  0.00000000  0.57291022  0.22495276  1
  Co  Co10  1  0.00000000  0.77504724  0.34795746  1
  Co  Co11  1  -0.00000000  0.65204254  0.42708978  1
  Co  Co12  1  0.50000000  0.53711664  0.07363884  1
  Co  Co13  1  0.50000000  0.92636116  0.46347779  1
  Co  Co14  1  0.50000000  0.53652221  0.46288336  1
  Co  Co15  1  -0.00000000  0.46193919  0.92622930  1
  Co  Co16  1  0.00000000  0.07377070  0.53570988  1
  Co  Co17  1  0.00000000  0.46429012  0.53806081  1
  Co  Co18  1  0.50000000  0.04480685  0.77379620  1
  Co  Co19  1  0.50000000  0.22620380  0.27101065  1
  Co  Co20  1  0.50000000  0.72898935  0.95519315  1
  Co  Co21  1  0.00000000  0.95091685  0.22475490  1
  Co  Co22  1  0.00000000  0.77524510  0.72616195  1
  Co  Co23  1  -0.00000000  0.27383805  0.04908315  1
  Co  Co24  1  0.50000000  0.73427563  0.58339926  1
  Co  Co25  1  0.50000000  0.41660074  0.15087637  1
  Co  Co26  1  0.50000000  0.84912363  0.26572437  1
  Co  Co27  1  0.00000000  0.26583026  0.41551502  1
  Co  Co28  1  -0.00000000  0.58448498  0.85031524  1
  Co  Co29  1  -0.00000000  0.14968476  0.73416974  1
  Co  Co30  1  0.50000000  0.12955422  0.97180096  1
  Co  Co31  1  0.50000000  0.02819904  0.15775326  1
  Co  Co32  1  0.50000000  0.84224674  0.87044578  1
  Co  Co33  1  0.00000000  0.88759574  0.02489046  1
  Co  Co34  1  0.00000000  0.97510954  0.86270529  1
  Co  Co35  1  -0.00000000  0.13729471  0.11240426  1
  P  P36  1  0.50000000  0.68257481  0.23182541  1
  P  P37  1  0.50000000  0.76817459  0.45074940  1
  P  P38  1  0.50000000  0.54925060  0.31742519  1
  P  P39  1  0.00000000  0.31644537  0.76773533  1
  P  P40  1  -0.00000000  0.23226467  0.54871004  1
  P  P41  1  0.00000000  0.45128996  0.68355463  1
  P  P42  1  0.50000000  0.87934324  0.74355817  1
  P  P43  1  0.50000000  0.25644183  0.13578507  1
  P  P44  1  0.50000000  0.86421493  0.12065676  1
  P  P45  1  -0.00000000  0.12085309  0.25541940  1
  P  P46  1  -0.00000000  0.74458060  0.86543369  1
  P  P47  1  0.00000000  0.13456631  0.87914691  1
  P  P48  1  0.50000000  0.06209565  0.62931853  1
  P  P49  1  0.50000000  0.37068147  0.43277712  1
  P  P50  1  0.50000000  0.56722288  0.93790435  1
  P  P51  1  0.00000000  0.93728147  0.37060420  1
  P  P52  1  -0.00000000  0.62939580  0.56667727  1
  P  P53  1  -0.00000000  0.43332273  0.06271853  1
  P  P54  1  0.50000000  0.00000000  0.00000000  1
