# generated using pymatgen
data_CaC2(NO)2
_symmetry_space_group_name_H-M   'P 1'
_cell_length_a   7.82623536
_cell_length_b   7.82623536
_cell_length_c   7.82623570
_cell_angle_alpha   95.49460804
_cell_angle_beta   95.49460804
_cell_angle_gamma   95.49460338
_symmetry_Int_Tables_number   1
_chemical_formula_structural   CaC2(NO)2
_chemical_formula_sum   'Ca6 C12 N12 O12'
_cell_volume   472.29128778
_cell_formula_units_Z   6
loop_
 _symmetry_equiv_pos_site_id
 _symmetry_equiv_pos_as_xyz
  1  'x, y, z'
loop_
 _atom_site_type_symbol
 _atom_site_label
 _atom_site_symmetry_multiplicity
 _atom_site_fract_x
 _atom_site_fract_y
 _atom_site_fract_z
 _atom_site_occupancy
  Ca  Ca0  1  0.03707631  0.75125638  0.38611204  1
  Ca  Ca1  1  0.75125638  0.38611204  0.03707631  1
  Ca  Ca2  1  0.38611204  0.03707631  0.75125638  1
  Ca  Ca3  1  0.53707631  0.88611204  0.25125638  1
  Ca  Ca4  1  0.88611204  0.25125638  0.53707631  1
  Ca  Ca5  1  0.25125638  0.53707631  0.88611204  1
  C  C6  1  0.59563401  0.55350317  0.37866504  1
  C  C7  1  0.55350317  0.37866504  0.59563401  1
  C  C8  1  0.37866504  0.59563401  0.55350317  1
  C  C9  1  0.09563401  0.87866504  0.05350317  1
  C  C10  1  0.87866504  0.05350317  0.09563401  1
  C  C11  1  0.05350317  0.09563401  0.87866504  1
  C  C12  1  0.76716026  0.85548975  0.62739212  1
  C  C13  1  0.85548975  0.62739212  0.76716026  1
  C  C14  1  0.62739212  0.76716026  0.85548975  1
  C  C15  1  0.26716026  0.12739212  0.35548975  1
  C  C16  1  0.12739212  0.35548975  0.26716026  1
  C  C17  1  0.35548975  0.26716026  0.12739212  1
  N  N18  1  0.64302659  0.41875012  0.46159339  1
  N  N19  1  0.41875012  0.46159339  0.64302659  1
  N  N20  1  0.46159339  0.64302659  0.41875012  1
  N  N21  1  0.14302659  0.96159339  0.91875012  1
  N  N22  1  0.96159339  0.91875012  0.14302659  1
  N  N23  1  0.91875012  0.14302659  0.96159339  1
  N  N24  1  0.87789848  0.73314396  0.64250744  1
  N  N25  1  0.73314396  0.64250744  0.87789848  1
  N  N26  1  0.64250744  0.87789848  0.73314396  1
  N  N27  1  0.37789848  0.14250744  0.23314396  1
  N  N28  1  0.14250744  0.23314396  0.37789848  1
  N  N29  1  0.23314396  0.37789848  0.14250744  1
  O  O30  1  0.68215373  0.60721534  0.25660928  1
  O  O31  1  0.60721534  0.25660928  0.68215373  1
  O  O32  1  0.25660928  0.68215373  0.60721534  1
  O  O33  1  0.18215373  0.75660928  0.10721534  1
  O  O34  1  0.75660928  0.10721534  0.18215373  1
  O  O35  1  0.10721534  0.18215373  0.75660928  1
  O  O36  1  0.78236983  0.94935240  0.49998033  1
  O  O37  1  0.94935240  0.49998033  0.78236983  1
  O  O38  1  0.49998033  0.78236983  0.94935240  1
  O  O39  1  0.28236983  0.99998033  0.44935240  1
  O  O40  1  0.99998033  0.44935240  0.28236983  1
  O  O41  1  0.44935240  0.28236983  0.99998033  1
