# generated using pymatgen
data_Ho2B6Os
_symmetry_space_group_name_H-M   'P 1'
_cell_length_a   3.64957442
_cell_length_b   9.13437098
_cell_length_c   11.51279788
_cell_angle_alpha   90.00000000
_cell_angle_beta   90.00000000
_cell_angle_gamma   90.00000000
_symmetry_Int_Tables_number   1
_chemical_formula_structural   Ho2B6Os
_chemical_formula_sum   'Ho8 B24 Os4'
_cell_volume   383.79715410
_cell_formula_units_Z   4
loop_
 _symmetry_equiv_pos_site_id
 _symmetry_equiv_pos_as_xyz
  1  'x, y, z'
loop_
 _atom_site_type_symbol
 _atom_site_label
 _atom_site_symmetry_multiplicity
 _atom_site_fract_x
 _atom_site_fract_y
 _atom_site_fract_z
 _atom_site_occupancy
  Ho  Ho0  1  0.00000000  0.32189704  0.41373156  1
  Ho  Ho1  1  0.00000000  0.67810296  0.58626844  1
  Ho  Ho2  1  -0.00000000  0.82189704  0.08626844  1
  Ho  Ho3  1  0.00000000  0.17810296  0.91373156  1
  Ho  Ho4  1  0.00000000  0.94500620  0.37338366  1
  Ho  Ho5  1  0.00000000  0.05499380  0.62661634  1
  Ho  Ho6  1  -0.00000000  0.44500620  0.12661634  1
  Ho  Ho7  1  0.00000000  0.55499380  0.87338366  1
  B  B8  1  0.50000000  0.55407481  0.43324609  1
  B  B9  1  0.50000000  0.44592519  0.56675391  1
  B  B10  1  0.50000000  0.05407481  0.06675391  1
  B  B11  1  0.50000000  0.94592519  0.93324609  1
  B  B12  1  0.50000000  0.74848153  0.42074089  1
  B  B13  1  0.50000000  0.25151847  0.57925911  1
  B  B14  1  0.50000000  0.24848153  0.07925911  1
  B  B15  1  0.50000000  0.75151847  0.92074089  1
  B  B16  1  0.50000000  0.79200247  0.26732993  1
  B  B17  1  0.50000000  0.20799753  0.73267007  1
  B  B18  1  0.50000000  0.29200247  0.23267007  1
  B  B19  1  0.50000000  0.70799753  0.76732993  1
  B  B20  1  0.50000000  0.63254098  0.18550900  1
  B  B21  1  0.50000000  0.36745902  0.81449100  1
  B  B22  1  0.50000000  0.13254098  0.31449100  1
  B  B23  1  0.50000000  0.86745902  0.68550900  1
  B  B24  1  0.50000000  0.98387823  0.21294537  1
  B  B25  1  0.50000000  0.01612177  0.78705463  1
  B  B26  1  0.50000000  0.48387823  0.28705463  1
  B  B27  1  0.50000000  0.51612177  0.71294537  1
  B  B28  1  0.50000000  0.61034405  0.03070911  1
  B  B29  1  0.50000000  0.38965595  0.96929089  1
  B  B30  1  0.50000000  0.11034405  0.46929089  1
  B  B31  1  0.50000000  0.88965595  0.53070911  1
  Os  Os32  1  -0.00000000  0.63808986  0.32163317  1
  Os  Os33  1  -0.00000000  0.36191014  0.67836683  1
  Os  Os34  1  -0.00000000  0.13808986  0.17836683  1
  Os  Os35  1  -0.00000000  0.86191014  0.82163317  1
