# generated using pymatgen
data_CsV(NO4)2
_symmetry_space_group_name_H-M   'P 1'
_cell_length_a   6.71202713
_cell_length_b   8.06422000
_cell_length_c   15.55790289
_cell_angle_alpha   90.00000000
_cell_angle_beta   90.00000000
_cell_angle_gamma   90.00000000
_symmetry_Int_Tables_number   1
_chemical_formula_structural   CsV(NO4)2
_chemical_formula_sum   'Cs4 V4 N8 O32'
_cell_volume   842.10670803
_cell_formula_units_Z   4
loop_
 _symmetry_equiv_pos_site_id
 _symmetry_equiv_pos_as_xyz
  1  'x, y, z'
loop_
 _atom_site_type_symbol
 _atom_site_label
 _atom_site_symmetry_multiplicity
 _atom_site_fract_x
 _atom_site_fract_y
 _atom_site_fract_z
 _atom_site_occupancy
  Cs  Cs0  1  0.75080939  0.64885239  0.34293058  1
  Cs  Cs1  1  0.74919061  0.35114761  0.84293058  1
  Cs  Cs2  1  0.25080939  0.85114761  0.65706942  1
  Cs  Cs3  1  0.24919061  0.14885239  0.15706942  1
  V  V4  1  0.35047044  0.31077861  0.47707054  1
  V  V5  1  0.14952956  0.68922139  0.97707054  1
  V  V6  1  0.85047044  0.18922139  0.52292946  1
  V  V7  1  0.64952956  0.81077861  0.02292946  1
  N  N8  1  0.13217132  0.62744605  0.15900713  1
  N  N9  1  0.36782868  0.37255395  0.65900713  1
  N  N10  1  0.63217132  0.87255395  0.84099287  1
  N  N11  1  0.86782868  0.12744605  0.34099287  1
  N  N12  1  0.37255166  0.98851275  0.39057044  1
  N  N13  1  0.12744834  0.01148725  0.89057044  1
  N  N14  1  0.87255166  0.51148725  0.60942956  1
  N  N15  1  0.62744834  0.48851275  0.10942956  1
  O  O16  1  0.31348033  0.46925296  0.41576342  1
  O  O17  1  0.18651967  0.53074704  0.91576342  1
  O  O18  1  0.81348033  0.03074704  0.58423658  1
  O  O19  1  0.68651967  0.96925296  0.08423658  1
  O  O20  1  0.61452630  0.28603496  0.48685268  1
  O  O21  1  0.88547370  0.71396504  0.98685268  1
  O  O22  1  0.11452630  0.21396504  0.51314732  1
  O  O23  1  0.38547370  0.78603496  0.01314732  1
  O  O24  1  0.83466823  0.04556575  0.41441511  1
  O  O25  1  0.66533177  0.95443425  0.91441511  1
  O  O26  1  0.33466823  0.45443425  0.58558489  1
  O  O27  1  0.16533177  0.54556575  0.08558489  1
  O  O28  1  0.09102313  0.77750141  0.15432930  1
  O  O29  1  0.40897687  0.22249859  0.65432930  1
  O  O30  1  0.59102313  0.72249859  0.84567070  1
  O  O31  1  0.90897687  0.27750141  0.34567070  1
  O  O32  1  0.14317749  0.54594483  0.22620638  1
  O  O33  1  0.35682251  0.45405517  0.72620638  1
  O  O34  1  0.64317749  0.95405517  0.77379362  1
  O  O35  1  0.85682251  0.04594483  0.27379362  1
  O  O36  1  0.65926204  0.64892294  0.12515124  1
  O  O37  1  0.84073796  0.35107706  0.62515124  1
  O  O38  1  0.15926204  0.85107706  0.87484876  1
  O  O39  1  0.34073796  0.14892294  0.37484876  1
  O  O40  1  0.40541474  0.94423447  0.46584713  1
  O  O41  1  0.09458526  0.05576553  0.96584713  1
  O  O42  1  0.90541474  0.55576553  0.53415287  1
  O  O43  1  0.59458526  0.44423447  0.03415287  1
  O  O44  1  0.36819736  0.89459881  0.32747672  1
  O  O45  1  0.13180264  0.10540119  0.82747672  1
  O  O46  1  0.86819736  0.60540119  0.67252328  1
  O  O47  1  0.63180264  0.39459881  0.17252328  1
