# generated using pymatgen
data_Sm5Zr3(Ni4As3)4
_symmetry_space_group_name_H-M   'P 1'
_cell_length_a   3.96618376
_cell_length_b   12.81754094
_cell_length_c   12.81953089
_cell_angle_alpha   119.99486744
_cell_angle_beta   90.00000000
_cell_angle_gamma   90.00000000
_symmetry_Int_Tables_number   1
_chemical_formula_structural   Sm5Zr3(Ni4As3)4
_chemical_formula_sum   'Sm5 Zr3 Ni16 As12'
_cell_volume   564.42048684
_cell_formula_units_Z   1
loop_
 _symmetry_equiv_pos_site_id
 _symmetry_equiv_pos_as_xyz
  1  'x, y, z'
loop_
 _atom_site_type_symbol
 _atom_site_label
 _atom_site_symmetry_multiplicity
 _atom_site_fract_x
 _atom_site_fract_y
 _atom_site_fract_z
 _atom_site_occupancy
  Sm  Sm0  1  0.50000000  0.99994359  0.18386503  1
  Sm  Sm1  1  0.50000000  0.18383285  0.00000000  1
  Sm  Sm2  1  0.50000000  0.81607855  0.81613497  1
  Sm  Sm3  1  -0.00000000  0.33334664  0.66663708  1
  Sm  Sm4  1  -0.00000000  0.66670956  0.33336292  1
  Zr  Zr5  1  0.00000000  0.00000004  0.56370315  1
  Zr  Zr6  1  -0.00000000  0.56379396  1.00000000  1
  Zr  Zr7  1  -0.00000000  0.43629689  0.43629685  1
  Ni  Ni8  1  0.50000000  0.99998915  0.72168614  1
  Ni  Ni9  1  0.50000000  0.72167237  1.00000000  1
  Ni  Ni10  1  0.50000000  0.27830301  0.27831386  1
  Ni  Ni11  1  -0.00000000  0.19318069  0.37511749  1
  Ni  Ni12  1  0.00000000  0.18192013  0.80680711  1
  Ni  Ni13  1  0.00000000  0.62485581  0.81798984  1
  Ni  Ni14  1  -0.00000000  0.81806321  0.62488251  1
  Ni  Ni15  1  0.00000000  0.37511302  0.19319289  1
  Ni  Ni16  1  0.00000000  0.80686596  0.18201016  1
  Ni  Ni17  1  0.50000000  0.11972016  0.48159945  1
  Ni  Ni18  1  0.50000000  0.36191846  0.88031817  1
  Ni  Ni19  1  0.50000000  0.51838036  0.63814995  1
  Ni  Ni20  1  0.50000000  0.63812071  0.51840055  1
  Ni  Ni21  1  0.50000000  0.48160029  0.11968183  1
  Ni  Ni22  1  0.50000000  0.88023042  0.36185005  1
  Ni  Ni23  1  -0.00000000  0.99998872  0.00000000  1
  As  As24  1  -0.00000000  0.99996549  0.82052932  1
  As  As25  1  0.00000000  0.82050803  1.00000000  1
  As  As26  1  -0.00000000  0.17943617  0.17947068  1
  As  As27  1  0.50000000  0.30609543  0.47710829  1
  As  As28  1  0.50000000  0.17103224  0.69391648  1
  As  As29  1  0.50000000  0.52288854  0.82895794  1
  As  As30  1  0.50000000  0.82898715  0.52289171  1
  As  As31  1  0.50000000  0.47711575  0.30608352  1
  As  As32  1  0.50000000  0.69393060  0.17104206  1
  As  As33  1  -0.00000000  0.00001032  0.35731220  1
  As  As34  1  -0.00000000  0.35730760  0.00000000  1
  As  As35  1  -0.00000000  0.64269811  0.64268780  1
