# generated using pymatgen
data_Re2S(ClO2)4
_symmetry_space_group_name_H-M   'P 1'
_cell_length_a   9.74184294
_cell_length_b   11.11595912
_cell_length_c   11.11595912
_cell_angle_alpha   91.71654065
_cell_angle_beta   95.91232379
_cell_angle_gamma   95.91232379
_symmetry_Int_Tables_number   1
_chemical_formula_structural   Re2S(ClO2)4
_chemical_formula_sum   'Re8 S4 Cl16 O32'
_cell_volume   1189.97281480
_cell_formula_units_Z   4
loop_
 _symmetry_equiv_pos_site_id
 _symmetry_equiv_pos_as_xyz
  1  'x, y, z'
loop_
 _atom_site_type_symbol
 _atom_site_label
 _atom_site_symmetry_multiplicity
 _atom_site_fract_x
 _atom_site_fract_y
 _atom_site_fract_z
 _atom_site_occupancy
  Re  Re0  1  0.46445850  0.23969948  0.57048353  1
  Re  Re1  1  0.03554150  0.42951647  0.76030052  1
  Re  Re2  1  0.53554150  0.76030052  0.42951647  1
  Re  Re3  1  0.96445850  0.57048353  0.23969948  1
  Re  Re4  1  0.46458245  0.27117390  0.08908780  1
  Re  Re5  1  0.03541755  0.91091220  0.72882610  1
  Re  Re6  1  0.53541755  0.72882610  0.91091220  1
  Re  Re7  1  0.96458245  0.08908780  0.27117390  1
  S  S8  1  0.39758385  0.42572944  0.81907036  1
  S  S9  1  0.10241615  0.18092964  0.57427056  1
  S  S10  1  0.60241615  0.57427056  0.18092964  1
  S  S11  1  0.89758385  0.81907036  0.42572944  1
  Cl  Cl12  1  0.51815367  0.13511305  0.73983621  1
  Cl  Cl13  1  0.98184633  0.26016379  0.86488695  1
  Cl  Cl14  1  0.48184633  0.86488695  0.26016379  1
  Cl  Cl15  1  0.01815367  0.73983621  0.13511305  1
  Cl  Cl16  1  0.35477653  0.36920376  0.44756596  1
  Cl  Cl17  1  0.14522347  0.55243404  0.63079624  1
  Cl  Cl18  1  0.64522347  0.63079624  0.55243404  1
  Cl  Cl19  1  0.85477653  0.44756596  0.36920376  1
  Cl  Cl20  1  0.67791733  0.22900931  0.04192363  1
  Cl  Cl21  1  0.82208267  0.95807637  0.77099069  1
  Cl  Cl22  1  0.32208267  0.77099069  0.95807637  1
  Cl  Cl23  1  0.17791733  0.04192363  0.22900931  1
  Cl  Cl24  1  0.28290971  0.38101604  0.11549155  1
  Cl  Cl25  1  0.21709029  0.88450845  0.61898396  1
  Cl  Cl26  1  0.71709029  0.61898396  0.88450845  1
  Cl  Cl27  1  0.78290971  0.11549155  0.38101604  1
  O  O28  1  0.62996343  0.29779523  0.55252238  1
  O  O29  1  0.87003657  0.44747762  0.70220477  1
  O  O30  1  0.37003657  0.70220477  0.44747762  1
  O  O31  1  0.12996343  0.55252238  0.29779523  1
  O  O32  1  0.44039162  0.11718100  0.47110702  1
  O  O33  1  0.05960838  0.52889298  0.88281900  1
  O  O34  1  0.55960838  0.88281900  0.52889298  1
  O  O35  1  0.94039162  0.47110702  0.11718100  1
  O  O36  1  0.47864481  0.21471707  0.23063259  1
  O  O37  1  0.02135519  0.76936741  0.78528293  1
  O  O38  1  0.52135519  0.78528293  0.76936741  1
  O  O39  1  0.97864481  0.23063259  0.21471707  1
  O  O40  1  0.36886234  0.15372278  0.00639011  1
  O  O41  1  0.13113766  0.99360989  0.84627722  1
  O  O42  1  0.63113766  0.84627722  0.99360989  1
  O  O43  1  0.86886234  0.00639011  0.15372278  1
  O  O44  1  0.45696915  0.39259311  0.70616770  1
  O  O45  1  0.04303085  0.29383230  0.60740689  1
  O  O46  1  0.54303085  0.60740689  0.29383230  1
  O  O47  1  0.95696915  0.70616770  0.39259311  1
  O  O48  1  0.47790351  0.37506113  0.92319011  1
  O  O49  1  0.02209649  0.07680989  0.62493887  1
  O  O50  1  0.52209649  0.62493887  0.07680989  1
  O  O51  1  0.97790351  0.92319011  0.37506113  1
  O  O52  1  0.25074801  0.18740432  0.62373424  1
  O  O53  1  0.24925199  0.37626576  0.81259568  1
  O  O54  1  0.74925199  0.81259568  0.37626576  1
  O  O55  1  0.75074801  0.62373424  0.18740432  1
  O  O56  1  0.59049830  0.44038488  0.16641518  1
  O  O57  1  0.90950170  0.83358482  0.55961512  1
  O  O58  1  0.40950170  0.55961512  0.83358482  1
  O  O59  1  0.09049830  0.16641518  0.44038488  1
