# generated using pymatgen
data_Cs4Nb2S11
_symmetry_space_group_name_H-M   'P 1'
_cell_length_a   8.24293449
_cell_length_b   14.24491374
_cell_length_c   18.75667039
_cell_angle_alpha   90.00000000
_cell_angle_beta   90.00000000
_cell_angle_gamma   90.00000000
_symmetry_Int_Tables_number   1
_chemical_formula_structural   Cs4Nb2S11
_chemical_formula_sum   'Cs16 Nb8 S44'
_cell_volume   2202.40618849
_cell_formula_units_Z   4
loop_
 _symmetry_equiv_pos_site_id
 _symmetry_equiv_pos_as_xyz
  1  'x, y, z'
loop_
 _atom_site_type_symbol
 _atom_site_label
 _atom_site_symmetry_multiplicity
 _atom_site_fract_x
 _atom_site_fract_y
 _atom_site_fract_z
 _atom_site_occupancy
  Cs  Cs0  1  0.70004404  0.45203900  0.19704130  1
  Cs  Cs1  1  0.29995596  0.54796100  0.69704130  1
  Cs  Cs2  1  0.70004404  0.04796100  0.69704130  1
  Cs  Cs3  1  0.29995596  0.95203900  0.19704130  1
  Cs  Cs4  1  0.16195733  0.26288139  0.09092629  1
  Cs  Cs5  1  0.83804267  0.73711861  0.59092629  1
  Cs  Cs6  1  0.16195733  0.23711861  0.59092629  1
  Cs  Cs7  1  0.83804267  0.76288139  0.09092629  1
  Cs  Cs8  1  0.31068019  0.28557224  0.34315278  1
  Cs  Cs9  1  0.68931981  0.71442776  0.84315278  1
  Cs  Cs10  1  0.31068019  0.21442776  0.84315278  1
  Cs  Cs11  1  0.68931981  0.78557224  0.34315278  1
  Cs  Cs12  1  0.67785179  0.42289806  0.49484262  1
  Cs  Cs13  1  0.32214821  0.57710194  0.99484262  1
  Cs  Cs14  1  0.67785179  0.07710194  0.99484262  1
  Cs  Cs15  1  0.32214821  0.92289806  0.49484262  1
  Nb  Nb16  1  0.72083952  0.37845199  0.75086739  1
  Nb  Nb17  1  0.27916048  0.62154801  0.25086739  1
  Nb  Nb18  1  0.72083952  0.12154801  0.25086739  1
  Nb  Nb19  1  0.27916048  0.87845199  0.75086739  1
  Nb  Nb20  1  0.76338353  0.42926046  0.93551599  1
  Nb  Nb21  1  0.23661647  0.57073954  0.43551599  1
  Nb  Nb22  1  0.76338353  0.07073954  0.43551599  1
  Nb  Nb23  1  0.23661647  0.92926046  0.93551599  1
  S  S24  1  0.95632780  0.47405158  0.83836667  1
  S  S25  1  0.04367220  0.52594842  0.33836667  1
  S  S26  1  0.95632780  0.02594842  0.33836667  1
  S  S27  1  0.04367220  0.97405158  0.83836667  1
  S  S28  1  0.74886032  0.25960414  0.84921665  1
  S  S29  1  0.25113968  0.74039586  0.34921665  1
  S  S30  1  0.74886032  0.24039586  0.34921665  1
  S  S31  1  0.25113968  0.75960414  0.84921665  1
  S  S32  1  0.24206651  0.46304306  0.19986406  1
  S  S33  1  0.75793349  0.53695694  0.69986406  1
  S  S34  1  0.24206651  0.03695694  0.69986406  1
  S  S35  1  0.75793349  0.96304306  0.19986406  1
  S  S36  1  0.05646455  0.39733099  0.92197198  1
  S  S37  1  0.94353545  0.60266901  0.42197198  1
  S  S38  1  0.05646455  0.10266901  0.42197198  1
  S  S39  1  0.94353545  0.89733099  0.92197198  1
  S  S40  1  0.76627068  0.31471888  0.03759295  1
  S  S41  1  0.23372932  0.68528112  0.53759295  1
  S  S42  1  0.76627068  0.18528112  0.53759295  1
  S  S43  1  0.23372932  0.81471888  0.03759295  1
  S  S44  1  0.91579532  0.25212885  0.26660729  1
  S  S45  1  0.08420468  0.74787115  0.76660729  1
  S  S46  1  0.91579532  0.24787115  0.76660729  1
  S  S47  1  0.08420468  0.75212885  0.26660729  1
  S  S48  1  0.90769924  0.43663098  0.65381116  1
  S  S49  1  0.09230076  0.56336902  0.15381116  1
  S  S50  1  0.90769924  0.06336902  0.15381116  1
  S  S51  1  0.09230076  0.93663098  0.65381116  1
  S  S52  1  0.54366179  0.33201051  0.98759584  1
  S  S53  1  0.45633821  0.66798949  0.48759584  1
  S  S54  1  0.54366179  0.16798949  0.48759584  1
  S  S55  1  0.45633821  0.83201051  0.98759584  1
  S  S56  1  0.55161423  0.46447042  0.84228090  1
  S  S57  1  0.44838577  0.53552958  0.34228090  1
  S  S58  1  0.55161423  0.03552958  0.34228090  1
  S  S59  1  0.44838577  0.96447042  0.84228090  1
  S  S60  1  0.24908180  0.43589096  0.49851162  1
  S  S61  1  0.75091820  0.56410904  0.99851162  1
  S  S62  1  0.24908180  0.06410904  0.99851162  1
  S  S63  1  0.75091820  0.93589096  0.49851162  1
  S  S64  1  0.51752435  0.31586660  0.68553450  1
  S  S65  1  0.48247565  0.68413340  0.18553450  1
  S  S66  1  0.51752435  0.18413340  0.18553450  1
  S  S67  1  0.48247565  0.81586660  0.68553450  1
