# generated using pymatgen
data_La4P9Rh8
_symmetry_space_group_name_H-M   'P 1'
_cell_length_a   5.81344947
_cell_length_b   11.61001636
_cell_length_c   11.61001636
_cell_angle_alpha   110.92367585
_cell_angle_beta   90.00000000
_cell_angle_gamma   90.00000000
_symmetry_Int_Tables_number   1
_chemical_formula_structural   La4P9Rh8
_chemical_formula_sum   'La8 P18 Rh16'
_cell_volume   731.93571103
_cell_formula_units_Z   2
loop_
 _symmetry_equiv_pos_site_id
 _symmetry_equiv_pos_as_xyz
  1  'x, y, z'
loop_
 _atom_site_type_symbol
 _atom_site_label
 _atom_site_symmetry_multiplicity
 _atom_site_fract_x
 _atom_site_fract_y
 _atom_site_fract_z
 _atom_site_occupancy
  La  La0  1  0.75000000  0.36034556  0.63965444  1
  La  La1  1  0.25000000  0.63965444  0.36034556  1
  La  La2  1  0.75000000  0.85995982  0.58922043  1
  La  La3  1  0.25000000  0.58922043  0.85995982  1
  La  La4  1  0.25000000  0.14004018  0.41077957  1
  La  La5  1  0.75000000  0.41077957  0.14004018  1
  La  La6  1  0.75000000  0.88920152  0.11079848  1
  La  La7  1  0.25000000  0.11079848  0.88920152  1
  P  P8  1  0.75000000  0.57383458  0.42616542  1
  P  P9  1  0.25000000  0.42616542  0.57383458  1
  P  P10  1  0.75000000  0.21196361  0.35409874  1
  P  P11  1  0.25000000  0.35409874  0.21196361  1
  P  P12  1  0.25000000  0.78803639  0.64590126  1
  P  P13  1  0.75000000  0.64590126  0.78803639  1
  P  P14  1  0.50205870  0.11652491  0.63545419  1
  P  P15  1  0.49794130  0.63545419  0.11652491  1
  P  P16  1  0.99794130  0.11652491  0.63545419  1
  P  P17  1  0.00205870  0.63545419  0.11652491  1
  P  P18  1  0.49794130  0.88347509  0.36454581  1
  P  P19  1  0.50205870  0.36454581  0.88347509  1
  P  P20  1  0.00205870  0.88347509  0.36454581  1
  P  P21  1  0.99794130  0.36454581  0.88347509  1
  P  P22  1  0.75000000  0.98424165  0.85629809  1
  P  P23  1  0.25000000  0.85629809  0.98424165  1
  P  P24  1  0.25000000  0.01575835  0.14370191  1
  P  P25  1  0.75000000  0.14370191  0.01575835  1
  Rh  Rh26  1  0.50000000  0.39434752  0.39434752  1
  Rh  Rh27  1  0.00000000  0.39434752  0.39434752  1
  Rh  Rh28  1  0.50000000  0.60565248  0.60565248  1
  Rh  Rh29  1  0.00000000  0.60565248  0.60565248  1
  Rh  Rh30  1  0.75000000  0.70798253  0.29201747  1
  Rh  Rh31  1  0.25000000  0.29201747  0.70798253  1
  Rh  Rh32  1  0.75000000  0.18361882  0.81638118  1
  Rh  Rh33  1  0.25000000  0.81638118  0.18361882  1
  Rh  Rh34  1  0.75000000  0.05989913  0.45310178  1
  Rh  Rh35  1  0.25000000  0.45310178  0.05989913  1
  Rh  Rh36  1  0.25000000  0.94010087  0.54689822  1
  Rh  Rh37  1  0.75000000  0.54689822  0.94010087  1
  Rh  Rh38  1  0.50000000  0.18069533  0.18069533  1
  Rh  Rh39  1  0.00000000  0.18069533  0.18069533  1
  Rh  Rh40  1  0.50000000  0.81930467  0.81930467  1
  Rh  Rh41  1  0.00000000  0.81930467  0.81930467  1
