# generated using pymatgen
data_UP2O7
_symmetry_space_group_name_H-M   'P 1'
_cell_length_a   8.84792391
_cell_length_b   8.86326826
_cell_length_c   8.83796355
_cell_angle_alpha   90.16420388
_cell_angle_beta   89.72531581
_cell_angle_gamma   90.17950651
_symmetry_Int_Tables_number   1
_chemical_formula_structural   UP2O7
_chemical_formula_sum   'U4 P8 O28'
_cell_volume   693.07238020
_cell_formula_units_Z   4
loop_
 _symmetry_equiv_pos_site_id
 _symmetry_equiv_pos_as_xyz
  1  'x, y, z'
loop_
 _atom_site_type_symbol
 _atom_site_label
 _atom_site_symmetry_multiplicity
 _atom_site_fract_x
 _atom_site_fract_y
 _atom_site_fract_z
 _atom_site_occupancy
  U  U0  1  0.01661658  0.99967518  0.00412067  1
  U  U1  1  0.00917890  0.49705722  0.50758085  1
  U  U2  1  0.50388410  0.99505793  0.50779006  1
  U  U3  1  0.51544689  0.48921526  0.00389014  1
  P  P4  1  0.40894845  0.59635523  0.40401435  1
  P  P5  1  0.61138621  0.39287234  0.60634835  1
  P  P6  1  0.10955503  0.10400872  0.61074590  1
  P  P7  1  0.90565283  0.89778959  0.40728914  1
  P  P8  1  0.91718884  0.39770764  0.10947786  1
  P  P9  1  0.11790459  0.60137101  0.90502507  1
  P  P10  1  0.61911375  0.89120827  0.90588113  1
  P  P11  1  0.41340115  0.09145049  0.10907613  1
  O  O12  1  0.51575645  0.52343791  0.52864684  1
  O  O13  1  0.46396241  0.54728692  0.24706983  1
  O  O14  1  0.42567139  0.76532735  0.43092735  1
  O  O15  1  0.24779277  0.54119823  0.43654087  1
  O  O16  1  0.56728196  0.40067217  0.77362025  1
  O  O17  1  0.57297617  0.24106167  0.53550496  1
  O  O18  1  0.77684281  0.43749861  0.58146440  1
  O  O19  1  0.98865557  0.99408271  0.53521097  1
  O  O20  1  0.07301618  0.09811639  0.77890303  1
  O  O21  1  0.08658114  0.26086534  0.54499022  1
  O  O22  1  0.26774599  0.04359943  0.57597091  1
  O  O23  1  0.95856215  0.94968372  0.25129941  1
  O  O24  1  0.94722554  0.73350384  0.43912149  1
  O  O25  1  0.73688500  0.92838891  0.43434973  1
  O  O26  1  0.03241699  0.51999690  0.04252121  1
  O  O27  1  0.93448050  0.41638149  0.28023159  1
  O  O28  1  0.96638092  0.24095994  0.05634490  1
  O  O29  1  0.75876894  0.43679102  0.05563037  1
  O  O30  1  0.05219132  0.54684459  0.75495972  1
  O  O31  1  0.08851773  0.76968423  0.93131983  1
  O  O32  1  0.28439459  0.56050337  0.92234800  1
  O  O33  1  0.54545628  0.99087847  0.03837219  1
  O  O34  1  0.54775020  0.93315376  0.75419933  1
  O  O35  1  0.58904170  0.72657464  0.94854068  1
  O  O36  1  0.78690847  0.93220981  0.91382091  1
  O  O37  1  0.43244964  0.07379614  0.27937809  1
  O  O38  1  0.44084336  0.25368360  0.05731956  1
  O  O39  1  0.26176653  0.02994997  0.05495370  1
