# generated using pymatgen
data_Cs3SbO4
_symmetry_space_group_name_H-M   'P 1'
_cell_length_a   6.96410051
_cell_length_b   9.46303497
_cell_length_c   13.15372500
_cell_angle_alpha   90.00000000
_cell_angle_beta   90.00000000
_cell_angle_gamma   90.00000000
_symmetry_Int_Tables_number   1
_chemical_formula_structural   Cs3SbO4
_chemical_formula_sum   'Cs12 Sb4 O16'
_cell_volume   866.85055878
_cell_formula_units_Z   4
loop_
 _symmetry_equiv_pos_site_id
 _symmetry_equiv_pos_as_xyz
  1  'x, y, z'
loop_
 _atom_site_type_symbol
 _atom_site_label
 _atom_site_symmetry_multiplicity
 _atom_site_fract_x
 _atom_site_fract_y
 _atom_site_fract_z
 _atom_site_occupancy
  Cs  Cs0  1  0.79726048  0.49311893  0.35593911  1
  Cs  Cs1  1  0.70273952  0.00688107  0.85593911  1
  Cs  Cs2  1  0.20273952  0.99311893  0.64406089  1
  Cs  Cs3  1  0.29726048  0.50688107  0.14406089  1
  Cs  Cs4  1  0.20273952  0.50688107  0.64406089  1
  Cs  Cs5  1  0.29726048  0.99311893  0.14406089  1
  Cs  Cs6  1  0.79726048  0.00688107  0.35593911  1
  Cs  Cs7  1  0.70273952  0.49311893  0.85593911  1
  Cs  Cs8  1  0.34489300  0.25000000  0.41808965  1
  Cs  Cs9  1  0.15510700  0.25000000  0.91808965  1
  Cs  Cs10  1  0.65510700  0.75000000  0.58191035  1
  Cs  Cs11  1  0.84489300  0.75000000  0.08191035  1
  Sb  Sb12  1  0.22187715  0.75000000  0.38583158  1
  Sb  Sb13  1  0.27812285  0.75000000  0.88583158  1
  Sb  Sb14  1  0.77812285  0.25000000  0.61416842  1
  Sb  Sb15  1  0.72187715  0.25000000  0.11416842  1
  O  O16  1  0.06781587  0.75000000  0.26455461  1
  O  O17  1  0.43218413  0.75000000  0.76455461  1
  O  O18  1  0.93218413  0.25000000  0.73544539  1
  O  O19  1  0.56781587  0.25000000  0.23544539  1
  O  O20  1  0.05069665  0.75000000  0.50086894  1
  O  O21  1  0.44930335  0.75000000  0.00086894  1
  O  O22  1  0.94930335  0.25000000  0.49913106  1
  O  O23  1  0.55069665  0.25000000  0.99913106  1
  O  O24  1  0.37625328  0.91752388  0.38777308  1
  O  O25  1  0.12374672  0.58247612  0.88777308  1
  O  O26  1  0.62374672  0.41752388  0.61222692  1
  O  O27  1  0.87625328  0.08247612  0.11222692  1
  O  O28  1  0.62374672  0.08247612  0.61222692  1
  O  O29  1  0.87625328  0.41752388  0.11222692  1
  O  O30  1  0.37625328  0.58247612  0.38777308  1
  O  O31  1  0.12374672  0.91752388  0.88777308  1
