# generated using pymatgen
data_Pb3(NO4)2
_symmetry_space_group_name_H-M   'P 1'
_cell_length_a   5.88958749
_cell_length_b   7.85014348
_cell_length_c   18.92583496
_cell_angle_alpha   90.00000000
_cell_angle_beta   90.00000000
_cell_angle_gamma   90.00000000
_symmetry_Int_Tables_number   1
_chemical_formula_structural   Pb3(NO4)2
_chemical_formula_sum   'Pb12 N8 O32'
_cell_volume   875.01907547
_cell_formula_units_Z   4
loop_
 _symmetry_equiv_pos_site_id
 _symmetry_equiv_pos_as_xyz
  1  'x, y, z'
loop_
 _atom_site_type_symbol
 _atom_site_label
 _atom_site_symmetry_multiplicity
 _atom_site_fract_x
 _atom_site_fract_y
 _atom_site_fract_z
 _atom_site_occupancy
  Pb  Pb0  1  0.25000000  0.48106799  0.65708204  1
  Pb  Pb1  1  0.25000000  0.98106799  0.84291796  1
  Pb  Pb2  1  0.75000000  0.51893201  0.34291796  1
  Pb  Pb3  1  0.75000000  0.01893201  0.15708204  1
  Pb  Pb4  1  0.25000000  0.36388549  0.46803922  1
  Pb  Pb5  1  0.25000000  0.86388549  0.03196078  1
  Pb  Pb6  1  0.75000000  0.63611451  0.53196078  1
  Pb  Pb7  1  0.75000000  0.13611451  0.96803922  1
  Pb  Pb8  1  0.75000000  0.19175649  0.58421556  1
  Pb  Pb9  1  0.75000000  0.69175649  0.91578444  1
  Pb  Pb10  1  0.25000000  0.80824351  0.41578444  1
  Pb  Pb11  1  0.25000000  0.30824351  0.08421556  1
  N  N12  1  0.25000000  0.88812665  0.60576089  1
  N  N13  1  0.25000000  0.38812665  0.89423911  1
  N  N14  1  0.75000000  0.11187335  0.39423911  1
  N  N15  1  0.75000000  0.61187335  0.10576089  1
  N  N16  1  0.75000000  0.65913209  0.75051214  1
  N  N17  1  0.75000000  0.15913209  0.74948786  1
  N  N18  1  0.25000000  0.34086791  0.24948786  1
  N  N19  1  0.25000000  0.84086791  0.25051214  1
  O  O20  1  0.50089808  0.40754191  0.56752277  1
  O  O21  1  0.99910192  0.90754191  0.93247723  1
  O  O22  1  0.00089808  0.59245809  0.43247723  1
  O  O23  1  0.49910192  0.09245809  0.06752277  1
  O  O24  1  0.49910192  0.59245809  0.43247723  1
  O  O25  1  0.00089808  0.09245809  0.06752277  1
  O  O26  1  0.99910192  0.40754191  0.56752277  1
  O  O27  1  0.50089808  0.90754191  0.93247723  1
  O  O28  1  0.75000000  0.59805492  0.68861736  1
  O  O29  1  0.75000000  0.09805492  0.81138264  1
  O  O30  1  0.25000000  0.40194508  0.31138264  1
  O  O31  1  0.25000000  0.90194508  0.18861736  1
  O  O32  1  0.56324534  0.68762427  0.78225315  1
  O  O33  1  0.93675466  0.18762427  0.71774685  1
  O  O34  1  0.06324534  0.31237573  0.21774685  1
  O  O35  1  0.43675466  0.81237573  0.28225315  1
  O  O36  1  0.43675466  0.31237573  0.21774685  1
  O  O37  1  0.06324534  0.81237573  0.28225315  1
  O  O38  1  0.93675466  0.68762427  0.78225315  1
  O  O39  1  0.56324534  0.18762427  0.71774685  1
  O  O40  1  0.25000000  0.03606297  0.57996670  1
  O  O41  1  0.25000000  0.53606297  0.92003330  1
  O  O42  1  0.75000000  0.96393703  0.42003330  1
  O  O43  1  0.75000000  0.46393703  0.07996670  1
  O  O44  1  0.25000000  0.75757003  0.56306174  1
  O  O45  1  0.25000000  0.25757003  0.93693826  1
  O  O46  1  0.75000000  0.24242997  0.43693826  1
  O  O47  1  0.75000000  0.74242997  0.06306174  1
  O  O48  1  0.25000000  0.85962204  0.67083276  1
  O  O49  1  0.25000000  0.35962204  0.82916724  1
  O  O50  1  0.75000000  0.14037796  0.32916724  1
  O  O51  1  0.75000000  0.64037796  0.17083276  1
