# generated using pymatgen
data_Tl3AsSe4
_symmetry_space_group_name_H-M   'P 1'
_cell_length_a   9.32400633
_cell_length_b   9.72702708
_cell_length_c   11.53477083
_cell_angle_alpha   90.00000000
_cell_angle_beta   90.00000000
_cell_angle_gamma   90.00000000
_symmetry_Int_Tables_number   1
_chemical_formula_structural   Tl3AsSe4
_chemical_formula_sum   'Tl12 As4 Se16'
_cell_volume   1046.14444939
_cell_formula_units_Z   4
loop_
 _symmetry_equiv_pos_site_id
 _symmetry_equiv_pos_as_xyz
  1  'x, y, z'
loop_
 _atom_site_type_symbol
 _atom_site_label
 _atom_site_symmetry_multiplicity
 _atom_site_fract_x
 _atom_site_fract_y
 _atom_site_fract_z
 _atom_site_occupancy
  Tl  Tl0  1  0.10450545  0.61064754  0.75000000  1
  Tl  Tl1  1  0.60450545  0.88935246  0.75000000  1
  Tl  Tl2  1  0.89549455  0.38935246  0.25000000  1
  Tl  Tl3  1  0.39549455  0.11064754  0.25000000  1
  Tl  Tl4  1  0.43490209  0.30457442  0.94505824  1
  Tl  Tl5  1  0.93490209  0.19542558  0.55494176  1
  Tl  Tl6  1  0.56509791  0.69542558  0.44505824  1
  Tl  Tl7  1  0.06509791  0.80457442  0.05494176  1
  Tl  Tl8  1  0.56509791  0.69542558  0.05494176  1
  Tl  Tl9  1  0.06509791  0.80457442  0.44505824  1
  Tl  Tl10  1  0.43490209  0.30457442  0.55494176  1
  Tl  Tl11  1  0.93490209  0.19542558  0.94505824  1
  As  As12  1  0.22266738  0.02906359  0.75000000  1
  As  As13  1  0.72266738  0.47093641  0.75000000  1
  As  As14  1  0.77733262  0.97093641  0.25000000  1
  As  As15  1  0.27733262  0.52906359  0.25000000  1
  Se  Se16  1  0.19187929  0.27180150  0.75000000  1
  Se  Se17  1  0.69187929  0.22819850  0.75000000  1
  Se  Se18  1  0.80812071  0.72819850  0.25000000  1
  Se  Se19  1  0.30812071  0.77180150  0.25000000  1
  Se  Se20  1  0.49244715  0.56987546  0.75000000  1
  Se  Se21  1  0.99244715  0.93012454  0.75000000  1
  Se  Se22  1  0.50755285  0.43012454  0.25000000  1
  Se  Se23  1  0.00755285  0.06987546  0.25000000  1
  Se  Se24  1  0.35401144  0.96981338  0.91822211  1
  Se  Se25  1  0.85401144  0.53018662  0.58177789  1
  Se  Se26  1  0.64598856  0.03018662  0.41822211  1
  Se  Se27  1  0.14598856  0.46981338  0.08177789  1
  Se  Se28  1  0.64598856  0.03018662  0.08177789  1
  Se  Se29  1  0.14598856  0.46981338  0.41822211  1
  Se  Se30  1  0.35401144  0.96981338  0.58177789  1
  Se  Se31  1  0.85401144  0.53018662  0.91822211  1
