# generated using pymatgen
data_Ho4BClO7
_symmetry_space_group_name_H-M   'P 1'
_cell_length_a   8.03680667
_cell_length_b   8.59647377
_cell_length_c   10.88865544
_cell_angle_alpha   103.11569300
_cell_angle_beta   90.00000000
_cell_angle_gamma   90.00000000
_symmetry_Int_Tables_number   1
_chemical_formula_structural   Ho4BClO7
_chemical_formula_sum   'Ho16 B4 Cl4 O28'
_cell_volume   732.65355598
_cell_formula_units_Z   4
loop_
 _symmetry_equiv_pos_site_id
 _symmetry_equiv_pos_as_xyz
  1  'x, y, z'
loop_
 _atom_site_type_symbol
 _atom_site_label
 _atom_site_symmetry_multiplicity
 _atom_site_fract_x
 _atom_site_fract_y
 _atom_site_fract_z
 _atom_site_occupancy
  Ho  Ho0  1  0.37449498  0.98117672  0.77895357  1
  Ho  Ho1  1  0.12550502  0.48117672  0.27895357  1
  Ho  Ho2  1  0.62550502  0.01882328  0.22104643  1
  Ho  Ho3  1  0.87449498  0.51882328  0.72104643  1
  Ho  Ho4  1  0.38253469  0.66642903  0.09069371  1
  Ho  Ho5  1  0.11746531  0.16642903  0.59069371  1
  Ho  Ho6  1  0.61746531  0.33357097  0.90930629  1
  Ho  Ho7  1  0.88253469  0.83357097  0.40930629  1
  Ho  Ho8  1  0.36174914  0.84916518  0.41889399  1
  Ho  Ho9  1  0.13825086  0.34916518  0.91889399  1
  Ho  Ho10  1  0.63825086  0.15083482  0.58110601  1
  Ho  Ho11  1  0.86174914  0.65083482  0.08110601  1
  Ho  Ho12  1  0.38533559  0.53837394  0.72117204  1
  Ho  Ho13  1  0.11466441  0.03837394  0.22117204  1
  Ho  Ho14  1  0.61466441  0.46162606  0.27882796  1
  Ho  Ho15  1  0.88533559  0.96162606  0.77882796  1
  B  B16  1  0.13023538  0.71663729  0.58608065  1
  B  B17  1  0.36976462  0.21663729  0.08608065  1
  B  B18  1  0.86976462  0.28336271  0.41391935  1
  B  B19  1  0.63023538  0.78336271  0.91391935  1
  Cl  Cl20  1  0.14804010  0.84913431  0.96781588  1
  Cl  Cl21  1  0.35195990  0.34913431  0.46781588  1
  Cl  Cl22  1  0.85195990  0.15086569  0.03218412  1
  Cl  Cl23  1  0.64804010  0.65086569  0.53218412  1
  O  O24  1  0.37753209  0.05566324  0.59688397  1
  O  O25  1  0.12246791  0.55566324  0.09688397  1
  O  O26  1  0.62246791  0.94433676  0.40311603  1
  O  O27  1  0.87753209  0.44433676  0.90311603  1
  O  O28  1  0.36325368  0.91606177  0.22540298  1
  O  O29  1  0.13674632  0.41606177  0.72540298  1
  O  O30  1  0.63674632  0.08393823  0.77459702  1
  O  O31  1  0.86325368  0.58393823  0.27459702  1
  O  O32  1  0.38309068  0.60323771  0.28229754  1
  O  O33  1  0.11690932  0.10323771  0.78229754  1
  O  O34  1  0.61690932  0.39676229  0.71770246  1
  O  O35  1  0.88309068  0.89676229  0.21770246  1
  O  O36  1  0.37810728  0.47959833  0.90738981  1
  O  O37  1  0.12189272  0.97959833  0.40738981  1
  O  O38  1  0.62189272  0.52040167  0.09261019  1
  O  O39  1  0.87810728  0.02040167  0.59261019  1
  O  O40  1  0.11140886  0.68221963  0.45655970  1
  O  O41  1  0.38859114  0.18221963  0.95655970  1
  O  O42  1  0.88859114  0.31778037  0.54344030  1
  O  O43  1  0.61140886  0.81778037  0.04344030  1
  O  O44  1  0.99417817  0.72947682  0.66467446  1
  O  O45  1  0.50582183  0.22947682  0.16467446  1
  O  O46  1  0.00582183  0.27052318  0.33532554  1
  O  O47  1  0.49417817  0.77052318  0.83532554  1
  O  O48  1  0.28835956  0.74805225  0.63549423  1
  O  O49  1  0.21164044  0.24805225  0.13549423  1
  O  O50  1  0.71164044  0.25194775  0.36450577  1
  O  O51  1  0.78835956  0.75194775  0.86450577  1
