# generated using pymatgen
data_Ho3Si11Pt23
_symmetry_space_group_name_H-M   'P 1'
_cell_length_a   12.01570455
_cell_length_b   12.01570455
_cell_length_c   12.01570455
_cell_angle_alpha   60.00000000
_cell_angle_beta   60.00000000
_cell_angle_gamma   60.00000000
_symmetry_Int_Tables_number   1
_chemical_formula_structural   Ho3Si11Pt23
_chemical_formula_sum   'Ho6 Si22 Pt46'
_cell_volume   1226.68407065
_cell_formula_units_Z   2
loop_
 _symmetry_equiv_pos_site_id
 _symmetry_equiv_pos_as_xyz
  1  'x, y, z'
loop_
 _atom_site_type_symbol
 _atom_site_label
 _atom_site_symmetry_multiplicity
 _atom_site_fract_x
 _atom_site_fract_y
 _atom_site_fract_z
 _atom_site_occupancy
  Ho  Ho0  1  0.50000000  -0.00000000  -0.00000000  1
  Ho  Ho1  1  0.50000000  -0.00000000  0.50000000  1
  Ho  Ho2  1  0.50000000  0.50000000  -0.00000000  1
  Ho  Ho3  1  0.00000000  0.50000000  0.50000000  1
  Ho  Ho4  1  0.00000000  0.50000000  -0.00000000  1
  Ho  Ho5  1  0.00000000  -0.00000000  0.50000000  1
  Si  Si6  1  0.82777366  0.17222634  0.17222634  1
  Si  Si7  1  0.82777366  0.17222634  0.82777366  1
  Si  Si8  1  0.82777366  0.82777366  0.17222634  1
  Si  Si9  1  0.17222634  0.82777366  0.82777366  1
  Si  Si10  1  0.17222634  0.82777366  0.17222634  1
  Si  Si11  1  0.17222634  0.17222634  0.82777366  1
  Si  Si12  1  0.50451602  0.16516133  0.16516133  1
  Si  Si13  1  0.16516133  0.50451602  0.16516133  1
  Si  Si14  1  0.16516133  0.16516133  0.50451602  1
  Si  Si15  1  0.16516133  0.16516133  0.16516133  1
  Si  Si16  1  0.49548398  0.83483867  0.83483867  1
  Si  Si17  1  0.83483867  0.49548398  0.83483867  1
  Si  Si18  1  0.83483867  0.83483867  0.49548398  1
  Si  Si19  1  0.83483867  0.83483867  0.83483867  1
  Si  Si20  1  0.81964305  0.39345232  0.39345232  1
  Si  Si21  1  0.39345232  0.81964305  0.39345232  1
  Si  Si22  1  0.39345232  0.39345232  0.81964305  1
  Si  Si23  1  0.39345232  0.39345232  0.39345232  1
  Si  Si24  1  0.18035695  0.60654768  0.60654768  1
  Si  Si25  1  0.60654768  0.18035695  0.60654768  1
  Si  Si26  1  0.60654768  0.60654768  0.18035695  1
  Si  Si27  1  0.60654768  0.60654768  0.60654768  1
  Pt  Pt28  1  0.75210893  0.08263036  0.08263036  1
  Pt  Pt29  1  0.08263036  0.75210893  0.08263036  1
  Pt  Pt30  1  0.08263036  0.08263036  0.75210893  1
  Pt  Pt31  1  0.08263036  0.08263036  0.08263036  1
  Pt  Pt32  1  0.24789107  0.91736964  0.91736964  1
  Pt  Pt33  1  0.91736964  0.24789107  0.91736964  1
  Pt  Pt34  1  0.91736964  0.91736964  0.24789107  1
  Pt  Pt35  1  0.91736964  0.91736964  0.91736964  1
  Pt  Pt36  1  0.07559331  0.30813556  0.30813556  1
  Pt  Pt37  1  0.30813556  0.07559331  0.30813556  1
  Pt  Pt38  1  0.30813556  0.30813556  0.07559331  1
  Pt  Pt39  1  0.30813556  0.30813556  0.30813556  1
  Pt  Pt40  1  0.92440669  0.69186444  0.69186444  1
  Pt  Pt41  1  0.69186444  0.92440669  0.69186444  1
  Pt  Pt42  1  0.69186444  0.69186444  0.92440669  1
  Pt  Pt43  1  0.69186444  0.69186444  0.69186444  1
  Pt  Pt44  1  0.62504386  0.37495614  0.37495614  1
  Pt  Pt45  1  0.62504386  0.37495614  0.62504386  1
  Pt  Pt46  1  0.62504386  0.62504386  0.37495614  1
  Pt  Pt47  1  0.37495614  0.62504386  0.62504386  1
  Pt  Pt48  1  0.37495614  0.62504386  0.37495614  1
  Pt  Pt49  1  0.37495614  0.37495614  0.62504386  1
  Pt  Pt50  1  0.57813430  0.91759786  0.25213392  1
  Pt  Pt51  1  0.57813430  0.25213392  0.25213392  1
  Pt  Pt52  1  0.57813430  0.25213392  0.91759786  1
  Pt  Pt53  1  0.91759786  0.57813430  0.25213392  1
  Pt  Pt54  1  0.25213392  0.57813430  0.91759786  1
  Pt  Pt55  1  0.25213392  0.57813430  0.25213392  1
  Pt  Pt56  1  0.25213392  0.25213392  0.57813430  1
  Pt  Pt57  1  0.25213392  0.91759786  0.57813430  1
  Pt  Pt58  1  0.91759786  0.25213392  0.57813430  1
  Pt  Pt59  1  0.25213392  0.25213392  0.91759786  1
  Pt  Pt60  1  0.91759786  0.25213392  0.25213392  1
  Pt  Pt61  1  0.25213392  0.91759786  0.25213392  1
  Pt  Pt62  1  0.42186570  0.08240214  0.74786608  1
  Pt  Pt63  1  0.42186570  0.74786608  0.74786608  1
  Pt  Pt64  1  0.42186570  0.74786608  0.08240214  1
  Pt  Pt65  1  0.08240214  0.42186570  0.74786608  1
  Pt  Pt66  1  0.74786608  0.42186570  0.08240214  1
  Pt  Pt67  1  0.74786608  0.42186570  0.74786608  1
  Pt  Pt68  1  0.74786608  0.74786608  0.42186570  1
  Pt  Pt69  1  0.74786608  0.08240214  0.42186570  1
  Pt  Pt70  1  0.08240214  0.74786608  0.42186570  1
  Pt  Pt71  1  0.74786608  0.74786608  0.08240214  1
  Pt  Pt72  1  0.08240214  0.74786608  0.74786608  1
  Pt  Pt73  1  0.74786608  0.08240214  0.74786608  1
