# generated using pymatgen
data_US2O9
_symmetry_space_group_name_H-M   'P 1'
_cell_length_a   8.28793037
_cell_length_b   11.12717340
_cell_length_c   16.84126290
_cell_angle_alpha   90.00000000
_cell_angle_beta   90.00000000
_cell_angle_gamma   90.00000000
_symmetry_Int_Tables_number   1
_chemical_formula_structural   US2O9
_chemical_formula_sum   'U8 S16 O72'
_cell_volume   1553.12212009
_cell_formula_units_Z   8
loop_
 _symmetry_equiv_pos_site_id
 _symmetry_equiv_pos_as_xyz
  1  'x, y, z'
loop_
 _atom_site_type_symbol
 _atom_site_label
 _atom_site_symmetry_multiplicity
 _atom_site_fract_x
 _atom_site_fract_y
 _atom_site_fract_z
 _atom_site_occupancy
  U  U0  1  0.46724645  0.80636419  0.61824373  1
  U  U1  1  0.53275355  0.19363581  0.11824373  1
  U  U2  1  0.46724645  0.69363581  0.11824373  1
  U  U3  1  0.53275355  0.30636419  0.61824373  1
  U  U4  1  0.96322276  0.04641078  0.34607050  1
  U  U5  1  0.03677724  0.95358922  0.84607050  1
  U  U6  1  0.96322276  0.45358922  0.84607050  1
  U  U7  1  0.03677724  0.54641078  0.34607050  1
  S  S8  1  0.70271139  0.77689443  0.30697733  1
  S  S9  1  0.29728861  0.22310557  0.80697733  1
  S  S10  1  0.70271139  0.72310557  0.80697733  1
  S  S11  1  0.29728861  0.27689443  0.30697733  1
  S  S12  1  0.57037887  0.94519723  0.41900525  1
  S  S13  1  0.42962113  0.05480277  0.91900525  1
  S  S14  1  0.57037887  0.55480277  0.91900525  1
  S  S15  1  0.42962113  0.44519723  0.41900525  1
  S  S16  1  0.91910326  0.20394951  0.54131222  1
  S  S17  1  0.08089674  0.79605049  0.04131222  1
  S  S18  1  0.91910326  0.29605049  0.04131222  1
  S  S19  1  0.08089674  0.70394951  0.54131222  1
  S  S20  1  0.79678432  0.03997037  0.66065237  1
  S  S21  1  0.20321568  0.96002963  0.16065237  1
  S  S22  1  0.79678432  0.46002963  0.16065237  1
  S  S23  1  0.20321568  0.53997037  0.66065237  1
  O  O24  1  0.58746096  0.69132149  0.57466651  1
  O  O25  1  0.41253904  0.30867851  0.07466651  1
  O  O26  1  0.58746096  0.80867851  0.07466651  1
  O  O27  1  0.41253904  0.19132149  0.57466651  1
  O  O28  1  0.34493318  0.92234114  0.65932905  1
  O  O29  1  0.65506682  0.07765886  0.15932905  1
  O  O30  1  0.34493318  0.57765886  0.15932905  1
  O  O31  1  0.65506682  0.42234114  0.65932905  1
  O  O32  1  0.84868597  0.16248188  0.29986361  1
  O  O33  1  0.15131403  0.83751812  0.79986361  1
  O  O34  1  0.84868597  0.33751812  0.79986361  1
  O  O35  1  0.15131403  0.66248188  0.29986361  1
  O  O36  1  0.07490433  0.93125942  0.39479897  1
  O  O37  1  0.92509567  0.06874058  0.89479897  1
  O  O38  1  0.07490433  0.56874058  0.89479897  1
  O  O39  1  0.92509567  0.43125942  0.39479897  1
  O  O40  1  0.57730713  0.74897687  0.24938875  1
  O  O41  1  0.42269287  0.25102313  0.74938875  1
  O  O42  1  0.57730713  0.75102313  0.74938875  1
  O  O43  1  0.42269287  0.24897687  0.24938875  1
  O  O44  1  0.80211586  0.67318769  0.32687695  1
  O  O45  1  0.19788414  0.32681231  0.82687695  1
  O  O46  1  0.80211586  0.82681231  0.82687695  1
  O  O47  1  0.19788414  0.17318769  0.32687695  1
  O  O48  1  0.79336673  0.88552616  0.28702451  1
  O  O49  1  0.20663327  0.11447384  0.78702451  1
  O  O50  1  0.79336673  0.61447384  0.78702451  1
  O  O51  1  0.20663327  0.38552616  0.28702451  1
  O  O52  1  0.61086144  0.80232421  0.39005706  1
  O  O53  1  0.38913856  0.19767579  0.89005706  1
  O  O54  1  0.61086144  0.69767579  0.89005706  1
  O  O55  1  0.38913856  0.30232421  0.39005706  1
  O  O56  1  0.46941775  0.99816136  0.35998164  1
  O  O57  1  0.53058225  0.00183864  0.85998164  1
  O  O58  1  0.46941775  0.50183864  0.85998164  1
  O  O59  1  0.53058225  0.49816136  0.35998164  1
  O  O60  1  0.73156488  0.99914289  0.42867413  1
  O  O61  1  0.26843512  0.00085711  0.92867413  1
  O  O62  1  0.73156488  0.50085711  0.92867413  1
  O  O63  1  0.26843512  0.49914289  0.42867413  1
  O  O64  1  0.49798864  0.91938699  0.49622463  1
  O  O65  1  0.50201136  0.08061301  0.99622463  1
  O  O66  1  0.49798864  0.58061301  0.99622463  1
  O  O67  1  0.50201136  0.41938699  0.49622463  1
  O  O68  1  0.01921068  0.27134373  0.59385501  1
  O  O69  1  0.98078932  0.72865627  0.09385501  1
  O  O70  1  0.01921068  0.22865627  0.09385501  1
  O  O71  1  0.98078932  0.77134373  0.59385501  1
  O  O72  1  0.98890207  0.16756584  0.46543827  1
  O  O73  1  0.01109793  0.83243416  0.96543827  1
  O  O74  1  0.98890207  0.33243416  0.96543827  1
  O  O75  1  0.01109793  0.66756584  0.46543827  1
  O  O76  1  0.75198247  0.24654695  0.53174995  1
  O  O77  1  0.24801753  0.75345305  0.03174995  1
  O  O78  1  0.75198247  0.25345305  0.03174995  1
  O  O79  1  0.24801753  0.74654695  0.53174995  1
  O  O80  1  0.89806657  0.06399958  0.58102174  1
  O  O81  1  0.10193343  0.93600042  0.08102174  1
  O  O82  1  0.89806657  0.43600042  0.08102174  1
  O  O83  1  0.10193343  0.56399958  0.58102174  1
  O  O84  1  0.91724484  0.01328859  0.72101365  1
  O  O85  1  0.08275516  0.98671141  0.22101365  1
  O  O86  1  0.91724484  0.48671141  0.22101365  1
  O  O87  1  0.08275516  0.51328859  0.72101365  1
  O  O88  1  0.69904941  0.93537556  0.64032306  1
  O  O89  1  0.30095059  0.06462444  0.14032306  1
  O  O90  1  0.69904941  0.56462444  0.14032306  1
  O  O91  1  0.30095059  0.43537556  0.64032306  1
  O  O92  1  0.70386833  0.14834147  0.67815712  1
  O  O93  1  0.29613167  0.85165853  0.17815712  1
  O  O94  1  0.70386833  0.35165853  0.17815712  1
  O  O95  1  0.29613167  0.64834147  0.67815712  1
