# generated using pymatgen
data_Rb2Sn2H3N
_symmetry_space_group_name_H-M   'P 1'
_cell_length_a   9.70636132
_cell_length_b   13.43459335
_cell_length_c   13.55191590
_cell_angle_alpha   106.97099985
_cell_angle_beta   90.00000000
_cell_angle_gamma   90.00000000
_symmetry_Int_Tables_number   1
_chemical_formula_structural   Rb2Sn2H3N
_chemical_formula_sum   'Rb16 Sn16 H24 N8'
_cell_volume   1690.22739640
_cell_formula_units_Z   8
loop_
 _symmetry_equiv_pos_site_id
 _symmetry_equiv_pos_as_xyz
  1  'x, y, z'
loop_
 _atom_site_type_symbol
 _atom_site_label
 _atom_site_symmetry_multiplicity
 _atom_site_fract_x
 _atom_site_fract_y
 _atom_site_fract_z
 _atom_site_occupancy
  Rb  Rb0  1  0.45060920  0.81928695  0.57317277  1
  Rb  Rb1  1  0.95060920  0.68071305  0.42682723  1
  Rb  Rb2  1  0.54939080  0.18071305  0.42682723  1
  Rb  Rb3  1  0.04939080  0.31928695  0.57317277  1
  Rb  Rb4  1  0.77902100  0.07846113  0.86684892  1
  Rb  Rb5  1  0.27902100  0.42153887  0.13315108  1
  Rb  Rb6  1  0.22097900  0.92153887  0.13315108  1
  Rb  Rb7  1  0.72097900  0.57846113  0.86684892  1
  Rb  Rb8  1  0.79784791  0.98810403  0.53608597  1
  Rb  Rb9  1  0.29784791  0.51189597  0.46391403  1
  Rb  Rb10  1  0.20215209  0.01189597  0.46391403  1
  Rb  Rb11  1  0.70215209  0.48810403  0.53608597  1
  Rb  Rb12  1  0.28000802  0.06440713  0.90764906  1
  Rb  Rb13  1  0.78000802  0.43559287  0.09235094  1
  Rb  Rb14  1  0.71999198  0.93559287  0.09235094  1
  Rb  Rb15  1  0.21999198  0.56440713  0.90764906  1
  Sn  Sn16  1  0.78713280  0.78763568  0.71634551  1
  Sn  Sn17  1  0.28713280  0.71236432  0.28365449  1
  Sn  Sn18  1  0.21286720  0.21236432  0.28365449  1
  Sn  Sn19  1  0.71286720  0.28763568  0.71634551  1
  Sn  Sn20  1  0.99702036  0.80975251  0.88363980  1
  Sn  Sn21  1  0.49702036  0.69024749  0.11636020  1
  Sn  Sn22  1  0.00297964  0.19024749  0.11636020  1
  Sn  Sn23  1  0.50297964  0.30975251  0.88363980  1
  Sn  Sn24  1  0.01568793  0.63220636  0.69027553  1
  Sn  Sn25  1  0.51568793  0.86779364  0.30972447  1
  Sn  Sn26  1  0.98431207  0.36779364  0.30972447  1
  Sn  Sn27  1  0.48431207  0.13220636  0.69027553  1
  Sn  Sn28  1  0.07901293  0.84882778  0.68693311  1
  Sn  Sn29  1  0.57901293  0.65117222  0.31306689  1
  Sn  Sn30  1  0.92098707  0.15117222  0.31306689  1
  Sn  Sn31  1  0.42098707  0.34882778  0.68693311  1
  H  H32  1  0.84550472  0.83052281  0.30201599  1
  H  H33  1  0.34550472  0.66947719  0.69798401  1
  H  H34  1  0.15449528  0.16947719  0.69798401  1
  H  H35  1  0.65449528  0.33052281  0.30201599  1
  H  H36  1  0.01672680  0.83063828  0.29396731  1
  H  H37  1  0.51672680  0.66936172  0.70603269  1
  H  H38  1  0.98327320  0.16936172  0.70603269  1
  H  H39  1  0.48327320  0.33063828  0.29396731  1
  H  H40  1  0.33674558  0.82920653  0.87513312  1
  H  H41  1  0.83674558  0.67079347  0.12486688  1
  H  H42  1  0.66325442  0.17079347  0.12486688  1
  H  H43  1  0.16325442  0.32920653  0.87513312  1
  H  H44  1  0.50059246  0.86011697  0.87053009  1
  H  H45  1  0.00059246  0.63988303  0.12946991  1
  H  H46  1  0.49940754  0.13988303  0.12946991  1
  H  H47  1  0.99940754  0.36011697  0.87053009  1
  H  H48  1  0.44634046  0.81174391  0.96122259  1
  H  H49  1  0.94634046  0.68825609  0.03877741  1
  H  H50  1  0.55365954  0.18825609  0.03877741  1
  H  H51  1  0.05365954  0.31174391  0.96122259  1
  H  H52  1  0.92801489  0.94055586  0.31399805  1
  H  H53  1  0.42801489  0.55944414  0.68600195  1
  H  H54  1  0.07198511  0.05944414  0.68600195  1
  H  H55  1  0.57198511  0.44055586  0.31399805  1
  N  N56  1  0.93321530  0.87116128  0.33252760  1
  N  N57  1  0.43321530  0.62883872  0.66747240  1
  N  N58  1  0.06678470  0.12883872  0.66747240  1
  N  N59  1  0.56678470  0.37116128  0.33252760  1
  N  N60  1  0.41955875  0.86261177  0.92000004  1
  N  N61  1  0.91955875  0.63738823  0.07999996  1
  N  N62  1  0.58044125  0.13738823  0.07999996  1
  N  N63  1  0.08044125  0.36261177  0.92000004  1
