# generated using pymatgen
data_H7AuN4O15
_symmetry_space_group_name_H-M   'P 1'
_cell_length_a   7.87768349
_cell_length_b   7.87768349
_cell_length_c   11.92025037
_cell_angle_alpha   101.07656000
_cell_angle_beta   104.34816280
_cell_angle_gamma   109.53036849
_symmetry_Int_Tables_number   1
_chemical_formula_structural   H7AuN4O15
_chemical_formula_sum   'H14 Au2 N8 O30'
_cell_volume   644.08220463
_cell_formula_units_Z   2
loop_
 _symmetry_equiv_pos_site_id
 _symmetry_equiv_pos_as_xyz
  1  'x, y, z'
loop_
 _atom_site_type_symbol
 _atom_site_label
 _atom_site_symmetry_multiplicity
 _atom_site_fract_x
 _atom_site_fract_y
 _atom_site_fract_z
 _atom_site_occupancy
  H  H0  1  0.58090560  0.87819146  0.61191756  1
  H  H1  1  0.76627391  0.96898805  0.88808244  1
  H  H2  1  0.41909440  0.12180854  0.38808244  1
  H  H3  1  0.23372609  0.03101195  0.11191756  1
  H  H4  1  0.50239136  0.76620458  0.46726248  1
  H  H5  1  0.79894210  0.03512888  0.03273752  1
  H  H6  1  0.49760864  0.23379542  0.53273752  1
  H  H7  1  0.20105790  0.96487112  0.96726248  1
  H  H8  1  0.50000000  -0.00000000  0.50000000  1
  H  H9  1  0.00000000  -0.00000000  -0.00000000  1
  H  H10  1  0.46672997  0.83741600  0.76056928  1
  H  H11  1  0.57684672  0.70616069  0.73943072  1
  H  H12  1  0.53327003  0.16258400  0.23943072  1
  H  H13  1  0.42315328  0.29383931  0.26056928  1
  Au  Au14  1  0.00000000  0.50000000  -0.00000000  1
  Au  Au15  1  0.00000000  -0.00000000  0.50000000  1
  N  N16  1  0.30525150  0.52258364  0.90412979  1
  N  N17  1  0.11845385  0.40112171  0.59587021  1
  N  N18  1  0.69474850  0.47741636  0.09587021  1
  N  N19  1  0.88154615  0.59887829  0.40412979  1
  N  N20  1  0.73903613  0.41486419  0.76092347  1
  N  N21  1  0.15394072  0.97811266  0.73907653  1
  N  N22  1  0.26096387  0.58513581  0.23907653  1
  N  N23  1  0.84605928  0.02188734  0.26092347  1
  O  O24  1  0.39130142  0.45634328  0.84749298  1
  O  O25  1  0.10885030  0.54380844  0.65250702  1
  O  O26  1  0.60869858  0.54365672  0.15250702  1
  O  O27  1  0.89114970  0.45619156  0.34749298  1
  O  O28  1  0.34949318  0.69088444  0.95444836  1
  O  O29  1  0.23643608  0.39504482  0.54555164  1
  O  O30  1  0.65050682  0.30911556  0.04555164  1
  O  O31  1  0.76356392  0.60495518  0.45444836  1
  O  O32  1  0.14508757  0.39019353  0.90837986  1
  O  O33  1  0.98181367  0.23670772  0.59162014  1
  O  O34  1  0.85491243  0.60980647  0.09162014  1
  O  O35  1  0.01818633  0.76329228  0.40837986  1
  O  O36  1  0.64881932  0.45333463  0.67477134  1
  O  O37  1  0.27856328  0.97404797  0.82522866  1
  O  O38  1  0.35118068  0.54666537  0.32522866  1
  O  O39  1  0.72143672  0.02595203  0.17477134  1
  O  O40  1  0.72464690  0.25666005  0.76561356  1
  O  O41  1  0.99104649  0.95903334  0.73438644  1
  O  O42  1  0.27535310  0.74333995  0.23438644  1
  O  O43  1  0.00895351  0.04096666  0.26561356  1
  O  O44  1  0.86222506  0.56787353  0.85611476  1
  O  O45  1  0.21175876  0.00611030  0.64388524  1
  O  O46  1  0.13777494  0.43212647  0.14388524  1
  O  O47  1  0.78824124  0.99388970  0.35611476  1
  O  O48  1  0.56970192  0.89201807  0.52841844  1
  O  O49  1  0.86359964  0.04128349  0.97158156  1
  O  O50  1  0.43029808  0.10798193  0.47158156  1
  O  O51  1  0.13640036  0.95871651  0.02841844  1
  O  O52  1  0.58598680  0.83598680  0.75000000  1
  O  O53  1  0.41401320  0.16401320  0.25000000  1
