# generated using pymatgen
data_Eu2Si3Ni8
_symmetry_space_group_name_H-M   'P 1'
_cell_length_a   7.48750050
_cell_length_b   9.98871277
_cell_length_c   9.98871277
_cell_angle_alpha   90.00000000
_cell_angle_beta   90.00000000
_cell_angle_gamma   90.00000000
_symmetry_Int_Tables_number   1
_chemical_formula_structural   Eu2Si3Ni8
_chemical_formula_sum   'Eu8 Si12 Ni32'
_cell_volume   747.06074111
_cell_formula_units_Z   4
loop_
 _symmetry_equiv_pos_site_id
 _symmetry_equiv_pos_as_xyz
  1  'x, y, z'
loop_
 _atom_site_type_symbol
 _atom_site_label
 _atom_site_symmetry_multiplicity
 _atom_site_fract_x
 _atom_site_fract_y
 _atom_site_fract_z
 _atom_site_occupancy
  Eu  Eu0  1  0.89153511  0.45609330  0.75000000  1
  Eu  Eu1  1  0.89153511  0.04390670  0.75000000  1
  Eu  Eu2  1  0.39153511  0.75000000  0.45609330  1
  Eu  Eu3  1  0.39153511  0.75000000  0.04390670  1
  Eu  Eu4  1  0.10846489  0.54390670  0.25000000  1
  Eu  Eu5  1  0.10846489  0.95609330  0.25000000  1
  Eu  Eu6  1  0.60846489  0.25000000  0.54390670  1
  Eu  Eu7  1  0.60846489  0.25000000  0.95609330  1
  Si  Si8  1  0.51494233  0.75000000  0.75000000  1
  Si  Si9  1  0.01494233  0.75000000  0.75000000  1
  Si  Si10  1  0.48505767  0.25000000  0.25000000  1
  Si  Si11  1  0.98505767  0.25000000  0.25000000  1
  Si  Si12  1  0.25000000  0.45755834  0.54244166  1
  Si  Si13  1  0.25000000  0.04244166  0.54244166  1
  Si  Si14  1  0.25000000  0.45755834  0.95755834  1
  Si  Si15  1  0.25000000  0.04244166  0.95755834  1
  Si  Si16  1  0.75000000  0.54244166  0.45755834  1
  Si  Si17  1  0.75000000  0.95755834  0.45755834  1
  Si  Si18  1  0.75000000  0.54244166  0.04244166  1
  Si  Si19  1  0.75000000  0.95755834  0.04244166  1
  Ni  Ni20  1  0.25749889  0.61254176  0.75000000  1
  Ni  Ni21  1  0.25749889  0.88745824  0.75000000  1
  Ni  Ni22  1  0.75749889  0.75000000  0.61254176  1
  Ni  Ni23  1  0.75749889  0.75000000  0.88745824  1
  Ni  Ni24  1  0.74250111  0.38745824  0.25000000  1
  Ni  Ni25  1  0.74250111  0.11254176  0.25000000  1
  Ni  Ni26  1  0.24250111  0.25000000  0.38745824  1
  Ni  Ni27  1  0.24250111  0.25000000  0.11254176  1
  Ni  Ni28  1  0.53185733  0.54273431  0.62298105  1
  Ni  Ni29  1  0.53185733  0.95726569  0.62298105  1
  Ni  Ni30  1  0.53185733  0.54273431  0.87701895  1
  Ni  Ni31  1  0.53185733  0.95726569  0.87701895  1
  Ni  Ni32  1  0.03185733  0.62298105  0.54273431  1
  Ni  Ni33  1  0.03185733  0.87701895  0.54273431  1
  Ni  Ni34  1  0.03185733  0.62298105  0.95726569  1
  Ni  Ni35  1  0.03185733  0.87701895  0.95726569  1
  Ni  Ni36  1  0.46814267  0.45726569  0.37701895  1
  Ni  Ni37  1  0.46814267  0.04273431  0.37701895  1
  Ni  Ni38  1  0.46814267  0.45726569  0.12298105  1
  Ni  Ni39  1  0.46814267  0.04273431  0.12298105  1
  Ni  Ni40  1  0.96814267  0.37701895  0.45726569  1
  Ni  Ni41  1  0.96814267  0.12298105  0.45726569  1
  Ni  Ni42  1  0.96814267  0.37701895  0.04273431  1
  Ni  Ni43  1  0.96814267  0.12298105  0.04273431  1
  Ni  Ni44  1  0.35228610  0.37752860  0.75000000  1
  Ni  Ni45  1  0.35228610  0.12247140  0.75000000  1
  Ni  Ni46  1  0.85228610  0.75000000  0.37752860  1
  Ni  Ni47  1  0.85228610  0.75000000  0.12247140  1
  Ni  Ni48  1  0.64771390  0.62247140  0.25000000  1
  Ni  Ni49  1  0.64771390  0.87752860  0.25000000  1
  Ni  Ni50  1  0.14771390  0.25000000  0.62247140  1
  Ni  Ni51  1  0.14771390  0.25000000  0.87752860  1
