# generated using pymatgen
data_Sm5Bi3
_symmetry_space_group_name_H-M   'P 1'
_cell_length_a   8.43561343
_cell_length_b   9.74933225
_cell_length_c   12.38302532
_cell_angle_alpha   90.00000000
_cell_angle_beta   90.00000000
_cell_angle_gamma   90.00000000
_symmetry_Int_Tables_number   1
_chemical_formula_structural   Sm5Bi3
_chemical_formula_sum   'Sm20 Bi12'
_cell_volume   1018.39979115
_cell_formula_units_Z   4
loop_
 _symmetry_equiv_pos_site_id
 _symmetry_equiv_pos_as_xyz
  1  'x, y, z'
loop_
 _atom_site_type_symbol
 _atom_site_label
 _atom_site_symmetry_multiplicity
 _atom_site_fract_x
 _atom_site_fract_y
 _atom_site_fract_z
 _atom_site_occupancy
  Sm  Sm0  1  0.69288277  0.94200816  0.43504814  1
  Sm  Sm1  1  0.80711723  0.55799184  0.93504814  1
  Sm  Sm2  1  0.30711723  0.44200816  0.56495186  1
  Sm  Sm3  1  0.19288277  0.05799184  0.06495186  1
  Sm  Sm4  1  0.30711723  0.05799184  0.56495186  1
  Sm  Sm5  1  0.19288277  0.44200816  0.06495186  1
  Sm  Sm6  1  0.69288277  0.55799184  0.43504814  1
  Sm  Sm7  1  0.80711723  0.94200816  0.93504814  1
  Sm  Sm8  1  0.02269319  0.75000000  0.49548021  1
  Sm  Sm9  1  0.47730681  0.75000000  0.99548021  1
  Sm  Sm10  1  0.97730681  0.25000000  0.50451979  1
  Sm  Sm11  1  0.52269319  0.25000000  0.00451979  1
  Sm  Sm12  1  0.33634218  0.75000000  0.27105988  1
  Sm  Sm13  1  0.16365782  0.75000000  0.77105988  1
  Sm  Sm14  1  0.66365782  0.25000000  0.72894012  1
  Sm  Sm15  1  0.83634218  0.25000000  0.22894012  1
  Sm  Sm16  1  0.84287088  0.75000000  0.21008310  1
  Sm  Sm17  1  0.65712912  0.75000000  0.71008310  1
  Sm  Sm18  1  0.15712912  0.25000000  0.78991690  1
  Sm  Sm19  1  0.34287088  0.25000000  0.28991690  1
  Bi  Bi20  1  0.56714712  0.99376521  0.17478917  1
  Bi  Bi21  1  0.93285288  0.50623479  0.67478917  1
  Bi  Bi22  1  0.43285288  0.49376521  0.82521083  1
  Bi  Bi23  1  0.06714712  0.00623479  0.32521083  1
  Bi  Bi24  1  0.43285288  0.00623479  0.82521083  1
  Bi  Bi25  1  0.06714712  0.49376521  0.32521083  1
  Bi  Bi26  1  0.56714712  0.50623479  0.17478917  1
  Bi  Bi27  1  0.93285288  0.99376521  0.67478917  1
  Bi  Bi28  1  0.09449061  0.75000000  0.02445514  1
  Bi  Bi29  1  0.40550939  0.75000000  0.52445514  1
  Bi  Bi30  1  0.90550939  0.25000000  0.97554486  1
  Bi  Bi31  1  0.59449061  0.25000000  0.47554486  1
