# generated using pymatgen
data_Tb2Nb3Ge4
_symmetry_space_group_name_H-M   'P 1'
_cell_length_a   7.03814511
_cell_length_b   7.21093829
_cell_length_c   13.65133750
_cell_angle_alpha   90.00000000
_cell_angle_beta   90.00000000
_cell_angle_gamma   90.00000000
_symmetry_Int_Tables_number   1
_chemical_formula_structural   Tb2Nb3Ge4
_chemical_formula_sum   'Tb8 Nb12 Ge16'
_cell_volume   692.82763068
_cell_formula_units_Z   4
loop_
 _symmetry_equiv_pos_site_id
 _symmetry_equiv_pos_as_xyz
  1  'x, y, z'
loop_
 _atom_site_type_symbol
 _atom_site_label
 _atom_site_symmetry_multiplicity
 _atom_site_fract_x
 _atom_site_fract_y
 _atom_site_fract_z
 _atom_site_occupancy
  Tb  Tb0  1  0.50249960  0.67331895  0.40505494  1
  Tb  Tb1  1  0.00249960  0.82668105  0.09494506  1
  Tb  Tb2  1  0.49750040  0.32668105  0.90505494  1
  Tb  Tb3  1  0.99750040  0.17331895  0.59494506  1
  Tb  Tb4  1  0.49750040  0.32668105  0.59494506  1
  Tb  Tb5  1  0.99750040  0.17331895  0.90505494  1
  Tb  Tb6  1  0.50249960  0.67331895  0.09494506  1
  Tb  Tb7  1  0.00249960  0.82668105  0.40505494  1
  Nb  Nb8  1  0.33578801  0.98726142  0.75000000  1
  Nb  Nb9  1  0.83578801  0.51273858  0.75000000  1
  Nb  Nb10  1  0.66421199  0.01273858  0.25000000  1
  Nb  Nb11  1  0.16421199  0.48726142  0.25000000  1
  Nb  Nb12  1  0.16026755  0.67129929  0.87348552  1
  Nb  Nb13  1  0.66026755  0.82870071  0.62651448  1
  Nb  Nb14  1  0.83973245  0.32870071  0.37348552  1
  Nb  Nb15  1  0.33973245  0.17129929  0.12651448  1
  Nb  Nb16  1  0.83973245  0.32870071  0.12651448  1
  Nb  Nb17  1  0.33973245  0.17129929  0.37348552  1
  Nb  Nb18  1  0.16026755  0.67129929  0.62651448  1
  Nb  Nb19  1  0.66026755  0.82870071  0.87348552  1
  Ge  Ge20  1  0.19537853  0.36366776  0.75000000  1
  Ge  Ge21  1  0.69537853  0.13633224  0.75000000  1
  Ge  Ge22  1  0.80462147  0.63633224  0.25000000  1
  Ge  Ge23  1  0.30462147  0.86366776  0.25000000  1
  Ge  Ge24  1  0.46020188  0.62334966  0.75000000  1
  Ge  Ge25  1  0.96020188  0.87665034  0.75000000  1
  Ge  Ge26  1  0.53979812  0.37665034  0.25000000  1
  Ge  Ge27  1  0.03979812  0.12334966  0.25000000  1
  Ge  Ge28  1  0.32699644  0.96100980  0.95807364  1
  Ge  Ge29  1  0.82699644  0.53899020  0.54192636  1
  Ge  Ge30  1  0.67300356  0.03899020  0.45807364  1
  Ge  Ge31  1  0.17300356  0.46100980  0.04192636  1
  Ge  Ge32  1  0.67300356  0.03899020  0.04192636  1
  Ge  Ge33  1  0.17300356  0.46100980  0.45807364  1
  Ge  Ge34  1  0.32699644  0.96100980  0.54192636  1
  Ge  Ge35  1  0.82699644  0.53899020  0.95807364  1
