# generated using pymatgen
data_WS2O9
_symmetry_space_group_name_H-M   'P 1'
_cell_length_a   7.69643115
_cell_length_b   8.13285624
_cell_length_c   12.22650686
_cell_angle_alpha   90.00000000
_cell_angle_beta   90.00000000
_cell_angle_gamma   108.73457961
_symmetry_Int_Tables_number   1
_chemical_formula_structural   WS2O9
_chemical_formula_sum   'W4 S8 O36'
_cell_volume   724.75709331
_cell_formula_units_Z   4
loop_
 _symmetry_equiv_pos_site_id
 _symmetry_equiv_pos_as_xyz
  1  'x, y, z'
loop_
 _atom_site_type_symbol
 _atom_site_label
 _atom_site_symmetry_multiplicity
 _atom_site_fract_x
 _atom_site_fract_y
 _atom_site_fract_z
 _atom_site_occupancy
  W  W0  1  0.57744995  0.73992076  0.35400250  1
  W  W1  1  0.07744995  0.23992076  0.14599750  1
  W  W2  1  0.42255005  0.26007924  0.64599750  1
  W  W3  1  0.92255005  0.76007924  0.85400250  1
  S  S4  1  0.95011510  0.91018832  0.32524386  1
  S  S5  1  0.45011510  0.41018832  0.17475614  1
  S  S6  1  0.04988490  0.08981168  0.67475614  1
  S  S7  1  0.54988490  0.58981168  0.82524386  1
  S  S8  1  0.32741111  0.63359416  0.52444479  1
  S  S9  1  0.82741111  0.13359416  0.97555521  1
  S  S10  1  0.67258889  0.36640584  0.47555521  1
  S  S11  1  0.17258889  0.86640584  0.02444479  1
  O  O12  1  0.51666229  0.91166806  0.30618632  1
  O  O13  1  0.01666229  0.41166806  0.19381368  1
  O  O14  1  0.48333771  0.08833194  0.69381368  1
  O  O15  1  0.98333771  0.58833194  0.80618632  1
  O  O16  1  0.11541259  0.87215007  0.34212269  1
  O  O17  1  0.61541259  0.37215007  0.15787731  1
  O  O18  1  0.88458741  0.12784993  0.65787731  1
  O  O19  1  0.38458741  0.62784993  0.84212269  1
  O  O20  1  0.97965571  0.09200562  0.28233230  1
  O  O21  1  0.47965571  0.59200562  0.21766770  1
  O  O22  1  0.02034429  0.90799438  0.71766770  1
  O  O23  1  0.52034429  0.40799438  0.78233230  1
  O  O24  1  0.82616552  0.89284778  0.42609965  1
  O  O25  1  0.32616552  0.39284778  0.07390035  1
  O  O26  1  0.17383448  0.10715222  0.57390035  1
  O  O27  1  0.67383448  0.60715222  0.92609965  1
  O  O28  1  0.80786852  0.78372738  0.25097838  1
  O  O29  1  0.30786852  0.28372738  0.24902162  1
  O  O30  1  0.19213148  0.21627262  0.74902162  1
  O  O31  1  0.69213148  0.71627262  0.75097838  1
  O  O32  1  0.18894255  0.70255562  0.55949350  1
  O  O33  1  0.68894255  0.20255562  0.94050650  1
  O  O34  1  0.81105745  0.29744438  0.44050650  1
  O  O35  1  0.31105745  0.79744438  0.05949350  1
  O  O36  1  0.33859923  0.48458990  0.59025865  1
  O  O37  1  0.83859923  0.98458990  0.90974135  1
  O  O38  1  0.66140077  0.51541010  0.40974135  1
  O  O39  1  0.16140077  0.01541010  0.09025865  1
  O  O40  1  0.31643050  0.58278308  0.40169154  1
  O  O41  1  0.81643050  0.08278308  0.09830846  1
  O  O42  1  0.68356950  0.41721692  0.59830846  1
  O  O43  1  0.18356950  0.91721692  0.90169154  1
  O  O44  1  0.52372053  0.76903220  0.51789660  1
  O  O45  1  0.02372053  0.26903220  0.98210340  1
  O  O46  1  0.47627947  0.23096780  0.48210340  1
  O  O47  1  0.97627947  0.73096780  0.01789660  1
