# generated using pymatgen
data_Th(GePt)2
_symmetry_space_group_name_H-M   'P 1'
_cell_length_a   4.41425921
_cell_length_b   4.41425922
_cell_length_c   5.89936156
_cell_angle_alpha   111.97056707
_cell_angle_beta   111.97056704
_cell_angle_gamma   90.00000002
_symmetry_Int_Tables_number   1
_chemical_formula_structural   Th(GePt)2
_chemical_formula_sum   'Th1 Ge2 Pt2'
_cell_volume   97.54453559
_cell_formula_units_Z   1
loop_
 _symmetry_equiv_pos_site_id
 _symmetry_equiv_pos_as_xyz
  1  'x, y, z'
loop_
 _atom_site_type_symbol
 _atom_site_label
 _atom_site_symmetry_multiplicity
 _atom_site_fract_x
 _atom_site_fract_y
 _atom_site_fract_z
 _atom_site_occupancy
  Ge  Ge0  1  0.62352879  0.62352879  0.24705758  1
  Ge  Ge1  1  0.37647121  0.37647121  0.75294242  1
  Pt  Pt2  1  0.25000000  0.75000000  0.50000000  1
  Pt  Pt3  1  0.75000000  0.25000000  0.50000000  1
  Th  Th4  1  0.00000000  0.00000000  0.00000000  1
