# generated using pymatgen
data_NaZn2(BH4)5
_symmetry_space_group_name_H-M   'P 1'
_cell_length_a   9.15092246
_cell_length_b   9.29977663
_cell_length_c   16.75411338
_cell_angle_alpha   90.00000000
_cell_angle_beta   90.00000000
_cell_angle_gamma   110.78593782
_symmetry_Int_Tables_number   1
_chemical_formula_structural   NaZn2(BH4)5
_chemical_formula_sum   'Na4 Zn8 B20 H80'
_cell_volume   1332.99938777
_cell_formula_units_Z   4
loop_
 _symmetry_equiv_pos_site_id
 _symmetry_equiv_pos_as_xyz
  1  'x, y, z'
loop_
 _atom_site_type_symbol
 _atom_site_label
 _atom_site_symmetry_multiplicity
 _atom_site_fract_x
 _atom_site_fract_y
 _atom_site_fract_z
 _atom_site_occupancy
  Na  Na0  1  0.67084609  0.30545135  0.06460931  1
  Na  Na1  1  0.82915391  0.69454865  0.56460931  1
  Na  Na2  1  0.32915391  0.69454865  0.93539069  1
  Na  Na3  1  0.17084609  0.30545135  0.43539069  1
  Zn  Zn4  1  0.12456861  0.29517265  0.72836510  1
  Zn  Zn5  1  0.37543139  0.70482735  0.22836510  1
  Zn  Zn6  1  0.87543139  0.70482735  0.27163490  1
  Zn  Zn7  1  0.62456861  0.29517265  0.77163490  1
  Zn  Zn8  1  0.89099127  0.86543666  0.87324204  1
  Zn  Zn9  1  0.60900873  0.13456334  0.37324204  1
  Zn  Zn10  1  0.10900873  0.13456334  0.12675796  1
  Zn  Zn11  1  0.39099127  0.86543666  0.62675796  1
  B  B12  1  0.77711741  0.52261124  0.18325968  1
  B  B13  1  0.72288259  0.47738876  0.68325968  1
  B  B14  1  0.22288259  0.47738876  0.81674032  1
  B  B15  1  0.27711741  0.52261124  0.31674032  1
  B  B16  1  0.85348131  0.70519202  0.40090403  1
  B  B17  1  0.64651869  0.29480798  0.90090403  1
  B  B18  1  0.14651869  0.29480798  0.59909597  1
  B  B19  1  0.35348131  0.70519202  0.09909597  1
  B  B20  1  0.97654386  0.07289472  0.79036434  1
  B  B21  1  0.52345614  0.92710528  0.29036434  1
  B  B22  1  0.02345614  0.92710528  0.20963566  1
  B  B23  1  0.47654386  0.07289472  0.70963566  1
  B  B24  1  0.08550126  0.79602410  0.91177774  1
  B  B25  1  0.41449874  0.20397590  0.41177774  1
  B  B26  1  0.91449874  0.20397590  0.08822226  1
  B  B27  1  0.58550126  0.79602410  0.58822226  1
  B  B28  1  0.13946461  0.77513134  0.60347824  1
  B  B29  1  0.36053539  0.22486866  0.10347824  1
  B  B30  1  0.86053539  0.22486866  0.39652176  1
  B  B31  1  0.63946461  0.77513134  0.89652176  1
  H  H32  1  0.91585411  0.56349808  0.20839562  1
  H  H33  1  0.58414589  0.43650192  0.70839562  1
  H  H34  1  0.08414589  0.43650192  0.79160438  1
  H  H35  1  0.41585411  0.56349808  0.29160438  1
  H  H36  1  0.71734356  0.38857167  0.20142215  1
  H  H37  1  0.78265644  0.61142833  0.70142215  1
  H  H38  1  0.28265644  0.61142833  0.79857785  1
  H  H39  1  0.21734356  0.38857167  0.29857785  1
  H  H40  1  0.69583197  0.59098547  0.21496085  1
  H  H41  1  0.80416803  0.40901453  0.71496085  1
  H  H42  1  0.30416803  0.40901453  0.78503915  1
  H  H43  1  0.19583197  0.59098547  0.28503915  1
  H  H44  1  0.78813406  0.55764417  0.11315108  1
  H  H45  1  0.71186594  0.44235583  0.61315108  1
  H  H46  1  0.21186594  0.44235583  0.88684892  1
  H  H47  1  0.28813406  0.55764417  0.38684892  1
  H  H48  1  0.92249044  0.81910036  0.43980395  1
  H  H49  1  0.57750956  0.18089964  0.93980395  1
  H  H50  1  0.07750956  0.18089964  0.56019605  1
  H  H51  1  0.42249044  0.81910036  0.06019605  1
  H  H52  1  0.76392056  0.74328932  0.35552316  1
  H  H53  1  0.73607944  0.25671068  0.85552316  1
  H  H54  1  0.23607944  0.25671068  0.64447684  1
  H  H55  1  0.26392056  0.74328932  0.14447684  1
  H  H56  1  0.95790363  0.66932471  0.36607387  1
  H  H57  1  0.54209637  0.33067529  0.86607387  1
  H  H58  1  0.04209637  0.33067529  0.63392613  1
  H  H59  1  0.45790363  0.66932471  0.13392613  1
  H  H60  1  0.77200309  0.58976074  0.43481738  1
  H  H61  1  0.72799691  0.41023926  0.93481738  1
  H  H62  1  0.22799691  0.41023926  0.56518262  1
  H  H63  1  0.27200309  0.58976074  0.06518262  1
  H  H64  1  0.93170506  0.94370234  0.76080343  1
  H  H65  1  0.56829494  0.05629766  0.26080343  1
  H  H66  1  0.06829494  0.05629766  0.23919657  1
  H  H67  1  0.43170506  0.94370234  0.73919657  1
  H  H68  1  0.94836642  0.08629361  0.86161510  1
  H  H69  1  0.55163358  0.91370639  0.36161510  1
  H  H70  1  0.05163358  0.91370639  0.13838490  1
  H  H71  1  0.44836642  0.08629361  0.63838490  1
  H  H72  1  0.12096473  0.11998918  0.78485815  1
  H  H73  1  0.37903527  0.88001082  0.28485815  1
  H  H74  1  0.87903527  0.88001082  0.21514185  1
  H  H75  1  0.62096473  0.11998918  0.71514185  1
  H  H76  1  0.90662521  0.14308463  0.75372167  1
  H  H77  1  0.59337479  0.85691537  0.25372167  1
  H  H78  1  0.09337479  0.85691537  0.24627833  1
  H  H79  1  0.40662521  0.14308463  0.74627833  1
  H  H80  1  0.99628232  0.73803842  0.85337943  1
  H  H81  1  0.50371768  0.26196158  0.35337943  1
  H  H82  1  0.00371768  0.26196158  0.14662057  1
  H  H83  1  0.49628232  0.73803842  0.64662057  1
  H  H84  1  0.21379112  0.86181059  0.88285856  1
  H  H85  1  0.28620888  0.13818941  0.38285856  1
  H  H86  1  0.78620888  0.13818941  0.11714144  1
  H  H87  1  0.71379112  0.86181059  0.61714144  1
  H  H88  1  0.05223158  0.89398595  0.95207504  1
  H  H89  1  0.44776842  0.10601405  0.45207504  1
  H  H90  1  0.94776842  0.10601405  0.04792496  1
  H  H91  1  0.55223158  0.89398595  0.54792496  1
  H  H92  1  0.07002804  0.68767769  0.95494775  1
  H  H93  1  0.42997196  0.31232231  0.45494775  1
  H  H94  1  0.92997196  0.31232231  0.04505225  1
  H  H95  1  0.57002804  0.68767769  0.54505225  1
  H  H96  1  0.07357472  0.65488914  0.56946470  1
  H  H97  1  0.42642528  0.34511086  0.06946470  1
  H  H98  1  0.92642528  0.34511086  0.43053530  1
  H  H99  1  0.57357472  0.65488914  0.93053530  1
  H  H100  1  0.19651997  0.74052285  0.66545452  1
  H  H101  1  0.30348003  0.25947715  0.16545452  1
  H  H102  1  0.80348003  0.25947715  0.33454548  1
  H  H103  1  0.69651997  0.74052285  0.83454548  1
  H  H104  1  0.23784299  0.85789249  0.55423668  1
  H  H105  1  0.26215701  0.14210751  0.05423668  1
  H  H106  1  0.76215701  0.14210751  0.44576332  1
  H  H107  1  0.73784299  0.85789249  0.94576332  1
  H  H108  1  0.06298275  0.85129863  0.62531310  1
  H  H109  1  0.43701725  0.14870137  0.12531310  1
  H  H110  1  0.93701725  0.14870137  0.37468690  1
  H  H111  1  0.56298275  0.85129863  0.87468690  1
