# generated using pymatgen
data_U2ReB6
_symmetry_space_group_name_H-M   'P 1'
_cell_length_a   3.63981915
_cell_length_b   9.26765928
_cell_length_c   11.35240857
_cell_angle_alpha   90.00000000
_cell_angle_beta   90.00000000
_cell_angle_gamma   90.00000000
_symmetry_Int_Tables_number   1
_chemical_formula_structural   U2ReB6
_chemical_formula_sum   'U8 Re4 B24'
_cell_volume   382.94629959
_cell_formula_units_Z   4
loop_
 _symmetry_equiv_pos_site_id
 _symmetry_equiv_pos_as_xyz
  1  'x, y, z'
loop_
 _atom_site_type_symbol
 _atom_site_label
 _atom_site_symmetry_multiplicity
 _atom_site_fract_x
 _atom_site_fract_y
 _atom_site_fract_z
 _atom_site_occupancy
  U  U0  1  -0.00000000  0.33551170  0.40772244  1
  U  U1  1  -0.00000000  0.66448830  0.59227756  1
  U  U2  1  0.00000000  0.83551170  0.09227756  1
  U  U3  1  0.00000000  0.16448830  0.90772244  1
  U  U4  1  0.00000000  0.95590917  0.39520972  1
  U  U5  1  -0.00000000  0.04409083  0.60479028  1
  U  U6  1  -0.00000000  0.45590917  0.10479028  1
  U  U7  1  -0.00000000  0.54409083  0.89520972  1
  Re  Re8  1  0.00000000  0.64306773  0.32005946  1
  Re  Re9  1  0.00000000  0.35693227  0.67994054  1
  Re  Re10  1  -0.00000000  0.14306773  0.17994054  1
  Re  Re11  1  0.00000000  0.85693227  0.82005946  1
  B  B12  1  0.50000000  0.54933319  0.43298601  1
  B  B13  1  0.50000000  0.45066681  0.56701399  1
  B  B14  1  0.50000000  0.04933319  0.06701399  1
  B  B15  1  0.50000000  0.95066681  0.93298601  1
  B  B16  1  0.50000000  0.74213564  0.42345301  1
  B  B17  1  0.50000000  0.25786436  0.57654699  1
  B  B18  1  0.50000000  0.24213564  0.07654699  1
  B  B19  1  0.50000000  0.75786436  0.92345301  1
  B  B20  1  0.50000000  0.80235532  0.27236149  1
  B  B21  1  0.50000000  0.19764468  0.72763851  1
  B  B22  1  0.50000000  0.30235532  0.22763851  1
  B  B23  1  0.50000000  0.69764468  0.77236149  1
  B  B24  1  0.50000000  0.64325833  0.18779397  1
  B  B25  1  0.50000000  0.35674167  0.81220603  1
  B  B26  1  0.50000000  0.14325833  0.31220603  1
  B  B27  1  0.50000000  0.85674167  0.68779397  1
  B  B28  1  0.50000000  0.98395764  0.21857085  1
  B  B29  1  0.50000000  0.01604236  0.78142915  1
  B  B30  1  0.50000000  0.48395764  0.28142915  1
  B  B31  1  0.50000000  0.51604236  0.71857085  1
  B  B32  1  0.50000000  0.64298934  0.03912824  1
  B  B33  1  0.50000000  0.35701066  0.96087176  1
  B  B34  1  0.50000000  0.14298934  0.46087176  1
  B  B35  1  0.50000000  0.85701066  0.53912824  1
