# generated using pymatgen
data_VAgP2O7
_symmetry_space_group_name_H-M   'P 1'
_cell_length_a   7.45809815
_cell_length_b   8.17541725
_cell_length_c   9.74889634
_cell_angle_alpha   90.00000000
_cell_angle_beta   111.85800086
_cell_angle_gamma   90.00000000
_symmetry_Int_Tables_number   1
_chemical_formula_structural   VAgP2O7
_chemical_formula_sum   'V4 Ag4 P8 O28'
_cell_volume   551.68687462
_cell_formula_units_Z   4
loop_
 _symmetry_equiv_pos_site_id
 _symmetry_equiv_pos_as_xyz
  1  'x, y, z'
loop_
 _atom_site_type_symbol
 _atom_site_label
 _atom_site_symmetry_multiplicity
 _atom_site_fract_x
 _atom_site_fract_y
 _atom_site_fract_z
 _atom_site_occupancy
  V  V0  1  0.76165666  0.49306977  0.24990570  1
  V  V1  1  0.23834334  0.99306977  0.25009430  1
  V  V2  1  0.23834334  0.50693023  0.75009430  1
  V  V3  1  0.76165666  0.00693023  0.74990570  1
  Ag  Ag4  1  0.79295070  0.47193942  0.80963313  1
  Ag  Ag5  1  0.20704930  0.97193942  0.69036687  1
  Ag  Ag6  1  0.20704930  0.52806058  0.19036687  1
  Ag  Ag7  1  0.79295070  0.02806058  0.30963313  1
  P  P8  1  0.57456502  0.25414890  0.95597386  1
  P  P9  1  0.42543498  0.75414890  0.54402614  1
  P  P10  1  0.42543498  0.74585110  0.04402614  1
  P  P11  1  0.57456502  0.24585110  0.45597386  1
  P  P12  1  0.17468492  0.29170685  0.45407028  1
  P  P13  1  0.82531508  0.79170685  0.04592972  1
  P  P14  1  0.82531508  0.70829315  0.54592972  1
  P  P15  1  0.17468492  0.20829315  0.95407028  1
  O  O16  1  0.68626975  0.29460507  0.11928832  1
  O  O17  1  0.31373025  0.79460507  0.38071168  1
  O  O18  1  0.31373025  0.70539493  0.88071168  1
  O  O19  1  0.68626975  0.20539493  0.61928832  1
  O  O20  1  0.03611769  0.41305397  0.34641133  1
  O  O21  1  0.96388231  0.91305397  0.15358867  1
  O  O22  1  0.96388231  0.58694603  0.65358867  1
  O  O23  1  0.03611769  0.08694603  0.84641133  1
  O  O24  1  0.18592543  0.30628945  0.61351400  1
  O  O25  1  0.81407457  0.80628945  0.88648600  1
  O  O26  1  0.81407457  0.69371055  0.38648600  1
  O  O27  1  0.18592543  0.19371055  0.11351400  1
  O  O28  1  0.50748781  0.40954174  0.85905400  1
  O  O29  1  0.49251219  0.90954174  0.64094600  1
  O  O30  1  0.49251219  0.59045826  0.14094600  1
  O  O31  1  0.50748781  0.09045826  0.35905400  1
  O  O32  1  0.68462967  0.36327524  0.39822850  1
  O  O33  1  0.31537033  0.86327524  0.10177150  1
  O  O34  1  0.31537033  0.63672476  0.60177150  1
  O  O35  1  0.68462967  0.13672476  0.89822850  1
  O  O36  1  0.13924352  0.38700930  0.90037963  1
  O  O37  1  0.86075648  0.88700930  0.59962037  1
  O  O38  1  0.86075648  0.61299070  0.09962037  1
  O  O39  1  0.13924352  0.11299070  0.40037963  1
  O  O40  1  0.38132658  0.34437967  0.44728818  1
  O  O41  1  0.61867342  0.84437967  0.05271182  1
  O  O42  1  0.61867342  0.65562033  0.55271182  1
  O  O43  1  0.38132658  0.15562033  0.94728818  1
