# generated using pymatgen
data_KNb3(TeO6)2
_symmetry_space_group_name_H-M   'P 1'
_cell_length_a   4.10666928
_cell_length_b   15.22989135
_cell_length_c   17.74157644
_cell_angle_alpha   90.00000000
_cell_angle_beta   90.00000000
_cell_angle_gamma   90.00000000
_symmetry_Int_Tables_number   1
_chemical_formula_structural   KNb3(TeO6)2
_chemical_formula_sum   'K4 Nb12 Te8 O48'
_cell_volume   1109.63140906
_cell_formula_units_Z   4
loop_
 _symmetry_equiv_pos_site_id
 _symmetry_equiv_pos_as_xyz
  1  'x, y, z'
loop_
 _atom_site_type_symbol
 _atom_site_label
 _atom_site_symmetry_multiplicity
 _atom_site_fract_x
 _atom_site_fract_y
 _atom_site_fract_z
 _atom_site_occupancy
  K  K0  1  0.22654931  0.07117083  0.75000000  1
  K  K1  1  0.77345069  0.92882917  0.25000000  1
  K  K2  1  0.22654931  0.42882917  0.25000000  1
  K  K3  1  0.77345069  0.57117083  0.75000000  1
  Nb  Nb4  1  0.23395458  0.79347247  0.75000000  1
  Nb  Nb5  1  0.76604542  0.20652753  0.25000000  1
  Nb  Nb6  1  0.23395458  0.70652753  0.25000000  1
  Nb  Nb7  1  0.76604542  0.29347247  0.75000000  1
  Nb  Nb8  1  0.76824466  0.15040746  0.56946098  1
  Nb  Nb9  1  0.23175534  0.84959254  0.06946098  1
  Nb  Nb10  1  0.76824466  0.34959254  0.43053902  1
  Nb  Nb11  1  0.23175534  0.65040746  0.93053902  1
  Nb  Nb12  1  0.23175534  0.84959254  0.43053902  1
  Nb  Nb13  1  0.76824466  0.15040746  0.93053902  1
  Nb  Nb14  1  0.23175534  0.65040746  0.56946098  1
  Nb  Nb15  1  0.76824466  0.34959254  0.06946098  1
  Te  Te16  1  0.61170345  0.91461967  0.59737766  1
  Te  Te17  1  0.38829655  0.08538033  0.09737766  1
  Te  Te18  1  0.61170345  0.58538033  0.40262234  1
  Te  Te19  1  0.38829655  0.41461967  0.90262234  1
  Te  Te20  1  0.38829655  0.08538033  0.40262234  1
  Te  Te21  1  0.61170345  0.91461967  0.90262234  1
  Te  Te22  1  0.38829655  0.41461967  0.59737766  1
  Te  Te23  1  0.61170345  0.58538033  0.09737766  1
  O  O24  1  0.28254508  0.93322377  0.52301045  1
  O  O25  1  0.71745492  0.06677623  0.02301045  1
  O  O26  1  0.28254508  0.56677623  0.47698955  1
  O  O27  1  0.71745492  0.43322377  0.97698955  1
  O  O28  1  0.71745492  0.06677623  0.47698955  1
  O  O29  1  0.28254508  0.93322377  0.97698955  1
  O  O30  1  0.71745492  0.43322377  0.52301045  1
  O  O31  1  0.28254508  0.56677623  0.02301045  1
  O  O32  1  0.69784981  0.03143704  0.62950302  1
  O  O33  1  0.30215019  0.96856296  0.12950302  1
  O  O34  1  0.69784981  0.46856296  0.37049698  1
  O  O35  1  0.30215019  0.53143704  0.87049698  1
  O  O36  1  0.30215019  0.96856296  0.37049698  1
  O  O37  1  0.69784981  0.03143704  0.87049698  1
  O  O38  1  0.30215019  0.53143704  0.62950302  1
  O  O39  1  0.69784981  0.46856296  0.12950302  1
  O  O40  1  0.28997610  0.89618080  0.67357961  1
  O  O41  1  0.71002390  0.10381920  0.17357961  1
  O  O42  1  0.28997610  0.60381920  0.32642039  1
  O  O43  1  0.71002390  0.39618080  0.82642039  1
  O  O44  1  0.71002390  0.10381920  0.32642039  1
  O  O45  1  0.28997610  0.89618080  0.82642039  1
  O  O46  1  0.71002390  0.39618080  0.67357961  1
  O  O47  1  0.28997610  0.60381920  0.17357961  1
  O  O48  1  0.28803366  0.70793964  0.66796898  1
  O  O49  1  0.71196634  0.29206036  0.16796898  1
  O  O50  1  0.28803366  0.79206036  0.33203102  1
  O  O51  1  0.71196634  0.20793964  0.83203102  1
  O  O52  1  0.71196634  0.29206036  0.33203102  1
  O  O53  1  0.28803366  0.70793964  0.83203102  1
  O  O54  1  0.71196634  0.20793964  0.66796898  1
  O  O55  1  0.28803366  0.79206036  0.16796898  1
  O  O56  1  0.78825315  0.80050400  0.75000000  1
  O  O57  1  0.21174685  0.19949600  0.25000000  1
  O  O58  1  0.78825315  0.69949600  0.25000000  1
  O  O59  1  0.21174685  0.30050400  0.75000000  1
  O  O60  1  0.70679905  0.25000000  0.50000000  1
  O  O61  1  0.29320095  0.75000000  0.00000000  1
  O  O62  1  0.29320095  0.75000000  0.50000000  1
  O  O63  1  0.70679905  0.25000000  0.00000000  1
  O  O64  1  0.21159989  0.14632426  0.56800298  1
  O  O65  1  0.78840011  0.85367574  0.06800298  1
  O  O66  1  0.21159989  0.35367574  0.43199702  1
  O  O67  1  0.78840011  0.64632426  0.93199702  1
  O  O68  1  0.78840011  0.85367574  0.43199702  1
  O  O69  1  0.21159989  0.14632426  0.93199702  1
  O  O70  1  0.78840011  0.64632426  0.56800298  1
  O  O71  1  0.21159989  0.35367574  0.06800298  1
