# generated using pymatgen
data_K2NiH12(SeO7)2
_symmetry_space_group_name_H-M   'P 1'
_cell_length_a   6.45396706
_cell_length_b   9.25981041
_cell_length_c   12.70891715
_cell_angle_alpha   90.00000000
_cell_angle_beta   90.00000000
_cell_angle_gamma   104.77063601
_symmetry_Int_Tables_number   1
_chemical_formula_structural   K2NiH12(SeO7)2
_chemical_formula_sum   'K4 Ni2 H24 Se4 O28'
_cell_volume   734.41794736
_cell_formula_units_Z   2
loop_
 _symmetry_equiv_pos_site_id
 _symmetry_equiv_pos_as_xyz
  1  'x, y, z'
loop_
 _atom_site_type_symbol
 _atom_site_label
 _atom_site_symmetry_multiplicity
 _atom_site_fract_x
 _atom_site_fract_y
 _atom_site_fract_z
 _atom_site_occupancy
  K  K0  1  0.34852534  0.62782090  0.14827670  1
  K  K1  1  0.65147466  0.87217910  0.64827670  1
  K  K2  1  0.65147466  0.37217910  0.85172330  1
  K  K3  1  0.34852534  0.12782090  0.35172330  1
  Ni  Ni4  1  0.00000000  0.50000000  0.50000000  1
  Ni  Ni5  1  0.00000000  -0.00000000  0.00000000  1
  H  H6  1  0.31469439  0.70806721  0.41393760  1
  H  H7  1  0.68530561  0.79193279  0.91393760  1
  H  H8  1  0.68530561  0.29193279  0.58606240  1
  H  H9  1  0.31469439  0.20806721  0.08606240  1
  H  H10  1  0.09433448  0.74234163  0.37590762  1
  H  H11  1  0.90566552  0.75765837  0.87590762  1
  H  H12  1  0.90566552  0.25765837  0.62409238  1
  H  H13  1  0.09433448  0.24234163  0.12409238  1
  H  H14  1  0.92137793  0.23366502  0.40242793  1
  H  H15  1  0.07862207  0.26633498  0.90242793  1
  H  H16  1  0.07862207  0.76633498  0.59757207  1
  H  H17  1  0.92137793  0.73366502  0.09757207  1
  H  H18  1  0.99986343  0.36429872  0.31857730  1
  H  H19  1  0.00013657  0.13570128  0.81857730  1
  H  H20  1  0.00013657  0.63570128  0.68142270  1
  H  H21  1  0.99986343  0.86429872  0.18142270  1
  H  H22  1  0.32377182  0.39349362  0.55526452  1
  H  H23  1  0.67622818  0.10650638  0.05526452  1
  H  H24  1  0.67622818  0.60650638  0.44473548  1
  H  H25  1  0.32377182  0.89349362  0.94473548  1
  H  H26  1  0.32265648  0.52481196  0.63623009  1
  H  H27  1  0.67734352  0.97518804  0.13623009  1
  H  H28  1  0.67734352  0.47518804  0.36376991  1
  H  H29  1  0.32265648  0.02481196  0.86376991  1
  Se  Se30  1  0.73011793  0.90985576  0.35886589  1
  Se  Se31  1  0.26988207  0.59014424  0.85886589  1
  Se  Se32  1  0.26988207  0.09014424  0.64113411  1
  Se  Se33  1  0.73011793  0.40985576  0.14113411  1
  O  O34  1  0.57018879  0.90586749  0.25401003  1
  O  O35  1  0.42981121  0.59413251  0.75401003  1
  O  O36  1  0.42981121  0.09413251  0.74598997  1
  O  O37  1  0.57018879  0.40586749  0.24598997  1
  O  O38  1  0.75407257  0.07029130  0.42407149  1
  O  O39  1  0.24592743  0.42970870  0.92407149  1
  O  O40  1  0.24592743  0.92970870  0.57592851  1
  O  O41  1  0.75407257  0.57029130  0.07592851  1
  O  O42  1  0.60806291  0.77172137  0.44089671  1
  O  O43  1  0.39193709  0.72827863  0.94089671  1
  O  O44  1  0.39193709  0.22827863  0.55910329  1
  O  O45  1  0.60806291  0.27172137  0.05910329  1
  O  O46  1  0.97083956  0.88884844  0.32034336  1
  O  O47  1  0.02916044  0.61115156  0.82034336  1
  O  O48  1  0.02916044  0.11115156  0.67965664  1
  O  O49  1  0.97083956  0.38884844  0.17965664  1
  O  O50  1  0.16507731  0.66127777  0.39114749  1
  O  O51  1  0.83492269  0.83872223  0.89114749  1
  O  O52  1  0.83492269  0.33872223  0.60885251  1
  O  O53  1  0.16507731  0.16127777  0.10885251  1
  O  O54  1  0.02357588  0.33460126  0.39176978  1
  O  O55  1  0.97642412  0.16539874  0.89176978  1
  O  O56  1  0.97642412  0.66539874  0.60823022  1
  O  O57  1  0.02357588  0.83460126  0.10823022  1
  O  O58  1  0.28485509  0.49058270  0.56269734  1
  O  O59  1  0.71514491  0.00941730  0.06269734  1
  O  O60  1  0.71514491  0.50941730  0.43730266  1
  O  O61  1  0.28485509  0.99058270  0.93730266  1
