# generated using pymatgen
data_RbY(BH4)4
_symmetry_space_group_name_H-M   'P 1'
_cell_length_a   8.44264696
_cell_length_b   10.80752412
_cell_length_c   12.66187441
_cell_angle_alpha   90.00000000
_cell_angle_beta   90.00000000
_cell_angle_gamma   89.54343248
_symmetry_Int_Tables_number   1
_chemical_formula_structural   RbY(BH4)4
_chemical_formula_sum   'Rb4 Y4 B16 H64'
_cell_volume   1155.28478974
_cell_formula_units_Z   4
loop_
 _symmetry_equiv_pos_site_id
 _symmetry_equiv_pos_as_xyz
  1  'x, y, z'
loop_
 _atom_site_type_symbol
 _atom_site_label
 _atom_site_symmetry_multiplicity
 _atom_site_fract_x
 _atom_site_fract_y
 _atom_site_fract_z
 _atom_site_occupancy
  Rb  Rb0  1  0.75059213  0.66860979  0.45986460  1
  Rb  Rb1  1  0.74940787  0.83139021  0.95986460  1
  Rb  Rb2  1  0.24940787  0.33139021  0.54013540  1
  Rb  Rb3  1  0.25059213  0.16860979  0.04013540  1
  Y  Y4  1  0.25014586  0.66627314  0.17944345  1
  Y  Y5  1  0.24985414  0.83372686  0.67944345  1
  Y  Y6  1  0.74985414  0.33372686  0.82055655  1
  Y  Y7  1  0.75014586  0.16627314  0.32055655  1
  B  B8  1  0.38277992  0.58219922  0.33932138  1
  B  B9  1  0.11722008  0.91780078  0.83932138  1
  B  B10  1  0.61722008  0.41780078  0.66067862  1
  B  B11  1  0.88277992  0.08219922  0.16067862  1
  B  B12  1  0.39614534  0.85234750  0.11875571  1
  B  B13  1  0.10385466  0.64765250  0.61875571  1
  B  B14  1  0.60385466  0.14765250  0.88124429  1
  B  B15  1  0.89614534  0.35234750  0.38124429  1
  B  B16  1  0.97297679  0.72571784  0.22463088  1
  B  B17  1  0.52702321  0.77428216  0.72463088  1
  B  B18  1  0.02702321  0.27428216  0.77536912  1
  B  B19  1  0.47297679  0.22571784  0.27536912  1
  B  B20  1  0.25088220  0.50840842  0.03845271  1
  B  B21  1  0.24911780  0.99159158  0.53845271  1
  B  B22  1  0.74911780  0.49159158  0.96154729  1
  B  B23  1  0.75088220  0.00840842  0.46154729  1
  H  H24  1  0.44627686  0.54081578  0.41709340  1
  H  H25  1  0.05372314  0.95918422  0.91709340  1
  H  H26  1  0.55372314  0.45918422  0.58290660  1
  H  H27  1  0.94627686  0.04081578  0.08290660  1
  H  H28  1  0.29176857  0.50584921  0.29991598  1
  H  H29  1  0.20823143  0.99415079  0.79991598  1
  H  H30  1  0.70823143  0.49415079  0.70008402  1
  H  H31  1  0.79176857  0.00584921  0.20008402  1
  H  H32  1  0.48061387  0.60901424  0.27044168  1
  H  H33  1  0.01938613  0.89098576  0.77044168  1
  H  H34  1  0.51938613  0.39098576  0.72955832  1
  H  H35  1  0.98061387  0.10901424  0.22955832  1
  H  H36  1  0.30472283  0.67668727  0.35985019  1
  H  H37  1  0.19527717  0.82331273  0.85985019  1
  H  H38  1  0.69527717  0.32331273  0.64014981  1
  H  H39  1  0.80472283  0.17668727  0.14014981  1
  H  H40  1  0.46693762  0.94218325  0.08888786  1
  H  H41  1  0.03306238  0.55781675  0.58888786  1
  H  H42  1  0.53306238  0.05781675  0.91111214  1
  H  H43  1  0.96693762  0.44218325  0.41111214  1
  H  H44  1  0.31702752  0.80600501  0.04683818  1
  H  H45  1  0.18297248  0.69399499  0.54683818  1
  H  H46  1  0.68297248  0.19399499  0.95316182  1
  H  H47  1  0.81702752  0.30600501  0.45316182  1
  H  H48  1  0.30520539  0.87834094  0.19215676  1
  H  H49  1  0.19479461  0.62165906  0.69215676  1
  H  H50  1  0.69479461  0.12165906  0.80784324  1
  H  H51  1  0.80520539  0.37834094  0.30784324  1
  H  H52  1  0.48877151  0.77180520  0.15170963  1
  H  H53  1  0.01122849  0.72819480  0.65170963  1
  H  H54  1  0.51122849  0.22819480  0.84829037  1
  H  H55  1  0.98877151  0.27180520  0.34829037  1
  H  H56  1  0.83869481  0.75422752  0.24573109  1
  H  H57  1  0.66130519  0.74577248  0.74573109  1
  H  H58  1  0.16130519  0.24577248  0.75426891  1
  H  H59  1  0.33869481  0.25422752  0.25426891  1
  H  H60  1  0.06946343  0.78617007  0.27675800  1
  H  H61  1  0.43053657  0.71382993  0.77675800  1
  H  H62  1  0.93053657  0.21382993  0.72324200  1
  H  H63  1  0.56946343  0.28617007  0.22324200  1
  H  H64  1  0.99954535  0.61425306  0.24045215  1
  H  H65  1  0.50045465  0.88574694  0.74045215  1
  H  H66  1  0.00045465  0.38574694  0.75954785  1
  H  H67  1  0.49954535  0.11425306  0.25954785  1
  H  H68  1  0.00250687  0.74531519  0.13007136  1
  H  H69  1  0.49749313  0.75468481  0.63007136  1
  H  H70  1  0.99749313  0.25468481  0.86992864  1
  H  H71  1  0.50250687  0.24531519  0.36992864  1
  H  H72  1  0.25196854  0.43297960  0.96907481  1
  H  H73  1  0.24803146  0.06702040  0.46907481  1
  H  H74  1  0.74803146  0.56702040  0.03092519  1
  H  H75  1  0.75196854  0.93297960  0.53092519  1
  H  H76  1  0.38534630  0.52620563  0.07518965  1
  H  H77  1  0.11465370  0.97379437  0.57518965  1
  H  H78  1  0.61465370  0.47379437  0.92481035  1
  H  H79  1  0.88534630  0.02620563  0.42481035  1
  H  H80  1  0.16444290  0.47874422  0.11378070  1
  H  H81  1  0.33555710  0.02125578  0.61378070  1
  H  H82  1  0.83555710  0.52125578  0.88621930  1
  H  H83  1  0.66444290  0.97874422  0.38621930  1
  H  H84  1  0.20111855  0.60964135  0.00566196  1
  H  H85  1  0.29888145  0.89035865  0.50566196  1
  H  H86  1  0.79888145  0.39035865  0.99433804  1
  H  H87  1  0.70111855  0.10964135  0.49433804  1
