# generated using pymatgen
data_Gd2B6Os
_symmetry_space_group_name_H-M   'P 1'
_cell_length_a   3.78634327
_cell_length_b   9.14631646
_cell_length_c   11.56575142
_cell_angle_alpha   90.00000000
_cell_angle_beta   90.00000000
_cell_angle_gamma   90.00000000
_symmetry_Int_Tables_number   1
_chemical_formula_structural   Gd2B6Os
_chemical_formula_sum   'Gd8 B24 Os4'
_cell_volume   400.53462199
_cell_formula_units_Z   4
loop_
 _symmetry_equiv_pos_site_id
 _symmetry_equiv_pos_as_xyz
  1  'x, y, z'
loop_
 _atom_site_type_symbol
 _atom_site_label
 _atom_site_symmetry_multiplicity
 _atom_site_fract_x
 _atom_site_fract_y
 _atom_site_fract_z
 _atom_site_occupancy
  Gd  Gd0  1  0.00000000  0.32294625  0.41366528  1
  Gd  Gd1  1  0.00000000  0.67705375  0.58633472  1
  Gd  Gd2  1  -0.00000000  0.82294625  0.08633472  1
  Gd  Gd3  1  -0.00000000  0.17705375  0.91366528  1
  Gd  Gd4  1  -0.00000000  0.94538338  0.37308416  1
  Gd  Gd5  1  0.00000000  0.05461662  0.62691584  1
  Gd  Gd6  1  -0.00000000  0.44538338  0.12691584  1
  Gd  Gd7  1  0.00000000  0.55461662  0.87308416  1
  B  B8  1  0.50000000  0.55500885  0.43306283  1
  B  B9  1  0.50000000  0.44499115  0.56693717  1
  B  B10  1  0.50000000  0.05500885  0.06693717  1
  B  B11  1  0.50000000  0.94499115  0.93306283  1
  B  B12  1  0.50000000  0.74829040  0.42033234  1
  B  B13  1  0.50000000  0.25170960  0.57966766  1
  B  B14  1  0.50000000  0.24829040  0.07966766  1
  B  B15  1  0.50000000  0.75170960  0.92033234  1
  B  B16  1  0.50000000  0.79160263  0.26741401  1
  B  B17  1  0.50000000  0.20839737  0.73258599  1
  B  B18  1  0.50000000  0.29160263  0.23258599  1
  B  B19  1  0.50000000  0.70839737  0.76741401  1
  B  B20  1  0.50000000  0.63382339  0.18683691  1
  B  B21  1  0.50000000  0.36617661  0.81316309  1
  B  B22  1  0.50000000  0.13382339  0.31316309  1
  B  B23  1  0.50000000  0.86617661  0.68683691  1
  B  B24  1  0.50000000  0.98613630  0.21191891  1
  B  B25  1  0.50000000  0.01386370  0.78808109  1
  B  B26  1  0.50000000  0.48613630  0.28808109  1
  B  B27  1  0.50000000  0.51386370  0.71191891  1
  B  B28  1  0.50000000  0.61214488  0.03150214  1
  B  B29  1  0.50000000  0.38785512  0.96849786  1
  B  B30  1  0.50000000  0.11214488  0.46849786  1
  B  B31  1  0.50000000  0.88785512  0.53150214  1
  Os  Os32  1  0.00000000  0.63911002  0.32219581  1
  Os  Os33  1  0.00000000  0.36088998  0.67780419  1
  Os  Os34  1  -0.00000000  0.13911002  0.17780419  1
  Os  Os35  1  0.00000000  0.86088998  0.82219581  1
