# generated using pymatgen
data_UH16C3N4O11
_symmetry_space_group_name_H-M   'P 1'
_cell_length_a   7.26835284
_cell_length_b   7.26835284
_cell_length_c   12.82560292
_cell_angle_alpha   86.55383538
_cell_angle_beta   86.55383538
_cell_angle_gamma   81.07139865
_symmetry_Int_Tables_number   1
_chemical_formula_structural   UH16C3N4O11
_chemical_formula_sum   'U2 H32 C6 N8 O22'
_cell_volume   667.25589852
_cell_formula_units_Z   2
loop_
 _symmetry_equiv_pos_site_id
 _symmetry_equiv_pos_as_xyz
  1  'x, y, z'
loop_
 _atom_site_type_symbol
 _atom_site_label
 _atom_site_symmetry_multiplicity
 _atom_site_fract_x
 _atom_site_fract_y
 _atom_site_fract_z
 _atom_site_occupancy
  U  U0  1  0.80700711  0.19299289  0.25000000  1
  U  U1  1  0.19299289  0.80700711  0.75000000  1
  H  H2  1  0.91425977  0.73816596  0.41061103  1
  H  H3  1  0.26183404  0.08574023  0.08938897  1
  H  H4  1  0.08574023  0.26183404  0.58938897  1
  H  H5  1  0.73816596  0.91425977  0.91061103  1
  H  H6  1  0.94402121  0.72197968  0.27749526  1
  H  H7  1  0.27802032  0.05597879  0.22250474  1
  H  H8  1  0.05597879  0.27802032  0.72250474  1
  H  H9  1  0.72197968  0.94402121  0.77749526  1
  H  H10  1  0.95992270  0.52363269  0.36119199  1
  H  H11  1  0.47636731  0.04007730  0.13880801  1
  H  H12  1  0.04007730  0.47636731  0.63880801  1
  H  H13  1  0.52363269  0.95992270  0.86119199  1
  H  H14  1  0.12560192  0.66365167  0.34872608  1
  H  H15  1  0.33634833  0.87439808  0.15127392  1
  H  H16  1  0.87439808  0.33634833  0.65127392  1
  H  H17  1  0.66365167  0.12560192  0.84872608  1
  H  H18  1  0.08116036  0.64859839  0.03905124  1
  H  H19  1  0.35140161  0.91883964  0.46094876  1
  H  H20  1  0.91883964  0.35140161  0.96094876  1
  H  H21  1  0.64859839  0.08116036  0.53905124  1
  H  H22  1  0.19520464  0.42797297  0.02414770  1
  H  H23  1  0.57202703  0.80479536  0.47585230  1
  H  H24  1  0.80479536  0.57202703  0.97585230  1
  H  H25  1  0.42797297  0.19520464  0.52414770  1
  H  H26  1  0.27376764  0.56645355  0.10869649  1
  H  H27  1  0.43354645  0.72623236  0.39130351  1
  H  H28  1  0.72623236  0.43354645  0.89130351  1
  H  H29  1  0.56645355  0.27376764  0.60869649  1
  H  H30  1  0.29457859  0.61024172  0.97710158  1
  H  H31  1  0.38975828  0.70542141  0.52289842  1
  H  H32  1  0.70542141  0.38975828  0.02289842  1
  H  H33  1  0.61024172  0.29457859  0.47710158  1
  C  C34  1  0.50105891  0.49894109  0.25000000  1
  C  C35  1  0.49894109  0.50105891  0.75000000  1
  C  C36  1  0.08711259  0.16426042  0.40685308  1
  C  C37  1  0.83573958  0.91288741  0.09314692  1
  C  C38  1  0.91288741  0.83573958  0.59314692  1
  C  C39  1  0.16426042  0.08711259  0.90685308  1
  N  N40  1  0.98434645  0.66107247  0.34979353  1
  N  N41  1  0.33892753  0.01565355  0.15020647  1
  N  N42  1  0.01565355  0.33892753  0.65020647  1
  N  N43  1  0.66107247  0.98434645  0.84979353  1
  N  N44  1  0.21185870  0.56374969  0.03805819  1
  N  N45  1  0.43625031  0.78814130  0.46194181  1
  N  N46  1  0.78814130  0.43625031  0.96194181  1
  N  N47  1  0.56374969  0.21185870  0.53805819  1
  O  O48  1  0.54089193  0.39021027  0.17095758  1
  O  O49  1  0.60978973  0.45910807  0.32904242  1
  O  O50  1  0.45910807  0.60978973  0.82904242  1
  O  O51  1  0.39021027  0.54089193  0.67095758  1
  O  O52  1  0.93708067  0.29087439  0.40815352  1
  O  O53  1  0.70912561  0.06291933  0.09184648  1
  O  O54  1  0.06291933  0.70912561  0.59184648  1
  O  O55  1  0.29087439  0.93708067  0.90815352  1
  O  O56  1  0.10220956  0.05042802  0.33069125  1
  O  O57  1  0.94957198  0.89779044  0.16930875  1
  O  O58  1  0.89779044  0.94957198  0.66930875  1
  O  O59  1  0.05042802  0.10220956  0.83069125  1
  O  O60  1  0.36581503  0.63418497  0.25000000  1
  O  O61  1  0.63418497  0.36581503  0.75000000  1
  O  O62  1  0.20751173  0.15051689  0.47656405  1
  O  O63  1  0.84948311  0.79248827  0.02343595  1
  O  O64  1  0.79248827  0.84948311  0.52343595  1
  O  O65  1  0.15051689  0.20751173  0.97656405  1
  O  O66  1  0.95260402  0.34159777  0.17420865  1
  O  O67  1  0.65840223  0.04739598  0.32579135  1
  O  O68  1  0.04739598  0.65840223  0.82579135  1
  O  O69  1  0.34159777  0.95260402  0.67420865  1
