# generated using pymatgen
data_Tl2ZnH12(SO7)2
_symmetry_space_group_name_H-M   'P 1'
_cell_length_a   6.38971633
_cell_length_b   9.27523920
_cell_length_c   12.61367047
_cell_angle_alpha   90.00000000
_cell_angle_beta   90.00000000
_cell_angle_gamma   105.48712440
_symmetry_Int_Tables_number   1
_chemical_formula_structural   Tl2ZnH12(SO7)2
_chemical_formula_sum   'Tl4 Zn2 H24 S4 O28'
_cell_volume   720.41997814
_cell_formula_units_Z   2
loop_
 _symmetry_equiv_pos_site_id
 _symmetry_equiv_pos_as_xyz
  1  'x, y, z'
loop_
 _atom_site_type_symbol
 _atom_site_label
 _atom_site_symmetry_multiplicity
 _atom_site_fract_x
 _atom_site_fract_y
 _atom_site_fract_z
 _atom_site_occupancy
  Tl  Tl0  1  0.35021002  0.61828927  0.13721561  1
  Tl  Tl1  1  0.64978998  0.88171073  0.63721561  1
  Tl  Tl2  1  0.64978998  0.38171073  0.86278439  1
  Tl  Tl3  1  0.35021002  0.11828927  0.36278439  1
  Zn  Zn4  1  0.00000000  0.50000000  0.50000000  1
  Zn  Zn5  1  0.00000000  0.00000000  -0.00000000  1
  H  H6  1  0.31299536  0.71396778  0.40600366  1
  H  H7  1  0.68700464  0.78603222  0.90600366  1
  H  H8  1  0.68700464  0.28603222  0.59399634  1
  H  H9  1  0.31299536  0.21396778  0.09399634  1
  H  H10  1  0.08366849  0.74318971  0.37308215  1
  H  H11  1  0.91633151  0.75681029  0.87308215  1
  H  H12  1  0.91633151  0.25681029  0.62691785  1
  H  H13  1  0.08366849  0.24318971  0.12691785  1
  H  H14  1  0.93317997  0.23037187  0.40096007  1
  H  H15  1  0.06682003  0.26962813  0.90096007  1
  H  H16  1  0.06682003  0.76962813  0.59903993  1
  H  H17  1  0.93317997  0.73037187  0.09903993  1
  H  H18  1  0.99600008  0.35648000  0.31300601  1
  H  H19  1  0.00399992  0.14352000  0.81300601  1
  H  H20  1  0.00399992  0.64352000  0.68699399  1
  H  H21  1  0.99600008  0.85648000  0.18699399  1
  H  H22  1  0.33325295  0.40226078  0.56075696  1
  H  H23  1  0.66674705  0.09773922  0.06075696  1
  H  H24  1  0.66674705  0.59773922  0.43924304  1
  H  H25  1  0.33325295  0.90226078  0.93924304  1
  H  H26  1  0.31873024  0.52786873  0.64316835  1
  H  H27  1  0.68126976  0.97213127  0.14316835  1
  H  H28  1  0.68126976  0.47213127  0.35683165  1
  H  H29  1  0.31873024  0.02786873  0.85683165  1
  S  S30  1  0.73674723  0.90406832  0.35939316  1
  S  S31  1  0.26325277  0.59593168  0.85939316  1
  S  S32  1  0.26325277  0.09593168  0.64060684  1
  S  S33  1  0.73674723  0.40406832  0.14060684  1
  O  O34  1  0.60079828  0.91534755  0.26538060  1
  O  O35  1  0.39920172  0.58465245  0.76538060  1
  O  O36  1  0.39920172  0.08465245  0.73461940  1
  O  O37  1  0.60079828  0.41534755  0.23461940  1
  O  O38  1  0.78001530  0.04452313  0.42319471  1
  O  O39  1  0.21998470  0.45547687  0.92319471  1
  O  O40  1  0.21998470  0.95547687  0.57680529  1
  O  O41  1  0.78001530  0.54452313  0.07680529  1
  O  O42  1  0.61352364  0.77673520  0.42752017  1
  O  O43  1  0.38647636  0.72326480  0.92752017  1
  O  O44  1  0.38647636  0.22326480  0.57247983  1
  O  O45  1  0.61352364  0.27673520  0.07247983  1
  O  O46  1  0.94693788  0.87584117  0.32359553  1
  O  O47  1  0.05306212  0.62415883  0.82359553  1
  O  O48  1  0.05306212  0.12415883  0.67640447  1
  O  O49  1  0.94693788  0.37584117  0.17640447  1
  O  O50  1  0.16002244  0.66509702  0.38742479  1
  O  O51  1  0.83997756  0.83490298  0.88742479  1
  O  O52  1  0.83997756  0.33490298  0.61257521  1
  O  O53  1  0.16002244  0.16509702  0.11257521  1
  O  O54  1  0.02979076  0.33195043  0.38658632  1
  O  O55  1  0.97020924  0.16804957  0.88658632  1
  O  O56  1  0.97020924  0.66804957  0.61341368  1
  O  O57  1  0.02979076  0.83195043  0.11341368  1
  O  O58  1  0.29674404  0.49949297  0.56688551  1
  O  O59  1  0.70325596  0.00050703  0.06688551  1
  O  O60  1  0.70325596  0.50050703  0.43311449  1
  O  O61  1  0.29674404  0.99949297  0.93311449  1
