# generated using pymatgen
data_NaB3SeO7
_symmetry_space_group_name_H-M   'P 1'
_cell_length_a   4.58891412
_cell_length_b   8.75954505
_cell_length_c   16.07875825
_cell_angle_alpha   90.00000000
_cell_angle_beta   90.00000000
_cell_angle_gamma   98.75351084
_symmetry_Int_Tables_number   1
_chemical_formula_structural   NaB3SeO7
_chemical_formula_sum   'Na4 B12 Se4 O28'
_cell_volume   638.78647702
_cell_formula_units_Z   4
loop_
 _symmetry_equiv_pos_site_id
 _symmetry_equiv_pos_as_xyz
  1  'x, y, z'
loop_
 _atom_site_type_symbol
 _atom_site_label
 _atom_site_symmetry_multiplicity
 _atom_site_fract_x
 _atom_site_fract_y
 _atom_site_fract_z
 _atom_site_occupancy
  Na  Na0  1  0.67624434  0.45835428  0.10815846  1
  Na  Na1  1  0.32375566  0.04164572  0.60815846  1
  Na  Na2  1  0.32375566  0.54164572  0.89184154  1
  Na  Na3  1  0.67624434  0.95835428  0.39184154  1
  B  B4  1  0.32876743  0.75737755  0.09466891  1
  B  B5  1  0.67123257  0.74262245  0.59466891  1
  B  B6  1  0.67123257  0.24262245  0.90533109  1
  B  B7  1  0.32876743  0.25737755  0.40533109  1
  B  B8  1  0.51343061  0.73063048  0.23825263  1
  B  B9  1  0.48656939  0.76936952  0.73825263  1
  B  B10  1  0.48656939  0.26936952  0.76174737  1
  B  B11  1  0.51343061  0.23063048  0.26174737  1
  B  B12  1  0.51602964  0.98523638  0.18228641  1
  B  B13  1  0.48397036  0.51476362  0.68228641  1
  B  B14  1  0.48397036  0.01476362  0.81771359  1
  B  B15  1  0.51602964  0.48523638  0.31771359  1
  Se  Se16  1  0.84340680  0.78430070  0.98827473  1
  Se  Se17  1  0.15659320  0.71569930  0.48827473  1
  Se  Se18  1  0.15659320  0.21569930  0.01172527  1
  Se  Se19  1  0.84340680  0.28430070  0.51172527  1
  O  O20  1  0.47510826  0.70679792  0.01784337  1
  O  O21  1  0.52489174  0.79320208  0.51784337  1
  O  O22  1  0.52489174  0.29320208  0.98215663  1
  O  O23  1  0.47510826  0.20679792  0.48215663  1
  O  O24  1  0.00619245  0.71367624  0.08022096  1
  O  O25  1  0.99380755  0.78632376  0.58022096  1
  O  O26  1  0.99380755  0.28632376  0.91977904  1
  O  O27  1  0.00619245  0.21367624  0.41977904  1
  O  O28  1  0.88073677  0.65647350  0.91494663  1
  O  O29  1  0.11926323  0.84352650  0.41494663  1
  O  O30  1  0.11926323  0.34352650  0.08505337  1
  O  O31  1  0.88073677  0.15647350  0.58505337  1
  O  O32  1  0.39837198  0.66617110  0.16649638  1
  O  O33  1  0.60162802  0.83382890  0.66649638  1
  O  O34  1  0.60162802  0.33382890  0.83350362  1
  O  O35  1  0.39837198  0.16617110  0.33350362  1
  O  O36  1  0.55869689  0.64355920  0.30712666  1
  O  O37  1  0.44130311  0.85644080  0.80712666  1
  O  O38  1  0.44130311  0.35644080  0.69287334  1
  O  O39  1  0.55869689  0.14355920  0.19287334  1
  O  O40  1  0.58469952  0.89089781  0.24734924  1
  O  O41  1  0.41530048  0.60910219  0.74734924  1
  O  O42  1  0.41530048  0.10910219  0.75265076  1
  O  O43  1  0.58469952  0.39089781  0.25265076  1
  O  O44  1  0.41327981  0.92491576  0.10804431  1
  O  O45  1  0.58672019  0.57508424  0.60804431  1
  O  O46  1  0.58672019  0.07508424  0.89195569  1
  O  O47  1  0.41327981  0.42491576  0.39195569  1
