# generated using pymatgen
data_CsCeF5
_symmetry_space_group_name_H-M   'P 1'
_cell_length_a   8.47371359
_cell_length_b   8.69805462
_cell_length_c   14.58409261
_cell_angle_alpha   90.00000000
_cell_angle_beta   90.00000000
_cell_angle_gamma   105.35686035
_symmetry_Int_Tables_number   1
_chemical_formula_structural   CsCeF5
_chemical_formula_sum   'Cs8 Ce8 F40'
_cell_volume   1036.53810891
_cell_formula_units_Z   8
loop_
 _symmetry_equiv_pos_site_id
 _symmetry_equiv_pos_as_xyz
  1  'x, y, z'
loop_
 _atom_site_type_symbol
 _atom_site_label
 _atom_site_symmetry_multiplicity
 _atom_site_fract_x
 _atom_site_fract_y
 _atom_site_fract_z
 _atom_site_occupancy
  Cs  Cs0  1  0.27680711  0.20435759  0.97434520  1
  Cs  Cs1  1  0.72319289  0.29564241  0.47434520  1
  Cs  Cs2  1  0.72319289  0.79564241  0.02565480  1
  Cs  Cs3  1  0.27680711  0.70435759  0.52565480  1
  Cs  Cs4  1  0.76500598  0.28675253  0.02725273  1
  Cs  Cs5  1  0.23499402  0.21324747  0.52725273  1
  Cs  Cs6  1  0.23499402  0.71324747  0.97274727  1
  Cs  Cs7  1  0.76500598  0.78675253  0.47274727  1
  Ce  Ce8  1  0.44400781  0.46350759  0.24600637  1
  Ce  Ce9  1  0.55599219  0.03649241  0.74600637  1
  Ce  Ce10  1  0.55599219  0.53649241  0.75399363  1
  Ce  Ce11  1  0.44400781  0.96350759  0.25399363  1
  Ce  Ce12  1  0.01968221  0.11518240  0.25602230  1
  Ce  Ce13  1  0.98031779  0.38481760  0.75602230  1
  Ce  Ce14  1  0.98031779  0.88481760  0.74397770  1
  Ce  Ce15  1  0.01968221  0.61518240  0.24397770  1
  F  F16  1  0.94361134  0.11116271  0.39857867  1
  F  F17  1  0.05638866  0.38883729  0.89857867  1
  F  F18  1  0.05638866  0.88883729  0.60142133  1
  F  F19  1  0.94361134  0.61116271  0.10142133  1
  F  F20  1  0.96641946  0.07385650  0.11126792  1
  F  F21  1  0.03358054  0.42614350  0.61126792  1
  F  F22  1  0.03358054  0.92614350  0.88873208  1
  F  F23  1  0.96641946  0.57385650  0.38873208  1
  F  F24  1  0.49421140  0.52130703  0.38935846  1
  F  F25  1  0.50578860  0.97869297  0.88935846  1
  F  F26  1  0.50578860  0.47869297  0.61064154  1
  F  F27  1  0.49421140  0.02130703  0.11064154  1
  F  F28  1  0.72848151  0.53960365  0.25196016  1
  F  F29  1  0.27151849  0.96039635  0.75196016  1
  F  F30  1  0.27151849  0.46039635  0.74803984  1
  F  F31  1  0.72848151  0.03960365  0.24803984  1
  F  F32  1  0.52090123  0.23709093  0.28553345  1
  F  F33  1  0.47909877  0.26290907  0.78553345  1
  F  F34  1  0.47909877  0.76290907  0.71446655  1
  F  F35  1  0.52090123  0.73709093  0.21446655  1
  F  F36  1  0.20336994  0.34614746  0.32641022  1
  F  F37  1  0.79663006  0.15385254  0.82641022  1
  F  F38  1  0.79663006  0.65385254  0.67358978  1
  F  F39  1  0.20336994  0.84614746  0.17358978  1
  F  F40  1  0.22603686  0.52572513  0.16909782  1
  F  F41  1  0.77396314  0.97427487  0.66909782  1
  F  F42  1  0.77396314  0.47427487  0.83090218  1
  F  F43  1  0.22603686  0.02572513  0.33090218  1
  F  F44  1  0.51438380  0.44719167  0.10502627  1
  F  F45  1  0.48561620  0.05280833  0.60502627  1
  F  F46  1  0.48561620  0.55280833  0.89497373  1
  F  F47  1  0.51438380  0.94719167  0.39497373  1
  F  F48  1  0.26234289  0.20877924  0.17985806  1
  F  F49  1  0.73765711  0.29122076  0.67985806  1
  F  F50  1  0.73765711  0.79122076  0.82014194  1
  F  F51  1  0.26234289  0.70877924  0.32014194  1
  F  F52  1  0.93506618  0.84066809  0.27212417  1
  F  F53  1  0.06493382  0.65933191  0.77212417  1
  F  F54  1  0.06493382  0.15933191  0.72787583  1
  F  F55  1  0.93506618  0.34066809  0.22787583  1
