# generated using pymatgen
data_Sm2HfS5
_symmetry_space_group_name_H-M   'P 1'
_cell_length_a   7.34393322
_cell_length_b   7.88014170
_cell_length_c   11.66492088
_cell_angle_alpha   90.00000000
_cell_angle_beta   90.00000000
_cell_angle_gamma   90.00000000
_symmetry_Int_Tables_number   1
_chemical_formula_structural   Sm2HfS5
_chemical_formula_sum   'Sm8 Hf4 S20'
_cell_volume   675.06337061
_cell_formula_units_Z   4
loop_
 _symmetry_equiv_pos_site_id
 _symmetry_equiv_pos_as_xyz
  1  'x, y, z'
loop_
 _atom_site_type_symbol
 _atom_site_label
 _atom_site_symmetry_multiplicity
 _atom_site_fract_x
 _atom_site_fract_y
 _atom_site_fract_z
 _atom_site_occupancy
  Sm  Sm0  1  0.02592726  0.99804533  0.82238397  1
  Sm  Sm1  1  0.47407274  0.50195467  0.32238397  1
  Sm  Sm2  1  0.97407274  0.49804533  0.17761603  1
  Sm  Sm3  1  0.52592726  0.00195467  0.67761603  1
  Sm  Sm4  1  0.97407274  0.00195467  0.17761603  1
  Sm  Sm5  1  0.52592726  0.49804533  0.67761603  1
  Sm  Sm6  1  0.02592726  0.50195467  0.82238397  1
  Sm  Sm7  1  0.47407274  0.99804533  0.32238397  1
  Hf  Hf8  1  0.57492831  0.25000000  0.99374579  1
  Hf  Hf9  1  0.92507169  0.25000000  0.49374579  1
  Hf  Hf10  1  0.42507169  0.75000000  0.00625421  1
  Hf  Hf11  1  0.07492831  0.75000000  0.50625421  1
  S  S12  1  0.34013349  0.46458749  0.09009251  1
  S  S13  1  0.15986651  0.03541251  0.59009251  1
  S  S14  1  0.65986651  0.96458749  0.90990749  1
  S  S15  1  0.84013349  0.53541251  0.40990749  1
  S  S16  1  0.65986651  0.53541251  0.90990749  1
  S  S17  1  0.84013349  0.96458749  0.40990749  1
  S  S18  1  0.34013349  0.03541251  0.09009251  1
  S  S19  1  0.15986651  0.46458749  0.59009251  1
  S  S20  1  0.33601840  0.25000000  0.81958153  1
  S  S21  1  0.16398160  0.25000000  0.31958153  1
  S  S22  1  0.66398160  0.75000000  0.18041847  1
  S  S23  1  0.83601840  0.75000000  0.68041847  1
  S  S24  1  0.94315705  0.25000000  0.99557397  1
  S  S25  1  0.55684295  0.25000000  0.49557397  1
  S  S26  1  0.05684295  0.75000000  0.00442603  1
  S  S27  1  0.44315705  0.75000000  0.50442603  1
  S  S28  1  0.68568088  0.25000000  0.20550234  1
  S  S29  1  0.81431912  0.25000000  0.70550234  1
  S  S30  1  0.31431912  0.75000000  0.79449766  1
  S  S31  1  0.18568088  0.75000000  0.29449766  1
