# generated using pymatgen
data_UH4(NO5)2
_symmetry_space_group_name_H-M   'P 1'
_cell_length_a   7.21387863
_cell_length_b   8.76389814
_cell_length_c   13.90655831
_cell_angle_alpha   90.00000000
_cell_angle_beta   101.70112770
_cell_angle_gamma   90.00000000
_symmetry_Int_Tables_number   1
_chemical_formula_structural   UH4(NO5)2
_chemical_formula_sum   'U4 H16 N8 O40'
_cell_volume   860.92548705
_cell_formula_units_Z   4
loop_
 _symmetry_equiv_pos_site_id
 _symmetry_equiv_pos_as_xyz
  1  'x, y, z'
loop_
 _atom_site_type_symbol
 _atom_site_label
 _atom_site_symmetry_multiplicity
 _atom_site_fract_x
 _atom_site_fract_y
 _atom_site_fract_z
 _atom_site_occupancy
  U  U0  1  0.50000000  0.50000000  -0.00000000  1
  U  U1  1  -0.00000000  0.00000000  -0.00000000  1
  U  U2  1  0.50000000  0.00000000  0.50000000  1
  U  U3  1  -0.00000000  0.50000000  0.50000000  1
  H  H4  1  0.16181260  0.46939009  0.82506831  1
  H  H5  1  0.33818740  0.96939009  0.17493169  1
  H  H6  1  0.83818740  0.53060991  0.17493169  1
  H  H7  1  0.66181260  0.03060991  0.82506831  1
  H  H8  1  0.06955433  0.44340363  0.91734889  1
  H  H9  1  0.43044567  0.94340363  0.08265111  1
  H  H10  1  0.93044567  0.55659637  0.08265111  1
  H  H11  1  0.56955433  0.05659637  0.91734889  1
  H  H12  1  0.60510635  0.27788199  0.65460617  1
  H  H13  1  0.89489365  0.77788199  0.34539383  1
  H  H14  1  0.39489365  0.72211801  0.34539383  1
  H  H15  1  0.10510635  0.22211801  0.65460617  1
  H  H16  1  0.48040580  0.33839564  0.55537156  1
  H  H17  1  0.01959420  0.83839564  0.44462844  1
  H  H18  1  0.51959420  0.66160436  0.44462844  1
  H  H19  1  0.98040580  0.16160436  0.55537156  1
  N  N20  1  0.68085396  0.42080086  0.83307727  1
  N  N21  1  0.81914604  0.92080086  0.16692273  1
  N  N22  1  0.31914604  0.57919914  0.16692273  1
  N  N23  1  0.18085396  0.07919914  0.83307727  1
  N  N24  1  0.39354514  0.17094097  0.31480686  1
  N  N25  1  0.10645486  0.67094097  0.68519314  1
  N  N26  1  0.60645486  0.82905903  0.68519314  1
  N  N27  1  0.89354514  0.32905903  0.31480686  1
  O  O28  1  0.52094491  0.30397966  0.03747039  1
  O  O29  1  0.97905509  0.80397966  0.96252961  1
  O  O30  1  0.47905509  0.69602034  0.96252961  1
  O  O31  1  0.02094491  0.19602034  0.03747039  1
  O  O32  1  0.77983113  0.46588996  0.91594854  1
  O  O33  1  0.72016887  0.96588996  0.08405146  1
  O  O34  1  0.22016887  0.53411004  0.08405146  1
  O  O35  1  0.27983113  0.03411004  0.91594854  1
  O  O36  1  0.75497047  0.38043503  0.76483623  1
  O  O37  1  0.74502953  0.88043503  0.23516377  1
  O  O38  1  0.24502953  0.61956497  0.23516377  1
  O  O39  1  0.25497047  0.11956497  0.76483623  1
  O  O40  1  0.50155672  0.41996215  0.82742875  1
  O  O41  1  0.99844328  0.91996215  0.17257125  1
  O  O42  1  0.49844328  0.58003785  0.17257125  1
  O  O43  1  0.00155672  0.08003785  0.82742875  1
  O  O44  1  0.18924089  0.43764103  0.89443902  1
  O  O45  1  0.31075911  0.93764103  0.10556098  1
  O  O46  1  0.81075911  0.56235897  0.10556098  1
  O  O47  1  0.68924089  0.06235897  0.89443902  1
  O  O48  1  0.74868449  0.00702400  0.49625310  1
  O  O49  1  0.75131551  0.50702400  0.50374690  1
  O  O50  1  0.25131551  0.99297600  0.50374690  1
  O  O51  1  0.24868449  0.49297600  0.49625310  1
  O  O52  1  0.39896222  0.02280707  0.31588250  1
  O  O53  1  0.10103778  0.52280707  0.68411750  1
  O  O54  1  0.60103778  0.97719293  0.68411750  1
  O  O55  1  0.89896222  0.47719293  0.31588250  1
  O  O56  1  0.33991092  0.24446667  0.23987106  1
  O  O57  1  0.16008908  0.74446667  0.76012894  1
  O  O58  1  0.66008908  0.75553333  0.76012894  1
  O  O59  1  0.83991092  0.25553333  0.23987106  1
  O  O60  1  0.44991356  0.23294582  0.39971899  1
  O  O61  1  0.05008644  0.73294582  0.60028101  1
  O  O62  1  0.55008644  0.76705418  0.60028101  1
  O  O63  1  0.94991356  0.26705418  0.39971899  1
  O  O64  1  0.52490226  0.24536450  0.59176787  1
  O  O65  1  0.97509774  0.74536450  0.40823213  1
  O  O66  1  0.47509774  0.75463550  0.40823213  1
  O  O67  1  0.02490226  0.25463550  0.59176787  1
