# generated using pymatgen
data_Sr2H8PtO8
_symmetry_space_group_name_H-M   'P 1'
_cell_length_a   6.06000958
_cell_length_b   6.07155902
_cell_length_c   11.18767982
_cell_angle_alpha   90.00000000
_cell_angle_beta   90.00000000
_cell_angle_gamma   113.53443306
_symmetry_Int_Tables_number   1
_chemical_formula_structural   Sr2H8PtO8
_chemical_formula_sum   'Sr4 H16 Pt2 O16'
_cell_volume   377.39641294
_cell_formula_units_Z   2
loop_
 _symmetry_equiv_pos_site_id
 _symmetry_equiv_pos_as_xyz
  1  'x, y, z'
loop_
 _atom_site_type_symbol
 _atom_site_label
 _atom_site_symmetry_multiplicity
 _atom_site_fract_x
 _atom_site_fract_y
 _atom_site_fract_z
 _atom_site_occupancy
  Sr  Sr0  1  0.72911949  0.39466922  0.87126569  1
  Sr  Sr1  1  0.27088051  0.10533078  0.37126569  1
  Sr  Sr2  1  0.27088051  0.60533078  0.12873431  1
  Sr  Sr3  1  0.72911949  0.89466922  0.62873431  1
  H  H4  1  0.14588826  0.22517576  0.80676540  1
  H  H5  1  0.85411174  0.27482424  0.30676540  1
  H  H6  1  0.85411174  0.77482424  0.19323460  1
  H  H7  1  0.14588826  0.72517576  0.69323460  1
  H  H8  1  0.75420851  0.16272288  0.12212632  1
  H  H9  1  0.24579149  0.33727712  0.62212632  1
  H  H10  1  0.24579149  0.83727712  0.87787368  1
  H  H11  1  0.75420851  0.66272288  0.37787368  1
  H  H12  1  0.58922716  0.33065215  0.58400095  1
  H  H13  1  0.41077284  0.16934785  0.08400095  1
  H  H14  1  0.41077284  0.66934785  0.41599905  1
  H  H15  1  0.58922716  0.83065215  0.91599905  1
  H  H16  1  0.36496275  0.56344795  0.75900321  1
  H  H17  1  0.63503725  0.93655205  0.25900321  1
  H  H18  1  0.63503725  0.43655205  0.24099679  1
  H  H19  1  0.36496275  0.06344795  0.74099679  1
  Pt  Pt20  1  -0.00000000  0.50000000  0.50000000  1
  Pt  Pt21  1  -0.00000000  -0.00000000  0.00000000  1
  O  O22  1  0.98035180  0.12201198  0.83100188  1
  O  O23  1  0.01964820  0.37798802  0.33100188  1
  O  O24  1  0.01964820  0.87798802  0.16899812  1
  O  O25  1  0.98035180  0.62201198  0.66899812  1
  O  O26  1  0.87939084  0.25053849  0.05942987  1
  O  O27  1  0.12060916  0.24946151  0.55942987  1
  O  O28  1  0.12060916  0.74946151  0.94057013  1
  O  O29  1  0.87939084  0.75053849  0.44057013  1
  O  O30  1  0.65432616  0.25610472  0.52347373  1
  O  O31  1  0.34567384  0.24389528  0.02347373  1
  O  O32  1  0.34567384  0.74389528  0.47652627  1
  O  O33  1  0.65432616  0.75610472  0.97652627  1
  O  O34  1  0.44616360  0.46724761  0.72567976  1
  O  O35  1  0.55383640  0.03275239  0.22567976  1
  O  O36  1  0.55383640  0.53275239  0.27432024  1
  O  O37  1  0.44616360  0.96724761  0.77432024  1
