# generated using pymatgen
data_Pr4(HoS2)11
_symmetry_space_group_name_H-M   'P 1'
_cell_length_a   3.95556813
_cell_length_b   11.37973793
_cell_length_c   19.71588434
_cell_angle_alpha   91.54399700
_cell_angle_beta   95.75726786
_cell_angle_gamma   90.00000000
_symmetry_Int_Tables_number   1
_chemical_formula_structural   Pr4(HoS2)11
_chemical_formula_sum   'Pr4 Ho11 S22'
_cell_volume   882.67711797
_cell_formula_units_Z   1
loop_
 _symmetry_equiv_pos_site_id
 _symmetry_equiv_pos_as_xyz
  1  'x, y, z'
loop_
 _atom_site_type_symbol
 _atom_site_label
 _atom_site_symmetry_multiplicity
 _atom_site_fract_x
 _atom_site_fract_y
 _atom_site_fract_z
 _atom_site_occupancy
  Pr  Pr0  1  0.10431015  0.01234934  0.20862030  1
  Pr  Pr1  1  0.89568985  0.98765066  0.79137970  1
  Pr  Pr2  1  0.36722351  0.34761864  0.73444703  1
  Pr  Pr3  1  0.63277649  0.65238136  0.26555297  1
  Ho  Ho4  1  0.79796985  0.05752148  0.59593971  1
  Ho  Ho5  1  0.20203015  0.94247852  0.40406029  1
  Ho  Ho6  1  0.46179424  0.27148283  0.92358848  1
  Ho  Ho7  1  0.53820576  0.72851717  0.07641152  1
  Ho  Ho8  1  0.65766269  0.30187731  0.31532537  1
  Ho  Ho9  1  0.34233731  0.69812269  0.68467463  1
  Ho  Ho10  1  0.26413428  0.35190480  0.52826856  1
  Ho  Ho11  1  0.73586572  0.64809520  0.47173144  1
  Ho  Ho12  1  0.06938439  0.35976462  0.13876878  1
  Ho  Ho13  1  0.93061561  0.64023538  0.86123122  1
  Ho  Ho14  1  0.00000000  -0.00000000  0.00000000  1
  S  S15  1  0.08741386  0.75257723  0.17482773  1
  S  S16  1  0.91258614  0.24742277  0.82517227  1
  S  S17  1  0.18870150  0.69203187  0.37740300  1
  S  S18  1  0.81129850  0.30796813  0.62259700  1
  S  S19  1  0.27993060  0.59024117  0.55986120  1
  S  S20  1  0.72006940  0.40975883  0.44013880  1
  S  S21  1  0.44562501  0.49541190  0.89125002  1
  S  S22  1  0.55437499  0.50458810  0.10874998  1
  S  S23  1  0.13449797  0.45369022  0.26899593  1
  S  S24  1  0.86550203  0.54630978  0.73100407  1
  S  S25  1  0.59284136  0.21207929  0.18568271  1
  S  S26  1  0.40715864  0.78792071  0.81431729  1
  S  S27  1  0.45313362  0.03118363  0.90626725  1
  S  S28  1  0.54686638  0.96881637  0.09373275  1
  S  S29  1  0.35057143  0.09184303  0.70114286  1
  S  S30  1  0.64942857  0.90815697  0.29885714  1
  S  S31  1  0.16834212  0.15146424  0.33668423  1
  S  S32  1  0.83165788  0.84853576  0.66331577  1
  S  S33  1  0.00770913  0.23859248  0.01541826  1
  S  S34  1  0.99229087  0.76140752  0.98458174  1
  S  S35  1  0.25528431  0.11903256  0.51056861  1
  S  S36  1  0.74471569  0.88096744  0.48943139  1
