# generated using pymatgen
data_Cu2PO5
_symmetry_space_group_name_H-M   'P 1'
_cell_length_a   5.81316963
_cell_length_b   7.99677899
_cell_length_c   8.56148328
_cell_angle_alpha   90.00000000
_cell_angle_beta   90.00000000
_cell_angle_gamma   90.00000000
_symmetry_Int_Tables_number   1
_chemical_formula_structural   Cu2PO5
_chemical_formula_sum   'Cu8 P4 O20'
_cell_volume   397.99452914
_cell_formula_units_Z   4
loop_
 _symmetry_equiv_pos_site_id
 _symmetry_equiv_pos_as_xyz
  1  'x, y, z'
loop_
 _atom_site_type_symbol
 _atom_site_label
 _atom_site_symmetry_multiplicity
 _atom_site_fract_x
 _atom_site_fract_y
 _atom_site_fract_z
 _atom_site_occupancy
  Cu  Cu0  1  0.74783138  0.50000000  0.50000000  1
  Cu  Cu1  1  0.75216862  -0.00000000  -0.00000000  1
  Cu  Cu2  1  0.25216862  0.50000000  0.50000000  1
  Cu  Cu3  1  0.24783138  -0.00000000  -0.00000000  1
  Cu  Cu4  1  0.50000000  0.84815578  0.38347157  1
  Cu  Cu5  1  0.50000000  0.15184422  0.61652843  1
  Cu  Cu6  1  0.00000000  0.34815578  0.11652843  1
  Cu  Cu7  1  0.00000000  0.65184422  0.88347157  1
  P  P8  1  0.00000000  0.72977972  0.25255722  1
  P  P9  1  0.00000000  0.27022028  0.74744278  1
  P  P10  1  0.50000000  0.22977972  0.24744278  1
  P  P11  1  0.50000000  0.77022028  0.75255722  1
  O  O12  1  0.50000000  0.62220588  0.41967245  1
  O  O13  1  0.50000000  0.37779412  0.58032755  1
  O  O14  1  0.00000000  0.12220588  0.08032755  1
  O  O15  1  0.00000000  0.87779412  0.91967245  1
  O  O16  1  0.00000000  0.63354598  0.41457012  1
  O  O17  1  0.00000000  0.36645402  0.58542988  1
  O  O18  1  0.50000000  0.13354598  0.08542988  1
  O  O19  1  0.50000000  0.86645402  0.91457012  1
  O  O20  1  0.00000000  0.59484658  0.11841674  1
  O  O21  1  0.00000000  0.40515342  0.88158326  1
  O  O22  1  0.50000000  0.09484658  0.38158326  1
  O  O23  1  0.50000000  0.90515342  0.61841674  1
  O  O24  1  0.78038671  0.83673356  0.24291082  1
  O  O25  1  0.78038671  0.16326644  0.75708918  1
  O  O26  1  0.71961329  0.33673356  0.25708918  1
  O  O27  1  0.71961329  0.66326644  0.74291082  1
  O  O28  1  0.21961329  0.16326644  0.75708918  1
  O  O29  1  0.21961329  0.83673356  0.24291082  1
  O  O30  1  0.28038671  0.66326644  0.74291082  1
  O  O31  1  0.28038671  0.33673356  0.25708918  1
