# generated using pymatgen
data_ThH2SO6
_symmetry_space_group_name_H-M   'P 1'
_cell_length_a   6.06385378
_cell_length_b   7.26622848
_cell_length_c   11.89554743
_cell_angle_alpha   90.00000000
_cell_angle_beta   90.00000000
_cell_angle_gamma   90.00000000
_symmetry_Int_Tables_number   1
_chemical_formula_structural   ThH2SO6
_chemical_formula_sum   'Th4 H8 S4 O24'
_cell_volume   524.13384348
_cell_formula_units_Z   4
loop_
 _symmetry_equiv_pos_site_id
 _symmetry_equiv_pos_as_xyz
  1  'x, y, z'
loop_
 _atom_site_type_symbol
 _atom_site_label
 _atom_site_symmetry_multiplicity
 _atom_site_fract_x
 _atom_site_fract_y
 _atom_site_fract_z
 _atom_site_occupancy
  Th  Th0  1  0.25000000  0.35152603  0.56216546  1
  Th  Th1  1  0.25000000  0.14847397  0.06216546  1
  Th  Th2  1  0.75000000  0.64847397  0.43783454  1
  Th  Th3  1  0.75000000  0.85152603  0.93783454  1
  H  H4  1  0.99170885  0.31973449  0.34696907  1
  H  H5  1  0.50829115  0.18026551  0.84696907  1
  H  H6  1  0.49170885  0.68026551  0.65303093  1
  H  H7  1  0.00829115  0.81973449  0.15303093  1
  H  H8  1  0.00829115  0.68026551  0.65303093  1
  H  H9  1  0.49170885  0.81973449  0.15303093  1
  H  H10  1  0.50829115  0.31973449  0.34696907  1
  H  H11  1  0.99170885  0.18026551  0.84696907  1
  S  S12  1  0.25000000  0.94810679  0.35961539  1
  S  S13  1  0.25000000  0.55189321  0.85961539  1
  S  S14  1  0.75000000  0.05189321  0.64038461  1
  S  S15  1  0.75000000  0.44810679  0.14038461  1
  O  O16  1  0.25000000  0.04647319  0.46851454  1
  O  O17  1  0.25000000  0.45352681  0.96851454  1
  O  O18  1  0.75000000  0.95352681  0.53148546  1
  O  O19  1  0.75000000  0.54647319  0.03148546  1
  O  O20  1  0.94989784  0.16911619  0.65143806  1
  O  O21  1  0.55010216  0.33088381  0.15143806  1
  O  O22  1  0.44989784  0.83088381  0.34856194  1
  O  O23  1  0.05010216  0.66911619  0.84856194  1
  O  O24  1  0.05010216  0.83088381  0.34856194  1
  O  O25  1  0.44989784  0.66911619  0.84856194  1
  O  O26  1  0.55010216  0.16911619  0.65143806  1
  O  O27  1  0.94989784  0.33088381  0.15143806  1
  O  O28  1  0.25000000  0.41378940  0.76683920  1
  O  O29  1  0.25000000  0.08621060  0.26683920  1
  O  O30  1  0.75000000  0.58621060  0.23316080  1
  O  O31  1  0.75000000  0.91378940  0.73316080  1
  O  O32  1  0.99428043  0.39383387  0.41576534  1
  O  O33  1  0.50571957  0.10616613  0.91576534  1
  O  O34  1  0.49428043  0.60616613  0.58423466  1
  O  O35  1  0.00571957  0.89383387  0.08423466  1
  O  O36  1  0.00571957  0.60616613  0.58423466  1
  O  O37  1  0.49428043  0.89383387  0.08423466  1
  O  O38  1  0.50571957  0.39383387  0.41576534  1
  O  O39  1  0.99428043  0.10616613  0.91576534  1
