# generated using pymatgen
data_K3Yb(SO4)3
_symmetry_space_group_name_H-M   'P 1'
_cell_length_a   9.35330917
_cell_length_b   9.35330917
_cell_length_c   9.35022446
_cell_angle_alpha   108.61973399
_cell_angle_beta   108.61973399
_cell_angle_gamma   110.90146174
_symmetry_Int_Tables_number   1
_chemical_formula_structural   K3Yb(SO4)3
_chemical_formula_sum   'K6 Yb2 S6 O24'
_cell_volume   631.55393208
_cell_formula_units_Z   2
loop_
 _symmetry_equiv_pos_site_id
 _symmetry_equiv_pos_as_xyz
  1  'x, y, z'
loop_
 _atom_site_type_symbol
 _atom_site_label
 _atom_site_symmetry_multiplicity
 _atom_site_fract_x
 _atom_site_fract_y
 _atom_site_fract_z
 _atom_site_occupancy
  K  K0  1  0.83901076  0.81616450  0.38671417  1
  K  K1  1  0.81616450  0.83901076  0.88671417  1
  K  K2  1  0.94542311  0.45212338  0.14669725  1
  K  K3  1  0.45212338  0.94542311  0.64669725  1
  K  K4  1  0.16757904  0.30384253  0.48250739  1
  K  K5  1  0.30384253  0.16757904  0.98250739  1
  Yb  Yb6  1  0.65795655  0.33968248  0.49455889  1
  Yb  Yb7  1  0.33968248  0.65795655  0.99455889  1
  S  S8  1  0.64699009  0.02757219  0.13677698  1
  S  S9  1  0.02757219  0.64699009  0.63677698  1
  S  S10  1  0.22571786  0.94040804  0.26067688  1
  S  S11  1  0.94040804  0.22571786  0.76067688  1
  S  S12  1  0.44712778  0.56777778  0.36168065  1
  S  S13  1  0.56777778  0.44712778  0.86168065  1
  O  O14  1  0.61083074  0.16451327  0.22356912  1
  O  O15  1  0.16451327  0.61083074  0.72356912  1
  O  O16  1  0.43575056  0.57660725  0.20135953  1
  O  O17  1  0.57660725  0.43575056  0.70135953  1
  O  O18  1  0.82715433  0.11210061  0.16312582  1
  O  O19  1  0.11210061  0.82715433  0.66312582  1
  O  O20  1  0.48086703  0.42198756  0.35559468  1
  O  O21  1  0.42198756  0.48086703  0.85559468  1
  O  O22  1  0.40676812  0.07904798  0.41070983  1
  O  O23  1  0.07904798  0.40676812  0.91070983  1
  O  O24  1  0.91835849  0.51204881  0.44897727  1
  O  O25  1  0.51204881  0.91835849  0.94897727  1
  O  O26  1  0.62549673  0.90606864  0.21073199  1
  O  O27  1  0.90606864  0.62549673  0.71073199  1
  O  O28  1  0.11521977  0.87187178  0.33307728  1
  O  O29  1  0.87187178  0.11521977  0.83307728  1
  O  O30  1  0.15564170  0.01504838  0.15900298  1
  O  O31  1  0.01504838  0.15564170  0.65900298  1
  O  O32  1  0.79700701  0.24270365  0.65335847  1
  O  O33  1  0.24270365  0.79700701  0.15335847  1
  O  O34  1  0.28158896  0.53172176  0.36601568  1
  O  O35  1  0.53172176  0.28158896  0.86601568  1
  O  O36  1  0.59622016  0.73800064  0.51486513  1
  O  O37  1  0.73800064  0.59622016  0.01486513  1
