# generated using pymatgen
data_Eu2H16S3O20
_symmetry_space_group_name_H-M   'P 1'
_cell_length_a   7.00917581
_cell_length_b   7.83076727
_cell_length_c   18.90192492
_cell_angle_alpha   101.31306068
_cell_angle_beta   90.00000000
_cell_angle_gamma   116.58601691
_symmetry_Int_Tables_number   1
_chemical_formula_structural   Eu2H16S3O20
_chemical_formula_sum   'Eu4 H32 S6 O40'
_cell_volume   905.17744475
_cell_formula_units_Z   2
loop_
 _symmetry_equiv_pos_site_id
 _symmetry_equiv_pos_as_xyz
  1  'x, y, z'
loop_
 _atom_site_type_symbol
 _atom_site_label
 _atom_site_symmetry_multiplicity
 _atom_site_fract_x
 _atom_site_fract_y
 _atom_site_fract_z
 _atom_site_occupancy
  Eu  Eu0  1  0.30436663  0.66132092  0.10627876  1
  Eu  Eu1  1  0.64304571  0.33867908  0.39372124  1
  Eu  Eu2  1  0.69563337  0.33867908  0.89372124  1
  Eu  Eu3  1  0.35695429  0.66132092  0.60627876  1
  H  H4  1  0.03275649  0.23800043  0.01383657  1
  H  H5  1  0.79475606  0.76199957  0.48616343  1
  H  H6  1  0.96724351  0.76199957  0.98616343  1
  H  H7  1  0.20524394  0.23800043  0.51383657  1
  H  H8  1  0.27696235  0.28490782  0.01536358  1
  H  H9  1  0.99205453  0.71509218  0.48463642  1
  H  H10  1  0.72303765  0.71509218  0.98463642  1
  H  H11  1  0.00794547  0.28490782  0.51536358  1
  H  H12  1  0.65306307  0.09852968  0.14603696  1
  H  H13  1  0.55453339  0.90147032  0.35396304  1
  H  H14  1  0.34693693  0.90147032  0.85396304  1
  H  H15  1  0.44546661  0.09852968  0.64603696  1
  H  H16  1  0.78464265  0.98144781  0.15493255  1
  H  H17  1  0.80319484  0.01855219  0.34506745  1
  H  H18  1  0.21535735  0.01855219  0.84506745  1
  H  H19  1  0.19680516  0.98144781  0.65493255  1
  H  H20  1  0.17506284  0.98600588  0.10340592  1
  H  H21  1  0.18905696  0.01399412  0.39659408  1
  H  H22  1  0.82493716  0.01399412  0.89659408  1
  H  H23  1  0.81094304  0.98600588  0.60340592  1
  H  H24  1  0.33831749  0.01966921  0.04426251  1
  H  H25  1  0.31864827  0.98033079  0.45573749  1
  H  H26  1  0.66168251  0.98033079  0.95573749  1
  H  H27  1  0.68135173  0.01966921  0.54426251  1
  H  H28  1  0.24219178  0.53875788  0.25300102  1
  H  H29  1  0.70343390  0.46124212  0.24699898  1
  H  H30  1  0.75780822  0.46124212  0.74699898  1
  H  H31  1  0.29656610  0.53875788  0.75300102  1
  H  H32  1  0.21889957  0.34733507  0.19735860  1
  H  H33  1  0.87156450  0.65266493  0.30264140  1
  H  H34  1  0.78110043  0.65266493  0.80264140  1
  H  H35  1  0.12843550  0.34733507  0.69735860  1
  S  S36  1  0.31384974  0.56719629  0.91102940  1
  S  S37  1  0.74665345  0.43280371  0.58897060  1
  S  S38  1  0.68615026  0.43280371  0.08897060  1
  S  S39  1  0.25334655  0.56719629  0.41102940  1
  S  S40  1  0.17581139  1.00000000  0.25000000  1
  S  S41  1  0.82418861  0.00000000  0.75000000  1
  O  O42  1  0.17125829  0.30936736  0.04398139  1
  O  O43  1  0.86189093  0.69063264  0.45601861  1
  O  O44  1  0.82874171  0.69063264  0.95601861  1
  O  O45  1  0.13810907  0.30936736  0.54398139  1
  O  O46  1  0.64392658  0.96651449  0.13858088  1
  O  O47  1  0.67741209  0.03348551  0.36141912  1
  O  O48  1  0.35607342  0.03348551  0.86141912  1
  O  O49  1  0.32258791  0.96651449  0.63858088  1
  O  O50  1  0.21903085  0.91687233  0.06203785  1
  O  O51  1  0.30215851  0.08312767  0.43796215  1
  O  O52  1  0.78096915  0.08312767  0.93796215  1
  O  O53  1  0.69784149  0.91687233  0.56203785  1
  O  O54  1  0.24796330  0.48429411  0.20190418  1
  O  O55  1  0.76366919  0.51570589  0.29809582  1
  O  O56  1  0.75203670  0.51570589  0.79809582  1
  O  O57  1  0.23633081  0.48429411  0.70190418  1
  O  O58  1  0.62277138  0.59298109  0.10196999  1
  O  O59  1  0.02979029  0.40701891  0.39803001  1
  O  O60  1  0.37722862  0.40701891  0.89803001  1
  O  O61  1  0.97020971  0.59298109  0.60196999  1
  O  O62  1  0.36833941  0.67428536  0.85179554  1
  O  O63  1  0.69405405  0.32571464  0.64820446  1
  O  O64  1  0.63166059  0.32571464  0.14820446  1
  O  O65  1  0.30594595  0.67428536  0.35179554  1
  O  O66  1  0.43076137  0.70749938  0.98193998  1
  O  O67  1  0.72326199  0.29250062  0.51806002  1
  O  O68  1  0.56923863  0.29250062  0.01806002  1
  O  O69  1  0.27673801  0.70749938  0.48193998  1
  O  O70  1  0.92015860  0.51728551  0.08151623  1
  O  O71  1  0.40287310  0.48271449  0.41848377  1
  O  O72  1  0.07984140  0.48271449  0.91848377  1
  O  O73  1  0.59712690  0.51728551  0.58151623  1
  O  O74  1  0.21857162  0.83602559  0.21272898  1
  O  O75  1  0.38254604  0.16397441  0.28727102  1
  O  O76  1  0.78142838  0.16397441  0.78727102  1
  O  O77  1  0.61745396  0.83602559  0.71272898  1
  O  O78  1  0.08963744  0.06670208  0.19463030  1
  O  O79  1  0.02293536  0.93329792  0.30536970  1
  O  O80  1  0.91036256  0.93329792  0.80536970  1
  O  O81  1  0.97706464  0.06670208  0.69463030  1
