# generated using pymatgen
data_CuTe2PbO7
_symmetry_space_group_name_H-M   'P 1'
_cell_length_a   5.55447386
_cell_length_b   7.27147813
_cell_length_c   15.44979559
_cell_angle_alpha   90.00000000
_cell_angle_beta   90.00000000
_cell_angle_gamma   90.00000000
_symmetry_Int_Tables_number   1
_chemical_formula_structural   CuTe2PbO7
_chemical_formula_sum   'Cu4 Te8 Pb4 O28'
_cell_volume   624.00542782
_cell_formula_units_Z   4
loop_
 _symmetry_equiv_pos_site_id
 _symmetry_equiv_pos_as_xyz
  1  'x, y, z'
loop_
 _atom_site_type_symbol
 _atom_site_label
 _atom_site_symmetry_multiplicity
 _atom_site_fract_x
 _atom_site_fract_y
 _atom_site_fract_z
 _atom_site_occupancy
  Cu  Cu0  1  0.25000000  0.73733754  0.61377043  1
  Cu  Cu1  1  0.75000000  0.26266246  0.38622957  1
  Cu  Cu2  1  0.75000000  0.73733754  0.88622957  1
  Cu  Cu3  1  0.25000000  0.26266246  0.11377043  1
  Te  Te4  1  0.75000000  0.99414000  0.67196430  1
  Te  Te5  1  0.25000000  0.00586000  0.32803570  1
  Te  Te6  1  0.25000000  0.99414000  0.82803570  1
  Te  Te7  1  0.75000000  0.00586000  0.17196430  1
  Te  Te8  1  0.75000000  0.48674884  0.67521989  1
  Te  Te9  1  0.25000000  0.51325116  0.32478011  1
  Te  Te10  1  0.25000000  0.48674884  0.82478011  1
  Te  Te11  1  0.75000000  0.51325116  0.17521989  1
  Pb  Pb12  1  0.75000000  0.78524770  0.46177992  1
  Pb  Pb13  1  0.25000000  0.21475230  0.53822008  1
  Pb  Pb14  1  0.25000000  0.78524770  0.03822008  1
  Pb  Pb15  1  0.75000000  0.21475230  0.96177992  1
  O  O16  1  0.75000000  0.23214550  0.61166944  1
  O  O17  1  0.25000000  0.76785450  0.38833056  1
  O  O18  1  0.25000000  0.23214550  0.88833056  1
  O  O19  1  0.75000000  0.76785450  0.11166944  1
  O  O20  1  0.00860240  0.54356062  0.60004990  1
  O  O21  1  0.50860240  0.45643938  0.39995010  1
  O  O22  1  0.99139760  0.54356062  0.89995010  1
  O  O23  1  0.49139760  0.45643938  0.10004990  1
  O  O24  1  0.99139760  0.45643938  0.39995010  1
  O  O25  1  0.49139760  0.54356062  0.60004990  1
  O  O26  1  0.00860240  0.45643938  0.10004990  1
  O  O27  1  0.50860240  0.54356062  0.89995010  1
  O  O28  1  0.75000000  0.76099083  0.73151438  1
  O  O29  1  0.25000000  0.23900917  0.26848562  1
  O  O30  1  0.25000000  0.76099083  0.76848562  1
  O  O31  1  0.75000000  0.23900917  0.23151438  1
  O  O32  1  0.99876900  0.92203416  0.58864123  1
  O  O33  1  0.49876900  0.07796584  0.41135877  1
  O  O34  1  0.00123100  0.92203416  0.91135877  1
  O  O35  1  0.50123100  0.07796584  0.08864123  1
  O  O36  1  0.00123100  0.07796584  0.41135877  1
  O  O37  1  0.50123100  0.92203416  0.58864123  1
  O  O38  1  0.99876900  0.07796584  0.08864123  1
  O  O39  1  0.49876900  0.92203416  0.91135877  1
  O  O40  1  0.50000000  0.10578037  0.75000000  1
  O  O41  1  -0.00000000  0.89421963  0.25000000  1
  O  O42  1  0.50000000  0.89421963  0.25000000  1
  O  O43  1  -0.00000000  0.10578037  0.75000000  1
