# generated using pymatgen
data_RbMnP2O7
_symmetry_space_group_name_H-M   'P 1'
_cell_length_a   7.48973883
_cell_length_b   8.81000177
_cell_length_c   9.87673458
_cell_angle_alpha   90.00000000
_cell_angle_beta   90.00000000
_cell_angle_gamma   105.38777148
_symmetry_Int_Tables_number   1
_chemical_formula_structural   RbMnP2O7
_chemical_formula_sum   'Rb4 Mn4 P8 O28'
_cell_volume   628.34995196
_cell_formula_units_Z   4
loop_
 _symmetry_equiv_pos_site_id
 _symmetry_equiv_pos_as_xyz
  1  'x, y, z'
loop_
 _atom_site_type_symbol
 _atom_site_label
 _atom_site_symmetry_multiplicity
 _atom_site_fract_x
 _atom_site_fract_y
 _atom_site_fract_z
 _atom_site_occupancy
  Rb  Rb0  1  0.81865944  0.45619270  0.81194285  1
  Rb  Rb1  1  0.18134056  0.04380730  0.31194285  1
  Rb  Rb2  1  0.18134056  0.54380730  0.18805715  1
  Rb  Rb3  1  0.81865944  0.95619270  0.68805715  1
  Mn  Mn4  1  0.76384831  0.74352332  0.10137256  1
  Mn  Mn5  1  0.23615169  0.75647668  0.60137256  1
  Mn  Mn6  1  0.23615169  0.25647668  0.89862744  1
  Mn  Mn7  1  0.76384831  0.24352332  0.39862744  1
  P  P8  1  0.56553841  0.31048440  0.13124771  1
  P  P9  1  0.43446159  0.18951560  0.63124771  1
  P  P10  1  0.43446159  0.68951560  0.86875229  1
  P  P11  1  0.56553841  0.81048440  0.36875229  1
  P  P12  1  0.86756997  0.66833527  0.40538091  1
  P  P13  1  0.13243003  0.83166473  0.90538091  1
  P  P14  1  0.13243003  0.33166473  0.59461909  1
  P  P15  1  0.86756997  0.16833527  0.09461909  1
  O  O16  1  0.66909409  0.69492824  0.44973668  1
  O  O17  1  0.33090591  0.80507176  0.94973668  1
  O  O18  1  0.33090591  0.30507176  0.55026332  1
  O  O19  1  0.66909409  0.19492824  0.05026332  1
  O  O20  1  0.91412779  0.24474099  0.23675159  1
  O  O21  1  0.08587221  0.25525901  0.73675159  1
  O  O22  1  0.08587221  0.75525901  0.76324841  1
  O  O23  1  0.91412779  0.74474099  0.26324841  1
  O  O24  1  0.36590017  0.26351089  0.07631385  1
  O  O25  1  0.63409983  0.23648911  0.57631385  1
  O  O26  1  0.63409983  0.73648911  0.92368615  1
  O  O27  1  0.36590017  0.76351089  0.42368615  1
  O  O28  1  0.85484994  0.99644797  0.09046288  1
  O  O29  1  0.14515006  0.50355203  0.59046288  1
  O  O30  1  0.14515006  0.00355203  0.90953712  1
  O  O31  1  0.85484994  0.49644797  0.40953712  1
  O  O32  1  0.67318328  0.47821046  0.10439799  1
  O  O33  1  0.32681672  0.02178954  0.60439799  1
  O  O34  1  0.32681672  0.52178954  0.89560201  1
  O  O35  1  0.67318328  0.97821046  0.39560201  1
  O  O36  1  0.00930268  0.27322605  0.99687107  1
  O  O37  1  0.99069732  0.22677395  0.49687107  1
  O  O38  1  0.99069732  0.72677395  0.00312893  1
  O  O39  1  0.00930268  0.77322605  0.50312893  1
  O  O40  1  0.55477380  0.25597379  0.28163747  1
  O  O41  1  0.44522620  0.24402621  0.78163747  1
  O  O42  1  0.44522620  0.74402621  0.71836253  1
  O  O43  1  0.55477380  0.75597379  0.21836253  1
