# generated using pymatgen
data_Ce2SiPd14
_symmetry_space_group_name_H-M   'P 1'
_cell_length_a   7.03529391
_cell_length_b   9.00043310
_cell_length_c   9.00043310
_cell_angle_alpha   90.00000000
_cell_angle_beta   90.00000000
_cell_angle_gamma   90.00000000
_symmetry_Int_Tables_number   1
_chemical_formula_structural   Ce2SiPd14
_chemical_formula_sum   'Ce4 Si2 Pd28'
_cell_volume   569.91365377
_cell_formula_units_Z   2
loop_
 _symmetry_equiv_pos_site_id
 _symmetry_equiv_pos_as_xyz
  1  'x, y, z'
loop_
 _atom_site_type_symbol
 _atom_site_label
 _atom_site_symmetry_multiplicity
 _atom_site_fract_x
 _atom_site_fract_y
 _atom_site_fract_z
 _atom_site_occupancy
  Ce  Ce0  1  0.93636882  0.75000000  0.75000000  1
  Ce  Ce1  1  0.06363118  0.25000000  0.25000000  1
  Ce  Ce2  1  0.50000000  0.75000000  0.25000000  1
  Ce  Ce3  1  0.50000000  0.25000000  0.75000000  1
  Si  Si4  1  0.44984691  0.75000000  0.75000000  1
  Si  Si5  1  0.55015309  0.25000000  0.25000000  1
  Pd  Pd6  1  0.61548349  0.58461221  0.58461221  1
  Pd  Pd7  1  0.61548349  0.91538779  0.58461221  1
  Pd  Pd8  1  0.61548349  0.58461221  0.91538779  1
  Pd  Pd9  1  0.61548349  0.91538779  0.91538779  1
  Pd  Pd10  1  0.38451651  0.41538779  0.41538779  1
  Pd  Pd11  1  0.38451651  0.08461221  0.41538779  1
  Pd  Pd12  1  0.38451651  0.41538779  0.08461221  1
  Pd  Pd13  1  0.38451651  0.08461221  0.08461221  1
  Pd  Pd14  1  0.26023447  0.51912748  0.75000000  1
  Pd  Pd15  1  0.26023447  0.98087252  0.75000000  1
  Pd  Pd16  1  0.26023447  0.75000000  0.51912748  1
  Pd  Pd17  1  0.26023447  0.75000000  0.98087252  1
  Pd  Pd18  1  0.73976553  0.48087252  0.25000000  1
  Pd  Pd19  1  0.73976553  0.01912748  0.25000000  1
  Pd  Pd20  1  0.73976553  0.25000000  0.48087252  1
  Pd  Pd21  1  0.73976553  0.25000000  0.01912748  1
  Pd  Pd22  1  0.85090948  0.09962720  0.75000000  1
  Pd  Pd23  1  0.85090948  0.40037280  0.75000000  1
  Pd  Pd24  1  0.85090948  0.75000000  0.09962720  1
  Pd  Pd25  1  0.85090948  0.75000000  0.40037280  1
  Pd  Pd26  1  0.14909052  0.90037280  0.25000000  1
  Pd  Pd27  1  0.14909052  0.59962720  0.25000000  1
  Pd  Pd28  1  0.14909052  0.25000000  0.90037280  1
  Pd  Pd29  1  0.14909052  0.25000000  0.59962720  1
  Pd  Pd30  1  -0.00000000  0.50000000  0.50000000  1
  Pd  Pd31  1  -0.00000000  0.00000000  0.50000000  1
  Pd  Pd32  1  -0.00000000  0.50000000  0.00000000  1
  Pd  Pd33  1  -0.00000000  0.00000000  0.00000000  1
