# generated using pymatgen
data_Ba4P3HF24
_symmetry_space_group_name_H-M   'P 1'
_cell_length_a   4.80345638
_cell_length_b   9.30336197
_cell_length_c   11.87617150
_cell_angle_alpha   67.51775127
_cell_angle_beta   85.00511142
_cell_angle_gamma   78.95929806
_symmetry_Int_Tables_number   1
_chemical_formula_structural   Ba4P3HF24
_chemical_formula_sum   'Ba4 P3 H1 F24'
_cell_volume   481.25719331
_cell_formula_units_Z   1
loop_
 _symmetry_equiv_pos_site_id
 _symmetry_equiv_pos_as_xyz
  1  'x, y, z'
loop_
 _atom_site_type_symbol
 _atom_site_label
 _atom_site_symmetry_multiplicity
 _atom_site_fract_x
 _atom_site_fract_y
 _atom_site_fract_z
 _atom_site_occupancy
  Ba  Ba0  1  0.61784678  0.55783096  0.24576019  1
  Ba  Ba1  1  0.38215322  0.44216904  0.75423981  1
  Ba  Ba2  1  0.26527871  0.19692923  0.20649304  1
  Ba  Ba3  1  0.73472129  0.80307077  0.79350696  1
  P  P4  1  0.16559803  0.21973516  0.55390032  1
  P  P5  1  0.83440197  0.78026484  0.44609968  1
  P  P6  1  0.00000000  -0.00000000  0.00000000  1
  H  H7  1  0.50000000  0.50000000  0.00000000  1
  F  F8  1  0.59442524  0.59927867  0.01061408  1
  F  F9  1  0.40557476  0.40072133  0.98938592  1
  F  F10  1  0.15354047  0.47918974  0.21698564  1
  F  F11  1  0.84645953  0.52081026  0.78301436  1
  F  F12  1  0.73167466  0.28603368  0.22358049  1
  F  F13  1  0.26832534  0.71396632  0.77641951  1
  F  F14  1  0.89458001  0.30074492  0.46442727  1
  F  F15  1  0.10541999  0.69925508  0.53557273  1
  F  F16  1  0.95437452  0.94564472  0.38838092  1
  F  F17  1  0.04562548  0.05435528  0.61161908  1
  F  F18  1  0.99241638  0.27791575  0.65962733  1
  F  F19  1  0.00758362  0.72208425  0.34037267  1
  F  F20  1  0.43987755  0.13982409  0.64559436  1
  F  F21  1  0.56012245  0.86017591  0.35440564  1
  F  F22  1  0.34383815  0.16440158  0.44972401  1
  F  F23  1  0.65616185  0.83559842  0.55027599  1
  F  F24  1  0.29180208  0.38629825  0.49865957  1
  F  F25  1  0.70819792  0.61370175  0.50134043  1
  F  F26  1  0.26000909  0.91543864  0.09724132  1
  F  F27  1  0.73999091  0.08456136  0.90275868  1
  F  F28  1  0.87960455  0.83303566  0.04455067  1
  F  F29  1  0.12039545  0.16696434  0.95544933  1
  F  F30  1  0.19523120  0.95227422  0.89548303  1
  F  F31  1  0.80476880  0.04772578  0.10451697  1
