# generated using pymatgen
data_RbLi3S2O9
_symmetry_space_group_name_H-M   'P 1'
_cell_length_a   5.07611463
_cell_length_b   5.21190953
_cell_length_c   8.35376643
_cell_angle_alpha   105.33061111
_cell_angle_beta   90.35908479
_cell_angle_gamma   89.46934984
_symmetry_Int_Tables_number   1
_chemical_formula_structural   RbLi3S2O9
_chemical_formula_sum   'Rb1 Li3 S2 O9'
_cell_volume   213.13419360
_cell_formula_units_Z   1
loop_
 _symmetry_equiv_pos_site_id
 _symmetry_equiv_pos_as_xyz
  1  'x, y, z'
loop_
 _atom_site_type_symbol
 _atom_site_label
 _atom_site_symmetry_multiplicity
 _atom_site_fract_x
 _atom_site_fract_y
 _atom_site_fract_z
 _atom_site_occupancy
  Rb  Rb0  1  0.50921378  0.57462781  0.22177313  1
  Li  Li1  1  0.50405385  0.13995340  0.59498079  1
  Li  Li2  1  0.99689895  0.98511100  0.99493503  1
  Li  Li3  1  0.00701314  0.76343167  0.59891738  1
  S  S4  1  0.50455977  0.74063364  0.80490258  1
  S  S5  1  0.00327170  0.16339140  0.38677340  1
  O  O6  1  0.14070286  0.06127739  0.51718137  1
  O  O7  1  0.62800650  0.81484010  0.66135611  1
  O  O8  1  0.71481510  0.11988695  0.39585620  1
  O  O9  1  0.54269455  0.45037615  0.78749629  1
  O  O10  1  0.05876576  0.45144275  0.41345666  1
  O  O11  1  0.10505590  0.01512549  0.22068733  1
  O  O12  1  0.21573369  0.79879601  0.80372843  1
  O  O13  1  0.62171143  0.89491584  0.96365857  1
  O  O14  1  0.00560302  0.35589041  0.95599673  1
