# generated using pymatgen
data_Tm(NO3)3
_symmetry_space_group_name_H-M   'P 1'
_cell_length_a   6.11579190
_cell_length_b   9.65046812
_cell_length_c   11.18347445
_cell_angle_alpha   93.43177764
_cell_angle_beta   90.00000000
_cell_angle_gamma   90.00000000
_symmetry_Int_Tables_number   1
_chemical_formula_structural   Tm(NO3)3
_chemical_formula_sum   'Tm4 N12 O36'
_cell_volume   658.86789503
_cell_formula_units_Z   4
loop_
 _symmetry_equiv_pos_site_id
 _symmetry_equiv_pos_as_xyz
  1  'x, y, z'
loop_
 _atom_site_type_symbol
 _atom_site_label
 _atom_site_symmetry_multiplicity
 _atom_site_fract_x
 _atom_site_fract_y
 _atom_site_fract_z
 _atom_site_occupancy
  Tm  Tm0  1  0.32406189  0.71246540  0.73154200  1
  Tm  Tm1  1  0.82406189  0.78753460  0.26845800  1
  Tm  Tm2  1  0.67593811  0.28753460  0.26845800  1
  Tm  Tm3  1  0.17593811  0.21246540  0.73154200  1
  N  N4  1  0.62155601  0.83204541  0.49287241  1
  N  N5  1  0.12155601  0.66795459  0.50712759  1
  N  N6  1  0.37844399  0.16795459  0.50712759  1
  N  N7  1  0.87844399  0.33204541  0.49287241  1
  N  N8  1  0.27204846  0.80266161  0.21670410  1
  N  N9  1  0.77204846  0.69733839  0.78329590  1
  N  N10  1  0.72795154  0.19733839  0.78329590  1
  N  N11  1  0.22795154  0.30266161  0.21670410  1
  N  N12  1  0.28229730  0.47710304  0.87975370  1
  N  N13  1  0.78229730  0.02289696  0.12024630  1
  N  N14  1  0.71770270  0.52289696  0.12024630  1
  N  N15  1  0.21770270  0.97710304  0.87975370  1
  O  O16  1  0.57633653  0.72579716  0.42387256  1
  O  O17  1  0.07633653  0.77420284  0.57612744  1
  O  O18  1  0.42366347  0.27420284  0.57612744  1
  O  O19  1  0.92366347  0.22579716  0.42387256  1
  O  O20  1  0.75118117  0.92061435  0.45193976  1
  O  O21  1  0.25118117  0.57938565  0.54806024  1
  O  O22  1  0.24881883  0.07938565  0.54806024  1
  O  O23  1  0.74881883  0.42061435  0.45193976  1
  O  O24  1  0.54379156  0.84880235  0.59642129  1
  O  O25  1  0.04379156  0.65119765  0.40357871  1
  O  O26  1  0.45620844  0.15119765  0.40357871  1
  O  O27  1  0.95620844  0.34880235  0.59642129  1
  O  O28  1  0.18000107  0.89591577  0.28490003  1
  O  O29  1  0.68000107  0.60408423  0.71509997  1
  O  O30  1  0.81999893  0.10408423  0.71509997  1
  O  O31  1  0.31999893  0.39591577  0.28490003  1
  O  O32  1  0.47194122  0.80735511  0.19310077  1
  O  O33  1  0.97194122  0.69264489  0.80689923  1
  O  O34  1  0.52805878  0.19264489  0.80689923  1
  O  O35  1  0.02805878  0.30735511  0.19310077  1
  O  O36  1  0.15333605  0.70527264  0.17167673  1
  O  O37  1  0.65333605  0.79472736  0.82832327  1
  O  O38  1  0.84666395  0.29472736  0.82832327  1
  O  O39  1  0.34666395  0.20527264  0.17167673  1
  O  O40  1  0.27114141  0.45613124  0.76263567  1
  O  O41  1  0.77114141  0.04386876  0.23736433  1
  O  O42  1  0.72885859  0.54386876  0.23736433  1
  O  O43  1  0.22885859  0.95613124  0.76263567  1
  O  O44  1  0.34222292  0.59698688  0.91765544  1
  O  O45  1  0.84222292  0.90301312  0.08234456  1
  O  O46  1  0.65777708  0.40301312  0.08234456  1
  O  O47  1  0.15777708  0.09698688  0.91765544  1
  O  O48  1  0.23328234  0.38184042  0.94286476  1
  O  O49  1  0.73328234  0.11815958  0.05713524  1
  O  O50  1  0.76671766  0.61815958  0.05713524  1
  O  O51  1  0.26671766  0.88184042  0.94286476  1
