# generated using pymatgen
data_Er2Fe14Si3
_symmetry_space_group_name_H-M   'P 1'
_cell_length_a   8.18005548
_cell_length_b   8.30632365
_cell_length_c   8.30632365
_cell_angle_alpha   120.01256790
_cell_angle_beta   90.00000000
_cell_angle_gamma   90.00000000
_symmetry_Int_Tables_number   1
_chemical_formula_structural   Er2Fe14Si3
_chemical_formula_sum   'Er4 Fe28 Si6'
_cell_volume   488.70813126
_cell_formula_units_Z   2
loop_
 _symmetry_equiv_pos_site_id
 _symmetry_equiv_pos_as_xyz
  1  'x, y, z'
loop_
 _atom_site_type_symbol
 _atom_site_label
 _atom_site_symmetry_multiplicity
 _atom_site_fract_x
 _atom_site_fract_y
 _atom_site_fract_z
 _atom_site_occupancy
  Er  Er0  1  0.75000000  0.99996675  0.00003325  1
  Er  Er1  1  0.25000000  0.00003325  0.99996675  1
  Er  Er2  1  0.25000000  0.66666263  0.33333737  1
  Er  Er3  1  0.75000000  0.33333737  0.66666263  1
  Fe  Fe4  1  0.60981888  0.66666560  0.33333440  1
  Fe  Fe5  1  0.39018112  0.33333440  0.66666560  1
  Fe  Fe6  1  0.10981888  0.33333440  0.66666560  1
  Fe  Fe7  1  0.89018112  0.66666560  0.33333440  1
  Fe  Fe8  1  0.75000000  0.67001152  0.02783521  1
  Fe  Fe9  1  0.75000000  0.35787067  0.33002924  1
  Fe  Fe10  1  0.75000000  0.97220341  0.64225222  1
  Fe  Fe11  1  0.75000000  0.35774778  0.02779659  1
  Fe  Fe12  1  0.75000000  0.97216479  0.32998848  1
  Fe  Fe13  1  0.75000000  0.66997076  0.64212933  1
  Fe  Fe14  1  0.25000000  0.32998848  0.97216479  1
  Fe  Fe15  1  0.25000000  0.64212933  0.66997076  1
  Fe  Fe16  1  0.25000000  0.02779659  0.35774778  1
  Fe  Fe17  1  0.25000000  0.64225222  0.97220341  1
  Fe  Fe18  1  0.25000000  0.02783521  0.67001152  1
  Fe  Fe19  1  0.25000000  0.33002924  0.35787067  1
  Fe  Fe20  1  0.48686271  0.83200178  0.66400477  1
  Fe  Fe21  1  0.48678771  0.83198701  0.16801299  1
  Fe  Fe22  1  0.48686271  0.33599523  0.16799822  1
  Fe  Fe23  1  0.51313729  0.16799822  0.33599523  1
  Fe  Fe24  1  0.51321229  0.16801299  0.83198701  1
  Fe  Fe25  1  0.51313729  0.66400477  0.83200178  1
  Fe  Fe26  1  0.98686271  0.16799822  0.33599523  1
  Fe  Fe27  1  0.98678771  0.16801299  0.83198701  1
  Fe  Fe28  1  0.98686271  0.66400477  0.83200178  1
  Fe  Fe29  1  0.01313729  0.83200178  0.66400477  1
  Fe  Fe30  1  0.01321229  0.83198701  0.16801299  1
  Fe  Fe31  1  0.01313729  0.33599523  0.16799822  1
  Si  Si32  1  0.50000000  0.50000000  -0.00000000  1
  Si  Si33  1  0.50000000  0.50000000  0.50000000  1
  Si  Si34  1  0.50000000  -0.00000000  0.50000000  1
  Si  Si35  1  0.00000000  0.50000000  -0.00000000  1
  Si  Si36  1  0.00000000  0.50000000  0.50000000  1
  Si  Si37  1  0.00000000  -0.00000000  0.50000000  1
