# generated using pymatgen
data_Lu3C4
_symmetry_space_group_name_H-M   'P 1'
_cell_length_a   7.88332754
_cell_length_b   7.88332754
_cell_length_c   15.67004150
_cell_angle_alpha   90.00000000
_cell_angle_beta   90.00000000
_cell_angle_gamma   90.00000000
_symmetry_Int_Tables_number   1
_chemical_formula_structural   Lu3C4
_chemical_formula_sum   'Lu30 C40'
_cell_volume   973.84376722
_cell_formula_units_Z   10
loop_
 _symmetry_equiv_pos_site_id
 _symmetry_equiv_pos_as_xyz
  1  'x, y, z'
loop_
 _atom_site_type_symbol
 _atom_site_label
 _atom_site_symmetry_multiplicity
 _atom_site_fract_x
 _atom_site_fract_y
 _atom_site_fract_z
 _atom_site_occupancy
  Lu  Lu0  1  0.50000000  0.50000000  0.50000000  1
  Lu  Lu1  1  0.00000000  0.00000000  0.00000000  1
  Lu  Lu2  1  0.50000000  0.50000000  0.18755381  1
  Lu  Lu3  1  0.00000000  0.00000000  0.68755381  1
  Lu  Lu4  1  0.50000000  0.50000000  0.81244619  1
  Lu  Lu5  1  -0.00000000  0.00000000  0.31244619  1
  Lu  Lu6  1  0.70120030  0.90429926  0.50000000  1
  Lu  Lu7  1  0.29879970  0.09570074  0.50000000  1
  Lu  Lu8  1  0.79879970  0.40429926  0.00000000  1
  Lu  Lu9  1  0.20120030  0.59570074  0.00000000  1
  Lu  Lu10  1  0.90429926  0.29879970  0.50000000  1
  Lu  Lu11  1  0.09570074  0.70120030  0.50000000  1
  Lu  Lu12  1  0.40429926  0.20120030  0.00000000  1
  Lu  Lu13  1  0.59570074  0.79879970  0.00000000  1
  Lu  Lu14  1  0.78762282  0.60048829  0.35472575  1
  Lu  Lu15  1  0.21237718  0.39951171  0.35472575  1
  Lu  Lu16  1  0.71237718  0.10048829  0.85472575  1
  Lu  Lu17  1  0.28762282  0.89951171  0.85472575  1
  Lu  Lu18  1  0.60048829  0.21237718  0.35472575  1
  Lu  Lu19  1  0.39951171  0.78762282  0.35472575  1
  Lu  Lu20  1  0.10048829  0.28762282  0.85472575  1
  Lu  Lu21  1  0.89951171  0.71237718  0.85472575  1
  Lu  Lu22  1  0.21237718  0.39951171  0.64527425  1
  Lu  Lu23  1  0.78762282  0.60048829  0.64527425  1
  Lu  Lu24  1  0.28762282  0.89951171  0.14527425  1
  Lu  Lu25  1  0.71237718  0.10048829  0.14527425  1
  Lu  Lu26  1  0.39951171  0.78762282  0.64527425  1
  Lu  Lu27  1  0.60048829  0.21237718  0.64527425  1
  Lu  Lu28  1  0.89951171  0.71237718  0.14527425  1
  Lu  Lu29  1  0.10048829  0.28762282  0.14527425  1
  C  C30  1  0.50000000  0.50000000  0.95820547  1
  C  C31  1  -0.00000000  0.00000000  0.45820547  1
  C  C32  1  0.50000000  0.50000000  0.04179453  1
  C  C33  1  0.00000000  0.00000000  0.54179453  1
  C  C34  1  0.50000000  0.50000000  0.34325724  1
  C  C35  1  0.00000000  0.00000000  0.84325724  1
  C  C36  1  0.50000000  0.50000000  0.65674276  1
  C  C37  1  -0.00000000  0.00000000  0.15674276  1
  C  C38  1  0.60707114  0.19626758  0.50000000  1
  C  C39  1  0.39292886  0.80373242  0.50000000  1
  C  C40  1  0.89292886  0.69626758  0.00000000  1
  C  C41  1  0.10707114  0.30373242  0.00000000  1
  C  C42  1  0.19626758  0.39292886  0.50000000  1
  C  C43  1  0.80373242  0.60707114  0.50000000  1
  C  C44  1  0.69626758  0.10707114  0.00000000  1
  C  C45  1  0.30373242  0.89292886  0.00000000  1
  C  C46  1  0.69227605  0.90203763  0.32923413  1
  C  C47  1  0.30772395  0.09796237  0.32923413  1
  C  C48  1  0.80772395  0.40203763  0.82923413  1
  C  C49  1  0.19227605  0.59796237  0.82923413  1
  C  C50  1  0.90203763  0.30772395  0.32923413  1
  C  C51  1  0.09796237  0.69227605  0.32923413  1
  C  C52  1  0.40203763  0.19227605  0.82923413  1
  C  C53  1  0.59796237  0.80772395  0.82923413  1
  C  C54  1  0.30772395  0.09796237  0.67076587  1
  C  C55  1  0.69227605  0.90203763  0.67076587  1
  C  C56  1  0.19227605  0.59796237  0.17076587  1
  C  C57  1  0.80772395  0.40203763  0.17076587  1
  C  C58  1  0.09796237  0.69227605  0.67076587  1
  C  C59  1  0.90203763  0.30772395  0.67076587  1
  C  C60  1  0.59796237  0.80772395  0.17076587  1
  C  C61  1  0.40203763  0.19227605  0.17076587  1
  C  C62  1  0.64941428  0.85058572  0.25000000  1
  C  C63  1  0.35058572  0.14941428  0.25000000  1
  C  C64  1  0.85058572  0.35058572  0.75000000  1
  C  C65  1  0.14941428  0.64941428  0.75000000  1
  C  C66  1  0.85058572  0.35058572  0.25000000  1
  C  C67  1  0.14941428  0.64941428  0.25000000  1
  C  C68  1  0.35058572  0.14941428  0.75000000  1
  C  C69  1  0.64941428  0.85058572  0.75000000  1
