# generated using pymatgen
data_Ga2Cu3(SeO3)6
_symmetry_space_group_name_H-M   'P 1'
_cell_length_a   7.68996872
_cell_length_b   8.32341101
_cell_length_c   12.48792886
_cell_angle_alpha   90.00000000
_cell_angle_beta   95.91933282
_cell_angle_gamma   90.00000000
_symmetry_Int_Tables_number   1
_chemical_formula_structural   Ga2Cu3(SeO3)6
_chemical_formula_sum   'Ga4 Cu6 Se12 O36'
_cell_volume   795.05012366
_cell_formula_units_Z   2
loop_
 _symmetry_equiv_pos_site_id
 _symmetry_equiv_pos_as_xyz
  1  'x, y, z'
loop_
 _atom_site_type_symbol
 _atom_site_label
 _atom_site_symmetry_multiplicity
 _atom_site_fract_x
 _atom_site_fract_y
 _atom_site_fract_z
 _atom_site_occupancy
  Ga  Ga0  1  0.63537593  0.99407462  0.82685701  1
  Ga  Ga1  1  0.86462407  0.49407462  0.17314299  1
  Ga  Ga2  1  0.36462407  0.00592538  0.17314299  1
  Ga  Ga3  1  0.13537593  0.50592538  0.82685701  1
  Cu  Cu4  1  0.50000000  0.50000000  0.50000000  1
  Cu  Cu5  1  0.00000000  0.00000000  0.50000000  1
  Cu  Cu6  1  0.37132490  0.12293910  0.62010852  1
  Cu  Cu7  1  0.12867510  0.62293910  0.37989148  1
  Cu  Cu8  1  0.62867510  0.87706090  0.37989148  1
  Cu  Cu9  1  0.87132490  0.37706090  0.62010852  1
  Se  Se10  1  0.55298783  0.40255126  0.78540440  1
  Se  Se11  1  0.94701217  0.90255126  0.21459560  1
  Se  Se12  1  0.44701217  0.59744874  0.21459560  1
  Se  Se13  1  0.05298783  0.09744874  0.78540440  1
  Se  Se14  1  0.31166401  0.18759480  0.39192457  1
  Se  Se15  1  0.18833599  0.68759480  0.60807543  1
  Se  Se16  1  0.68833599  0.81240520  0.60807543  1
  Se  Se17  1  0.81166401  0.31240520  0.39192457  1
  Se  Se18  1  0.63724046  0.19730127  0.04415880  1
  Se  Se19  1  0.86275954  0.69730127  0.95584120  1
  Se  Se20  1  0.36275954  0.80269873  0.95584120  1
  Se  Se21  1  0.13724046  0.30269873  0.04415880  1
  O  O22  1  0.34937386  0.48459829  0.74675469  1
  O  O23  1  0.15062614  0.98459829  0.25324531  1
  O  O24  1  0.65062614  0.51540171  0.25324531  1
  O  O25  1  0.84937386  0.01540171  0.74675469  1
  O  O26  1  0.65324593  0.46811609  0.67618729  1
  O  O27  1  0.84675407  0.96811609  0.32381271  1
  O  O28  1  0.34675407  0.53188391  0.32381271  1
  O  O29  1  0.15324593  0.03188391  0.67618729  1
  O  O30  1  0.51239071  0.19794151  0.74992014  1
  O  O31  1  0.98760929  0.69794151  0.25007986  1
  O  O32  1  0.48760929  0.80205849  0.25007986  1
  O  O33  1  0.01239071  0.30205849  0.74992014  1
  O  O34  1  0.45682169  0.26596218  0.50075442  1
  O  O35  1  0.04317831  0.76596218  0.49924558  1
  O  O36  1  0.54317831  0.73403782  0.49924558  1
  O  O37  1  0.95682169  0.23403782  0.50075442  1
  O  O38  1  0.46514493  0.09379689  0.32222509  1
  O  O39  1  0.03485507  0.59379689  0.67777491  1
  O  O40  1  0.53485507  0.90620311  0.67777491  1
  O  O41  1  0.96514493  0.40620311  0.32222509  1
  O  O42  1  0.25520329  0.03626481  0.48378089  1
  O  O43  1  0.24479671  0.53626481  0.51621911  1
  O  O44  1  0.74479671  0.96373519  0.51621911  1
  O  O45  1  0.75520329  0.46373519  0.48378089  1
  O  O46  1  0.75773948  0.10992373  0.94735937  1
  O  O47  1  0.74226052  0.60992373  0.05264063  1
  O  O48  1  0.24226052  0.89007627  0.05264063  1
  O  O49  1  0.25773948  0.39007627  0.94735937  1
  O  O50  1  0.58864534  0.02462818  0.11339079  1
  O  O51  1  0.91135466  0.52462818  0.88660921  1
  O  O52  1  0.41135466  0.97537182  0.88660921  1
  O  O53  1  0.08864534  0.47537182  0.11339079  1
  O  O54  1  0.80930766  0.26669651  0.13269936  1
  O  O55  1  0.69069234  0.76669651  0.86730064  1
  O  O56  1  0.19069234  0.73330349  0.86730064  1
  O  O57  1  0.30930766  0.23330349  0.13269936  1
