# generated using pymatgen
data_K4As2Se5
_symmetry_space_group_name_H-M   'P 1'
_cell_length_a   7.78892983
_cell_length_b   8.71261721
_cell_length_c   23.28776862
_cell_angle_alpha   90.00000000
_cell_angle_beta   90.00000000
_cell_angle_gamma   107.24171387
_symmetry_Int_Tables_number   1
_chemical_formula_structural   K4As2Se5
_chemical_formula_sum   'K16 As8 Se20'
_cell_volume   1509.33707917
_cell_formula_units_Z   4
loop_
 _symmetry_equiv_pos_site_id
 _symmetry_equiv_pos_as_xyz
  1  'x, y, z'
loop_
 _atom_site_type_symbol
 _atom_site_label
 _atom_site_symmetry_multiplicity
 _atom_site_fract_x
 _atom_site_fract_y
 _atom_site_fract_z
 _atom_site_occupancy
  K  K0  1  0.75341443  0.50465972  0.45948225  1
  K  K1  1  0.25341443  0.00465972  0.04051775  1
  K  K2  1  0.24658557  0.49534028  0.54051775  1
  K  K3  1  0.74658557  0.99534028  0.95948225  1
  K  K4  1  0.75514401  0.50349851  0.24505744  1
  K  K5  1  0.25514401  0.00349851  0.25494256  1
  K  K6  1  0.24485599  0.49650149  0.75494256  1
  K  K7  1  0.74485599  0.99650149  0.74505744  1
  K  K8  1  0.25257861  0.00395265  0.45280685  1
  K  K9  1  0.75257861  0.50395265  0.04719315  1
  K  K10  1  0.74742139  0.99604735  0.54719315  1
  K  K11  1  0.24742139  0.49604735  0.95280685  1
  K  K12  1  0.25684081  0.49038714  0.34435880  1
  K  K13  1  0.75684081  0.99038714  0.15564120  1
  K  K14  1  0.74315919  0.50961286  0.65564120  1
  K  K15  1  0.24315919  0.00961286  0.84435880  1
  As  As16  1  0.70595739  0.86151792  0.35752857  1
  As  As17  1  0.20595739  0.36151792  0.14247143  1
  As  As18  1  0.29404261  0.13848208  0.64247143  1
  As  As19  1  0.79404261  0.63848208  0.85752857  1
  As  As20  1  0.81810734  0.17311957  0.35216195  1
  As  As21  1  0.31810734  0.67311957  0.14783805  1
  As  As22  1  0.18189266  0.82688043  0.64783805  1
  As  As23  1  0.68189266  0.32688043  0.85216195  1
  Se  Se24  1  0.96405222  0.76972853  0.35715141  1
  Se  Se25  1  0.46405222  0.26972853  0.14284859  1
  Se  Se26  1  0.03594778  0.23027147  0.64284859  1
  Se  Se27  1  0.53594778  0.73027147  0.85715141  1
  Se  Se28  1  0.54194449  0.78031972  0.27067786  1
  Se  Se29  1  0.04194449  0.28031972  0.22932214  1
  Se  Se30  1  0.45805551  0.21968028  0.72932214  1
  Se  Se31  1  0.95805551  0.71968028  0.77067786  1
  Se  Se32  1  0.51781412  0.76009156  0.43816400  1
  Se  Se33  1  0.01781412  0.26009156  0.06183600  1
  Se  Se34  1  0.48218588  0.23990844  0.56183600  1
  Se  Se35  1  0.98218588  0.73990844  0.93816400  1
  Se  Se36  1  0.54365184  0.23826210  0.35821889  1
  Se  Se37  1  0.04365184  0.73826210  0.14178111  1
  Se  Se38  1  0.45634816  0.76173790  0.64178111  1
  Se  Se39  1  0.95634816  0.26173790  0.85821889  1
  Se  Se40  1  0.97539248  0.23966548  0.44094402  1
  Se  Se41  1  0.47539248  0.73966548  0.05905598  1
  Se  Se42  1  0.02460752  0.76033452  0.55905598  1
  Se  Se43  1  0.52460752  0.26033452  0.94094402  1
