# generated using pymatgen
data_Dy3Ir2
_symmetry_space_group_name_H-M   'P 1'
_cell_length_a   11.26129328
_cell_length_b   11.26129328
_cell_length_c   14.92881363
_cell_angle_alpha   112.15827197
_cell_angle_beta   112.15827197
_cell_angle_gamma   90.00000000
_symmetry_Int_Tables_number   1
_chemical_formula_structural   Dy3Ir2
_chemical_formula_sum   'Dy42 Ir28'
_cell_volume   1601.41515482
_cell_formula_units_Z   14
loop_
 _symmetry_equiv_pos_site_id
 _symmetry_equiv_pos_as_xyz
  1  'x, y, z'
loop_
 _atom_site_type_symbol
 _atom_site_label
 _atom_site_symmetry_multiplicity
 _atom_site_fract_x
 _atom_site_fract_y
 _atom_site_fract_z
 _atom_site_occupancy
  Dy  Dy0  1  0.50373062  0.63212493  0.85667986  1
  Dy  Dy1  1  0.35294924  0.22455493  0.85667986  1
  Dy  Dy2  1  0.85294924  0.13212493  0.85667986  1
  Dy  Dy3  1  0.00373062  0.72455493  0.85667986  1
  Dy  Dy4  1  0.63212493  0.35294924  0.85667986  1
  Dy  Dy5  1  0.22455493  0.50373062  0.85667986  1
  Dy  Dy6  1  0.13212493  0.00373062  0.85667986  1
  Dy  Dy7  1  0.72455493  0.85294924  0.85667986  1
  Dy  Dy8  1  0.49626938  0.36787507  0.14332014  1
  Dy  Dy9  1  0.64705076  0.77544507  0.14332014  1
  Dy  Dy10  1  0.14705076  0.86787507  0.14332014  1
  Dy  Dy11  1  0.99626938  0.27544507  0.14332014  1
  Dy  Dy12  1  0.36787507  0.64705076  0.14332014  1
  Dy  Dy13  1  0.77544507  0.49626938  0.14332014  1
  Dy  Dy14  1  0.86787507  0.99626938  0.14332014  1
  Dy  Dy15  1  0.27544507  0.14705076  0.14332014  1
  Dy  Dy16  1  0.51673329  0.38586938  0.61251965  1
  Dy  Dy17  1  0.09578636  0.22665026  0.61251965  1
  Dy  Dy18  1  0.59578636  0.88586938  0.61251965  1
  Dy  Dy19  1  0.01673329  0.72665026  0.61251965  1
  Dy  Dy20  1  0.38586938  0.09578636  0.61251965  1
  Dy  Dy21  1  0.22665026  0.51673329  0.61251965  1
  Dy  Dy22  1  0.88586938  0.01673329  0.61251965  1
  Dy  Dy23  1  0.72665026  0.59578636  0.61251965  1
  Dy  Dy24  1  0.48326671  0.61413062  0.38748035  1
  Dy  Dy25  1  0.90421364  0.77334974  0.38748035  1
  Dy  Dy26  1  0.40421364  0.11413062  0.38748035  1
  Dy  Dy27  1  0.98326671  0.27334974  0.38748035  1
  Dy  Dy28  1  0.61413062  0.90421364  0.38748035  1
  Dy  Dy29  1  0.77334974  0.48326671  0.38748035  1
  Dy  Dy30  1  0.11413062  0.98326671  0.38748035  1
  Dy  Dy31  1  0.27334974  0.40421364  0.38748035  1
  Dy  Dy32  1  0.35053084  0.85053084  0.00000000  1
  Dy  Dy33  1  0.64946916  0.14946916  0.00000000  1
  Dy  Dy34  1  0.14946916  0.35053084  0.00000000  1
  Dy  Dy35  1  0.85053084  0.64946916  0.00000000  1
  Dy  Dy36  1  0.88775647  0.38775647  0.77551294  1
  Dy  Dy37  1  0.38775647  0.88775647  0.77551294  1
  Dy  Dy38  1  0.11224353  0.61224353  0.22448706  1
  Dy  Dy39  1  0.61224353  0.11224353  0.22448706  1
  Dy  Dy40  1  0.75000000  0.25000000  0.50000000  1
  Dy  Dy41  1  0.25000000  0.75000000  0.50000000  1
  Ir  Ir42  1  0.21492741  0.71492741  0.78807210  1
  Ir  Ir43  1  0.57314469  0.07314469  0.78807210  1
  Ir  Ir44  1  0.07314469  0.21492741  0.78807210  1
  Ir  Ir45  1  0.71492741  0.57314469  0.78807210  1
  Ir  Ir46  1  0.78507259  0.28507259  0.21192790  1
  Ir  Ir47  1  0.42685531  0.92685531  0.21192790  1
  Ir  Ir48  1  0.92685531  0.78507259  0.21192790  1
  Ir  Ir49  1  0.28507259  0.42685531  0.21192790  1
  Ir  Ir50  1  0.96540825  0.46540825  0.62302254  1
  Ir  Ir51  1  0.65761428  0.15761428  0.62302254  1
  Ir  Ir52  1  0.15761428  0.96540825  0.62302254  1
  Ir  Ir53  1  0.46540825  0.65761428  0.62302254  1
  Ir  Ir54  1  0.03459175  0.53459175  0.37697746  1
  Ir  Ir55  1  0.34238572  0.84238572  0.37697746  1
  Ir  Ir56  1  0.84238572  0.03459175  0.37697746  1
  Ir  Ir57  1  0.53459175  0.34238572  0.37697746  1
  Ir  Ir58  1  0.09678281  0.59678281  0.00000000  1
  Ir  Ir59  1  0.90321719  0.40321719  0.00000000  1
  Ir  Ir60  1  0.40321719  0.09678281  0.00000000  1
  Ir  Ir61  1  0.59678281  0.90321719  0.00000000  1
  Ir  Ir62  1  0.36606908  0.36606908  0.73213817  1
  Ir  Ir63  1  0.86606908  0.86606908  0.73213817  1
  Ir  Ir64  1  0.63393092  0.63393092  0.26786183  1
  Ir  Ir65  1  0.13393092  0.13393092  0.26786183  1
  Ir  Ir66  1  0.50000000  0.50000000  0.00000000  1
  Ir  Ir67  1  -0.00000000  0.00000000  0.00000000  1
  Ir  Ir68  1  0.25000000  0.25000000  0.50000000  1
  Ir  Ir69  1  0.75000000  0.75000000  0.50000000  1
