# generated using pymatgen
data_CsMnInTe3
_symmetry_space_group_name_H-M   'P 1'
_cell_length_a   9.03929666
_cell_length_b   9.03929666
_cell_length_c   24.42782502
_cell_angle_alpha   95.31724139
_cell_angle_beta   95.31724139
_cell_angle_gamma   90.01103101
_symmetry_Int_Tables_number   1
_chemical_formula_structural   CsMnInTe3
_chemical_formula_sum   'Cs8 Mn8 In8 Te24'
_cell_volume   1978.75178577
_cell_formula_units_Z   8
loop_
 _symmetry_equiv_pos_site_id
 _symmetry_equiv_pos_as_xyz
  1  'x, y, z'
loop_
 _atom_site_type_symbol
 _atom_site_label
 _atom_site_symmetry_multiplicity
 _atom_site_fract_x
 _atom_site_fract_y
 _atom_site_fract_z
 _atom_site_occupancy
  Cs  Cs0  1  0.76946458  0.39435352  0.07843934  1
  Cs  Cs1  1  0.60564648  0.23053542  0.42156066  1
  Cs  Cs2  1  0.23053542  0.60564648  0.92156066  1
  Cs  Cs3  1  0.39435352  0.76946458  0.57843934  1
  Cs  Cs4  1  0.10503286  0.23020613  0.42155976  1
  Cs  Cs5  1  0.76979387  0.89496714  0.07844024  1
  Cs  Cs6  1  0.89496714  0.76979387  0.57844024  1
  Cs  Cs7  1  0.23020613  0.10503286  0.92155976  1
  Mn  Mn8  1  0.06417536  0.93582464  0.25000000  1
  Mn  Mn9  1  0.93582464  0.06417536  0.75000000  1
  Mn  Mn10  1  0.06425451  0.43912914  0.24995937  1
  Mn  Mn11  1  0.56087086  0.93574549  0.25004063  1
  Mn  Mn12  1  0.93574549  0.56087086  0.75004063  1
  Mn  Mn13  1  0.43912914  0.06425451  0.74995937  1
  Mn  Mn14  1  0.56054328  0.43945672  0.25000000  1
  Mn  Mn15  1  0.43945672  0.56054328  0.75000000  1
  In  In16  1  0.84380512  0.71888777  0.37597828  1
  In  In17  1  0.28111223  0.15619488  0.12402172  1
  In  In18  1  0.15619488  0.28111223  0.62402172  1
  In  In19  1  0.71888777  0.84380512  0.87597828  1
  In  In20  1  0.28079680  0.65636247  0.12425313  1
  In  In21  1  0.34363753  0.71920320  0.37574687  1
  In  In22  1  0.71920320  0.34363753  0.87574687  1
  In  In23  1  0.65636247  0.28079680  0.62425313  1
  Te  Te24  1  0.26331636  0.38822498  0.05280476  1
  Te  Te25  1  0.61177502  0.73668364  0.44719524  1
  Te  Te26  1  0.73668364  0.61177502  0.94719524  1
  Te  Te27  1  0.38822498  0.26331636  0.55280476  1
  Te  Te28  1  0.11157460  0.73702763  0.44722069  1
  Te  Te29  1  0.26297237  0.88842540  0.05277931  1
  Te  Te30  1  0.88842540  0.26297237  0.55277931  1
  Te  Te31  1  0.73702763  0.11157460  0.94722069  1
  Te  Te32  1  0.32869367  0.43713712  0.31480789  1
  Te  Te33  1  0.56286288  0.67130633  0.18519211  1
  Te  Te34  1  0.67130633  0.56286288  0.68519211  1
  Te  Te35  1  0.43713712  0.32869367  0.81480789  1
  Te  Te36  1  0.03045487  0.17147744  0.18582975  1
  Te  Te37  1  0.82852256  0.96954513  0.31417025  1
  Te  Te38  1  0.96954513  0.82852256  0.81417025  1
  Te  Te39  1  0.17147744  0.03045487  0.68582975  1
  Te  Te40  1  0.03014584  0.67131309  0.18545704  1
  Te  Te41  1  0.32868691  0.96985416  0.31454296  1
  Te  Te42  1  0.96985416  0.32868691  0.81454296  1
  Te  Te43  1  0.67131309  0.03014584  0.68545704  1
  Te  Te44  1  0.82836524  0.43816509  0.31389513  1
  Te  Te45  1  0.56183491  0.17163476  0.18610487  1
  Te  Te46  1  0.17163476  0.56183491  0.68610487  1
  Te  Te47  1  0.43816509  0.82836524  0.81389513  1
