# generated using pymatgen
data_TcI4
_symmetry_space_group_name_H-M   'P 1'
_cell_length_a   7.00405986
_cell_length_b   14.25350009
_cell_length_c   16.86508901
_cell_angle_alpha   89.68515715
_cell_angle_beta   90.00000000
_cell_angle_gamma   90.00000000
_symmetry_Int_Tables_number   1
_chemical_formula_structural   TcI4
_chemical_formula_sum   'Tc8 I32'
_cell_volume   1683.65635011
_cell_formula_units_Z   8
loop_
 _symmetry_equiv_pos_site_id
 _symmetry_equiv_pos_as_xyz
  1  'x, y, z'
loop_
 _atom_site_type_symbol
 _atom_site_label
 _atom_site_symmetry_multiplicity
 _atom_site_fract_x
 _atom_site_fract_y
 _atom_site_fract_z
 _atom_site_occupancy
  Tc  Tc0  1  0.09525910  0.62680098  0.17166257  1
  Tc  Tc1  1  0.59525910  0.87319902  0.82833743  1
  Tc  Tc2  1  0.90474090  0.37319902  0.82833743  1
  Tc  Tc3  1  0.40474090  0.12680098  0.17166257  1
  Tc  Tc4  1  0.40666273  0.37398725  0.69028502  1
  Tc  Tc5  1  0.90666273  0.12601275  0.30971498  1
  Tc  Tc6  1  0.59333727  0.62601275  0.30971498  1
  Tc  Tc7  1  0.09333727  0.87398725  0.69028502  1
  I  I8  1  0.91760729  0.73250712  0.29391276  1
  I  I9  1  0.41760729  0.76749288  0.70608724  1
  I  I10  1  0.08239271  0.26749288  0.70608724  1
  I  I11  1  0.58239271  0.23250712  0.29391276  1
  I  I12  1  0.76800184  0.52072873  0.18507407  1
  I  I13  1  0.26800184  0.97927127  0.81492593  1
  I  I14  1  0.23199816  0.47927127  0.81492593  1
  I  I15  1  0.73199816  0.02072873  0.18507407  1
  I  I16  1  0.96251741  0.74486800  0.06427681  1
  I  I17  1  0.46251741  0.75513200  0.93572319  1
  I  I18  1  0.03748259  0.25513200  0.93572319  1
  I  I19  1  0.53748259  0.24486800  0.06427681  1
  I  I20  1  0.24083818  0.51012961  0.06621278  1
  I  I21  1  0.74083818  0.98987039  0.93378722  1
  I  I22  1  0.75916182  0.48987039  0.93378722  1
  I  I23  1  0.25916182  0.01012961  0.06621278  1
  I  I24  1  0.58219191  0.26570947  0.81193908  1
  I  I25  1  0.08219191  0.23429053  0.18806092  1
  I  I26  1  0.41780809  0.73429053  0.18806092  1
  I  I27  1  0.91780809  0.76570947  0.81193908  1
  I  I28  1  0.73302319  0.48026455  0.70448100  1
  I  I29  1  0.23302319  0.01973545  0.29551900  1
  I  I30  1  0.26697681  0.51973545  0.29551900  1
  I  I31  1  0.76697681  0.98026455  0.70448100  1
  I  I32  1  0.53872856  0.25622633  0.58270002  1
  I  I33  1  0.03872856  0.24377367  0.41729998  1
  I  I34  1  0.46127144  0.74377367  0.41729998  1
  I  I35  1  0.96127144  0.75622633  0.58270002  1
  I  I36  1  0.27343290  0.49444344  0.58440256  1
  I  I37  1  0.77343290  0.00555656  0.41559744  1
  I  I38  1  0.72656710  0.50555656  0.41559744  1
  I  I39  1  0.22656710  0.99444344  0.58440256  1
