# generated using pymatgen
data_BaPrO3
_symmetry_space_group_name_H-M   'P 1'
_cell_length_a   6.41045115
_cell_length_b   6.49693640
_cell_length_c   9.10700912
_cell_angle_alpha   90.00000000
_cell_angle_beta   90.00000000
_cell_angle_gamma   90.00000000
_symmetry_Int_Tables_number   1
_chemical_formula_structural   BaPrO3
_chemical_formula_sum   'Ba4 Pr4 O12'
_cell_volume   379.29138798
_cell_formula_units_Z   4
loop_
 _symmetry_equiv_pos_site_id
 _symmetry_equiv_pos_as_xyz
  1  'x, y, z'
loop_
 _atom_site_type_symbol
 _atom_site_label
 _atom_site_symmetry_multiplicity
 _atom_site_fract_x
 _atom_site_fract_y
 _atom_site_fract_z
 _atom_site_occupancy
  O  O0  1  0.71746754  0.28204558  0.44395433  1
  O  O1  1  0.21746754  0.21795442  0.55604567  1
  O  O2  1  0.78253246  0.78204558  0.05604567  1
  O  O3  1  0.28253246  0.71795442  0.94395433  1
  O  O4  1  0.28253246  0.71795442  0.55604567  1
  O  O5  1  0.78253246  0.78204558  0.44395433  1
  O  O6  1  0.21746754  0.21795442  0.94395433  1
  O  O7  1  0.71746754  0.28204558  0.05604567  1
  O  O8  1  0.09891749  0.46305315  0.25000000  1
  O  O9  1  0.59891749  0.03694685  0.75000000  1
  O  O10  1  0.40108251  0.96305315  0.25000000  1
  O  O11  1  0.90108251  0.53694685  0.75000000  1
  Ba  Ba12  1  0.98410953  0.03670822  0.25000000  1
  Ba  Ba13  1  0.48410953  0.46329178  0.75000000  1
  Ba  Ba14  1  0.51589047  0.53670822  0.25000000  1
  Ba  Ba15  1  0.01589047  0.96329178  0.75000000  1
  Pr  Pr16  1  0.50000000  0.00000000  0.00000000  1
  Pr  Pr17  1  0.00000000  0.50000000  0.00000000  1
  Pr  Pr18  1  0.00000000  0.50000000  0.50000000  1
  Pr  Pr19  1  0.50000000  0.00000000  0.50000000  1
