# generated using pymatgen
data_RbTa3(TeO6)2
_symmetry_space_group_name_H-M   'P 1'
_cell_length_a   3.98979918
_cell_length_b   15.21514442
_cell_length_c   17.76537139
_cell_angle_alpha   90.00000000
_cell_angle_beta   90.00000000
_cell_angle_gamma   90.00000000
_symmetry_Int_Tables_number   1
_chemical_formula_structural   RbTa3(TeO6)2
_chemical_formula_sum   'Rb4 Ta12 Te8 O48'
_cell_volume   1078.45345639
_cell_formula_units_Z   4
loop_
 _symmetry_equiv_pos_site_id
 _symmetry_equiv_pos_as_xyz
  1  'x, y, z'
loop_
 _atom_site_type_symbol
 _atom_site_label
 _atom_site_symmetry_multiplicity
 _atom_site_fract_x
 _atom_site_fract_y
 _atom_site_fract_z
 _atom_site_occupancy
  Rb  Rb0  1  0.21464003  0.07409027  0.75000000  1
  Rb  Rb1  1  0.78535997  0.92590973  0.25000000  1
  Rb  Rb2  1  0.21464003  0.42590973  0.25000000  1
  Rb  Rb3  1  0.78535997  0.57409027  0.75000000  1
  Ta  Ta4  1  0.25754569  0.79381262  0.75000000  1
  Ta  Ta5  1  0.74245431  0.20618738  0.25000000  1
  Ta  Ta6  1  0.25754569  0.70618738  0.25000000  1
  Ta  Ta7  1  0.74245431  0.29381262  0.75000000  1
  Ta  Ta8  1  0.74820219  0.15057684  0.56936117  1
  Ta  Ta9  1  0.25179781  0.84942316  0.06936117  1
  Ta  Ta10  1  0.74820219  0.34942316  0.43063883  1
  Ta  Ta11  1  0.25179781  0.65057684  0.93063883  1
  Ta  Ta12  1  0.25179781  0.84942316  0.43063883  1
  Ta  Ta13  1  0.74820219  0.15057684  0.93063883  1
  Ta  Ta14  1  0.25179781  0.65057684  0.56936117  1
  Ta  Ta15  1  0.74820219  0.34942316  0.06936117  1
  Te  Te16  1  0.62309833  0.91350194  0.59686587  1
  Te  Te17  1  0.37690167  0.08649806  0.09686587  1
  Te  Te18  1  0.62309833  0.58649806  0.40313413  1
  Te  Te19  1  0.37690167  0.41350194  0.90313413  1
  Te  Te20  1  0.37690167  0.08649806  0.40313413  1
  Te  Te21  1  0.62309833  0.91350194  0.90313413  1
  Te  Te22  1  0.37690167  0.41350194  0.59686587  1
  Te  Te23  1  0.62309833  0.58649806  0.09686587  1
  O  O24  1  0.28228477  0.93179589  0.52358284  1
  O  O25  1  0.71771523  0.06820411  0.02358284  1
  O  O26  1  0.28228477  0.56820411  0.47641716  1
  O  O27  1  0.71771523  0.43179589  0.97641716  1
  O  O28  1  0.71771523  0.06820411  0.47641716  1
  O  O29  1  0.28228477  0.93179589  0.97641716  1
  O  O30  1  0.71771523  0.43179589  0.52358284  1
  O  O31  1  0.28228477  0.56820411  0.02358284  1
  O  O32  1  0.70337518  0.03134769  0.62671748  1
  O  O33  1  0.29662482  0.96865231  0.12671748  1
  O  O34  1  0.70337518  0.46865231  0.37328252  1
  O  O35  1  0.29662482  0.53134769  0.87328252  1
  O  O36  1  0.29662482  0.96865231  0.37328252  1
  O  O37  1  0.70337518  0.03134769  0.87328252  1
  O  O38  1  0.29662482  0.53134769  0.62671748  1
  O  O39  1  0.70337518  0.46865231  0.12671748  1
  O  O40  1  0.29448034  0.89565609  0.67372125  1
  O  O41  1  0.70551966  0.10434391  0.17372125  1
  O  O42  1  0.29448034  0.60434391  0.32627875  1
  O  O43  1  0.70551966  0.39565609  0.82627875  1
  O  O44  1  0.70551966  0.10434391  0.32627875  1
  O  O45  1  0.29448034  0.89565609  0.82627875  1
  O  O46  1  0.70551966  0.39565609  0.67372125  1
  O  O47  1  0.29448034  0.60434391  0.17372125  1
  O  O48  1  0.28932392  0.70807084  0.66782729  1
  O  O49  1  0.71067608  0.29192916  0.16782729  1
  O  O50  1  0.28932392  0.79192916  0.33217271  1
  O  O51  1  0.71067608  0.20807084  0.83217271  1
  O  O52  1  0.71067608  0.29192916  0.33217271  1
  O  O53  1  0.28932392  0.70807084  0.83217271  1
  O  O54  1  0.71067608  0.20807084  0.66782729  1
  O  O55  1  0.28932392  0.79192916  0.16782729  1
  O  O56  1  0.78827036  0.80149906  0.75000000  1
  O  O57  1  0.21172964  0.19850094  0.25000000  1
  O  O58  1  0.78827036  0.69850094  0.25000000  1
  O  O59  1  0.21172964  0.30149906  0.75000000  1
  O  O60  1  0.70537396  0.25000000  0.50000000  1
  O  O61  1  0.29462604  0.75000000  0.00000000  1
  O  O62  1  0.29462604  0.75000000  0.50000000  1
  O  O63  1  0.70537396  0.25000000  0.00000000  1
  O  O64  1  0.21577089  0.14600886  0.56733361  1
  O  O65  1  0.78422911  0.85399114  0.06733361  1
  O  O66  1  0.21577089  0.35399114  0.43266639  1
  O  O67  1  0.78422911  0.64600886  0.93266639  1
  O  O68  1  0.78422911  0.85399114  0.43266639  1
  O  O69  1  0.21577089  0.14600886  0.93266639  1
  O  O70  1  0.78422911  0.64600886  0.56733361  1
  O  O71  1  0.21577089  0.35399114  0.06733361  1
