# generated using pymatgen
data_InH12(NF2)3
_symmetry_space_group_name_H-M   'P 1'
_cell_length_a   6.62411210
_cell_length_b   11.77792114
_cell_length_c   11.68771228
_cell_angle_alpha   111.77761326
_cell_angle_beta   90.00000000
_cell_angle_gamma   90.00000000
_symmetry_Int_Tables_number   1
_chemical_formula_structural   InH12(NF2)3
_chemical_formula_sum   'In4 H48 N12 F24'
_cell_volume   846.77677603
_cell_formula_units_Z   4
loop_
 _symmetry_equiv_pos_site_id
 _symmetry_equiv_pos_as_xyz
  1  'x, y, z'
loop_
 _atom_site_type_symbol
 _atom_site_label
 _atom_site_symmetry_multiplicity
 _atom_site_fract_x
 _atom_site_fract_y
 _atom_site_fract_z
 _atom_site_occupancy
  In  In0  1  0.50000000  0.50000000  0.00000000  1
  In  In1  1  0.00000000  0.50000000  0.50000000  1
  In  In2  1  0.50000000  0.00000000  0.50000000  1
  In  In3  1  0.00000000  0.00000000  0.00000000  1
  H  H4  1  0.63828721  0.84676042  0.05277247  1
  H  H5  1  0.13828721  0.15323958  0.44722753  1
  H  H6  1  0.36171279  0.15323958  0.94722753  1
  H  H7  1  0.86171279  0.84676042  0.55277247  1
  H  H8  1  0.39475556  0.88132561  0.04724293  1
  H  H9  1  0.89475556  0.11867439  0.45275707  1
  H  H10  1  0.60524444  0.11867439  0.95275707  1
  H  H11  1  0.10524444  0.88132561  0.54724293  1
  H  H12  1  0.46028769  0.78078991  0.11471809  1
  H  H13  1  0.96028769  0.21921009  0.38528191  1
  H  H14  1  0.53971231  0.21921009  0.88528191  1
  H  H15  1  0.03971231  0.78078991  0.61471809  1
  H  H16  1  0.51838203  0.93120082  0.18735999  1
  H  H17  1  0.01838203  0.06879918  0.31264001  1
  H  H18  1  0.48161797  0.06879918  0.81264001  1
  H  H19  1  0.98161797  0.93120082  0.68735999  1
  H  H20  1  0.99301770  0.54163638  0.77463484  1
  H  H21  1  0.49301770  0.45836362  0.72536516  1
  H  H22  1  0.00698230  0.45836362  0.22536516  1
  H  H23  1  0.50698230  0.54163638  0.27463484  1
  H  H24  1  0.18496144  0.60546567  0.87156690  1
  H  H25  1  0.68496144  0.39453433  0.62843310  1
  H  H26  1  0.81503856  0.39453433  0.12843310  1
  H  H27  1  0.31503856  0.60546567  0.37156690  1
  H  H28  1  0.95316071  0.58806985  0.92961192  1
  H  H29  1  0.45316071  0.41193015  0.57038808  1
  H  H30  1  0.04683929  0.41193015  0.07038808  1
  H  H31  1  0.54683929  0.58806985  0.42961192  1
  H  H32  1  0.98132543  0.69272387  0.86555524  1
  H  H33  1  0.48132543  0.30727613  0.63444476  1
  H  H34  1  0.01867457  0.30727613  0.13444476  1
  H  H35  1  0.51867457  0.69272387  0.36555524  1
  H  H36  1  0.90351688  0.69650689  0.16896765  1
  H  H37  1  0.40351688  0.30349311  0.33103235  1
  H  H38  1  0.09648312  0.30349311  0.83103235  1
  H  H39  1  0.59648312  0.69650689  0.66896765  1
  H  H40  1  0.99816781  0.84114437  0.21039425  1
  H  H41  1  0.49816781  0.15885563  0.28960575  1
  H  H42  1  0.00183219  0.15885563  0.78960575  1
  H  H43  1  0.50183219  0.84114437  0.71039425  1
  H  H44  1  0.87584631  0.79808180  0.31628448  1
  H  H45  1  0.37584631  0.20191820  0.18371552  1
  H  H46  1  0.12415369  0.20191820  0.68371552  1
  H  H47  1  0.62415369  0.79808180  0.81628448  1
  H  H48  1  0.10731778  0.74123796  0.26326888  1
  H  H49  1  0.60731778  0.25876204  0.23673112  1
  H  H50  1  0.89268222  0.25876204  0.73673112  1
  H  H51  1  0.39268222  0.74123796  0.76326888  1
  N  N52  1  0.50409527  0.86043114  0.10156088  1
  N  N53  1  0.00409527  0.13956886  0.39843912  1
  N  N54  1  0.49590473  0.13956886  0.89843912  1
  N  N55  1  0.99590473  0.86043114  0.60156088  1
  N  N56  1  0.02878930  0.60742357  0.86076142  1
  N  N57  1  0.52878930  0.39257643  0.63923858  1
  N  N58  1  0.97121070  0.39257643  0.13923858  1
  N  N59  1  0.47121070  0.60742357  0.36076142  1
  N  N60  1  0.97115316  0.76882315  0.23995581  1
  N  N61  1  0.47115316  0.23117685  0.26004419  1
  N  N62  1  0.02884684  0.23117685  0.76004419  1
  N  N63  1  0.52884684  0.76882315  0.73995581  1
  F  F64  1  0.63253016  0.34547188  0.86718900  1
  F  F65  1  0.13253016  0.65452812  0.63281100  1
  F  F66  1  0.36746984  0.65452812  0.13281100  1
  F  F67  1  0.86746984  0.34547188  0.36718900  1
  F  F68  1  0.55985982  0.42636066  0.13774191  1
  F  F69  1  0.05985982  0.57363934  0.36225809  1
  F  F70  1  0.44014018  0.57363934  0.86225809  1
  F  F71  1  0.94014018  0.42636066  0.63774191  1
  F  F72  1  0.21354469  0.41086590  0.95511514  1
  F  F73  1  0.71354469  0.58913410  0.54488486  1
  F  F74  1  0.78645531  0.58913410  0.04488486  1
  F  F75  1  0.28645531  0.41086590  0.45511514  1
  F  F76  1  0.68229376  0.83801998  0.42657876  1
  F  F77  1  0.18229376  0.16198002  0.07342124  1
  F  F78  1  0.31770624  0.16198002  0.57342124  1
  F  F79  1  0.81770624  0.83801998  0.92657876  1
  F  F80  1  0.75845957  0.10407657  0.56388026  1
  F  F81  1  0.25845957  0.89592343  0.93611974  1
  F  F82  1  0.24154043  0.89592343  0.43611974  1
  F  F83  1  0.74154043  0.10407657  0.06388026  1
  F  F84  1  0.47048581  0.96355747  0.66583403  1
  F  F85  1  0.97048581  0.03644253  0.83416597  1
  F  F86  1  0.52951419  0.03644253  0.33416597  1
  F  F87  1  0.02951419  0.96355747  0.16583403  1
