# generated using pymatgen
data_Dy2(Ni2B)5
_symmetry_space_group_name_H-M   'P 1'
_cell_length_a   9.01087138
_cell_length_b   9.47251793
_cell_length_c   17.55450912
_cell_angle_alpha   90.00000000
_cell_angle_beta   90.00000000
_cell_angle_gamma   90.00000000
_symmetry_Int_Tables_number   1
_chemical_formula_structural   Dy2(Ni2B)5
_chemical_formula_sum   'Dy16 Ni80 B40'
_cell_volume   1498.37637332
_cell_formula_units_Z   8
loop_
 _symmetry_equiv_pos_site_id
 _symmetry_equiv_pos_as_xyz
  1  'x, y, z'
loop_
 _atom_site_type_symbol
 _atom_site_label
 _atom_site_symmetry_multiplicity
 _atom_site_fract_x
 _atom_site_fract_y
 _atom_site_fract_z
 _atom_site_occupancy
  Dy  Dy0  1  0.12471966  0.85833894  0.27810320  1
  Dy  Dy1  1  0.37528034  0.14166106  0.77810320  1
  Dy  Dy2  1  0.62471966  0.64166106  0.72189680  1
  Dy  Dy3  1  0.87528034  0.35833894  0.22189680  1
  Dy  Dy4  1  0.87528034  0.14166106  0.72189680  1
  Dy  Dy5  1  0.62471966  0.85833894  0.22189680  1
  Dy  Dy6  1  0.37528034  0.35833894  0.27810320  1
  Dy  Dy7  1  0.12471966  0.64166106  0.77810320  1
  Dy  Dy8  1  0.21901202  0.88707430  0.48001433  1
  Dy  Dy9  1  0.28098798  0.11292570  0.98001433  1
  Dy  Dy10  1  0.71901202  0.61292570  0.51998567  1
  Dy  Dy11  1  0.78098798  0.38707430  0.01998567  1
  Dy  Dy12  1  0.78098798  0.11292570  0.51998567  1
  Dy  Dy13  1  0.71901202  0.88707430  0.01998567  1
  Dy  Dy14  1  0.28098798  0.38707430  0.48001433  1
  Dy  Dy15  1  0.21901202  0.61292570  0.98001433  1
  Ni  Ni16  1  0.12152238  0.96146790  0.72697959  1
  Ni  Ni17  1  0.37847762  0.03853210  0.22697959  1
  Ni  Ni18  1  0.62152238  0.53853210  0.27302041  1
  Ni  Ni19  1  0.87847762  0.46146790  0.77302041  1
  Ni  Ni20  1  0.87847762  0.03853210  0.27302041  1
  Ni  Ni21  1  0.62152238  0.96146790  0.77302041  1
  Ni  Ni22  1  0.37847762  0.46146790  0.72697959  1
  Ni  Ni23  1  0.12152238  0.53853210  0.22697959  1
  Ni  Ni24  1  0.12642051  0.17643737  0.23708983  1
  Ni  Ni25  1  0.37357949  0.82356263  0.73708983  1
  Ni  Ni26  1  0.62642051  0.32356263  0.76291017  1
  Ni  Ni27  1  0.87357949  0.67643737  0.26291017  1
  Ni  Ni28  1  0.87357949  0.82356263  0.76291017  1
  Ni  Ni29  1  0.62642051  0.17643737  0.26291017  1
  Ni  Ni30  1  0.37357949  0.67643737  0.23708983  1
  Ni  Ni31  1  0.12642051  0.32356263  0.73708983  1
  Ni  Ni32  1  0.07891481  0.88622858  0.01542314  1
  Ni  Ni33  1  0.42108519  0.11377142  0.51542314  1
  Ni  Ni34  1  0.57891481  0.61377142  0.98457686  1
  Ni  Ni35  1  0.92108519  0.38622858  0.48457686  1
  Ni  Ni36  1  0.92108519  0.11377142  0.98457686  1
  Ni  Ni37  1  0.57891481  0.88622858  0.48457686  1
  Ni  Ni38  1  0.42108519  0.38622858  0.01542314  1
  Ni  Ni39  1  0.07891481  0.61377142  0.51542314  1
  Ni  Ni40  1  0.16165617  0.78166395  0.62765657  1
  Ni  Ni41  1  0.33834383  0.21833605  0.12765657  1
  Ni  Ni42  1  0.66165617  0.71833605  0.37234343  1
  Ni  Ni43  1  0.83834383  0.28166395  0.87234343  1
  Ni  Ni44  1  0.83834383  0.21833605  0.37234343  1
  Ni  Ni45  1  0.66165617  0.78166395  0.87234343  1
  Ni  Ni46  1  0.33834383  0.28166395  0.62765657  1
  Ni  Ni47  1  0.16165617  0.71833605  0.12765657  1
  Ni  Ni48  1  0.17704446  0.99433179  0.13130580  1
  Ni  Ni49  1  0.32295554  0.00566821  0.63130580  1
  Ni  Ni50  1  0.67704446  0.50566821  0.86869420  1
  Ni  Ni51  1  0.82295554  0.49433179  0.36869420  1
  Ni  Ni52  1  0.82295554  0.00566821  0.86869420  1
  Ni  Ni53  1  0.67704446  0.99433179  0.36869420  1
  Ni  Ni54  1  0.32295554  0.49433179  0.13130580  1
  Ni  Ni55  1  0.17704446  0.50566821  0.63130580  1
  Ni  Ni56  1  0.23059339  0.89318854  0.86517798  1
  Ni  Ni57  1  0.26940661  0.10681146  0.36517798  1
  Ni  Ni58  1  0.73059339  0.60681146  0.13482202  1
  Ni  Ni59  1  0.76940661  0.39318854  0.63482202  1
  Ni  Ni60  1  0.76940661  0.10681146  0.13482202  1
  Ni  Ni61  1  0.73059339  0.89318854  0.63482202  1
  Ni  Ni62  1  0.26940661  0.39318854  0.86517798  1
  Ni  Ni63  1  0.23059339  0.60681146  0.36517798  1
  Ni  Ni64  1  0.08988260  0.14720575  0.84985125  1
  Ni  Ni65  1  0.41011740  0.85279425  0.34985125  1
  Ni  Ni66  1  0.58988260  0.35279425  0.15014875  1
  Ni  Ni67  1  0.91011740  0.64720575  0.65014875  1
  Ni  Ni68  1  0.91011740  0.85279425  0.15014875  1
  Ni  Ni69  1  0.58988260  0.14720575  0.65014875  1
  Ni  Ni70  1  0.41011740  0.64720575  0.84985125  1
  Ni  Ni71  1  0.08988260  0.35279425  0.34985125  1
  Ni  Ni72  1  0.04265150  0.02138539  0.59625251  1
  Ni  Ni73  1  0.45734850  0.97861461  0.09625251  1
  Ni  Ni74  1  0.54265150  0.47861461  0.40374749  1
  Ni  Ni75  1  0.95734850  0.52138539  0.90374749  1
  Ni  Ni76  1  0.95734850  0.97861461  0.40374749  1
  Ni  Ni77  1  0.54265150  0.02138539  0.90374749  1
  Ni  Ni78  1  0.45734850  0.52138539  0.59625251  1
  Ni  Ni79  1  0.04265150  0.47861461  0.09625251  1
  Ni  Ni80  1  0.04400142  0.21800179  0.09871683  1
  Ni  Ni81  1  0.45599858  0.78199821  0.59871683  1
  Ni  Ni82  1  0.54400142  0.28199821  0.90128317  1
  Ni  Ni83  1  0.95599858  0.71800179  0.40128317  1
  Ni  Ni84  1  0.95599858  0.78199821  0.90128317  1
  Ni  Ni85  1  0.54400142  0.21800179  0.40128317  1
  Ni  Ni86  1  0.45599858  0.71800179  0.09871683  1
  Ni  Ni87  1  0.04400142  0.28199821  0.59871683  1
  Ni  Ni88  1  0.08155888  0.16669089  0.46882411  1
  Ni  Ni89  1  0.41844112  0.83330911  0.96882411  1
  Ni  Ni90  1  0.58155888  0.33330911  0.53117589  1
  Ni  Ni91  1  0.91844112  0.66669089  0.03117589  1
  Ni  Ni92  1  0.91844112  0.83330911  0.53117589  1
  Ni  Ni93  1  0.58155888  0.16669089  0.03117589  1
  Ni  Ni94  1  0.41844112  0.66669089  0.46882411  1
  Ni  Ni95  1  0.08155888  0.33330911  0.96882411  1
  B  B96  1  0.97623932  0.06440370  0.17670044  1
  B  B97  1  0.52376068  0.93559630  0.67670044  1
  B  B98  1  0.47623932  0.43559630  0.82329956  1
  B  B99  1  0.02376068  0.56440370  0.32329956  1
  B  B100  1  0.02376068  0.93559630  0.82329956  1
  B  B101  1  0.47623932  0.06440370  0.32329956  1
  B  B102  1  0.52376068  0.56440370  0.17670044  1
  B  B103  1  0.97623932  0.43559630  0.67670044  1
  B  B104  1  0.16685991  0.14999862  0.66646805  1
  B  B105  1  0.33314009  0.85000138  0.16646805  1
  B  B106  1  0.66685991  0.35000138  0.33353195  1
  B  B107  1  0.83314009  0.64999862  0.83353195  1
  B  B108  1  0.83314009  0.85000138  0.33353195  1
  B  B109  1  0.66685991  0.14999862  0.83353195  1
  B  B110  1  0.33314009  0.64999862  0.66646805  1
  B  B111  1  0.16685991  0.35000138  0.16646805  1
  B  B112  1  0.04641911  0.14146048  0.34451582  1
  B  B113  1  0.45358089  0.85853952  0.84451582  1
  B  B114  1  0.54641911  0.35853952  0.65548418  1
  B  B115  1  0.95358089  0.64146048  0.15548418  1
  B  B116  1  0.95358089  0.85853952  0.65548418  1
  B  B117  1  0.54641911  0.14146048  0.15548418  1
  B  B118  1  0.45358089  0.64146048  0.34451582  1
  B  B119  1  0.04641911  0.35853952  0.84451582  1
  B  B120  1  0.21316664  0.14860407  0.56083546  1
  B  B121  1  0.28683336  0.85139593  0.06083546  1
  B  B122  1  0.71316664  0.35139593  0.43916454  1
  B  B123  1  0.78683336  0.64860407  0.93916454  1
  B  B124  1  0.78683336  0.85139593  0.43916454  1
  B  B125  1  0.71316664  0.14860407  0.93916454  1
  B  B126  1  0.28683336  0.64860407  0.56083546  1
  B  B127  1  0.21316664  0.35139593  0.06083546  1
  B  B128  1  0.03898149  0.98111849  0.91833680  1
  B  B129  1  0.46101851  0.01888151  0.41833680  1
  B  B130  1  0.53898149  0.51888151  0.08166320  1
  B  B131  1  0.96101851  0.48111849  0.58166320  1
  B  B132  1  0.96101851  0.01888151  0.08166320  1
  B  B133  1  0.53898149  0.98111849  0.58166320  1
  B  B134  1  0.46101851  0.48111849  0.91833680  1
  B  B135  1  0.03898149  0.51888151  0.41833680  1
