# generated using pymatgen
data_Nd5Pb4
_symmetry_space_group_name_H-M   'P 1'
_cell_length_a   8.42571799
_cell_length_b   8.57559480
_cell_length_c   16.21661378
_cell_angle_alpha   90.00000000
_cell_angle_beta   90.00000000
_cell_angle_gamma   90.00000000
_symmetry_Int_Tables_number   1
_chemical_formula_structural   Nd5Pb4
_chemical_formula_sum   'Nd20 Pb16'
_cell_volume   1171.74024048
_cell_formula_units_Z   4
loop_
 _symmetry_equiv_pos_site_id
 _symmetry_equiv_pos_as_xyz
  1  'x, y, z'
loop_
 _atom_site_type_symbol
 _atom_site_label
 _atom_site_symmetry_multiplicity
 _atom_site_fract_x
 _atom_site_fract_y
 _atom_site_fract_z
 _atom_site_occupancy
  Nd  Nd0  1  0.37487985  0.83938823  0.88096405  1
  Nd  Nd1  1  0.87487985  0.66061177  0.61903595  1
  Nd  Nd2  1  0.62512015  0.16061177  0.38096405  1
  Nd  Nd3  1  0.12512015  0.33938823  0.11903595  1
  Nd  Nd4  1  0.62512015  0.16061177  0.11903595  1
  Nd  Nd5  1  0.12512015  0.33938823  0.38096405  1
  Nd  Nd6  1  0.37487985  0.83938823  0.61903595  1
  Nd  Nd7  1  0.87487985  0.66061177  0.88096405  1
  Nd  Nd8  1  0.52974436  0.32074236  0.89922507  1
  Nd  Nd9  1  0.02974436  0.17925764  0.60077493  1
  Nd  Nd10  1  0.47025564  0.67925764  0.39922507  1
  Nd  Nd11  1  0.97025564  0.82074236  0.10077493  1
  Nd  Nd12  1  0.47025564  0.67925764  0.10077493  1
  Nd  Nd13  1  0.97025564  0.82074236  0.39922507  1
  Nd  Nd14  1  0.52974436  0.32074236  0.60077493  1
  Nd  Nd15  1  0.02974436  0.17925764  0.89922507  1
  Nd  Nd16  1  0.20680850  0.50237399  0.75000000  1
  Nd  Nd17  1  0.70680850  0.99762601  0.75000000  1
  Nd  Nd18  1  0.79319150  0.49762601  0.25000000  1
  Nd  Nd19  1  0.29319150  0.00237399  0.25000000  1
  Pb  Pb20  1  0.28272593  0.03210367  0.04329618  1
  Pb  Pb21  1  0.78272593  0.46789633  0.45670382  1
  Pb  Pb22  1  0.71727407  0.96789633  0.54329618  1
  Pb  Pb23  1  0.21727407  0.53210367  0.95670382  1
  Pb  Pb24  1  0.71727407  0.96789633  0.95670382  1
  Pb  Pb25  1  0.21727407  0.53210367  0.54329618  1
  Pb  Pb26  1  0.28272593  0.03210367  0.45670382  1
  Pb  Pb27  1  0.78272593  0.46789633  0.04329618  1
  Pb  Pb28  1  0.57212955  0.62478537  0.75000000  1
  Pb  Pb29  1  0.07212955  0.87521463  0.75000000  1
  Pb  Pb30  1  0.42787045  0.37521463  0.25000000  1
  Pb  Pb31  1  0.92787045  0.12478537  0.25000000  1
  Pb  Pb32  1  0.33750203  0.14777817  0.75000000  1
  Pb  Pb33  1  0.83750203  0.35222183  0.75000000  1
  Pb  Pb34  1  0.66249797  0.85222183  0.25000000  1
  Pb  Pb35  1  0.16249797  0.64777817  0.25000000  1
