# generated using pymatgen
data_Y4IrBr6
_symmetry_space_group_name_H-M   'P 1'
_cell_length_a   11.96524424
_cell_length_b   12.85875645
_cell_length_c   23.52349347
_cell_angle_alpha   83.20446474
_cell_angle_beta   75.26638379
_cell_angle_gamma   62.27316588
_symmetry_Int_Tables_number   1
_chemical_formula_structural   Y4IrBr6
_chemical_formula_sum   'Y32 Ir8 Br48'
_cell_volume   3098.35861767
_cell_formula_units_Z   8
loop_
 _symmetry_equiv_pos_site_id
 _symmetry_equiv_pos_as_xyz
  1  'x, y, z'
loop_
 _atom_site_type_symbol
 _atom_site_label
 _atom_site_symmetry_multiplicity
 _atom_site_fract_x
 _atom_site_fract_y
 _atom_site_fract_z
 _atom_site_occupancy
  Y  Y0  1  0.09735512  0.36748584  0.92416881  1
  Y  Y1  1  0.38900977  0.13251416  0.57583119  1
  Y  Y2  1  0.03515904  0.36748584  0.57583119  1
  Y  Y3  1  0.97847606  0.13251416  0.92416881  1
  Y  Y4  1  0.90264488  0.63251416  0.07583119  1
  Y  Y5  1  0.61099023  0.86748584  0.42416881  1
  Y  Y6  1  0.96484096  0.63251416  0.42416881  1
  Y  Y7  1  0.02152394  0.86748584  0.07583119  1
  Y  Y8  1  0.78015046  0.60895265  0.32072091  1
  Y  Y9  1  0.70982402  0.89104735  0.17927909  1
  Y  Y10  1  0.11089689  0.60895265  0.17927909  1
  Y  Y11  1  0.89912863  0.89104735  0.32072091  1
  Y  Y12  1  0.21984954  0.39104735  0.67927909  1
  Y  Y13  1  0.29017598  0.10895265  0.82072091  1
  Y  Y14  1  0.88910311  0.39104735  0.82072091  1
  Y  Y15  1  0.10087137  0.10895265  0.67927909  1
  Y  Y16  1  0.23497680  0.63025292  0.31144572  1
  Y  Y17  1  0.17667544  0.86974708  0.18855428  1
  Y  Y18  1  0.63477028  0.63025292  0.18855428  1
  Y  Y19  1  0.45357747  0.86974708  0.31144572  1
  Y  Y20  1  0.76502320  0.36974708  0.68855428  1
  Y  Y21  1  0.82332456  0.13025292  0.81144572  1
  Y  Y22  1  0.36522972  0.36974708  0.81144572  1
  Y  Y23  1  0.54642253  0.13025292  0.68855428  1
  Y  Y24  1  0.03722596  0.59752553  0.81008434  1
  Y  Y25  1  0.44483583  0.90247447  0.68991566  1
  Y  Y26  1  0.86524852  0.59752553  0.68991566  1
  Y  Y27  1  0.15268970  0.90247447  0.81008434  1
  Y  Y28  1  0.96277404  0.40247447  0.18991566  1
  Y  Y29  1  0.55516417  0.09752553  0.31008434  1
  Y  Y30  1  0.13475148  0.40247447  0.31008434  1
  Y  Y31  1  0.84731030  0.09752553  0.18991566  1
  Ir  Ir32  1  0.14773341  0.35629123  0.80297220  1
  Ir  Ir33  1  0.30699684  0.14370877  0.69702780  1
  Ir  Ir34  1  0.99597536  0.35629123  0.69702780  1
  Ir  Ir35  1  0.04929439  0.14370877  0.80297220  1
  Ir  Ir36  1  0.85226659  0.64370877  0.19702780  1
  Ir  Ir37  1  0.69300316  0.85629123  0.30297220  1
  Ir  Ir38  1  0.00402464  0.64370877  0.30297220  1
  Ir  Ir39  1  0.95070561  0.85629123  0.19702780  1
  Br  Br40  1  0.07339307  0.65790989  0.68460508  1
  Br  Br41  1  0.41590804  0.84209011  0.81539492  1
  Br  Br42  1  0.76869704  0.65790989  0.81539492  1
  Br  Br43  1  0.24200185  0.84209011  0.68460508  1
  Br  Br44  1  0.92660693  0.34209011  0.31539492  1
  Br  Br45  1  0.58409196  0.15790989  0.18460508  1
  Br  Br46  1  0.23130296  0.34209011  0.18460508  1
  Br  Br47  1  0.75799815  0.15790989  0.31539492  1
  Br  Br48  1  0.28218142  0.38154534  0.54659072  1
  Br  Br49  1  0.21031748  0.11845466  0.95340928  1
  Br  Br50  1  0.83627324  0.38154534  0.95340928  1
  Br  Br51  1  0.17122786  0.11845466  0.54659072  1
  Br  Br52  1  0.71781858  0.61845466  0.45340928  1
  Br  Br53  1  0.78968252  0.88154534  0.04659072  1
  Br  Br54  1  0.16372676  0.61845466  0.04659072  1
  Br  Br55  1  0.82877214  0.88154534  0.45340928  1
  Br  Br56  1  0.62881483  0.38177394  0.81355092  1
  Br  Br57  1  0.82413969  0.11822606  0.68644908  1
  Br  Br58  1  0.48941123  0.38177394  0.68644908  1
  Br  Br59  1  0.55763425  0.11822606  0.81355092  1
  Br  Br60  1  0.37118517  0.61822606  0.18644908  1
  Br  Br61  1  0.17586031  0.88177394  0.31355092  1
  Br  Br62  1  0.51058877  0.61822606  0.31355092  1
  Br  Br63  1  0.44236575  0.88177394  0.18644908  1
  Br  Br64  1  0.38643592  0.37595659  0.31345865  1
  Br  Br65  1  0.07585117  0.12404341  0.18654135  1
  Br  Br66  1  0.73760749  0.37595659  0.18654135  1
  Br  Br67  1  0.30010542  0.12404341  0.31345865  1
  Br  Br68  1  0.61356408  0.62404341  0.68654135  1
  Br  Br69  1  0.92414883  0.87595659  0.81345865  1
  Br  Br70  1  0.26239251  0.62404341  0.81345865  1
  Br  Br71  1  0.69989458  0.87595659  0.68654135  1
  Br  Br72  1  0.96389231  0.61899806  0.93743969  1
  Br  Br73  1  0.52033006  0.88100194  0.56256031  1
  Br  Br74  1  0.91710963  0.61899806  0.56256031  1
  Br  Br75  1  0.09866800  0.88100194  0.93743969  1
  Br  Br76  1  0.03610769  0.38100194  0.06256031  1
  Br  Br77  1  0.47966994  0.11899806  0.43743969  1
  Br  Br78  1  0.08289037  0.38100194  0.43743969  1
  Br  Br79  1  0.90133200  0.11899806  0.06256031  1
  Br  Br80  1  0.19349602  0.63871947  0.43379625  1
  Br  Br81  1  0.26601175  0.86128053  0.06620375  1
  Br  Br82  1  0.66778451  0.63871947  0.06620375  1
  Br  Br83  1  0.37270773  0.86128053  0.43379625  1
  Br  Br84  1  0.80650398  0.36128053  0.56620375  1
  Br  Br85  1  0.73398825  0.13871947  0.93379625  1
  Br  Br86  1  0.33221549  0.36128053  0.93379625  1
  Br  Br87  1  0.62729227  0.13871947  0.56620375  1
