# generated using pymatgen
data_RbOs2O9
_symmetry_space_group_name_H-M   'P 1'
_cell_length_a   5.89453552
_cell_length_b   10.67904525
_cell_length_c   13.53350006
_cell_angle_alpha   90.00000000
_cell_angle_beta   90.00000000
_cell_angle_gamma   90.00000000
_symmetry_Int_Tables_number   1
_chemical_formula_structural   RbOs2O9
_chemical_formula_sum   'Rb4 Os8 O36'
_cell_volume   851.90691803
_cell_formula_units_Z   4
loop_
 _symmetry_equiv_pos_site_id
 _symmetry_equiv_pos_as_xyz
  1  'x, y, z'
loop_
 _atom_site_type_symbol
 _atom_site_label
 _atom_site_symmetry_multiplicity
 _atom_site_fract_x
 _atom_site_fract_y
 _atom_site_fract_z
 _atom_site_occupancy
  Rb  Rb0  1  0.74687379  0.38289641  0.67044241  1
  Rb  Rb1  1  0.25312621  0.61710359  0.17044241  1
  Rb  Rb2  1  0.24687379  0.11710359  0.17044241  1
  Rb  Rb3  1  0.75312621  0.88289641  0.67044241  1
  Os  Os4  1  0.81045056  0.39888489  0.00512730  1
  Os  Os5  1  0.18954944  0.60111511  0.50512730  1
  Os  Os6  1  0.31045056  0.10111511  0.50512730  1
  Os  Os7  1  0.68954944  0.89888489  0.00512730  1
  Os  Os8  1  0.70969423  0.31364130  0.32061422  1
  Os  Os9  1  0.29030577  0.68635870  0.82061422  1
  Os  Os10  1  0.20969423  0.18635870  0.82061422  1
  Os  Os11  1  0.79030577  0.81364130  0.32061422  1
  O  O12  1  0.73513208  0.15124177  0.31012440  1
  O  O13  1  0.26486792  0.84875823  0.81012440  1
  O  O14  1  0.23513208  0.34875823  0.81012440  1
  O  O15  1  0.76486792  0.65124177  0.31012440  1
  O  O16  1  0.50674330  0.38179940  0.24470120  1
  O  O17  1  0.49325670  0.61820060  0.74470120  1
  O  O18  1  0.00674330  0.11820060  0.74470120  1
  O  O19  1  0.99325670  0.88179940  0.24470120  1
  O  O20  1  0.58524496  0.13447584  0.54418712  1
  O  O21  1  0.41475504  0.86552416  0.04418712  1
  O  O22  1  0.08524496  0.36552416  0.04418712  1
  O  O23  1  0.91475504  0.63447584  0.54418712  1
  O  O24  1  0.60806208  0.28874561  0.03859091  1
  O  O25  1  0.39193792  0.71125439  0.53859091  1
  O  O26  1  0.10806208  0.21125439  0.53859091  1
  O  O27  1  0.89193792  0.78874561  0.03859091  1
  O  O28  1  0.74205061  0.38179996  0.43642763  1
  O  O29  1  0.25794939  0.61820004  0.93642763  1
  O  O30  1  0.24205061  0.11820004  0.93642763  1
  O  O31  1  0.75794939  0.88179996  0.43642763  1
  O  O32  1  0.75706039  0.02330993  0.08377695  1
  O  O33  1  0.24293961  0.97669007  0.58377695  1
  O  O34  1  0.25706039  0.47669007  0.58377695  1
  O  O35  1  0.74293961  0.52330993  0.08377695  1
  O  O36  1  0.45763244  0.14011157  0.76054211  1
  O  O37  1  0.54236756  0.85988843  0.26054211  1
  O  O38  1  0.95763244  0.35988843  0.26054211  1
  O  O39  1  0.04236756  0.64011157  0.76054211  1
  O  O40  1  0.77324716  0.47127977  0.89030464  1
  O  O41  1  0.22675284  0.52872023  0.39030464  1
  O  O42  1  0.27324716  0.02872023  0.39030464  1
  O  O43  1  0.72675284  0.97127977  0.89030464  1
  O  O44  1  0.88610179  0.25743027  0.89076112  1
  O  O45  1  0.11389821  0.74256973  0.39076112  1
  O  O46  1  0.38610179  0.24256973  0.39076112  1
  O  O47  1  0.61389821  0.75743027  0.89076112  1
