# generated using pymatgen
data_Ni9Te5(PbO5)6
_symmetry_space_group_name_H-M   'P 1'
_cell_length_a   10.43923097
_cell_length_b   10.43912937
_cell_length_c   13.71275265
_cell_angle_alpha   90.00000000
_cell_angle_beta   90.00000000
_cell_angle_gamma   120.00031981
_symmetry_Int_Tables_number   1
_chemical_formula_structural   Ni9Te5(PbO5)6
_chemical_formula_sum   'Ni18 Te10 Pb12 O60'
_cell_volume   1294.15609141
_cell_formula_units_Z   2
loop_
 _symmetry_equiv_pos_site_id
 _symmetry_equiv_pos_as_xyz
  1  'x, y, z'
loop_
 _atom_site_type_symbol
 _atom_site_label
 _atom_site_symmetry_multiplicity
 _atom_site_fract_x
 _atom_site_fract_y
 _atom_site_fract_z
 _atom_site_occupancy
  Ni  Ni0  1  0.33331434  0.66668164  0.88833765  1
  Ni  Ni1  1  0.66663270  0.33331836  0.11166235  1
  Ni  Ni2  1  0.66668566  0.33331836  0.38833765  1
  Ni  Ni3  1  0.33336730  0.66668164  0.61166235  1
  Ni  Ni4  1  0.83144965  0.16855350  0.75000375  1
  Ni  Ni5  1  0.33710386  0.16855350  0.74999625  1
  Ni  Ni6  1  0.83144617  0.66289233  0.75000000  1
  Ni  Ni7  1  0.66289614  0.83144650  0.24999625  1
  Ni  Ni8  1  0.16855035  0.83144650  0.25000375  1
  Ni  Ni9  1  0.16855383  0.33710767  0.25000000  1
  Ni  Ni10  1  0.50290823  0.49709253  0.75000141  1
  Ni  Ni11  1  0.99418430  0.49709253  0.74999859  1
  Ni  Ni12  1  0.50290850  0.00581700  0.75000000  1
  Ni  Ni13  1  0.00581570  0.50290747  0.24999859  1
  Ni  Ni14  1  0.49709177  0.50290747  0.25000141  1
  Ni  Ni15  1  0.49709150  0.99418300  0.25000000  1
  Ni  Ni16  1  -0.00000151  -0.00000301  0.75000000  1
  Ni  Ni17  1  0.00000151  0.00000301  0.25000000  1
  Te  Te18  1  0.33332736  0.66667151  0.09874569  1
  Te  Te19  1  0.66665586  0.33332849  0.90125431  1
  Te  Te20  1  0.66667264  0.33332849  0.59874569  1
  Te  Te21  1  0.33334414  0.66667151  0.40125431  1
  Te  Te22  1  0.66510294  0.83254858  0.75000236  1
  Te  Te23  1  0.16745572  0.33491144  0.75000000  1
  Te  Te24  1  0.16744564  0.83254858  0.74999764  1
  Te  Te25  1  0.83255436  0.16745142  0.24999764  1
  Te  Te26  1  0.83254428  0.66508856  0.25000000  1
  Te  Te27  1  0.33489706  0.16745142  0.25000236  1
  Pb  Pb28  1  0.26356628  1.00000000  -0.00000000  1
  Pb  Pb29  1  0.73642616  0.73642783  0.00000045  1
  Pb  Pb30  1  0.99999833  0.26357217  0.99999955  1
  Pb  Pb31  1  0.73643372  0.00000000  0.50000000  1
  Pb  Pb32  1  0.26357384  0.26357217  0.50000045  1
  Pb  Pb33  1  0.00000167  0.73642783  0.49999955  1
  Pb  Pb34  1  0.99998817  0.61294876  0.00000070  1
  Pb  Pb35  1  0.61296062  0.00000000  -0.00000000  1
  Pb  Pb36  1  0.38703941  0.38705124  0.99999930  1
  Pb  Pb37  1  0.00001183  0.38705124  0.50000070  1
  Pb  Pb38  1  0.38703938  1.00000000  0.50000000  1
  Pb  Pb39  1  0.61296059  0.61294876  0.49999930  1
  O  O40  1  0.66466040  0.99211024  0.67187455  1
  O  O41  1  0.32745029  0.33533965  0.67187587  1
  O  O42  1  0.00788989  0.67254957  0.67187539  1
  O  O43  1  0.67255017  0.00788976  0.32812545  1
  O  O44  1  0.99211064  0.66466035  0.32812413  1
  O  O45  1  0.33534032  0.32745043  0.32812461  1
  O  O46  1  0.33533960  0.00788976  0.17187455  1
  O  O47  1  0.67254971  0.66466035  0.17187587  1
  O  O48  1  0.99211011  0.32745043  0.17187539  1
  O  O49  1  0.32744983  0.99211024  0.82812545  1
  O  O50  1  0.00788936  0.33533965  0.82812413  1
  O  O51  1  0.66465968  0.67254957  0.82812461  1
  O  O52  1  0.82169511  0.98891180  0.82907202  1
  O  O53  1  0.16721491  0.17830464  0.82907077  1
  O  O54  1  0.01109227  0.83278640  0.82907059  1
  O  O55  1  0.83278331  0.01108820  0.17092798  1
  O  O56  1  0.98891027  0.82169536  0.17092923  1
  O  O57  1  0.17830587  0.16721360  0.17092941  1
  O  O58  1  0.17830489  0.01108820  0.32907202  1
  O  O59  1  0.83278509  0.82169536  0.32907077  1
  O  O60  1  0.98890773  0.16721360  0.32907059  1
  O  O61  1  0.16721669  0.98891180  0.67092798  1
  O  O62  1  0.01108973  0.17830464  0.67092923  1
  O  O63  1  0.82169413  0.83278640  0.67092941  1
  O  O64  1  0.51579612  0.67275655  0.66934104  1
  O  O65  1  0.15697943  0.48422091  0.66933821  1
  O  O66  1  0.32724838  0.84303375  0.66933996  1
  O  O67  1  0.84303958  0.32724345  0.33065896  1
  O  O68  1  0.67275853  0.51577909  0.33066179  1
  O  O69  1  0.48421464  0.15696625  0.33066004  1
  O  O70  1  0.48420388  0.32724345  0.16934104  1
  O  O71  1  0.84302057  0.51577909  0.16933821  1
  O  O72  1  0.67275162  0.15696625  0.16933996  1
  O  O73  1  0.15696042  0.67275655  0.83065896  1
  O  O74  1  0.32724147  0.48422091  0.83066179  1
  O  O75  1  0.51578536  0.84303375  0.83066004  1
  O  O76  1  0.82992851  0.33058673  0.66330407  1
  O  O77  1  0.50066825  0.17007105  0.66330343  1
  O  O78  1  0.66941170  0.49932828  0.66330196  1
  O  O79  1  0.49934178  0.66941327  0.33669593  1
  O  O80  1  0.33059721  0.82992895  0.33669657  1
  O  O81  1  0.17008342  0.50067172  0.33669804  1
  O  O82  1  0.17007149  0.66941327  0.16330407  1
  O  O83  1  0.49933175  0.82992895  0.16330343  1
  O  O84  1  0.33058830  0.50067172  0.16330196  1
  O  O85  1  0.50065822  0.33058673  0.83669593  1
  O  O86  1  0.66940279  0.17007105  0.83669657  1
  O  O87  1  0.82991658  0.49932828  0.83669804  1
  O  O88  1  0.34630503  0.82026780  0.00261957  1
  O  O89  1  0.47394747  0.65369669  0.00262200  1
  O  O90  1  0.17973453  0.52605119  0.00262092  1
  O  O91  1  0.52603723  0.17973220  0.99738043  1
  O  O92  1  0.82025079  0.34630331  0.99737800  1
  O  O93  1  0.65368334  0.47394881  0.99737908  1
  O  O94  1  0.65369497  0.17973220  0.50261957  1
  O  O95  1  0.52605253  0.34630331  0.50262200  1
  O  O96  1  0.82026547  0.47394881  0.50262092  1
  O  O97  1  0.47396277  0.82026780  0.49738043  1
  O  O98  1  0.17974921  0.65369669  0.49737800  1
  O  O99  1  0.34631666  0.52605119  0.49737908  1
