# generated using pymatgen
data_K2CeH2S3O13
_symmetry_space_group_name_H-M   'P 1'
_cell_length_a   7.29480249
_cell_length_b   11.16285737
_cell_length_c   15.76888486
_cell_angle_alpha   83.56986754
_cell_angle_beta   76.62616244
_cell_angle_gamma   70.92870689
_symmetry_Int_Tables_number   1
_chemical_formula_structural   K2CeH2S3O13
_chemical_formula_sum   'K8 Ce4 H8 S12 O52'
_cell_volume   1179.75726181
_cell_formula_units_Z   4
loop_
 _symmetry_equiv_pos_site_id
 _symmetry_equiv_pos_as_xyz
  1  'x, y, z'
loop_
 _atom_site_type_symbol
 _atom_site_label
 _atom_site_symmetry_multiplicity
 _atom_site_fract_x
 _atom_site_fract_y
 _atom_site_fract_z
 _atom_site_occupancy
  K  K0  1  0.56535214  0.89710704  0.66061372  1
  K  K1  1  0.12307289  0.10289296  0.33938628  1
  K  K2  1  0.71013090  0.49514479  0.79141557  1
  K  K3  1  0.99669126  0.50485521  0.20858443  1
  K  K4  1  0.15934995  0.50000000  0.50000000  1
  K  K5  1  0.75052582  0.00000000  -0.00000000  1
  K  K6  1  0.09314218  0.77119577  0.76927367  1
  K  K7  1  0.63361161  0.22880423  0.23072633  1
  Ce  Ce8  1  0.56616562  0.75518638  0.41616204  1
  Ce  Ce9  1  0.73751404  0.24481362  0.58383796  1
  Ce  Ce10  1  0.47045295  0.68317030  0.07750865  1
  Ce  Ce11  1  0.23113190  0.31682970  0.92249135  1
  H  H12  1  0.94923275  0.79512435  0.44282322  1
  H  H13  1  0.18718032  0.20487565  0.55717678  1
  H  H14  1  0.99096201  0.77680983  0.34061816  1
  H  H15  1  0.10839000  0.22319017  0.65938184  1
  H  H16  1  0.17226616  0.96142748  0.09963553  1
  H  H17  1  0.23332916  0.03857252  0.90036447  1
  H  H18  1  0.05688918  0.86547239  0.13543049  1
  H  H19  1  0.05779206  0.13452761  0.86456951  1
  S  S20  1  0.57826729  0.60826693  0.59457828  1
  S  S21  1  0.78111250  0.39173307  0.40542172  1
  S  S22  1  0.52002169  0.79340475  0.88818007  1
  S  S23  1  0.20160651  0.20659525  0.11181993  1
  S  S24  1  0.66480121  0.35646452  0.99772208  1
  S  S25  1  0.01898781  0.64353548  0.00227792  1
  S  S26  1  0.62942690  0.86056157  0.22356025  1
  S  S27  1  0.71354872  0.13943843  0.77643975  1
  S  S28  1  0.38003051  0.59210570  0.27320297  1
  S  S29  1  0.24533918  0.40789430  0.72679703  1
  S  S30  1  0.09442175  0.92299061  0.54748537  1
  S  S31  1  0.56489773  0.07700939  0.45251463  1
  O  O32  1  0.92387740  0.75230467  0.39781057  1
  O  O33  1  0.07399263  0.24769533  0.60218943  1
  O  O34  1  0.16967857  0.87571204  0.09086274  1
  O  O35  1  0.13625335  0.12428796  0.90913726  1
  O  O36  1  0.69725761  0.47270081  0.60300237  1
  O  O37  1  0.77296079  0.52729919  0.39699763  1
  O  O38  1  0.71279238  0.68238795  0.54520048  1
  O  O39  1  0.94038081  0.31761205  0.45479952  1
  O  O40  1  0.48469149  0.65904714  0.68117480  1
  O  O41  1  0.82491344  0.34095286  0.31882520  1
  O  O42  1  0.43100860  0.62758645  0.53746021  1
  O  O43  1  0.59605526  0.37241355  0.46253979  1
  O  O44  1  0.47940629  0.67017683  0.92530995  1
  O  O45  1  0.07489306  0.32982317  0.07469005  1
  O  O46  1  0.35381858  0.87914650  0.85140528  1
  O  O47  1  0.08437036  0.12085350  0.14859472  1
  O  O48  1  0.53469071  0.84728855  0.96977352  1
  O  O49  1  0.35175278  0.15271145  0.03022648  1
  O  O50  1  0.70569121  0.76429320  0.82277153  1
  O  O51  1  0.29275594  0.23570680  0.17722847  1
  O  O52  1  0.84470608  0.37145264  0.93619332  1
  O  O53  1  0.15235204  0.62854736  0.06380668  1
  O  O54  1  0.70615299  0.24016081  0.05169709  1
  O  O55  1  0.99801089  0.75983919  0.94830291  1
  O  O56  1  0.51501943  0.36170835  0.94447646  1
  O  O57  1  0.82120425  0.63829165  0.05552354  1
  O  O58  1  0.57387846  0.46922350  0.05514031  1
  O  O59  1  0.09824226  0.53077650  0.94485969  1
  O  O60  1  0.52483148  0.83521499  0.16047873  1
  O  O61  1  0.52052521  0.16478501  0.83952127  1
  O  O62  1  0.74664735  0.73877222  0.26374337  1
  O  O63  1  0.74916294  0.26122778  0.73625663  1
  O  O64  1  0.47930964  0.92335045  0.30143732  1
  O  O65  1  0.70409740  0.07664955  0.69856268  1
  O  O66  1  0.75562770  0.93774214  0.18119847  1
  O  O67  1  0.87456831  0.06225786  0.81880153  1
  O  O68  1  0.38868459  0.66163240  0.34744701  1
  O  O69  1  0.39776401  0.33836760  0.65255299  1
  O  O70  1  0.57333038  0.56192544  0.20846614  1
  O  O71  1  0.34372197  0.43807456  0.79153386  1
  O  O72  1  0.23426396  0.68026094  0.22219433  1
  O  O73  1  0.13671923  0.31973906  0.77780567  1
  O  O74  1  0.32319281  0.47899594  0.30660345  1
  O  O75  1  0.10879220  0.52100406  0.69339655  1
  O  O76  1  0.98575611  0.06071252  0.52736726  1
  O  O77  1  0.57383589  0.93928748  0.47263274  1
  O  O78  1  0.23405270  0.87709326  0.46118360  1
  O  O79  1  0.57232955  0.12290674  0.53881640  1
  O  O80  1  0.95609994  0.84856738  0.56916183  1
  O  O81  1  0.37382915  0.15143262  0.43083817  1
  O  O82  1  0.20506170  0.91536140  0.61531030  1
  O  O83  1  0.73573340  0.08463860  0.38468970  1
