# generated using pymatgen
data_Cd3Co2H44Br12(N3O)4
_symmetry_space_group_name_H-M   'P 1'
_cell_length_a   9.11608371
_cell_length_b   9.12012056
_cell_length_c   12.83549317
_cell_angle_alpha   69.17644287
_cell_angle_beta   85.95010134
_cell_angle_gamma   83.34805816
_symmetry_Int_Tables_number   1
_chemical_formula_structural   Cd3Co2H44Br12(N3O)4
_chemical_formula_sum   'Cd3 Co2 H44 Br12 N12 O4'
_cell_volume   990.22106848
_cell_formula_units_Z   1
loop_
 _symmetry_equiv_pos_site_id
 _symmetry_equiv_pos_as_xyz
  1  'x, y, z'
loop_
 _atom_site_type_symbol
 _atom_site_label
 _atom_site_symmetry_multiplicity
 _atom_site_fract_x
 _atom_site_fract_y
 _atom_site_fract_z
 _atom_site_occupancy
  Cd  Cd0  1  0.12000781  0.01856037  0.33907245  1
  Cd  Cd1  1  0.87999219  0.98143963  0.66092755  1
  Cd  Cd2  1  0.50000000  -0.00000000  0.50000000  1
  Co  Co3  1  0.29877224  0.38186232  0.79697479  1
  Co  Co4  1  0.70122776  0.61813768  0.20302521  1
  H  H5  1  0.20007709  0.42718532  0.60381867  1
  H  H6  1  0.79992291  0.57281468  0.39618133  1
  H  H7  1  0.13195331  0.57516204  0.64313560  1
  H  H8  1  0.86804669  0.42483796  0.35686440  1
  H  H9  1  0.30434562  0.56739296  0.59465970  1
  H  H10  1  0.69565438  0.43260704  0.40534030  1
  H  H11  1  0.50136133  0.36754668  0.65101108  1
  H  H12  1  0.49863867  0.63245332  0.34898892  1
  H  H13  1  0.57737819  0.39436923  0.75583973  1
  H  H14  1  0.42262181  0.60563077  0.24416027  1
  H  H15  1  0.53489109  0.21873367  0.76680603  1
  H  H16  1  0.46510891  0.78126633  0.23319397  1
  H  H17  1  0.07384234  0.53385639  0.85734889  1
  H  H18  1  0.92615766  0.46614361  0.14265111  1
  H  H19  1  0.01705366  0.39869885  0.81664860  1
  H  H20  1  0.98294634  0.60130115  0.18335140  1
  H  H21  1  0.08372924  0.34804722  0.94157418  1
  H  H22  1  0.91627076  0.65195278  0.05842582  1
  H  H23  1  0.13994984  0.19624799  0.75524872  1
  H  H24  1  0.86005016  0.80375201  0.24475128  1
  H  H25  1  0.31632236  0.13713314  0.74198640  1
  H  H26  1  0.68367764  0.86286686  0.25801360  1
  H  H27  1  0.23783914  0.09412154  0.86795878  1
  H  H28  1  0.76216086  0.90587846  0.13204122  1
  H  H29  1  0.30468170  0.68101741  0.74448297  1
  H  H30  1  0.69531830  0.31898259  0.25551703  1
  H  H31  1  0.32070179  0.59221765  0.88145418  1
  H  H32  1  0.67929821  0.40778235  0.11854582  1
  H  H33  1  0.46478233  0.59002928  0.79753358  1
  H  H34  1  0.53521767  0.40997072  0.20246642  1
  H  H35  1  0.48621043  0.29020576  0.94816548  1
  H  H36  1  0.51378957  0.70979424  0.05183452  1
  H  H37  1  0.32474146  0.31897653  0.00613401  1
  H  H38  1  0.67525854  0.68102347  0.99386599  1
  H  H39  1  0.36715050  0.15360863  0.97885616  1
  H  H40  1  0.63284950  0.84639137  0.02114384  1
  H  H41  1  0.16308325  0.29671899  0.39568054  1
  H  H42  1  0.83691675  0.70328101  0.60431946  1
  H  H43  1  0.73764395  0.15978250  0.96369767  1
  H  H44  1  0.26235605  0.84021750  0.03630233  1
  H  H45  1  0.79292294  0.02540605  0.91733978  1
  H  H46  1  0.20707706  0.97459395  0.08266022  1
  H  H47  1  0.16479562  0.35240975  0.26669866  1
  H  H48  1  0.83520438  0.64759025  0.73330134  1
  Br  Br49  1  0.57778469  0.94841920  0.72320442  1
  Br  Br50  1  0.42221531  0.05158080  0.27679558  1
  Br  Br51  1  0.19316993  0.94085097  0.56216984  1
  Br  Br52  1  0.80683007  0.05914903  0.43783016  1
  Br  Br53  1  0.08831857  0.72493097  0.34707557  1
  Br  Br54  1  0.91168143  0.27506903  0.65292443  1
  Br  Br55  1  0.01143388  0.16853387  0.13158401  1
  Br  Br56  1  0.98856612  0.83146613  0.86841599  1
  Br  Br57  1  0.71179635  0.45268476  0.90846170  1
  Br  Br58  1  0.28820365  0.54731524  0.09153830  1
  Br  Br59  1  0.57483492  0.68984457  0.53012201  1
  Br  Br60  1  0.42516508  0.31015543  0.46987799  1
  N  N61  1  0.22549764  0.49967364  0.64415118  1
  N  N62  1  0.77450236  0.50032636  0.35584882  1
  N  N63  1  0.49836559  0.33686123  0.73638917  1
  N  N64  1  0.50163441  0.66313877  0.26361083  1
  N  N65  1  0.09880888  0.41972291  0.85938159  1
  N  N66  1  0.90119112  0.58027709  0.14061841  1
  N  N67  1  0.24221579  0.18145291  0.79017339  1
  N  N68  1  0.75778421  0.81854709  0.20982661  1
  N  N69  1  0.35237185  0.58283605  0.80497894  1
  N  N70  1  0.64762815  0.41716395  0.19502106  1
  N  N71  1  0.37632293  0.27306967  0.94876863  1
  N  N72  1  0.62367707  0.72693033  0.05123137  1
  O  O73  1  0.10499847  0.29806308  0.33353300  1
  O  O74  1  0.89500153  0.70193692  0.66646700  1
  O  O75  1  0.71931485  0.05301016  0.96890841  1
  O  O76  1  0.28068515  0.94698984  0.03109159  1
