# generated using pymatgen
data_PrH20S4N5O16
_symmetry_space_group_name_H-M   'P 1'
_cell_length_a   8.60161352
_cell_length_b   9.52940319
_cell_length_c   12.27505902
_cell_angle_alpha   83.59322571
_cell_angle_beta   69.49008022
_cell_angle_gamma   71.42884605
_symmetry_Int_Tables_number   1
_chemical_formula_structural   PrH20S4N5O16
_chemical_formula_sum   'Pr2 H40 S8 N10 O32'
_cell_volume   893.31468621
_cell_formula_units_Z   2
loop_
 _symmetry_equiv_pos_site_id
 _symmetry_equiv_pos_as_xyz
  1  'x, y, z'
loop_
 _atom_site_type_symbol
 _atom_site_label
 _atom_site_symmetry_multiplicity
 _atom_site_fract_x
 _atom_site_fract_y
 _atom_site_fract_z
 _atom_site_occupancy
  Pr  Pr0  1  0.07592489  0.50231509  0.84813298  1
  Pr  Pr1  1  0.92405786  0.00231509  0.15186702  1
  H  H2  1  0.27224531  0.62535860  0.38117693  1
  H  H3  1  0.65342224  0.12535860  0.61882307  1
  H  H4  1  0.21638230  0.49751700  0.48200655  1
  H  H5  1  0.69838885  0.99751700  0.51799345  1
  H  H6  1  0.42622152  0.47716664  0.40516128  1
  H  H7  1  0.83138280  0.97716664  0.59483872  1
  H  H8  1  0.29501138  0.45346771  0.33982495  1
  H  H9  1  0.63483633  0.95346771  0.66017505  1
  H  H10  1  0.55192931  0.84868076  0.18281595  1
  H  H11  1  0.73474526  0.34868076  0.81718405  1
  H  H12  1  0.63625207  0.77948162  0.04578639  1
  H  H13  1  0.68203846  0.27948162  0.95421361  1
  H  H14  1  0.58695340  0.66541712  0.16055882  1
  H  H15  1  0.74751222  0.16541712  0.83944118  1
  H  H16  1  0.42336181  0.79584295  0.12933578  1
  H  H17  1  0.55269759  0.29584295  0.87066422  1
  H  H18  1  0.26056120  0.15485352  0.18546335  1
  H  H19  1  0.44602455  0.65485352  0.81453665  1
  H  H20  1  0.30991734  0.22658133  0.04889915  1
  H  H21  1  0.35881649  0.72658133  0.95110085  1
  H  H22  1  0.25148327  0.33760148  0.16375271  1
  H  H23  1  0.41523598  0.83760148  0.83624729  1
  H  H24  1  0.44369922  0.20480398  0.13073644  1
  H  H25  1  0.57443566  0.70480398  0.86926356  1
  H  H26  1  0.95760565  0.20654879  0.40724603  1
  H  H27  1  0.36485168  0.70654879  0.59275397  1
  H  H28  1  0.88948475  0.38638027  0.44826481  1
  H  H29  1  0.33774957  0.88638027  0.55173519  1
  H  H30  1  0.90368318  0.33822123  0.31003840  1
  H  H31  1  0.21372159  0.83822123  0.68996160  1
  H  H32  1  0.75272171  0.30468111  0.43010663  1
  H  H33  1  0.18282834  0.80468111  0.56989337  1
  H  H34  1  0.64153200  0.79964574  0.41443351  1
  H  H35  1  0.05596551  0.29964574  0.58556649  1
  H  H36  1  0.66380904  0.61766015  0.44480890  1
  H  H37  1  0.10861794  0.11766015  0.55519110  1
  H  H38  1  0.78244414  0.67518790  0.30835082  1
  H  H39  1  0.09079496  0.17518790  0.69164918  1
  H  H40  1  0.82730631  0.68745842  0.42800471  1
  H  H41  1  0.25531102  0.18745842  0.57199529  1
  S  S42  1  0.10124793  0.62994539  0.12303630  1
  S  S43  1  0.22428423  0.12994539  0.87696370  1
  S  S44  1  0.77751960  0.37212770  0.12131370  1
  S  S45  1  0.89883329  0.87212770  0.87868630  1
  S  S46  1  0.45975667  0.42468817  0.64825720  1
  S  S47  1  0.10801388  0.92468817  0.35174280  1
  S  S48  1  0.88863651  0.58086044  0.65039939  1
  S  S49  1  0.53903590  0.08086044  0.34960061  1
  N  N50  1  0.30231868  0.51240626  0.40178748  1
  N  N51  1  0.70410616  0.01240626  0.59821252  1
  N  N52  1  0.54830089  0.77332599  0.12935035  1
  N  N53  1  0.67765124  0.27332599  0.87064965  1
  N  N54  1  0.31794720  0.22988772  0.13163942  1
  N  N55  1  0.44958663  0.72988772  0.86836058  1
  N  N56  1  0.87691152  0.31266050  0.39823498  1
  N  N57  1  0.27514650  0.81266050  0.60176502  1
  N  N58  1  0.72782095  0.69201367  0.39850106  1
  N  N59  1  0.12632201  0.19201367  0.60149894  1
  O  O60  1  0.91208583  0.71500888  0.16711172  1
  O  O61  1  0.07919755  0.21500888  0.83288828  1
  O  O62  1  0.14501714  0.54517567  0.01587715  1
  O  O63  1  0.16089429  0.04517567  0.98412285  1
  O  O64  1  0.19598731  0.74520655  0.09359459  1
  O  O65  1  0.28958190  0.24520655  0.90640541  1
  O  O66  1  0.15030503  0.52426446  0.21238520  1
  O  O67  1  0.36269023  0.02426446  0.78761480  1
  O  O68  1  0.84501147  0.45371100  0.01316169  1
  O  O69  1  0.85817316  0.95371100  0.98683831  1
  O  O70  1  0.70034360  0.26500261  0.09338502  1
  O  O71  1  0.79372861  0.76500261  0.90661498  1
  O  O72  1  0.92274253  0.27851277  0.16307757  1
  O  O73  1  0.08582011  0.77851277  0.83692243  1
  O  O74  1  0.64872757  0.48026267  0.21153214  1
  O  O75  1  0.86025971  0.98026267  0.78846786  1
  O  O76  1  0.39016678  0.51306141  0.75900800  1
  O  O77  1  0.14917478  0.01306141  0.24099200  1
  O  O78  1  0.49747612  0.52564051  0.54589966  1
  O  O79  1  0.04337578  0.02564051  0.45410034  1
  O  O80  1  0.62198653  0.30563665  0.64270465  1
  O  O81  1  0.26469119  0.80563665  0.35729534  1
  O  O82  1  0.31818348  0.36531139  0.65020284  1
  O  O83  1  0.96838632  0.86531139  0.34979716  1
  O  O84  1  0.85268419  0.48786442  0.75984970  1
  O  O85  1  0.61253389  0.98786442  0.24015030  1
  O  O86  1  0.73235518  0.69808054  0.64648818  1
  O  O87  1  0.37884336  0.19808054  0.35351182  1
  O  O88  1  0.02923257  0.63965634  0.65363444  1
  O  O89  1  0.68286701  0.13965634  0.34636556  1
  O  O90  1  0.95885459  0.48071691  0.54616311  1
  O  O91  1  0.50501770  0.98071691  0.45383689  1
