# generated using pymatgen
data_Bi2TeI
_symmetry_space_group_name_H-M   'P 1'
_cell_length_a   4.43630523
_cell_length_b   4.43619999
_cell_length_c   19.30243881
_cell_angle_alpha   89.97216264
_cell_angle_beta   96.59469235
_cell_angle_gamma   119.98165998
_symmetry_Int_Tables_number   1
_chemical_formula_structural   Bi2TeI
_chemical_formula_sum   'Bi4 Te2 I2'
_cell_volume   326.15247369
_cell_formula_units_Z   2
loop_
 _symmetry_equiv_pos_site_id
 _symmetry_equiv_pos_as_xyz
  1  'x, y, z'
loop_
 _atom_site_type_symbol
 _atom_site_label
 _atom_site_symmetry_multiplicity
 _atom_site_fract_x
 _atom_site_fract_y
 _atom_site_fract_z
 _atom_site_occupancy
  Te  Te0  1  0.39178969  0.19642266  0.58676873  1
  Te  Te1  1  0.60821031  0.80357734  0.41323127  1
  I  I2  1  0.85620021  0.92840903  0.78430896  1
  I  I3  1  0.14379979  0.07159097  0.21569104  1
  Bi  Bi4  1  0.88250382  0.44103846  0.32442551  1
  Bi  Bi5  1  0.11749618  0.55896154  0.67557449  1
  Bi  Bi6  1  0.36257984  0.68143634  0.04420247  1
  Bi  Bi7  1  0.63742016  0.31856366  0.95579753  1
