# generated using pymatgen
data_TlSnI3
_symmetry_space_group_name_H-M   'P 1'
_cell_length_a   4.64844146
_cell_length_b   7.94777507
_cell_length_c   11.92035261
_cell_angle_alpha   90.00000000
_cell_angle_beta   90.00000000
_cell_angle_gamma   107.00388582
_symmetry_Int_Tables_number   1
_chemical_formula_structural   TlSnI3
_chemical_formula_sum   'Tl2 Sn2 I6'
_cell_volume   421.14276621
_cell_formula_units_Z   2
loop_
 _symmetry_equiv_pos_site_id
 _symmetry_equiv_pos_as_xyz
  1  'x, y, z'
loop_
 _atom_site_type_symbol
 _atom_site_label
 _atom_site_symmetry_multiplicity
 _atom_site_fract_x
 _atom_site_fract_y
 _atom_site_fract_z
 _atom_site_occupancy
  Tl  Tl0  1  0.75400066  0.50800133  0.25000000  1
  Tl  Tl1  1  0.24599934  0.49199867  0.75000000  1
  Sn  Sn2  1  0.00000000  0.00000000  -0.00000000  1
  Sn  Sn3  1  0.00000000  0.00000000  0.50000000  1
  I  I4  1  0.36041568  0.72083135  0.05602917  1
  I  I5  1  0.63958432  0.27916865  0.94397083  1
  I  I6  1  0.63958432  0.27916865  0.55602917  1
  I  I7  1  0.36041568  0.72083135  0.44397083  1
  I  I8  1  0.07891708  0.15783415  0.25000000  1
  I  I9  1  0.92108292  0.84216585  0.75000000  1
