# generated using pymatgen
data_Fe3P4H12(NO8)2
_symmetry_space_group_name_H-M   'P 1'
_cell_length_a   8.34681917
_cell_length_b   9.49482707
_cell_length_c   9.48248990
_cell_angle_alpha   99.73884123
_cell_angle_beta   90.00000000
_cell_angle_gamma   90.00000000
_symmetry_Int_Tables_number   1
_chemical_formula_structural   Fe3P4H12(NO8)2
_chemical_formula_sum   'Fe6 P8 H24 N4 O32'
_cell_volume   740.67265377
_cell_formula_units_Z   2
loop_
 _symmetry_equiv_pos_site_id
 _symmetry_equiv_pos_as_xyz
  1  'x, y, z'
loop_
 _atom_site_type_symbol
 _atom_site_label
 _atom_site_symmetry_multiplicity
 _atom_site_fract_x
 _atom_site_fract_y
 _atom_site_fract_z
 _atom_site_occupancy
  Fe  Fe0  1  0.36091787  0.13088590  0.99533995  1
  Fe  Fe1  1  0.86091787  0.86911410  0.50466005  1
  Fe  Fe2  1  0.63908213  0.86911410  0.00466005  1
  Fe  Fe3  1  0.13908213  0.13088590  0.49533995  1
  Fe  Fe4  1  -0.00000000  0.00000000  0.00000000  1
  Fe  Fe5  1  0.50000000  0.00000000  0.50000000  1
  P  P6  1  0.79916194  0.09404359  0.29002442  1
  P  P7  1  0.29916194  0.90595641  0.20997558  1
  P  P8  1  0.20083806  0.90595641  0.70997558  1
  P  P9  1  0.70083806  0.09404359  0.79002442  1
  P  P10  1  0.05237395  0.29711540  0.23491980  1
  P  P11  1  0.55237395  0.70288460  0.26508020  1
  P  P12  1  0.94762605  0.70288460  0.76508020  1
  P  P13  1  0.44762605  0.29711540  0.73491980  1
  H  H14  1  0.52889223  0.21353634  0.23838559  1
  H  H15  1  0.02889223  0.78646366  0.26161441  1
  H  H16  1  0.47110777  0.78646366  0.76161441  1
  H  H17  1  0.97110777  0.21353634  0.73838559  1
  H  H18  1  0.48204486  0.36706464  0.20155754  1
  H  H19  1  0.98204486  0.63293536  0.29844246  1
  H  H20  1  0.51795514  0.63293536  0.79844246  1
  H  H21  1  0.01795514  0.36706464  0.70155754  1
  H  H22  1  0.71127855  0.54157546  0.05324723  1
  H  H23  1  0.21127855  0.45842454  0.44675277  1
  H  H24  1  0.28872145  0.45842454  0.94675277  1
  H  H25  1  0.78872145  0.54157546  0.55324723  1
  H  H26  1  0.70968003  0.35817728  0.00843522  1
  H  H27  1  0.20968003  0.64182272  0.49156478  1
  H  H28  1  0.29031997  0.64182272  0.99156478  1
  H  H29  1  0.79031997  0.35817728  0.50843522  1
  H  H30  1  0.82328957  0.45831612  0.91430236  1
  H  H31  1  0.32328957  0.54168388  0.58569764  1
  H  H32  1  0.17671043  0.54168388  0.08569764  1
  H  H33  1  0.67671043  0.45831612  0.41430236  1
  H  H34  1  0.87456422  0.44391017  0.08424977  1
  H  H35  1  0.37456422  0.55608983  0.41575023  1
  H  H36  1  0.12543578  0.55608983  0.91575023  1
  H  H37  1  0.62543578  0.44391017  0.58424977  1
  N  N38  1  0.77785040  0.44850289  0.01366695  1
  N  N39  1  0.27785040  0.55149711  0.48633305  1
  N  N40  1  0.22214960  0.55149711  0.98633305  1
  N  N41  1  0.72214960  0.44850289  0.51366695  1
  O  O42  1  0.14436656  0.29843841  0.37526363  1
  O  O43  1  0.64436656  0.70156159  0.12473637  1
  O  O44  1  0.85563344  0.70156159  0.62473637  1
  O  O45  1  0.35563344  0.29843841  0.87526363  1
  O  O46  1  0.86731132  0.24914958  0.26484861  1
  O  O47  1  0.36731132  0.75085042  0.23515139  1
  O  O48  1  0.13268868  0.75085042  0.73515139  1
  O  O49  1  0.63268868  0.24914958  0.76484861  1
  O  O50  1  0.63362549  0.12585316  0.35662720  1
  O  O51  1  0.13362549  0.87414684  0.14337280  1
  O  O52  1  0.36637451  0.87414684  0.64337280  1
  O  O53  1  0.86637451  0.12585316  0.85662720  1
  O  O54  1  0.79644202  0.00164674  0.13959070  1
  O  O55  1  0.29644202  0.99835326  0.36040930  1
  O  O56  1  0.20355798  0.99835326  0.86040930  1
  O  O57  1  0.70355798  0.00164674  0.63959070  1
  O  O58  1  0.11670088  0.18730885  0.10958741  1
  O  O59  1  0.61670088  0.81269115  0.39041259  1
  O  O60  1  0.88329912  0.81269115  0.89041259  1
  O  O61  1  0.38329912  0.18730885  0.60958741  1
  O  O62  1  0.91895924  0.03886396  0.39058116  1
  O  O63  1  0.41895924  0.96113604  0.10941884  1
  O  O64  1  0.08104076  0.96113604  0.60941884  1
  O  O65  1  0.58104076  0.03886396  0.89058116  1
  O  O66  1  0.03169793  0.44782939  0.20063675  1
  O  O67  1  0.53169793  0.55217061  0.29936325  1
  O  O68  1  0.96830207  0.55217061  0.79936325  1
  O  O69  1  0.46830207  0.44782939  0.70063675  1
  O  O70  1  0.48822739  0.26435716  0.16115023  1
  O  O71  1  0.98822739  0.73564284  0.33884977  1
  O  O72  1  0.51177261  0.73564284  0.83884977  1
  O  O73  1  0.01177261  0.26435716  0.66115023  1
