# generated using pymatgen
data_LuRhO3
_symmetry_space_group_name_H-M   'P 1'
_cell_length_a   5.23108458
_cell_length_b   5.72116366
_cell_length_c   7.59416612
_cell_angle_alpha   90.00000000
_cell_angle_beta   90.00000000
_cell_angle_gamma   90.00000000
_symmetry_Int_Tables_number   1
_chemical_formula_structural   LuRhO3
_chemical_formula_sum   'Lu4 Rh4 O12'
_cell_volume   227.27737589
_cell_formula_units_Z   4
loop_
 _symmetry_equiv_pos_site_id
 _symmetry_equiv_pos_as_xyz
  1  'x, y, z'
loop_
 _atom_site_type_symbol
 _atom_site_label
 _atom_site_symmetry_multiplicity
 _atom_site_fract_x
 _atom_site_fract_y
 _atom_site_fract_z
 _atom_site_occupancy
  Lu  Lu0  1  0.52988557  0.58421290  0.25000000  1
  Lu  Lu1  1  0.97011443  0.08421290  0.25000000  1
  Lu  Lu2  1  0.47011443  0.41578710  0.75000000  1
  Lu  Lu3  1  0.02988557  0.91578710  0.75000000  1
  Rh  Rh4  1  0.00000000  0.50000000  0.00000000  1
  Rh  Rh5  1  0.50000000  0.00000000  0.50000000  1
  Rh  Rh6  1  0.00000000  0.50000000  0.50000000  1
  Rh  Rh7  1  0.50000000  0.00000000  0.00000000  1
  O  O8  1  0.35610376  0.93990988  0.25000000  1
  O  O9  1  0.14389624  0.43990988  0.25000000  1
  O  O10  1  0.64389624  0.06009012  0.75000000  1
  O  O11  1  0.85610376  0.56009012  0.75000000  1
  O  O12  1  0.82580340  0.81323453  0.06758472  1
  O  O13  1  0.67419660  0.31323453  0.43241528  1
  O  O14  1  0.17419660  0.18676547  0.56758472  1
  O  O15  1  0.32580340  0.68676547  0.93241528  1
  O  O16  1  0.17419660  0.18676547  0.93241528  1
  O  O17  1  0.32580340  0.68676547  0.56758472  1
  O  O18  1  0.82580340  0.81323453  0.43241528  1
  O  O19  1  0.67419660  0.31323453  0.06758472  1
