# generated using pymatgen
data_SrAl2(SiO4)2
_symmetry_space_group_name_H-M   'P 1'
_cell_length_a   8.44129426
_cell_length_b   9.31961713
_cell_length_c   9.31961713
_cell_angle_alpha   89.59666670
_cell_angle_beta   82.98284964
_cell_angle_gamma   82.98284964
_symmetry_Int_Tables_number   1
_chemical_formula_structural   SrAl2(SiO4)2
_chemical_formula_sum   'Sr4 Al8 Si8 O32'
_cell_volume   722.20538824
_cell_formula_units_Z   4
loop_
 _symmetry_equiv_pos_site_id
 _symmetry_equiv_pos_as_xyz
  1  'x, y, z'
loop_
 _atom_site_type_symbol
 _atom_site_label
 _atom_site_symmetry_multiplicity
 _atom_site_fract_x
 _atom_site_fract_y
 _atom_site_fract_z
 _atom_site_occupancy
  Sr  Sr0  1  0.29953331  0.43304467  0.93570486  1
  Sr  Sr1  1  0.20046669  0.06429514  0.56695533  1
  Sr  Sr2  1  0.70046669  0.56695533  0.06429514  1
  Sr  Sr3  1  0.79953331  0.93570486  0.43304467  1
  Al  Al4  1  0.61573964  0.20609008  0.06024080  1
  Al  Al5  1  0.88426036  0.93975920  0.79390992  1
  Al  Al6  1  0.38426036  0.79390992  0.93975920  1
  Al  Al7  1  0.11573964  0.06024080  0.20609008  1
  Al  Al8  1  0.52080105  0.29152565  0.54945669  1
  Al  Al9  1  0.97919895  0.45054331  0.70847435  1
  Al  Al10  1  0.47919895  0.70847435  0.45054331  1
  Al  Al11  1  0.02080105  0.54945669  0.29152565  1
  Si  Si12  1  0.39704884  0.43358709  0.28194538  1
  Si  Si13  1  0.10295116  0.71805462  0.56641291  1
  Si  Si14  1  0.60295116  0.56641291  0.71805462  1
  Si  Si15  1  0.89704884  0.28194538  0.43358709  1
  Si  Si16  1  0.51060890  0.05908354  0.78500821  1
  Si  Si17  1  0.98939110  0.21499179  0.94091646  1
  Si  Si18  1  0.48939110  0.94091646  0.21499179  1
  Si  Si19  1  0.01060890  0.78500821  0.05908354  1
  O  O20  1  0.50381969  0.37123637  0.12893294  1
  O  O21  1  0.99618031  0.87106706  0.62876363  1
  O  O22  1  0.49618031  0.62876363  0.87106706  1
  O  O23  1  0.00381969  0.12893294  0.37123637  1
  O  O24  1  0.44284788  0.14517347  0.64449478  1
  O  O25  1  0.05715212  0.35550522  0.85482653  1
  O  O26  1  0.55715212  0.85482653  0.35550522  1
  O  O27  1  0.94284788  0.64449478  0.14517347  1
  O  O28  1  0.30521635  0.01523999  0.26491941  1
  O  O29  1  0.19478365  0.73508059  0.98476001  1
  O  O30  1  0.69478365  0.98476001  0.73508059  1
  O  O31  1  0.80521635  0.26491941  0.01523999  1
  O  O32  1  0.22038296  0.48096382  0.23005143  1
  O  O33  1  0.27961704  0.76994857  0.51903618  1
  O  O34  1  0.77961704  0.51903618  0.76994857  1
  O  O35  1  0.72038296  0.23005143  0.48096382  1
  O  O36  1  0.61544498  0.05952424  0.17740173  1
  O  O37  1  0.88455502  0.82259827  0.94047576  1
  O  O38  1  0.38455502  0.94047576  0.82259827  1
  O  O39  1  0.11544498  0.17740173  0.05952424  1
  O  O40  1  0.39131016  0.32006720  0.41517459  1
  O  O41  1  0.10868984  0.58482541  0.67993280  1
  O  O42  1  0.60868984  0.67993280  0.58482541  1
  O  O43  1  0.89131016  0.41517459  0.32006720  1
  O  O44  1  0.50686836  0.17770005  0.91439116  1
  O  O45  1  0.99313164  0.08560884  0.82229995  1
  O  O46  1  0.49313164  0.82229995  0.08560884  1
  O  O47  1  0.00686836  0.91439116  0.17770005  1
  O  O48  1  0.50887248  0.43083966  0.67746936  1
  O  O49  1  0.99112752  0.32253064  0.56916034  1
  O  O50  1  0.49112752  0.56916034  0.32253064  1
  O  O51  1  0.00887248  0.67746936  0.43083966  1
