# generated using pymatgen
data_Y2Br3
_symmetry_space_group_name_H-M   'P 1'
_cell_length_a   3.94049416
_cell_length_b   8.84336987
_cell_length_c   10.01440591
_cell_angle_alpha   71.16701753
_cell_angle_beta   78.65354026
_cell_angle_gamma   77.12682993
_symmetry_Int_Tables_number   1
_chemical_formula_structural   Y2Br3
_chemical_formula_sum   'Y4 Br6'
_cell_volume   319.02996577
_cell_formula_units_Z   2
loop_
 _symmetry_equiv_pos_site_id
 _symmetry_equiv_pos_as_xyz
  1  'x, y, z'
loop_
 _atom_site_type_symbol
 _atom_site_label
 _atom_site_symmetry_multiplicity
 _atom_site_fract_x
 _atom_site_fract_y
 _atom_site_fract_z
 _atom_site_occupancy
  Y  Y0  1  0.92247037  0.69944735  0.45561192  1
  Y  Y1  1  0.07752963  0.30055265  0.54438808  1
  Y  Y2  1  0.63366332  0.51750505  0.21516831  1
  Y  Y3  1  0.36633668  0.48249495  0.78483169  1
  Br  Br4  1  0.83726768  0.31828380  0.00718083  1
  Br  Br5  1  0.16273232  0.68171620  0.99281917  1
  Br  Br6  1  0.72036908  0.17912821  0.38013364  1
  Br  Br7  1  0.27963092  0.82087179  0.61986636  1
  Br  Br8  1  0.45798618  0.84656003  0.23746762  1
  Br  Br9  1  0.54201382  0.15343997  0.76253238  1
