# generated using pymatgen
data_CeSiRu2C
_symmetry_space_group_name_H-M   'P 1'
_cell_length_a   3.89434736
_cell_length_b   5.93332225
_cell_length_c   7.14245088
_cell_angle_alpha   90.00000000
_cell_angle_beta   90.00000000
_cell_angle_gamma   109.15810057
_symmetry_Int_Tables_number   1
_chemical_formula_structural   CeSiRu2C
_chemical_formula_sum   'Ce2 Si2 Ru4 C2'
_cell_volume   155.89617640
_cell_formula_units_Z   2
loop_
 _symmetry_equiv_pos_site_id
 _symmetry_equiv_pos_as_xyz
  1  'x, y, z'
loop_
 _atom_site_type_symbol
 _atom_site_label
 _atom_site_symmetry_multiplicity
 _atom_site_fract_x
 _atom_site_fract_y
 _atom_site_fract_z
 _atom_site_occupancy
  Ce  Ce0  1  0.44808120  0.89616239  0.25000000  1
  Ce  Ce1  1  0.55191880  0.10383761  0.75000000  1
  Si  Si2  1  0.72793403  0.45586806  0.25000000  1
  Si  Si3  1  0.27206597  0.54413194  0.75000000  1
  Ru  Ru4  1  0.16413476  0.32826952  0.05651321  1
  Ru  Ru5  1  0.83586524  0.67173048  0.94348679  1
  Ru  Ru6  1  0.83586524  0.67173048  0.55651321  1
  Ru  Ru7  1  0.16413476  0.32826952  0.44348679  1
  C  C8  1  0.00000000  0.00000000  0.00000000  1
  C  C9  1  0.00000000  0.00000000  0.50000000  1
