# generated using pymatgen
data_RbH3(CO2)2
_symmetry_space_group_name_H-M   'P 1'
_cell_length_a   7.85319946
_cell_length_b   7.98421866
_cell_length_c   18.20060091
_cell_angle_alpha   90.00000000
_cell_angle_beta   90.00000000
_cell_angle_gamma   90.00000000
_symmetry_Int_Tables_number   1
_chemical_formula_structural   RbH3(CO2)2
_chemical_formula_sum   'Rb8 H24 C16 O32'
_cell_volume   1141.20792044
_cell_formula_units_Z   8
loop_
 _symmetry_equiv_pos_site_id
 _symmetry_equiv_pos_as_xyz
  1  'x, y, z'
loop_
 _atom_site_type_symbol
 _atom_site_label
 _atom_site_symmetry_multiplicity
 _atom_site_fract_x
 _atom_site_fract_y
 _atom_site_fract_z
 _atom_site_occupancy
  H  H0  1  0.02925668  0.07857603  0.76847674  1
  H  H1  1  0.52925668  0.92142397  0.73152326  1
  H  H2  1  0.47074332  0.57857603  0.23152326  1
  H  H3  1  0.97074332  0.42142397  0.26847674  1
  H  H4  1  0.97074332  0.92142397  0.23152326  1
  H  H5  1  0.47074332  0.07857603  0.26847674  1
  H  H6  1  0.52925668  0.42142397  0.76847674  1
  H  H7  1  0.02925668  0.57857603  0.73152326  1
  H  H8  1  0.23716066  0.68345430  0.79732490  1
  H  H9  1  0.73716066  0.31654570  0.70267510  1
  H  H10  1  0.26283934  0.18345430  0.20267510  1
  H  H11  1  0.76283934  0.81654570  0.29732490  1
  H  H12  1  0.76283934  0.31654570  0.20267510  1
  H  H13  1  0.26283934  0.68345430  0.29732490  1
  H  H14  1  0.73716066  0.81654570  0.79732490  1
  H  H15  1  0.23716066  0.18345430  0.70267510  1
  H  H16  1  0.86249392  0.24824666  0.84440831  1
  H  H17  1  0.36249392  0.75175334  0.65559169  1
  H  H18  1  0.63750608  0.74824666  0.15559169  1
  H  H19  1  0.13750608  0.25175334  0.34440831  1
  H  H20  1  0.13750608  0.75175334  0.15559169  1
  H  H21  1  0.63750608  0.24824666  0.34440831  1
  H  H22  1  0.36249392  0.25175334  0.84440831  1
  H  H23  1  0.86249392  0.74824666  0.65559169  1
  C  C24  1  0.63293818  0.37220116  0.66934215  1
  C  C25  1  0.13293818  0.62779884  0.83065785  1
  C  C26  1  0.86706182  0.87220116  0.33065785  1
  C  C27  1  0.36706182  0.12779884  0.16934215  1
  C  C28  1  0.36706182  0.62779884  0.33065785  1
  C  C29  1  0.86706182  0.37220116  0.16934215  1
  C  C30  1  0.13293818  0.12779884  0.66934215  1
  C  C31  1  0.63293818  0.87220116  0.83065785  1
  C  C32  1  0.96766651  0.18670259  0.87524997  1
  C  C33  1  0.46766651  0.81329741  0.62475003  1
  C  C34  1  0.53233349  0.68670259  0.12475003  1
  C  C35  1  0.03233349  0.31329741  0.37524997  1
  C  C36  1  0.03233349  0.81329741  0.12475003  1
  C  C37  1  0.53233349  0.18670259  0.37524997  1
  C  C38  1  0.46766651  0.31329741  0.87524997  1
  C  C39  1  0.96766651  0.68670259  0.62475003  1
  O  O40  1  0.99496281  0.43242483  0.20659991  1
  O  O41  1  0.49496281  0.56757517  0.29340009  1
  O  O42  1  0.50503719  0.93242483  0.79340009  1
  O  O43  1  0.00503719  0.06757517  0.70659991  1
  O  O44  1  0.00503719  0.56757517  0.79340009  1
  O  O45  1  0.50503719  0.43242483  0.70659991  1
  O  O46  1  0.49496281  0.06757517  0.20659991  1
  O  O47  1  0.99496281  0.93242483  0.29340009  1
  O  O48  1  0.64184502  0.37381424  0.60123694  1
  O  O49  1  0.14184502  0.62618576  0.89876306  1
  O  O50  1  0.85815498  0.87381424  0.39876306  1
  O  O51  1  0.35815498  0.12618576  0.10123694  1
  O  O52  1  0.35815498  0.62618576  0.39876306  1
  O  O53  1  0.85815498  0.37381424  0.10123694  1
  O  O54  1  0.14184502  0.12618576  0.60123694  1
  O  O55  1  0.64184502  0.87381424  0.89876306  1
  O  O56  1  0.93588312  0.41302165  0.33807967  1
  O  O57  1  0.43588312  0.58697835  0.16192033  1
  O  O58  1  0.56411688  0.91302165  0.66192033  1
  O  O59  1  0.06411688  0.08697835  0.83807967  1
  O  O60  1  0.06411688  0.58697835  0.66192033  1
  O  O61  1  0.56411688  0.41302165  0.83807967  1
  O  O62  1  0.43588312  0.08697835  0.33807967  1
  O  O63  1  0.93588312  0.91302165  0.16192033  1
  O  O64  1  0.98498502  0.21713529  0.94235837  1
  O  O65  1  0.48498502  0.78286471  0.55764163  1
  O  O66  1  0.51501498  0.71713529  0.05764163  1
  O  O67  1  0.01501498  0.28286471  0.44235837  1
  O  O68  1  0.01501498  0.78286471  0.05764163  1
  O  O69  1  0.51501498  0.21713529  0.44235837  1
  O  O70  1  0.48498502  0.28286471  0.94235837  1
  O  O71  1  0.98498502  0.71713529  0.55764163  1
  Rb  Rb72  1  0.78036564  0.55879240  0.96044951  1
  Rb  Rb73  1  0.28036564  0.44120760  0.53955049  1
  Rb  Rb74  1  0.71963436  0.05879240  0.03955049  1
  Rb  Rb75  1  0.21963436  0.94120760  0.46044951  1
  Rb  Rb76  1  0.21963436  0.44120760  0.03955049  1
  Rb  Rb77  1  0.71963436  0.55879240  0.46044951  1
  Rb  Rb78  1  0.28036564  0.94120760  0.96044951  1
  Rb  Rb79  1  0.78036564  0.05879240  0.53955049  1
