# generated using pymatgen
data_Pr2InAu2
_symmetry_space_group_name_H-M   'P 1'
_cell_length_a   4.01650260
_cell_length_b   8.12058548
_cell_length_c   8.12058548
_cell_angle_alpha   90.00000000
_cell_angle_beta   90.00000000
_cell_angle_gamma   90.00000000
_symmetry_Int_Tables_number   1
_chemical_formula_structural   Pr2InAu2
_chemical_formula_sum   'Pr4 In2 Au4'
_cell_volume   264.86388010
_cell_formula_units_Z   2
loop_
 _symmetry_equiv_pos_site_id
 _symmetry_equiv_pos_as_xyz
  1  'x, y, z'
loop_
 _atom_site_type_symbol
 _atom_site_label
 _atom_site_symmetry_multiplicity
 _atom_site_fract_x
 _atom_site_fract_y
 _atom_site_fract_z
 _atom_site_occupancy
  Pr  Pr0  1  0.50000000  0.17182432  0.67182432  1
  Pr  Pr1  1  0.50000000  0.82817568  0.32817568  1
  Pr  Pr2  1  0.50000000  0.32817568  0.17182432  1
  Pr  Pr3  1  0.50000000  0.67182432  0.82817568  1
  In  In4  1  0.00000000  0.00000000  -0.00000000  1
  In  In5  1  -0.00000000  0.50000000  0.50000000  1
  Au  Au6  1  0.00000000  0.62770646  0.12770646  1
  Au  Au7  1  -0.00000000  0.37229354  0.87229354  1
  Au  Au8  1  0.00000000  0.87229354  0.62770646  1
  Au  Au9  1  -0.00000000  0.12770646  0.37229354  1
