# generated using pymatgen
data_LiBeH3
_symmetry_space_group_name_H-M   'P 1'
_cell_length_a   4.39489544
_cell_length_b   4.51740915
_cell_length_c   6.27660672
_cell_angle_alpha   90.00000000
_cell_angle_beta   90.00000000
_cell_angle_gamma   90.00000000
_symmetry_Int_Tables_number   1
_chemical_formula_structural   LiBeH3
_chemical_formula_sum   'Li4 Be4 H12'
_cell_volume   124.61286807
_cell_formula_units_Z   4
loop_
 _symmetry_equiv_pos_site_id
 _symmetry_equiv_pos_as_xyz
  1  'x, y, z'
loop_
 _atom_site_type_symbol
 _atom_site_label
 _atom_site_symmetry_multiplicity
 _atom_site_fract_x
 _atom_site_fract_y
 _atom_site_fract_z
 _atom_site_occupancy
  H  H0  1  0.57234068  0.01658131  0.75000000  1
  H  H1  1  0.07234068  0.48341869  0.25000000  1
  H  H2  1  0.92765932  0.51658131  0.75000000  1
  H  H3  1  0.42765932  0.98341869  0.25000000  1
  H  H4  1  0.29211257  0.70722487  0.53692978  1
  H  H5  1  0.79211257  0.79277513  0.46307022  1
  H  H6  1  0.20788743  0.20722487  0.96307022  1
  H  H7  1  0.70788743  0.29277513  0.03692978  1
  H  H8  1  0.29211257  0.70722487  0.96307022  1
  H  H9  1  0.79211257  0.79277513  0.03692978  1
  H  H10  1  0.20788743  0.20722487  0.53692978  1
  H  H11  1  0.70788743  0.29277513  0.46307022  1
  Li  Li12  1  0.48999307  0.45050097  0.75000000  1
  Li  Li13  1  0.98999307  0.04949903  0.25000000  1
  Li  Li14  1  0.01000693  0.95050097  0.75000000  1
  Li  Li15  1  0.51000693  0.54949903  0.25000000  1
  Be  Be16  1  0.50000000  0.00000000  0.00000000  1
  Be  Be17  1  0.00000000  0.50000000  0.00000000  1
  Be  Be18  1  0.00000000  0.50000000  0.50000000  1
  Be  Be19  1  0.50000000  0.00000000  0.50000000  1
