# generated using pymatgen
data_Dy2Ge2Ru
_symmetry_space_group_name_H-M   'P 1'
_cell_length_a   4.30926166
_cell_length_b   5.81093195
_cell_length_c   9.24831517
_cell_angle_alpha   81.80547200
_cell_angle_beta   76.52768471
_cell_angle_gamma   68.23570226
_symmetry_Int_Tables_number   1
_chemical_formula_structural   Dy2Ge2Ru
_chemical_formula_sum   'Dy4 Ge4 Ru2'
_cell_volume   208.75438784
_cell_formula_units_Z   2
loop_
 _symmetry_equiv_pos_site_id
 _symmetry_equiv_pos_as_xyz
  1  'x, y, z'
loop_
 _atom_site_type_symbol
 _atom_site_label
 _atom_site_symmetry_multiplicity
 _atom_site_fract_x
 _atom_site_fract_y
 _atom_site_fract_z
 _atom_site_occupancy
  Dy  Dy0  1  0.99852010  0.67490123  0.32805858  1
  Dy  Dy1  1  0.00147990  0.32509877  0.67194142  1
  Dy  Dy2  1  0.81581188  0.25964731  0.10872892  1
  Dy  Dy3  1  0.18418812  0.74035269  0.89127108  1
  Ge  Ge4  1  0.64629662  0.27554314  0.43186361  1
  Ge  Ge5  1  0.35370338  0.72445686  0.56813639  1
  Ge  Ge6  1  0.51067071  0.85423781  0.12442078  1
  Ge  Ge7  1  0.48932929  0.14576219  0.87557922  1
  Ru  Ru8  1  0.72819087  0.91639342  0.62722484  1
  Ru  Ru9  1  0.27180913  0.08360658  0.37277516  1
