# generated using pymatgen
data_Er2Al4CoGe2
_symmetry_space_group_name_H-M   'P 1'
_cell_length_a   4.11031788
_cell_length_b   4.11031788
_cell_length_c   10.13718694
_cell_angle_alpha   101.69691616
_cell_angle_beta   101.69691616
_cell_angle_gamma   90.00000000
_symmetry_Int_Tables_number   1
_chemical_formula_structural   Er2Al4CoGe2
_chemical_formula_sum   'Er2 Al4 Co1 Ge2'
_cell_volume   164.07472337
_cell_formula_units_Z   1
loop_
 _symmetry_equiv_pos_site_id
 _symmetry_equiv_pos_as_xyz
  1  'x, y, z'
loop_
 _atom_site_type_symbol
 _atom_site_label
 _atom_site_symmetry_multiplicity
 _atom_site_fract_x
 _atom_site_fract_y
 _atom_site_fract_z
 _atom_site_occupancy
  Er  Er0  1  0.18468853  0.18468853  0.36937706  1
  Er  Er1  1  0.81531147  0.81531147  0.63062294  1
  Al  Al2  1  0.06615565  0.56615565  0.13231131  1
  Al  Al3  1  0.93384435  0.43384435  0.86768869  1
  Al  Al4  1  0.56615565  0.06615565  0.13231131  1
  Al  Al5  1  0.43384435  0.93384435  0.86768869  1
  Co  Co6  1  -0.00000000  -0.00000000  -0.00000000  1
  Ge  Ge7  1  0.33561810  0.33561810  0.67123620  1
  Ge  Ge8  1  0.66438190  0.66438190  0.32876380  1
