# generated using pymatgen
data_TlCl3
_symmetry_space_group_name_H-M   'P 1'
_cell_length_a   6.91012036
_cell_length_b   6.76643497
_cell_length_c   6.76139544
_cell_angle_alpha   59.97533865
_cell_angle_beta   80.77530748
_cell_angle_gamma   71.31442243
_symmetry_Int_Tables_number   1
_chemical_formula_structural   TlCl3
_chemical_formula_sum   'Tl2 Cl6'
_cell_volume   259.29127504
_cell_formula_units_Z   2
loop_
 _symmetry_equiv_pos_site_id
 _symmetry_equiv_pos_as_xyz
  1  'x, y, z'
loop_
 _atom_site_type_symbol
 _atom_site_label
 _atom_site_symmetry_multiplicity
 _atom_site_fract_x
 _atom_site_fract_y
 _atom_site_fract_z
 _atom_site_occupancy
  Tl  Tl0  1  1.00000000  0.16645687  0.66708625  1
  Tl  Tl1  1  0.00000000  0.83354313  0.33291375  1
  Cl  Cl2  1  0.22979185  0.06727241  0.35758337  1
  Cl  Cl3  1  0.77020815  0.93272759  0.64241663  1
  Cl  Cl4  1  0.77020815  0.57514423  0.35758337  1
  Cl  Cl5  1  0.22979185  0.42485577  0.64241663  1
  Cl  Cl6  1  0.23209489  0.78319933  1.00000000  1
  Cl  Cl7  1  0.76790511  0.21680067  0.00000000  1
