# generated using pymatgen
data_Mg16Si8HO32
_symmetry_space_group_name_H-M   'P 1'
_cell_length_a   5.79138426
_cell_length_b   8.39393726
_cell_length_c   11.64212833
_cell_angle_alpha   89.99995574
_cell_angle_beta   90.00002812
_cell_angle_gamma   90.00029176
_symmetry_Int_Tables_number   1
_chemical_formula_structural   Mg16Si8HO32
_chemical_formula_sum   'Mg16 Si8 H1 O32'
_cell_volume   565.95315119
_cell_formula_units_Z   1
loop_
 _symmetry_equiv_pos_site_id
 _symmetry_equiv_pos_as_xyz
  1  'x, y, z'
loop_
 _atom_site_type_symbol
 _atom_site_label
 _atom_site_symmetry_multiplicity
 _atom_site_fract_x
 _atom_site_fract_y
 _atom_site_fract_z
 _atom_site_occupancy
  H  H0  1  0.75006666  0.89032548  0.50000795  1
  O  O1  1  0.51137816  0.75713762  0.12769140  1
  O  O2  1  0.98866075  0.75714031  0.87231996  1
  O  O3  1  0.01097480  0.24332956  0.87260930  1
  O  O4  1  0.48903545  0.24332559  0.12740020  1
  O  O5  1  0.48903556  0.24332690  0.87261155  1
  O  O6  1  0.01097500  0.24332834  0.12740242  1
  O  O7  1  0.98865874  0.75714023  0.12769207  1
  O  O8  1  0.51137907  0.75713769  0.87232044  1
  O  O9  1  0.25000573  0.49181113  0.73917849  1
  O  O10  1  0.25000528  0.49180968  0.26083320  1
  O  O11  1  0.75000528  0.50537565  0.26016153  1
  O  O12  1  0.75000595  0.50537518  0.73985220  1
  O  O13  1  0.25000343  0.96871579  0.50000556  1
  O  O14  1  0.75000062  0.00895815  0.50000593  1
  O  O15  1  0.25002015  0.46371423  0.50000566  1
  O  O16  1  0.75000419  0.53748380  0.50000648  1
  O  O17  1  0.25000460  0.03536472  0.00000554  1
  O  O18  1  0.75001017  0.96539185  0.00000578  1
  O  O19  1  0.25001155  0.53439968  0.00000638  1
  O  O20  1  0.75000912  0.46570889  0.00000668  1
  O  O21  1  0.25001064  0.00598782  0.23762561  1
  O  O22  1  0.25001086  0.00598937  0.76238560  1
  O  O23  1  0.75001445  0.99468003  0.75994857  1
  O  O24  1  0.75001392  0.99467958  0.24006328  1
  O  O25  1  0.00872231  0.25382417  0.37473945  1
  O  O26  1  0.49132476  0.25382175  0.62527192  1
  O  O27  1  0.51237603  0.74550037  0.62705004  1
  O  O28  1  0.98763302  0.74550248  0.37296985  1
  O  O29  1  0.98763235  0.74550281  0.62704207  1
  O  O30  1  0.51237438  0.74550034  0.37296194  1
  O  O31  1  0.49132485  0.25382033  0.37473997  1
  O  O32  1  0.00872206  0.25382581  0.62527214  1
  Mg  Mg33  1  0.99978878  0.49992593  0.87851153  1
  Mg  Mg34  1  0.50022848  0.49992164  0.12150279  1
  Mg  Mg35  1  0.99978826  0.49992550  0.12150191  1
  Mg  Mg36  1  0.50022829  0.49992257  0.87851006  1
  Mg  Mg37  1  0.25001222  0.74583366  0.75090881  1
  Mg  Mg38  1  0.25001123  0.74583228  0.24910272  1
  Mg  Mg39  1  0.25001824  0.72056350  0.50000611  1
  Mg  Mg40  1  0.75001237  0.29485431  0.50000518  1
  Mg  Mg41  1  0.48942135  0.00295288  0.36947668  1
  Mg  Mg42  1  0.01059782  0.00295538  0.63053843  1
  Mg  Mg43  1  0.48942154  0.00295396  0.63053378  1
  Mg  Mg44  1  0.01059728  0.00295354  0.36947295  1
  Mg  Mg45  1  0.75000934  0.25158224  0.24892912  1
  Mg  Mg46  1  0.75000928  0.25158301  0.75108231  1
  Mg  Mg47  1  0.75000732  0.21941678  0.00000647  1
  Mg  Mg48  1  0.25002100  0.78080168  0.00000624  1
  Si  Si49  1  0.25000761  0.13545094  0.12894622  1
  Si  Si50  1  0.25000761  0.13545137  0.87106440  1
  Si  Si51  1  0.75001474  0.86614158  0.86990879  1
  Si  Si52  1  0.75001345  0.86614185  0.13010262  1
  Si  Si53  1  0.75001274  0.63408611  0.63182260  1
  Si  Si54  1  0.75001186  0.63408560  0.36818957  1
  Si  Si55  1  0.25001468  0.36415854  0.37002297  1
  Si  Si56  1  0.25001464  0.36415982  0.62998859  1
