# generated using pymatgen
data_YSnGe
_symmetry_space_group_name_H-M   'P 1'
_cell_length_a   4.10424196
_cell_length_b   4.26383715
_cell_length_c   8.48309697
_cell_angle_alpha   104.55526438
_cell_angle_beta   90.00000000
_cell_angle_gamma   90.00000000
_symmetry_Int_Tables_number   1
_chemical_formula_structural   YSnGe
_chemical_formula_sum   'Y2 Sn2 Ge2'
_cell_volume   143.68817814
_cell_formula_units_Z   2
loop_
 _symmetry_equiv_pos_site_id
 _symmetry_equiv_pos_as_xyz
  1  'x, y, z'
loop_
 _atom_site_type_symbol
 _atom_site_label
 _atom_site_symmetry_multiplicity
 _atom_site_fract_x
 _atom_site_fract_y
 _atom_site_fract_z
 _atom_site_occupancy
  Y  Y0  1  0.25000000  0.59449275  0.18898550  1
  Y  Y1  1  0.75000000  0.40550725  0.81101450  1
  Sn  Sn2  1  0.25000000  0.24521211  0.49042422  1
  Sn  Sn3  1  0.75000000  0.75478789  0.50957578  1
  Ge  Ge4  1  0.25000000  0.94652455  0.89304910  1
  Ge  Ge5  1  0.75000000  0.05347545  0.10695090  1
