# generated using pymatgen
data_Cs2As2Pt
_symmetry_space_group_name_H-M   'P 1'
_cell_length_a   6.66659405
_cell_length_b   7.16057969
_cell_length_c   8.32396633
_cell_angle_alpha   115.47506870
_cell_angle_beta   90.00000000
_cell_angle_gamma   90.00000000
_symmetry_Int_Tables_number   1
_chemical_formula_structural   Cs2As2Pt
_chemical_formula_sum   'Cs4 As4 Pt2'
_cell_volume   358.72433773
_cell_formula_units_Z   2
loop_
 _symmetry_equiv_pos_site_id
 _symmetry_equiv_pos_as_xyz
  1  'x, y, z'
loop_
 _atom_site_type_symbol
 _atom_site_label
 _atom_site_symmetry_multiplicity
 _atom_site_fract_x
 _atom_site_fract_y
 _atom_site_fract_z
 _atom_site_occupancy
  Cs  Cs0  1  0.25000000  0.20640885  0.41281770  1
  Cs  Cs1  1  0.75000000  0.79359115  0.58718230  1
  Cs  Cs2  1  0.25000000  0.58492762  0.16985524  1
  Cs  Cs3  1  0.75000000  0.41507238  0.83014476  1
  As  As4  1  0.25000000  0.73082412  0.80487979  1
  As  As5  1  0.75000000  0.26917588  0.19512021  1
  As  As6  1  0.25000000  0.07405566  0.80487979  1
  As  As7  1  0.75000000  0.92594434  0.19512021  1
  Pt  Pt8  1  0.00000000  0.00000000  0.00000000  1
  Pt  Pt9  1  0.50000000  0.00000000  0.00000000  1
