# generated using pymatgen
data_NiO2
_symmetry_space_group_name_H-M   'P 1'
_cell_length_a   5.58900414
_cell_length_b   5.58900425
_cell_length_c   5.58900377
_cell_angle_alpha   59.99999752
_cell_angle_beta   59.99999686
_cell_angle_gamma   60.00000172
_symmetry_Int_Tables_number   1
_chemical_formula_structural   NiO2
_chemical_formula_sum   'Ni4 O8'
_cell_volume   123.44919520
_cell_formula_units_Z   4
loop_
 _symmetry_equiv_pos_site_id
 _symmetry_equiv_pos_as_xyz
  1  'x, y, z'
loop_
 _atom_site_type_symbol
 _atom_site_label
 _atom_site_symmetry_multiplicity
 _atom_site_fract_x
 _atom_site_fract_y
 _atom_site_fract_z
 _atom_site_occupancy
  O  O0  1  0.73666578  0.73666702  0.29000149  1
  O  O1  1  0.73666578  0.73666702  0.73666661  1
  O  O2  1  0.26333431  0.26333404  0.70999762  1
  O  O3  1  0.26333534  0.70999838  0.26333322  1
  O  O4  1  0.26333431  0.26333404  0.26333428  1
  O  O5  1  0.70999756  0.26333404  0.26333428  1
  O  O6  1  0.29000252  0.73666702  0.73666660  1
  O  O7  1  0.73666752  0.29000050  0.73666736  1
  Ni  Ni8  1  0.49999866  0.50000162  0.50000059  1
  Ni  Ni9  1  0.50000142  0.00000000  0.49999941  1
  Ni  Ni10  1  0.00000134  0.50000162  0.49999865  1
  Ni  Ni11  1  0.49999865  0.50000162  0.99999930  1
