# generated using pymatgen
data_Ce2InCu2
_symmetry_space_group_name_H-M   'P 1'
_cell_length_a   3.79889969
_cell_length_b   7.65542332
_cell_length_c   7.65542332
_cell_angle_alpha   90.00000000
_cell_angle_beta   90.00000000
_cell_angle_gamma   90.00000000
_symmetry_Int_Tables_number   1
_chemical_formula_structural   Ce2InCu2
_chemical_formula_sum   'Ce4 In2 Cu4'
_cell_volume   222.63643937
_cell_formula_units_Z   2
loop_
 _symmetry_equiv_pos_site_id
 _symmetry_equiv_pos_as_xyz
  1  'x, y, z'
loop_
 _atom_site_type_symbol
 _atom_site_label
 _atom_site_symmetry_multiplicity
 _atom_site_fract_x
 _atom_site_fract_y
 _atom_site_fract_z
 _atom_site_occupancy
  Ce  Ce0  1  0.50000000  0.17885884  0.67885884  1
  Ce  Ce1  1  0.50000000  0.82114116  0.32114116  1
  Ce  Ce2  1  0.50000000  0.32114116  0.17885884  1
  Ce  Ce3  1  0.50000000  0.67885884  0.82114116  1
  In  In4  1  -0.00000000  0.00000000  -0.00000000  1
  In  In5  1  -0.00000000  0.50000000  0.50000000  1
  Cu  Cu6  1  -0.00000000  0.61771462  0.11771462  1
  Cu  Cu7  1  0.00000000  0.38228538  0.88228538  1
  Cu  Cu8  1  0.00000000  0.88228538  0.61771462  1
  Cu  Cu9  1  -0.00000000  0.11771462  0.38228538  1
