# generated using pymatgen
data_Pr2CdAu2
_symmetry_space_group_name_H-M   'P 1'
_cell_length_a   3.84751117
_cell_length_b   8.26603042
_cell_length_c   8.26603042
_cell_angle_alpha   90.00000000
_cell_angle_beta   90.00000000
_cell_angle_gamma   90.00000000
_symmetry_Int_Tables_number   1
_chemical_formula_structural   Pr2CdAu2
_chemical_formula_sum   'Pr4 Cd2 Au4'
_cell_volume   262.88989185
_cell_formula_units_Z   2
loop_
 _symmetry_equiv_pos_site_id
 _symmetry_equiv_pos_as_xyz
  1  'x, y, z'
loop_
 _atom_site_type_symbol
 _atom_site_label
 _atom_site_symmetry_multiplicity
 _atom_site_fract_x
 _atom_site_fract_y
 _atom_site_fract_z
 _atom_site_occupancy
  Pr  Pr0  1  0.50000000  0.17017383  0.67017383  1
  Pr  Pr1  1  0.50000000  0.82982617  0.32982617  1
  Pr  Pr2  1  0.50000000  0.32982617  0.17017383  1
  Pr  Pr3  1  0.50000000  0.67017383  0.82982617  1
  Cd  Cd4  1  -0.00000000  0.00000000  0.00000000  1
  Cd  Cd5  1  -0.00000000  0.50000000  0.50000000  1
  Au  Au6  1  0.00000000  0.62900867  0.12900867  1
  Au  Au7  1  -0.00000000  0.37099133  0.87099133  1
  Au  Au8  1  -0.00000000  0.87099133  0.62900867  1
  Au  Au9  1  0.00000000  0.12900867  0.37099133  1
