# generated using pymatgen
data_Zr9(CoP2)2
_symmetry_space_group_name_H-M   'P 1'
_cell_length_a   3.68094552
_cell_length_b   12.11753523
_cell_length_c   12.11753523
_cell_angle_alpha   90.00000000
_cell_angle_beta   90.00000000
_cell_angle_gamma   90.00000000
_symmetry_Int_Tables_number   1
_chemical_formula_structural   Zr9(CoP2)2
_chemical_formula_sum   'Zr18 Co4 P8'
_cell_volume   540.49038409
_cell_formula_units_Z   2
loop_
 _symmetry_equiv_pos_site_id
 _symmetry_equiv_pos_as_xyz
  1  'x, y, z'
loop_
 _atom_site_type_symbol
 _atom_site_label
 _atom_site_symmetry_multiplicity
 _atom_site_fract_x
 _atom_site_fract_y
 _atom_site_fract_z
 _atom_site_occupancy
  Zr  Zr0  1  0.50000000  0.10459470  0.18089919  1
  Zr  Zr1  1  0.50000000  0.89540530  0.81910081  1
  Zr  Zr2  1  0.50000000  0.81910081  0.10459470  1
  Zr  Zr3  1  0.50000000  0.39540530  0.68089919  1
  Zr  Zr4  1  0.50000000  0.18089919  0.89540530  1
  Zr  Zr5  1  0.50000000  0.60459470  0.31910081  1
  Zr  Zr6  1  0.50000000  0.68089919  0.60459470  1
  Zr  Zr7  1  0.50000000  0.31910081  0.39540530  1
  Zr  Zr8  1  0.50000000  0.12167137  0.62167137  1
  Zr  Zr9  1  0.50000000  0.87832863  0.37832863  1
  Zr  Zr10  1  0.50000000  0.37832863  0.12167137  1
  Zr  Zr11  1  0.50000000  0.62167137  0.87832863  1
  Zr  Zr12  1  -0.00000000  0.00000000  -0.00000000  1
  Zr  Zr13  1  0.00000000  0.50000000  0.50000000  1
  Zr  Zr14  1  0.00000000  0.59583184  0.09583184  1
  Zr  Zr15  1  -0.00000000  0.40416816  0.90416816  1
  Zr  Zr16  1  -0.00000000  0.90416816  0.59583184  1
  Zr  Zr17  1  0.00000000  0.09583184  0.40416816  1
  Co  Co18  1  -0.00000000  0.24957591  0.74957591  1
  Co  Co19  1  0.00000000  0.75042409  0.25042409  1
  Co  Co20  1  0.00000000  0.25042409  0.24957591  1
  Co  Co21  1  -0.00000000  0.74957591  0.75042409  1
  P  P22  1  -0.00000000  0.22484069  0.05724610  1
  P  P23  1  0.00000000  0.77515931  0.94275390  1
  P  P24  1  -0.00000000  0.94275390  0.22484069  1
  P  P25  1  0.00000000  0.27515931  0.55724610  1
  P  P26  1  0.00000000  0.05724610  0.77515931  1
  P  P27  1  -0.00000000  0.72484069  0.44275390  1
  P  P28  1  0.00000000  0.55724610  0.72484069  1
  P  P29  1  -0.00000000  0.44275390  0.27515931  1
