# generated using pymatgen
data_Li2PWCO7
_symmetry_space_group_name_H-M   'P 1'
_cell_length_a   4.99824789
_cell_length_b   6.68968574
_cell_length_c   8.81461621
_cell_angle_alpha   90.00000000
_cell_angle_beta   84.60875946
_cell_angle_gamma   90.00000000
_symmetry_Int_Tables_number   1
_chemical_formula_structural   Li2PWCO7
_chemical_formula_sum   'Li4 P2 W2 C2 O14'
_cell_volume   293.42795189
_cell_formula_units_Z   2
loop_
 _symmetry_equiv_pos_site_id
 _symmetry_equiv_pos_as_xyz
  1  'x, y, z'
loop_
 _atom_site_type_symbol
 _atom_site_label
 _atom_site_symmetry_multiplicity
 _atom_site_fract_x
 _atom_site_fract_y
 _atom_site_fract_z
 _atom_site_occupancy
  Li  Li0  1  0.75735269  0.98018706  0.77852141  1
  Li  Li1  1  0.24264647  0.01981178  0.22147893  1
  Li  Li2  1  0.24264647  0.48018764  0.22147893  1
  Li  Li3  1  0.75735269  0.51981272  0.77852141  1
  C  C4  1  0.70972194  0.75000065  0.05508392  1
  C  C5  1  0.29027923  0.24999971  0.94491636  1
  O  O6  1  0.15623093  0.93442741  0.68193334  1
  O  O7  1  0.94795666  0.75000065  0.10577233  1
  O  O8  1  0.49292852  0.24999971  0.83465053  1
  O  O9  1  0.50707265  0.75000065  0.16534976  1
  O  O10  1  0.15623093  0.56557237  0.68193334  1
  O  O11  1  0.18134302  0.75000065  0.42785778  1
  O  O12  1  0.05204451  0.24999971  0.89422796  1
  O  O13  1  0.84377034  0.43442799  0.31806579  1
  O  O14  1  0.84377034  0.06557295  0.31806579  1
  O  O15  1  0.41606492  0.24999971  0.42214529  1
  O  O16  1  0.67179101  0.75000065  0.91524802  1
  O  O17  1  0.32820815  0.24999971  0.08475231  1
  O  O18  1  0.58393424  0.75000065  0.57785505  1
  O  O19  1  0.81865815  0.24999971  0.57214250  1
  P  P20  1  0.73012346  0.24999971  0.40763999  1
  P  P21  1  0.26987570  0.75000065  0.59236034  1
  W  W22  1  0.79016300  0.75000065  0.34390312  1
  W  W23  1  0.20983626  0.24999971  0.65609607  1
