# generated using pymatgen
data_Zr6Be15Co8
_symmetry_space_group_name_H-M   'P 1'
_cell_length_a   7.78099504
_cell_length_b   7.78099504
_cell_length_c   7.78099504
_cell_angle_alpha   60.00000000
_cell_angle_beta   60.00000000
_cell_angle_gamma   60.00000000
_symmetry_Int_Tables_number   1
_chemical_formula_structural   Zr6Be15Co8
_chemical_formula_sum   'Zr6 Be15 Co8'
_cell_volume   333.11210761
_cell_formula_units_Z   1
loop_
 _symmetry_equiv_pos_site_id
 _symmetry_equiv_pos_as_xyz
  1  'x, y, z'
loop_
 _atom_site_type_symbol
 _atom_site_label
 _atom_site_symmetry_multiplicity
 _atom_site_fract_x
 _atom_site_fract_y
 _atom_site_fract_z
 _atom_site_occupancy
  Zr  Zr0  1  0.71199893  0.71199893  0.28800107  1
  Zr  Zr1  1  0.28800107  0.28800107  0.71199893  1
  Zr  Zr2  1  0.71199893  0.28800107  0.71199893  1
  Zr  Zr3  1  0.28800107  0.71199893  0.28800107  1
  Zr  Zr4  1  0.28800107  0.71199893  0.71199893  1
  Zr  Zr5  1  0.71199893  0.28800107  0.28800107  1
  Be  Be6  1  0.67874625  0.67874625  0.67874625  1
  Be  Be7  1  0.32125375  0.32125375  0.32125375  1
  Be  Be8  1  0.96376126  0.67874625  0.67874625  1
  Be  Be9  1  0.67874625  0.96376126  0.67874625  1
  Be  Be10  1  0.03623874  0.32125375  0.32125375  1
  Be  Be11  1  0.32125375  0.03623874  0.32125375  1
  Be  Be12  1  0.67874625  0.67874625  0.96376126  1
  Be  Be13  1  0.32125375  0.32125375  0.03623874  1
  Be  Be14  1  -0.00000000  -0.00000000  0.50000000  1
  Be  Be15  1  0.50000000  0.50000000  0.00000000  1
  Be  Be16  1  -0.00000000  0.50000000  0.00000000  1
  Be  Be17  1  0.50000000  -0.00000000  0.50000000  1
  Be  Be18  1  0.50000000  -0.00000000  0.00000000  1
  Be  Be19  1  -0.00000000  0.50000000  0.50000000  1
  Be  Be20  1  -0.00000000  -0.00000000  0.00000000  1
  Co  Co21  1  0.87510350  0.87510350  0.87510350  1
  Co  Co22  1  0.12489650  0.12489650  0.12489650  1
  Co  Co23  1  0.37468949  0.87510350  0.87510350  1
  Co  Co24  1  0.87510350  0.37468949  0.87510350  1
  Co  Co25  1  0.62531051  0.12489650  0.12489650  1
  Co  Co26  1  0.12489650  0.62531051  0.12489650  1
  Co  Co27  1  0.87510350  0.87510350  0.37468949  1
  Co  Co28  1  0.12489650  0.12489650  0.62531051  1
