# generated using pymatgen
data_Cs2PrF6
_symmetry_space_group_name_H-M   'P 1'
_cell_length_a   3.90857523
_cell_length_b   7.36330696
_cell_length_c   7.36330696
_cell_angle_alpha   120.00000165
_cell_angle_beta   90.00000000
_cell_angle_gamma   90.00000000
_symmetry_Int_Tables_number   1
_chemical_formula_structural   Cs2PrF6
_chemical_formula_sum   'Cs2 Pr1 F6'
_cell_volume   183.52486430
_cell_formula_units_Z   1
loop_
 _symmetry_equiv_pos_site_id
 _symmetry_equiv_pos_as_xyz
  1  'x, y, z'
loop_
 _atom_site_type_symbol
 _atom_site_label
 _atom_site_symmetry_multiplicity
 _atom_site_fract_x
 _atom_site_fract_y
 _atom_site_fract_z
 _atom_site_occupancy
  Cs  Cs0  1  0.50000000  0.66666700  0.33333300  1
  Cs  Cs1  1  0.50000000  0.33333300  0.66666700  1
  Pr  Pr2  1  -0.00000000  0.00000000  -0.00000000  1
  F  F3  1  0.50000000  0.78779639  0.78779639  1
  F  F4  1  0.50000000  0.00000000  0.21220361  1
  F  F5  1  0.50000000  0.21220361  0.00000000  1
  F  F6  1  -0.00000000  0.32521428  0.32521428  1
  F  F7  1  0.00000000  1.00000000  0.67478572  1
  F  F8  1  -0.00000000  0.67478572  1.00000000  1
