# generated using pymatgen
data_YbTl(WO4)2
_symmetry_space_group_name_H-M   'P 1'
_cell_length_a   7.76514046
_cell_length_b   7.76514046
_cell_length_c   7.50401229
_cell_angle_alpha   60.59535906
_cell_angle_beta   60.59535906
_cell_angle_gamma   85.41953005
_symmetry_Int_Tables_number   1
_chemical_formula_structural   YbTl(WO4)2
_chemical_formula_sum   'Yb2 Tl2 W4 O16'
_cell_volume   335.56622291
_cell_formula_units_Z   2
loop_
 _symmetry_equiv_pos_site_id
 _symmetry_equiv_pos_as_xyz
  1  'x, y, z'
loop_
 _atom_site_type_symbol
 _atom_site_label
 _atom_site_symmetry_multiplicity
 _atom_site_fract_x
 _atom_site_fract_y
 _atom_site_fract_z
 _atom_site_occupancy
  Yb  Yb0  1  0.22499276  0.77500724  0.75000000  1
  Yb  Yb1  1  0.77500724  0.22499276  0.25000000  1
  Tl  Tl2  1  0.75949928  0.24050072  0.75000000  1
  Tl  Tl3  1  0.24050072  0.75949928  0.25000000  1
  W  W4  1  0.29475642  0.30611135  0.70965075  1
  W  W5  1  0.70524358  0.69388865  0.29034925  1
  W  W6  1  0.69388865  0.70524358  0.79034925  1
  W  W7  1  0.30611135  0.29475642  0.20965075  1
  O  O8  1  0.37739426  0.24832041  0.94932986  1
  O  O9  1  0.62260574  0.75167959  0.05067014  1
  O  O10  1  0.75167959  0.62260574  0.55067014  1
  O  O11  1  0.24832041  0.37739426  0.44932986  1
  O  O12  1  0.63494818  0.93598873  0.61568872  1
  O  O13  1  0.36505182  0.06401127  0.38431128  1
  O  O14  1  0.06401127  0.36505182  0.88431128  1
  O  O15  1  0.93598873  0.63494818  0.11568872  1
  O  O16  1  0.40268645  0.63237248  0.51583444  1
  O  O17  1  0.59731355  0.36762752  0.48416556  1
  O  O18  1  0.36762752  0.59731355  0.98416556  1
  O  O19  1  0.63237248  0.40268645  0.01583444  1
  O  O20  1  0.23329162  0.03447822  0.83467145  1
  O  O21  1  0.76670838  0.96552178  0.16532855  1
  O  O22  1  0.96552178  0.76670838  0.66532855  1
  O  O23  1  0.03447822  0.23329162  0.33467145  1
