# generated using pymatgen
data_YbMnB4
_symmetry_space_group_name_H-M   'P 1'
_cell_length_a   3.34747501
_cell_length_b   5.90109948
_cell_length_c   11.42660244
_cell_angle_alpha   90.00000000
_cell_angle_beta   90.00000000
_cell_angle_gamma   90.00000000
_symmetry_Int_Tables_number   1
_chemical_formula_structural   YbMnB4
_chemical_formula_sum   'Yb4 Mn4 B16'
_cell_volume   225.71862549
_cell_formula_units_Z   4
loop_
 _symmetry_equiv_pos_site_id
 _symmetry_equiv_pos_as_xyz
  1  'x, y, z'
loop_
 _atom_site_type_symbol
 _atom_site_label
 _atom_site_symmetry_multiplicity
 _atom_site_fract_x
 _atom_site_fract_y
 _atom_site_fract_z
 _atom_site_occupancy
  Yb  Yb0  1  0.50000000  0.37564991  0.15129640  1
  Yb  Yb1  1  0.50000000  0.62435009  0.84870360  1
  Yb  Yb2  1  0.50000000  0.12435009  0.65129640  1
  Yb  Yb3  1  0.50000000  0.87564991  0.34870360  1
  Mn  Mn4  1  0.50000000  0.37906451  0.42118581  1
  Mn  Mn5  1  0.50000000  0.62093549  0.57881419  1
  Mn  Mn6  1  0.50000000  0.12093549  0.92118581  1
  Mn  Mn7  1  0.50000000  0.87906451  0.07881419  1
  B  B8  1  -0.00000000  0.11316135  0.04682923  1
  B  B9  1  0.00000000  0.88683865  0.95317077  1
  B  B10  1  -0.00000000  0.38683865  0.54682923  1
  B  B11  1  0.00000000  0.61316135  0.45317077  1
  B  B12  1  -0.00000000  0.13837349  0.46692011  1
  B  B13  1  -0.00000000  0.86162651  0.53307989  1
  B  B14  1  -0.00000000  0.36162651  0.96692011  1
  B  B15  1  -0.00000000  0.63837349  0.03307989  1
  B  B16  1  0.00000000  0.02315276  0.19079886  1
  B  B17  1  -0.00000000  0.97684724  0.80920114  1
  B  B18  1  -0.00000000  0.47684724  0.69079886  1
  B  B19  1  0.00000000  0.52315276  0.30920114  1
  B  B20  1  -0.00000000  0.22057924  0.31721245  1
  B  B21  1  -0.00000000  0.77942076  0.68278755  1
  B  B22  1  -0.00000000  0.27942076  0.81721245  1
  B  B23  1  -0.00000000  0.72057924  0.18278755  1
