# generated using pymatgen
data_Zn11(B4Rh9)2
_symmetry_space_group_name_H-M   'P 1'
_cell_length_a   2.88206810
_cell_length_b   17.89961884
_cell_length_c   17.89961884
_cell_angle_alpha   90.00000000
_cell_angle_beta   90.00000000
_cell_angle_gamma   90.00000000
_symmetry_Int_Tables_number   1
_chemical_formula_structural   Zn11(B4Rh9)2
_chemical_formula_sum   'Zn22 B16 Rh36'
_cell_volume   923.40411300
_cell_formula_units_Z   2
loop_
 _symmetry_equiv_pos_site_id
 _symmetry_equiv_pos_as_xyz
  1  'x, y, z'
loop_
 _atom_site_type_symbol
 _atom_site_label
 _atom_site_symmetry_multiplicity
 _atom_site_fract_x
 _atom_site_fract_y
 _atom_site_fract_z
 _atom_site_occupancy
  Zn  Zn0  1  -0.00000000  0.18757433  0.03227039  1
  Zn  Zn1  1  -0.00000000  0.81242567  0.96772961  1
  Zn  Zn2  1  -0.00000000  0.96772961  0.18757433  1
  Zn  Zn3  1  0.00000000  0.31242567  0.53227039  1
  Zn  Zn4  1  -0.00000000  0.03227039  0.81242567  1
  Zn  Zn5  1  -0.00000000  0.68757433  0.46772961  1
  Zn  Zn6  1  -0.00000000  0.53227039  0.68757433  1
  Zn  Zn7  1  0.00000000  0.46772961  0.31242567  1
  Zn  Zn8  1  -0.00000000  0.70892397  0.20892397  1
  Zn  Zn9  1  -0.00000000  0.29107603  0.79107603  1
  Zn  Zn10  1  0.00000000  0.79107603  0.70892397  1
  Zn  Zn11  1  0.00000000  0.20892397  0.29107603  1
  Zn  Zn12  1  -0.00000000  0.16859099  0.66859099  1
  Zn  Zn13  1  -0.00000000  0.83140901  0.33140901  1
  Zn  Zn14  1  0.00000000  0.33140901  0.16859099  1
  Zn  Zn15  1  0.00000000  0.66859099  0.83140901  1
  Zn  Zn16  1  -0.00000000  0.05049871  0.55049871  1
  Zn  Zn17  1  0.00000000  0.94950129  0.44950129  1
  Zn  Zn18  1  0.00000000  0.44950129  0.05049871  1
  Zn  Zn19  1  -0.00000000  0.55049871  0.94950129  1
  Zn  Zn20  1  -0.00000000  0.00000000  0.00000000  1
  Zn  Zn21  1  -0.00000000  0.50000000  0.50000000  1
  B  B22  1  -0.00000000  0.12380613  0.16650592  1
  B  B23  1  0.00000000  0.87619387  0.83349408  1
  B  B24  1  -0.00000000  0.83349408  0.12380613  1
  B  B25  1  0.00000000  0.37619387  0.66650592  1
  B  B26  1  0.00000000  0.16650592  0.87619387  1
  B  B27  1  -0.00000000  0.62380613  0.33349408  1
  B  B28  1  0.00000000  0.66650592  0.62380613  1
  B  B29  1  -0.00000000  0.33349408  0.37619387  1
  B  B30  1  -0.00000000  0.03893169  0.33438639  1
  B  B31  1  0.00000000  0.96106831  0.66561361  1
  B  B32  1  -0.00000000  0.66561361  0.03893169  1
  B  B33  1  -0.00000000  0.46106831  0.83438639  1
  B  B34  1  -0.00000000  0.33438639  0.96106831  1
  B  B35  1  -0.00000000  0.53893169  0.16561361  1
  B  B36  1  -0.00000000  0.83438639  0.53893169  1
  B  B37  1  0.00000000  0.16561361  0.46106831  1
  Rh  Rh38  1  0.50000000  0.08770340  0.25588345  1
  Rh  Rh39  1  0.50000000  0.91229660  0.74411655  1
  Rh  Rh40  1  0.50000000  0.74411655  0.08770340  1
  Rh  Rh41  1  0.50000000  0.41229660  0.75588345  1
  Rh  Rh42  1  0.50000000  0.25588345  0.91229660  1
  Rh  Rh43  1  0.50000000  0.58770340  0.24411655  1
  Rh  Rh44  1  0.50000000  0.75588345  0.58770340  1
  Rh  Rh45  1  0.50000000  0.24411655  0.41229660  1
  Rh  Rh46  1  0.50000000  0.32549358  0.04763213  1
  Rh  Rh47  1  0.50000000  0.67450642  0.95236787  1
  Rh  Rh48  1  0.50000000  0.95236787  0.32549358  1
  Rh  Rh49  1  0.50000000  0.17450642  0.54763213  1
  Rh  Rh50  1  0.50000000  0.04763213  0.67450642  1
  Rh  Rh51  1  0.50000000  0.82549358  0.45236787  1
  Rh  Rh52  1  0.50000000  0.54763213  0.82549358  1
  Rh  Rh53  1  0.50000000  0.45236787  0.17450642  1
  Rh  Rh54  1  0.50000000  0.06780075  0.09946878  1
  Rh  Rh55  1  0.50000000  0.93219925  0.90053122  1
  Rh  Rh56  1  0.50000000  0.90053122  0.06780075  1
  Rh  Rh57  1  0.50000000  0.43219925  0.59946878  1
  Rh  Rh58  1  0.50000000  0.09946878  0.93219925  1
  Rh  Rh59  1  0.50000000  0.56780075  0.40053122  1
  Rh  Rh60  1  0.50000000  0.59946878  0.56780075  1
  Rh  Rh61  1  0.50000000  0.40053122  0.43219925  1
  Rh  Rh62  1  0.50000000  0.58213145  0.08213145  1
  Rh  Rh63  1  0.50000000  0.41786855  0.91786855  1
  Rh  Rh64  1  0.50000000  0.91786855  0.58213145  1
  Rh  Rh65  1  0.50000000  0.08213145  0.41786855  1
  Rh  Rh66  1  0.50000000  0.21125185  0.16108931  1
  Rh  Rh67  1  0.50000000  0.78874815  0.83891069  1
  Rh  Rh68  1  0.50000000  0.83891069  0.21125185  1
  Rh  Rh69  1  0.50000000  0.28874815  0.66108931  1
  Rh  Rh70  1  0.50000000  0.16108931  0.78874815  1
  Rh  Rh71  1  0.50000000  0.71125185  0.33891069  1
  Rh  Rh72  1  0.50000000  0.66108931  0.71125185  1
  Rh  Rh73  1  0.50000000  0.33891069  0.28874815  1
