# generated using pymatgen
data_Fe2P3(HO3)3
_symmetry_space_group_name_H-M   'P 1'
_cell_length_a   8.15984662
_cell_length_b   8.15984662
_cell_length_c   7.48913517
_cell_angle_alpha   90.00000000
_cell_angle_beta   90.00000000
_cell_angle_gamma   120.00000002
_symmetry_Int_Tables_number   1
_chemical_formula_structural   Fe2P3(HO3)3
_chemical_formula_sum   'Fe4 P6 H6 O18'
_cell_volume   431.84340492
_cell_formula_units_Z   2
loop_
 _symmetry_equiv_pos_site_id
 _symmetry_equiv_pos_as_xyz
  1  'x, y, z'
loop_
 _atom_site_type_symbol
 _atom_site_label
 _atom_site_symmetry_multiplicity
 _atom_site_fract_x
 _atom_site_fract_y
 _atom_site_fract_z
 _atom_site_occupancy
  H  H0  1  0.81838444  0.83848739  0.75000000  1
  H  H1  1  0.97989705  0.81838444  0.25000000  1
  H  H2  1  0.83848739  0.02010295  0.25000000  1
  H  H3  1  0.16151261  0.97989705  0.75000000  1
  H  H4  1  0.02010295  0.18161556  0.75000000  1
  H  H5  1  0.18161556  0.16151261  0.25000000  1
  O  O6  1  0.56537448  0.83788275  0.42163575  1
  O  O7  1  0.72749173  0.56537448  0.92163575  1
  O  O8  1  0.83788275  0.27250827  0.92163575  1
  O  O9  1  0.16211725  0.72749173  0.42163575  1
  O  O10  1  0.51273448  0.38273702  0.25000000  1
  O  O11  1  0.12999746  0.51273448  0.75000000  1
  O  O12  1  0.38273702  0.87000254  0.75000000  1
  O  O13  1  0.61726298  0.12999746  0.25000000  1
  O  O14  1  0.87000254  0.48726552  0.25000000  1
  O  O15  1  0.48726552  0.61726298  0.75000000  1
  O  O16  1  0.56537448  0.83788275  0.07836425  1
  O  O17  1  0.72749173  0.56537448  0.57836425  1
  O  O18  1  0.83788275  0.27250827  0.57836425  1
  O  O19  1  0.16211725  0.72749173  0.07836425  1
  O  O20  1  0.27250827  0.43462552  0.07836425  1
  O  O21  1  0.43462552  0.16211725  0.57836425  1
  O  O22  1  0.43462552  0.16211725  0.92163575  1
  O  O23  1  0.27250827  0.43462552  0.42163575  1
  P  P24  1  0.35721611  0.04707618  0.75000000  1
  P  P25  1  0.31013992  0.35721611  0.25000000  1
  P  P26  1  0.04707618  0.68986008  0.25000000  1
  P  P27  1  0.95292382  0.31013992  0.75000000  1
  P  P28  1  0.68986008  0.64278389  0.75000000  1
  P  P29  1  0.64278389  0.95292382  0.25000000  1
  Fe  Fe30  1  0.33333333  0.66666667  0.95079211  1
  Fe  Fe31  1  0.66666667  0.33333333  0.45079211  1
  Fe  Fe32  1  0.66666667  0.33333333  0.04920789  1
  Fe  Fe33  1  0.33333333  0.66666667  0.54920789  1
