# generated using pymatgen
data_Yb9(Ni13P6)2
_symmetry_space_group_name_H-M   'P 1'
_cell_length_a   3.75423665
_cell_length_b   14.02399773
_cell_length_c   14.02399773
_cell_angle_alpha   119.99999921
_cell_angle_beta   90.00000000
_cell_angle_gamma   90.00000000
_symmetry_Int_Tables_number   1
_chemical_formula_structural   Yb9(Ni13P6)2
_chemical_formula_sum   'Yb9 Ni26 P12'
_cell_volume   639.43432553
_cell_formula_units_Z   1
loop_
 _symmetry_equiv_pos_site_id
 _symmetry_equiv_pos_as_xyz
  1  'x, y, z'
loop_
 _atom_site_type_symbol
 _atom_site_label
 _atom_site_symmetry_multiplicity
 _atom_site_fract_x
 _atom_site_fract_y
 _atom_site_fract_z
 _atom_site_occupancy
  Yb  Yb0  1  0.50000000  0.81023351  0.62046703  1
  Yb  Yb1  1  0.50000000  0.81023351  0.18976649  1
  Yb  Yb2  1  0.50000000  0.37953297  0.18976649  1
  Yb  Yb3  1  0.50000000  0.08906528  0.17813056  1
  Yb  Yb4  1  0.50000000  0.08906528  0.91093472  1
  Yb  Yb5  1  0.50000000  0.82186944  0.91093472  1
  Yb  Yb6  1  0.00000000  0.42497860  0.84995719  1
  Yb  Yb7  1  0.00000000  0.42497860  0.57502140  1
  Yb  Yb8  1  -0.00000000  0.15004281  0.57502140  1
  Ni  Ni9  1  0.00000000  0.19078381  0.38156763  1
  Ni  Ni10  1  0.00000000  0.19078381  0.80921619  1
  Ni  Ni11  1  -0.00000000  0.61843237  0.80921619  1
  Ni  Ni12  1  0.50000000  0.60088048  0.20176096  1
  Ni  Ni13  1  0.50000000  0.60088048  0.39911952  1
  Ni  Ni14  1  0.50000000  0.79823904  0.39911952  1
  Ni  Ni15  1  -0.00000000  0.72300983  0.44601966  1
  Ni  Ni16  1  -0.00000000  0.72300983  0.27699017  1
  Ni  Ni17  1  0.00000000  0.55398034  0.27699017  1
  Ni  Ni18  1  0.00000000  0.90662640  0.81325280  1
  Ni  Ni19  1  0.00000000  0.90662640  0.09337360  1
  Ni  Ni20  1  -0.00000000  0.18674720  0.09337360  1
  Ni  Ni21  1  0.50000000  0.62223321  0.67634267  1
  Ni  Ni22  1  0.50000000  0.05410946  0.37776679  1
  Ni  Ni23  1  0.50000000  0.05410946  0.67634267  1
  Ni  Ni24  1  0.50000000  0.32365733  0.94589054  1
  Ni  Ni25  1  0.50000000  0.32365733  0.37776679  1
  Ni  Ni26  1  0.50000000  0.62223321  0.94589054  1
  Ni  Ni27  1  0.00000000  0.92503867  0.37590564  1
  Ni  Ni28  1  -0.00000000  0.45086697  0.07496133  1
  Ni  Ni29  1  -0.00000000  0.45086697  0.37590564  1
  Ni  Ni30  1  0.00000000  0.62409436  0.54913303  1
  Ni  Ni31  1  0.00000000  0.62409436  0.07496133  1
  Ni  Ni32  1  0.00000000  0.92503867  0.54913303  1
  Ni  Ni33  1  0.50000000  0.33333300  0.66666700  1
  Ni  Ni34  1  -0.00000000  -0.00000000  0.00000000  1
  P  P35  1  0.50000000  0.51295037  0.02590074  1
  P  P36  1  0.50000000  0.51295037  0.48704963  1
  P  P37  1  0.50000000  0.97409926  0.48704963  1
  P  P38  1  0.00000000  0.00194262  0.27481536  1
  P  P39  1  0.00000000  0.27287274  0.99805738  1
  P  P40  1  0.00000000  0.27287274  0.27481536  1
  P  P41  1  -0.00000000  0.72518464  0.72712726  1
  P  P42  1  -0.00000000  0.72518464  0.99805738  1
  P  P43  1  -0.00000000  0.00194262  0.72712726  1
  P  P44  1  0.50000000  0.24209654  0.48419308  1
  P  P45  1  0.50000000  0.24209654  0.75790346  1
  P  P46  1  0.50000000  0.51580692  0.75790346  1
