# generated using pymatgen
data_YCoB4
_symmetry_space_group_name_H-M   'P 1'
_cell_length_a   3.39519884
_cell_length_b   5.90584023
_cell_length_c   11.42870759
_cell_angle_alpha   90.00000000
_cell_angle_beta   90.00000000
_cell_angle_gamma   90.00000000
_symmetry_Int_Tables_number   1
_chemical_formula_structural   YCoB4
_chemical_formula_sum   'Y4 Co4 B16'
_cell_volume   229.16275193
_cell_formula_units_Z   4
loop_
 _symmetry_equiv_pos_site_id
 _symmetry_equiv_pos_as_xyz
  1  'x, y, z'
loop_
 _atom_site_type_symbol
 _atom_site_label
 _atom_site_symmetry_multiplicity
 _atom_site_fract_x
 _atom_site_fract_y
 _atom_site_fract_z
 _atom_site_occupancy
  Y  Y0  1  0.50000000  0.37258287  0.15000419  1
  Y  Y1  1  0.50000000  0.62741713  0.84999581  1
  Y  Y2  1  0.50000000  0.12741713  0.65000419  1
  Y  Y3  1  0.50000000  0.87258287  0.34999581  1
  Co  Co4  1  0.50000000  0.36530491  0.41072501  1
  Co  Co5  1  0.50000000  0.63469509  0.58927499  1
  Co  Co6  1  0.50000000  0.13469509  0.91072501  1
  Co  Co7  1  0.50000000  0.86530491  0.08927499  1
  B  B8  1  -0.00000000  0.11087487  0.04580869  1
  B  B9  1  0.00000000  0.88912513  0.95419131  1
  B  B10  1  0.00000000  0.38912513  0.54580869  1
  B  B11  1  0.00000000  0.61087487  0.45419131  1
  B  B12  1  0.00000000  0.13914140  0.46770120  1
  B  B13  1  0.00000000  0.86085860  0.53229880  1
  B  B14  1  0.00000000  0.36085860  0.96770120  1
  B  B15  1  0.00000000  0.63914140  0.03229880  1
  B  B16  1  0.00000000  0.02328475  0.19081702  1
  B  B17  1  0.00000000  0.97671525  0.80918298  1
  B  B18  1  0.00000000  0.47671525  0.69081702  1
  B  B19  1  0.00000000  0.52328475  0.30918298  1
  B  B20  1  0.00000000  0.21873825  0.31548620  1
  B  B21  1  0.00000000  0.78126175  0.68451380  1
  B  B22  1  0.00000000  0.28126175  0.81548620  1
  B  B23  1  0.00000000  0.71873825  0.18451380  1
