# generated using pymatgen
data_Y2(Ga3Ir)3
_symmetry_space_group_name_H-M   'P 1'
_cell_length_a   7.60218127
_cell_length_b   7.60218127
_cell_length_c   9.51683577
_cell_angle_alpha   90.00000000
_cell_angle_beta   90.00000000
_cell_angle_gamma   119.93623428
_symmetry_Int_Tables_number   1
_chemical_formula_structural   Y2(Ga3Ir)3
_chemical_formula_sum   'Y4 Ga18 Ir6'
_cell_volume   476.62667491
_cell_formula_units_Z   2
loop_
 _symmetry_equiv_pos_site_id
 _symmetry_equiv_pos_as_xyz
  1  'x, y, z'
loop_
 _atom_site_type_symbol
 _atom_site_label
 _atom_site_symmetry_multiplicity
 _atom_site_fract_x
 _atom_site_fract_y
 _atom_site_fract_z
 _atom_site_occupancy
  Y  Y0  1  0.66776921  0.99687929  0.25000000  1
  Y  Y1  1  0.33223079  0.00312071  0.75000000  1
  Y  Y2  1  0.99687929  0.66776921  0.25000000  1
  Y  Y3  1  0.00312071  0.33223079  0.75000000  1
  Ga  Ga4  1  0.12695914  0.12695914  0.25000000  1
  Ga  Ga5  1  0.87304086  0.87304086  0.75000000  1
  Ga  Ga6  1  0.33381316  0.99944973  0.07972152  1
  Ga  Ga7  1  0.66618684  0.00055027  0.92027848  1
  Ga  Ga8  1  0.66618684  0.00055027  0.57972152  1
  Ga  Ga9  1  0.99944973  0.33381316  0.42027848  1
  Ga  Ga10  1  0.33381316  0.99944973  0.42027848  1
  Ga  Ga11  1  0.00055027  0.66618684  0.57972152  1
  Ga  Ga12  1  0.00055027  0.66618684  0.92027848  1
  Ga  Ga13  1  0.99944973  0.33381316  0.07972152  1
  Ga  Ga14  1  0.33296310  0.33296310  0.56337988  1
  Ga  Ga15  1  0.66703690  0.66703690  0.43662012  1
  Ga  Ga16  1  0.66703690  0.66703690  0.06337988  1
  Ga  Ga17  1  0.33296310  0.33296310  0.93662012  1
  Ga  Ga18  1  0.54574768  0.33872730  0.25000000  1
  Ga  Ga19  1  0.45425232  0.66127270  0.75000000  1
  Ga  Ga20  1  0.33872730  0.54574768  0.25000000  1
  Ga  Ga21  1  0.66127270  0.45425232  0.75000000  1
  Ir  Ir22  1  0.32858069  0.67141931  0.00000000  1
  Ir  Ir23  1  0.67141931  0.32858069  0.00000000  1
  Ir  Ir24  1  0.67141931  0.32858069  0.50000000  1
  Ir  Ir25  1  0.32858069  0.67141931  0.50000000  1
  Ir  Ir26  1  -0.00000000  -0.00000000  0.00000000  1
  Ir  Ir27  1  -0.00000000  -0.00000000  0.50000000  1
