# generated using pymatgen
data_TmPPd
_symmetry_space_group_name_H-M   'P 1'
_cell_length_a   3.97166172
_cell_length_b   6.84462680
_cell_length_c   7.72276635
_cell_angle_alpha   90.00000000
_cell_angle_beta   90.00000000
_cell_angle_gamma   90.00000000
_symmetry_Int_Tables_number   1
_chemical_formula_structural   TmPPd
_chemical_formula_sum   'Tm4 P4 Pd4'
_cell_volume   209.93986812
_cell_formula_units_Z   4
loop_
 _symmetry_equiv_pos_site_id
 _symmetry_equiv_pos_as_xyz
  1  'x, y, z'
loop_
 _atom_site_type_symbol
 _atom_site_label
 _atom_site_symmetry_multiplicity
 _atom_site_fract_x
 _atom_site_fract_y
 _atom_site_fract_z
 _atom_site_occupancy
  Tm  Tm0  1  0.75000000  0.96919893  0.31372542  1
  Tm  Tm1  1  0.25000000  0.03080107  0.68627458  1
  Tm  Tm2  1  0.25000000  0.53080107  0.81372542  1
  Tm  Tm3  1  0.75000000  0.46919893  0.18627458  1
  P  P4  1  0.75000000  0.74974929  0.62325399  1
  P  P5  1  0.25000000  0.25025071  0.37674601  1
  P  P6  1  0.25000000  0.75025071  0.12325399  1
  P  P7  1  0.75000000  0.24974929  0.87674601  1
  Pd  Pd8  1  0.75000000  0.85206034  0.93829926  1
  Pd  Pd9  1  0.25000000  0.14793966  0.06170074  1
  Pd  Pd10  1  0.25000000  0.64793966  0.43829926  1
  Pd  Pd11  1  0.75000000  0.35206034  0.56170074  1
