# generated using pymatgen
data_Yb4(Al8Pt3)3
_symmetry_space_group_name_H-M   'P 1'
_cell_length_a   7.47038208
_cell_length_b   7.51075279
_cell_length_c   13.41733415
_cell_angle_alpha   84.52290697
_cell_angle_beta   79.13821433
_cell_angle_gamma   59.94573076
_symmetry_Int_Tables_number   1
_chemical_formula_structural   Yb4(Al8Pt3)3
_chemical_formula_sum   'Yb4 Al24 Pt9'
_cell_volume   639.93218909
_cell_formula_units_Z   1
loop_
 _symmetry_equiv_pos_site_id
 _symmetry_equiv_pos_as_xyz
  1  'x, y, z'
loop_
 _atom_site_type_symbol
 _atom_site_label
 _atom_site_symmetry_multiplicity
 _atom_site_fract_x
 _atom_site_fract_y
 _atom_site_fract_z
 _atom_site_occupancy
  Yb  Yb0  1  0.39339997  0.16906608  0.80835243  1
  Yb  Yb1  1  0.60660003  0.83093392  0.19164757  1
  Yb  Yb2  1  0.73369585  0.49943720  0.80832687  1
  Yb  Yb3  1  0.26630415  0.50056280  0.19167313  1
  Al  Al4  1  0.68589393  0.83379601  0.94664579  1
  Al  Al5  1  0.31410607  0.16620399  0.05335421  1
  Al  Al6  1  0.14856721  0.83169941  0.55830756  1
  Al  Al7  1  0.85143279  0.16830059  0.44169244  1
  Al  Al8  1  0.47996130  0.16686537  0.55681240  1
  Al  Al9  1  0.52003870  0.83313463  0.44318760  1
  Al  Al10  1  0.21647027  0.16470913  0.32841353  1
  Al  Al11  1  0.78352973  0.83529087  0.67158647  1
  Al  Al12  1  0.43573231  0.50790658  0.67137907  1
  Al  Al13  1  0.56426769  0.49209342  0.32862093  1
  Al  Al14  1  0.10904362  0.15779231  0.67054055  1
  Al  Al15  1  0.89095638  0.84220769  0.32945945  1
  Al  Al16  1  0.35120632  0.50040339  0.94708643  1
  Al  Al17  1  0.64879368  0.49959661  0.05291357  1
  Al  Al18  1  0.01481711  0.16728361  0.95417664  1
  Al  Al19  1  0.98518289  0.83271639  0.04582336  1
  Al  Al20  1  0.18501017  0.49846444  0.44311782  1
  Al  Al21  1  0.81498983  0.50153556  0.55688218  1
  Al  Al22  1  0.73322874  0.16410358  0.18204204  1
  Al  Al23  1  0.26677126  0.83589642  0.81795796  1
  Al  Al24  1  0.06177577  0.63001758  0.81656323  1
  Al  Al25  1  0.93822423  0.36998242  0.18343677  1
  Al  Al26  1  0.85451404  0.04268265  0.81707757  1
  Al  Al27  1  0.14548596  0.95731735  0.18292243  1
  Pt  Pt28  1  0.12054902  0.49242493  0.63736586  1
  Pt  Pt29  1  0.87945098  0.50757507  0.36263414  1
  Pt  Pt30  1  0.65740378  0.17082551  0.99996994  1
  Pt  Pt31  1  0.34259622  0.82917449  0.00003006  1
  Pt  Pt32  1  0.53736843  0.16713240  0.36290693  1
  Pt  Pt33  1  0.46263157  0.83286760  0.63709307  1
  Pt  Pt34  1  0.77979483  0.17438676  0.63548378  1
  Pt  Pt35  1  0.22020517  0.82561324  0.36451622  1
  Pt  Pt36  1  -0.00000000  0.50000000  0.00000000  1
