# generated using pymatgen
data_Yb2Be2SiO7
_symmetry_space_group_name_H-M   'P 1'
_cell_length_a   4.93855090
_cell_length_b   7.29173679
_cell_length_c   7.29173679
_cell_angle_alpha   90.00000000
_cell_angle_beta   90.00000000
_cell_angle_gamma   90.00000000
_symmetry_Int_Tables_number   1
_chemical_formula_structural   Yb2Be2SiO7
_chemical_formula_sum   'Yb4 Be4 Si2 O14'
_cell_volume   262.57991373
_cell_formula_units_Z   2
loop_
 _symmetry_equiv_pos_site_id
 _symmetry_equiv_pos_as_xyz
  1  'x, y, z'
loop_
 _atom_site_type_symbol
 _atom_site_label
 _atom_site_symmetry_multiplicity
 _atom_site_fract_x
 _atom_site_fract_y
 _atom_site_fract_z
 _atom_site_occupancy
  Yb  Yb0  1  0.50787783  0.16517700  0.66517700  1
  Yb  Yb1  1  0.50787783  0.83482300  0.33482300  1
  Yb  Yb2  1  0.49212217  0.66517700  0.83482300  1
  Yb  Yb3  1  0.49212217  0.33482300  0.16517700  1
  Be  Be4  1  0.94657089  0.63666168  0.13666168  1
  Be  Be5  1  0.94657089  0.36333832  0.86333832  1
  Be  Be6  1  0.05342911  0.13666168  0.36333832  1
  Be  Be7  1  0.05342911  0.86333832  0.63666168  1
  Si  Si8  1  -0.00000000  -0.00000000  0.00000000  1
  Si  Si9  1  -0.00000000  0.50000000  0.50000000  1
  O  O10  1  0.19366782  -0.00000000  0.50000000  1
  O  O11  1  0.80633218  0.50000000  0.00000000  1
  O  O12  1  0.27218256  0.62404627  0.12404627  1
  O  O13  1  0.27218256  0.37595373  0.87595373  1
  O  O14  1  0.72781744  0.12404627  0.37595373  1
  O  O15  1  0.72781744  0.87595373  0.62404627  1
  O  O16  1  0.19421291  0.07921213  0.16486052  1
  O  O17  1  0.19421291  0.92078787  0.83513948  1
  O  O18  1  0.80578709  0.16486052  0.92078787  1
  O  O19  1  0.80578709  0.42078787  0.66486052  1
  O  O20  1  0.80578709  0.83513948  0.07921213  1
  O  O21  1  0.80578709  0.57921213  0.33513948  1
  O  O22  1  0.19421291  0.33513948  0.42078787  1
  O  O23  1  0.19421291  0.66486052  0.57921213  1
