# generated using pymatgen
data_Y8Te3
_symmetry_space_group_name_H-M   'P 1'
_cell_length_a   4.07562641
_cell_length_b   15.81028392
_cell_length_c   20.89535766
_cell_angle_alpha   82.84851887
_cell_angle_beta   84.40335137
_cell_angle_gamma   82.59445168
_symmetry_Int_Tables_number   1
_chemical_formula_structural   Y8Te3
_chemical_formula_sum   'Y32 Te12'
_cell_volume   1320.26194285
_cell_formula_units_Z   4
loop_
 _symmetry_equiv_pos_site_id
 _symmetry_equiv_pos_as_xyz
  1  'x, y, z'
loop_
 _atom_site_type_symbol
 _atom_site_label
 _atom_site_symmetry_multiplicity
 _atom_site_fract_x
 _atom_site_fract_y
 _atom_site_fract_z
 _atom_site_occupancy
  Y  Y0  1  0.48947979  0.58860015  0.43244027  1
  Y  Y1  1  0.51052021  0.41139985  0.56755973  1
  Y  Y2  1  0.66645545  0.51217922  0.15490988  1
  Y  Y3  1  0.33354455  0.48782078  0.84509012  1
  Y  Y4  1  0.79206042  0.28328475  0.13259441  1
  Y  Y5  1  0.20793958  0.71671525  0.86740559  1
  Y  Y6  1  0.12602598  0.68021198  0.06773605  1
  Y  Y7  1  0.87397402  0.31978802  0.93226395  1
  Y  Y8  1  0.80310160  0.64306391  0.75073289  1
  Y  Y9  1  0.19689840  0.35693609  0.24926711  1
  Y  Y10  1  0.93511717  0.07357356  0.05619210  1
  Y  Y11  1  0.06488283  0.92642644  0.94380790  1
  Y  Y12  1  0.90836654  0.77184145  0.41142548  1
  Y  Y13  1  0.09163346  0.22815855  0.58857452  1
  Y  Y14  1  0.82922757  0.00072385  0.34082102  1
  Y  Y15  1  0.17077243  0.99927615  0.65917898  1
  Y  Y16  1  0.78039707  0.83402747  0.60517838  1
  Y  Y17  1  0.21960293  0.16597253  0.39482162  1
  Y  Y18  1  0.92022008  0.58621141  0.57334843  1
  Y  Y19  1  0.07977992  0.41378859  0.42665157  1
  Y  Y20  1  0.26530055  0.43063429  0.03876462  1
  Y  Y21  1  0.73469945  0.56936571  0.96123538  1
  Y  Y22  1  0.95353849  0.37276772  0.72015531  1
  Y  Y23  1  0.04646151  0.62723228  0.27984469  1
  Y  Y24  1  0.70097354  0.06863273  0.52942019  1
  Y  Y25  1  0.29902646  0.93136727  0.47057981  1
  Y  Y26  1  0.34888709  0.10355281  0.19867301  1
  Y  Y27  1  0.65111291  0.89644719  0.80132699  1
  Y  Y28  1  0.50920807  0.89203080  0.08955305  1
  Y  Y29  1  0.49079193  0.10796920  0.91044695  1
  Y  Y30  1  0.43994869  0.83805101  0.28205161  1
  Y  Y31  1  0.56005131  0.16194899  0.71794839  1
  Te  Te32  1  0.62989606  0.26802593  0.47218194  1
  Te  Te33  1  0.37010394  0.73197407  0.52781806  1
  Te  Te34  1  0.37233936  0.22470271  0.03061858  1
  Te  Te35  1  0.62766064  0.77529729  0.96938142  1
  Te  Te36  1  0.92827554  0.95129394  0.19215498  1
  Te  Te37  1  0.07172446  0.04870606  0.80784502  1
  Te  Te38  1  0.55486753  0.71358648  0.17667846  1
  Te  Te39  1  0.44513247  0.28641352  0.82332154  1
  Te  Te40  1  0.60584251  0.47479454  0.31352044  1
  Te  Te41  1  0.39415749  0.52520546  0.68647956  1
  Te  Te42  1  0.75871591  0.20242293  0.28014524  1
  Te  Te43  1  0.24128409  0.79757707  0.71985476  1
