# generated using pymatgen
data_Y5SbPd2
_symmetry_space_group_name_H-M   'P 1'
_cell_length_a   7.77585730
_cell_length_b   7.77585730
_cell_length_c   8.81686100
_cell_angle_alpha   116.16548291
_cell_angle_beta   116.16548291
_cell_angle_gamma   90.00000000
_symmetry_Int_Tables_number   1
_chemical_formula_structural   Y5SbPd2
_chemical_formula_sum   'Y10 Sb2 Pd4'
_cell_volume   416.74122286
_cell_formula_units_Z   2
loop_
 _symmetry_equiv_pos_site_id
 _symmetry_equiv_pos_as_xyz
  1  'x, y, z'
loop_
 _atom_site_type_symbol
 _atom_site_label
 _atom_site_symmetry_multiplicity
 _atom_site_fract_x
 _atom_site_fract_y
 _atom_site_fract_z
 _atom_site_occupancy
  Y  Y0  1  -0.00000000  -0.00000000  -0.00000000  1
  Y  Y1  1  0.50000000  0.50000000  -0.00000000  1
  Y  Y2  1  0.29913867  0.79913867  0.28579272  1
  Y  Y3  1  0.70086133  0.20086133  0.71420728  1
  Y  Y4  1  0.98665405  0.48665405  0.28579272  1
  Y  Y5  1  0.48665405  0.29913867  0.28579272  1
  Y  Y6  1  0.20086133  0.01334595  0.71420728  1
  Y  Y7  1  0.01334595  0.51334595  0.71420728  1
  Y  Y8  1  0.51334595  0.70086133  0.71420728  1
  Y  Y9  1  0.79913867  0.98665405  0.28579272  1
  Sb  Sb10  1  0.25000000  0.25000000  0.50000000  1
  Sb  Sb11  1  0.75000000  0.75000000  0.50000000  1
  Pd  Pd12  1  0.63588715  0.13588715  0.00000000  1
  Pd  Pd13  1  0.36411285  0.86411285  1.00000000  1
  Pd  Pd14  1  0.86411285  0.63588715  -0.00000000  1
  Pd  Pd15  1  0.13588715  0.36411285  -0.00000000  1
