# generated using pymatgen
data_PrTl(WO4)2
_symmetry_space_group_name_H-M   'P 1'
_cell_length_a   8.21698141
_cell_length_b   8.21698141
_cell_length_c   7.89447886
_cell_angle_alpha   118.66354294
_cell_angle_beta   118.66354294
_cell_angle_gamma   91.46854119
_symmetry_Int_Tables_number   1
_chemical_formula_structural   PrTl(WO4)2
_chemical_formula_sum   'Pr2 Tl2 W4 O16'
_cell_volume   387.09283313
_cell_formula_units_Z   2
loop_
 _symmetry_equiv_pos_site_id
 _symmetry_equiv_pos_as_xyz
  1  'x, y, z'
loop_
 _atom_site_type_symbol
 _atom_site_label
 _atom_site_symmetry_multiplicity
 _atom_site_fract_x
 _atom_site_fract_y
 _atom_site_fract_z
 _atom_site_occupancy
  Pr  Pr0  1  0.73553738  0.73553738  0.56596285  1
  Pr  Pr1  1  0.26446262  0.26446262  0.43403715  1
  Tl  Tl2  1  0.71883294  0.28116706  0.00000000  1
  Tl  Tl3  1  0.28116706  0.71883294  0.00000000  1
  W  W4  1  0.24364352  0.24364352  0.00043997  1
  W  W5  1  0.75635648  0.75635648  -0.00043997  1
  W  W6  1  0.84321113  0.15678887  0.50000000  1
  W  W7  1  0.15678887  0.84321113  0.50000000  1
  O  O8  1  0.33103007  0.09827739  0.79000427  1
  O  O9  1  0.66896993  0.90172261  0.20999573  1
  O  O10  1  0.90172261  0.66896993  0.20999573  1
  O  O11  1  0.09827739  0.33103007  0.79000427  1
  O  O12  1  0.67915495  0.17981350  0.59320059  1
  O  O13  1  0.32084505  0.82018650  0.40679941  1
  O  O14  1  0.82018650  0.32084505  0.40679941  1
  O  O15  1  0.17981350  0.67915495  0.59320059  1
  O  O16  1  0.67795312  0.89496366  0.85780711  1
  O  O17  1  0.32204688  0.10503634  0.14219289  1
  O  O18  1  0.10503634  0.32204688  0.14219289  1
  O  O19  1  0.89496366  0.67795312  0.85780711  1
  O  O20  1  0.97349866  0.97349866  0.65100149  1
  O  O21  1  0.02650134  0.02650134  0.34899851  1
  O  O22  1  0.53613055  0.53613055  0.79516376  1
  O  O23  1  0.46386945  0.46386945  0.20483624  1
