# generated using pymatgen
data_VFe2BO5
_symmetry_space_group_name_H-M   'P 1'
_cell_length_a   3.10743516
_cell_length_b   9.64903787
_cell_length_c   12.50326512
_cell_angle_alpha   90.00000000
_cell_angle_beta   90.00000000
_cell_angle_gamma   90.00000000
_symmetry_Int_Tables_number   1
_chemical_formula_structural   VFe2BO5
_chemical_formula_sum   'V4 Fe8 B4 O20'
_cell_volume   374.89489479
_cell_formula_units_Z   4
loop_
 _symmetry_equiv_pos_site_id
 _symmetry_equiv_pos_as_xyz
  1  'x, y, z'
loop_
 _atom_site_type_symbol
 _atom_site_label
 _atom_site_symmetry_multiplicity
 _atom_site_fract_x
 _atom_site_fract_y
 _atom_site_fract_z
 _atom_site_occupancy
  V  V0  1  -0.00000000  0.24482401  0.38695779  1
  V  V1  1  -0.00000000  0.75517599  0.61304221  1
  V  V2  1  0.00000000  0.25517599  0.88695779  1
  V  V3  1  0.00000000  0.74482401  0.11304221  1
  Fe  Fe4  1  0.50000000  0.00000000  0.50000000  1
  Fe  Fe5  1  0.50000000  0.50000000  -0.00000000  1
  Fe  Fe6  1  0.50000000  0.00127168  0.22438819  1
  Fe  Fe7  1  0.50000000  0.99872832  0.77561181  1
  Fe  Fe8  1  0.50000000  0.49872832  0.72438819  1
  Fe  Fe9  1  0.50000000  0.50127168  0.27561181  1
  Fe  Fe10  1  -0.00000000  0.00000000  -0.00000000  1
  Fe  Fe11  1  -0.00000000  0.50000000  0.50000000  1
  B  B12  1  -0.00000000  0.26951326  0.13848286  1
  B  B13  1  -0.00000000  0.73048674  0.86151714  1
  B  B14  1  -0.00000000  0.23048674  0.63848286  1
  B  B15  1  -0.00000000  0.76951326  0.36151714  1
  O  O16  1  0.50000000  0.11297969  0.36013741  1
  O  O17  1  0.50000000  0.88702031  0.63986259  1
  O  O18  1  0.50000000  0.38702031  0.86013741  1
  O  O19  1  0.50000000  0.61297969  0.13986259  1
  O  O20  1  0.00000000  0.12554875  0.13903580  1
  O  O21  1  -0.00000000  0.87445125  0.86096420  1
  O  O22  1  -0.00000000  0.37445125  0.63903580  1
  O  O23  1  -0.00000000  0.62554875  0.36096420  1
  O  O24  1  0.50000000  0.38349390  0.41698973  1
  O  O25  1  0.50000000  0.61650610  0.58301027  1
  O  O26  1  0.50000000  0.11650610  0.91698973  1
  O  O27  1  0.50000000  0.88349390  0.08301027  1
  O  O28  1  0.00000000  0.34170406  0.23511919  1
  O  O29  1  -0.00000000  0.65829594  0.76488081  1
  O  O30  1  -0.00000000  0.15829594  0.73511919  1
  O  O31  1  -0.00000000  0.84170406  0.26488081  1
  O  O32  1  -0.00000000  0.34357837  0.04298288  1
  O  O33  1  -0.00000000  0.65642163  0.95701712  1
  O  O34  1  -0.00000000  0.15642163  0.54298288  1
  O  O35  1  -0.00000000  0.84357837  0.45701712  1
