# generated using pymatgen
data_Tm(Al5Fe)2
_symmetry_space_group_name_H-M   'P 1'
_cell_length_a   6.73760613
_cell_length_b   6.73760613
_cell_length_c   8.94977531
_cell_angle_alpha   90.00000000
_cell_angle_beta   90.00000000
_cell_angle_gamma   97.07066839
_symmetry_Int_Tables_number   1
_chemical_formula_structural   Tm(Al5Fe)2
_chemical_formula_sum   'Tm2 Al20 Fe4'
_cell_volume   403.18835028
_cell_formula_units_Z   2
loop_
 _symmetry_equiv_pos_site_id
 _symmetry_equiv_pos_as_xyz
  1  'x, y, z'
loop_
 _atom_site_type_symbol
 _atom_site_label
 _atom_site_symmetry_multiplicity
 _atom_site_fract_x
 _atom_site_fract_y
 _atom_site_fract_z
 _atom_site_occupancy
  Tm  Tm0  1  0.87480768  0.12519232  0.75000000  1
  Tm  Tm1  1  0.12519232  0.87480768  0.25000000  1
  Al  Al2  1  0.62572076  0.37427924  0.95252768  1
  Al  Al3  1  0.37427924  0.62572076  0.04747232  1
  Al  Al4  1  0.37427924  0.62572076  0.45252768  1
  Al  Al5  1  0.62572076  0.37427924  0.54747232  1
  Al  Al6  1  0.77313013  0.77313013  -0.00000000  1
  Al  Al7  1  0.22686987  0.22686987  -0.00000000  1
  Al  Al8  1  0.22686987  0.22686987  0.50000000  1
  Al  Al9  1  0.77313013  0.77313013  0.50000000  1
  Al  Al10  1  0.84337214  0.15662786  0.40367681  1
  Al  Al11  1  0.15662786  0.84337214  0.59632319  1
  Al  Al12  1  0.15662786  0.84337214  0.90367681  1
  Al  Al13  1  0.84337214  0.15662786  0.09632319  1
  Al  Al14  1  0.41527593  0.13409285  0.75000000  1
  Al  Al15  1  0.58472407  0.86590715  0.25000000  1
  Al  Al16  1  0.86590715  0.58472407  0.75000000  1
  Al  Al17  1  0.13409285  0.41527593  0.25000000  1
  Al  Al18  1  0.52346336  0.77973914  0.75000000  1
  Al  Al19  1  0.47653664  0.22026086  0.25000000  1
  Al  Al20  1  0.22026086  0.47653664  0.75000000  1
  Al  Al21  1  0.77973914  0.52346336  0.25000000  1
  Fe  Fe22  1  0.50000000  -0.00000000  0.00000000  1
  Fe  Fe23  1  0.50000000  0.00000000  0.50000000  1
  Fe  Fe24  1  -0.00000000  0.50000000  0.50000000  1
  Fe  Fe25  1  0.00000000  0.50000000  0.00000000  1
