# generated using pymatgen
data_TmCoB4
_symmetry_space_group_name_H-M   'P 1'
_cell_length_a   3.35068675
_cell_length_b   5.86695631
_cell_length_c   11.35277127
_cell_angle_alpha   90.00000000
_cell_angle_beta   90.00000000
_cell_angle_gamma   90.00000000
_symmetry_Int_Tables_number   1
_chemical_formula_structural   TmCoB4
_chemical_formula_sum   'Tm4 Co4 B16'
_cell_volume   223.17655550
_cell_formula_units_Z   4
loop_
 _symmetry_equiv_pos_site_id
 _symmetry_equiv_pos_as_xyz
  1  'x, y, z'
loop_
 _atom_site_type_symbol
 _atom_site_label
 _atom_site_symmetry_multiplicity
 _atom_site_fract_x
 _atom_site_fract_y
 _atom_site_fract_z
 _atom_site_occupancy
  Tm  Tm0  1  0.50000000  0.37250482  0.14987907  1
  Tm  Tm1  1  0.50000000  0.62749518  0.85012093  1
  Tm  Tm2  1  0.50000000  0.12749518  0.64987907  1
  Tm  Tm3  1  0.50000000  0.87250482  0.35012093  1
  Co  Co4  1  0.50000000  0.36494648  0.41043703  1
  Co  Co5  1  0.50000000  0.63505352  0.58956297  1
  Co  Co6  1  0.50000000  0.13505352  0.91043703  1
  Co  Co7  1  0.50000000  0.86494648  0.08956297  1
  B  B8  1  0.00000000  0.11187993  0.04639415  1
  B  B9  1  0.00000000  0.88812007  0.95360585  1
  B  B10  1  0.00000000  0.38812007  0.54639415  1
  B  B11  1  0.00000000  0.61187993  0.45360585  1
  B  B12  1  0.00000000  0.13792711  0.46785136  1
  B  B13  1  0.00000000  0.86207289  0.53214864  1
  B  B14  1  0.00000000  0.36207289  0.96785136  1
  B  B15  1  -0.00000000  0.63792711  0.03214864  1
  B  B16  1  0.00000000  0.02343700  0.19162991  1
  B  B17  1  0.00000000  0.97656300  0.80837009  1
  B  B18  1  0.00000000  0.47656300  0.69162991  1
  B  B19  1  0.00000000  0.52343700  0.30837009  1
  B  B20  1  0.00000000  0.21721806  0.31476974  1
  B  B21  1  0.00000000  0.78278194  0.68523026  1
  B  B22  1  0.00000000  0.28278194  0.81476974  1
  B  B23  1  0.00000000  0.71721806  0.18523026  1
