# generated using pymatgen
data_Tm4MgRh
_symmetry_space_group_name_H-M   'P 1'
_cell_length_a   9.58254739
_cell_length_b   9.58254739
_cell_length_c   9.58254739
_cell_angle_alpha   60.00000000
_cell_angle_beta   60.00000000
_cell_angle_gamma   60.00000000
_symmetry_Int_Tables_number   1
_chemical_formula_structural   Tm4MgRh
_chemical_formula_sum   'Tm16 Mg4 Rh4'
_cell_volume   622.19702355
_cell_formula_units_Z   4
loop_
 _symmetry_equiv_pos_site_id
 _symmetry_equiv_pos_as_xyz
  1  'x, y, z'
loop_
 _atom_site_type_symbol
 _atom_site_label
 _atom_site_symmetry_multiplicity
 _atom_site_fract_x
 _atom_site_fract_y
 _atom_site_fract_z
 _atom_site_occupancy
  Tm  Tm0  1  0.65292112  0.65292112  0.65292112  1
  Tm  Tm1  1  0.04123664  0.65292112  0.65292112  1
  Tm  Tm2  1  0.65292112  0.04123664  0.65292112  1
  Tm  Tm3  1  0.65292112  0.65292112  0.04123664  1
  Tm  Tm4  1  0.81294830  0.81294830  0.18705170  1
  Tm  Tm5  1  0.18705170  0.18705170  0.81294830  1
  Tm  Tm6  1  0.81294830  0.18705170  0.81294830  1
  Tm  Tm7  1  0.18705170  0.81294830  0.18705170  1
  Tm  Tm8  1  0.18705170  0.81294830  0.81294830  1
  Tm  Tm9  1  0.81294830  0.18705170  0.18705170  1
  Tm  Tm10  1  0.43602490  0.43602490  0.06397510  1
  Tm  Tm11  1  0.06397510  0.06397510  0.43602490  1
  Tm  Tm12  1  0.43602490  0.06397510  0.43602490  1
  Tm  Tm13  1  0.06397510  0.43602490  0.06397510  1
  Tm  Tm14  1  0.06397510  0.43602490  0.43602490  1
  Tm  Tm15  1  0.43602490  0.06397510  0.06397510  1
  Mg  Mg16  1  0.42022110  0.42022110  0.42022110  1
  Mg  Mg17  1  0.73933669  0.42022110  0.42022110  1
  Mg  Mg18  1  0.42022110  0.73933669  0.42022110  1
  Mg  Mg19  1  0.42022110  0.42022110  0.73933669  1
  Rh  Rh20  1  0.85806369  0.85806369  0.85806369  1
  Rh  Rh21  1  0.42580892  0.85806369  0.85806369  1
  Rh  Rh22  1  0.85806369  0.42580892  0.85806369  1
  Rh  Rh23  1  0.85806369  0.85806369  0.42580892  1
