# generated using pymatgen
data_Tb5(SiB4)2
_symmetry_space_group_name_H-M   'P 1'
_cell_length_a   7.25732178
_cell_length_b   7.25732178
_cell_length_c   8.14175301
_cell_angle_alpha   90.00000000
_cell_angle_beta   90.00000000
_cell_angle_gamma   90.00000000
_symmetry_Int_Tables_number   1
_chemical_formula_structural   Tb5(SiB4)2
_chemical_formula_sum   'Tb10 Si4 B16'
_cell_volume   428.81570486
_cell_formula_units_Z   2
loop_
 _symmetry_equiv_pos_site_id
 _symmetry_equiv_pos_as_xyz
  1  'x, y, z'
loop_
 _atom_site_type_symbol
 _atom_site_label
 _atom_site_symmetry_multiplicity
 _atom_site_fract_x
 _atom_site_fract_y
 _atom_site_fract_z
 _atom_site_occupancy
  Tb  Tb0  1  0.68042378  0.18042378  0.22426858  1
  Tb  Tb1  1  0.31957622  0.81957622  0.77573142  1
  Tb  Tb2  1  0.31957622  0.81957622  0.22426858  1
  Tb  Tb3  1  0.81957622  0.68042378  0.22426858  1
  Tb  Tb4  1  0.81957622  0.68042378  0.77573142  1
  Tb  Tb5  1  0.68042378  0.18042378  0.77573142  1
  Tb  Tb6  1  0.18042378  0.31957622  0.77573142  1
  Tb  Tb7  1  0.18042378  0.31957622  0.22426858  1
  Tb  Tb8  1  0.00000000  -0.00000000  0.50000000  1
  Tb  Tb9  1  0.50000000  0.50000000  0.50000000  1
  Si  Si10  1  0.11440056  0.61440056  0.50000000  1
  Si  Si11  1  0.88559944  0.38559944  0.50000000  1
  Si  Si12  1  0.38559944  0.11440056  0.50000000  1
  Si  Si13  1  0.61440056  0.88559944  0.50000000  1
  B  B14  1  0.17247295  0.03913142  -0.00000000  1
  B  B15  1  0.82752705  0.96086858  -0.00000000  1
  B  B16  1  0.96086858  0.17247295  -0.00000000  1
  B  B17  1  0.32752705  0.53913142  -0.00000000  1
  B  B18  1  0.03913142  0.82752705  -0.00000000  1
  B  B19  1  0.67247295  0.46086858  -0.00000000  1
  B  B20  1  0.53913142  0.67247295  -0.00000000  1
  B  B21  1  0.46086858  0.32752705  -0.00000000  1
  B  B22  1  0.09005286  0.59005286  -0.00000000  1
  B  B23  1  0.90994714  0.40994714  -0.00000000  1
  B  B24  1  0.40994714  0.09005286  -0.00000000  1
  B  B25  1  0.59005286  0.90994714  -0.00000000  1
  B  B26  1  0.00000000  -0.00000000  0.16127383  1
  B  B27  1  0.00000000  -0.00000000  0.83872617  1
  B  B28  1  0.50000000  0.50000000  0.83872617  1
  B  B29  1  0.50000000  0.50000000  0.16127383  1
