# generated using pymatgen
data_Tm5Ga3
_symmetry_space_group_name_H-M   'P 1'
_cell_length_a   6.40211841
_cell_length_b   8.49834511
_cell_length_c   8.49834511
_cell_angle_alpha   119.99090183
_cell_angle_beta   90.83261617
_cell_angle_gamma   90.83261617
_symmetry_Int_Tables_number   1
_chemical_formula_structural   Tm5Ga3
_chemical_formula_sum   'Tm10 Ga6'
_cell_volume   400.29432209
_cell_formula_units_Z   2
loop_
 _symmetry_equiv_pos_site_id
 _symmetry_equiv_pos_as_xyz
  1  'x, y, z'
loop_
 _atom_site_type_symbol
 _atom_site_label
 _atom_site_symmetry_multiplicity
 _atom_site_fract_x
 _atom_site_fract_y
 _atom_site_fract_z
 _atom_site_occupancy
  Tm  Tm0  1  0.50000000  0.85281876  0.14718124  1
  Tm  Tm1  1  0.50000000  0.14718124  0.85281876  1
  Tm  Tm2  1  -0.00000000  0.81719026  0.18280974  1
  Tm  Tm3  1  -0.00000000  0.18280974  0.81719026  1
  Tm  Tm4  1  0.73762308  0.50184037  0.74356637  1
  Tm  Tm5  1  0.26237692  0.49815963  0.25643363  1
  Tm  Tm6  1  0.26237692  0.25643363  0.49815963  1
  Tm  Tm7  1  0.73762308  0.74356637  0.50184037  1
  Tm  Tm8  1  0.77093311  0.26581734  0.26581734  1
  Tm  Tm9  1  0.22906689  0.73418266  0.73418266  1
  Ga  Ga10  1  0.80738697  0.90483202  0.90483202  1
  Ga  Ga11  1  0.19261303  0.09516798  0.09516798  1
  Ga  Ga12  1  0.71428178  0.50053391  0.09708217  1
  Ga  Ga13  1  0.28571822  0.49946609  0.90291783  1
  Ga  Ga14  1  0.28571822  0.90291783  0.49946609  1
  Ga  Ga15  1  0.71428178  0.09708217  0.50053391  1
