# generated using pymatgen
data_TbZrF7
_symmetry_space_group_name_H-M   'P 1'
_cell_length_a   5.73954129
_cell_length_b   6.15363795
_cell_length_c   8.33503217
_cell_angle_alpha   101.89711118
_cell_angle_beta   90.00000000
_cell_angle_gamma   90.00000000
_symmetry_Int_Tables_number   1
_chemical_formula_structural   TbZrF7
_chemical_formula_sum   'Tb2 Zr2 F14'
_cell_volume   288.06191084
_cell_formula_units_Z   2
loop_
 _symmetry_equiv_pos_site_id
 _symmetry_equiv_pos_as_xyz
  1  'x, y, z'
loop_
 _atom_site_type_symbol
 _atom_site_label
 _atom_site_symmetry_multiplicity
 _atom_site_fract_x
 _atom_site_fract_y
 _atom_site_fract_z
 _atom_site_occupancy
  Tb  Tb0  1  0.69721155  0.65517074  0.68407387  1
  Tb  Tb1  1  0.19721155  0.34482926  0.31592613  1
  Zr  Zr2  1  0.70705140  0.81149368  0.22373178  1
  Zr  Zr3  1  0.20705140  0.18850632  0.77626822  1
  F  F4  1  0.89009983  0.45461147  0.47721087  1
  F  F5  1  0.39009983  0.54538853  0.52278913  1
  F  F6  1  0.42645484  0.92552139  0.76841657  1
  F  F7  1  0.92645484  0.07447861  0.23158343  1
  F  F8  1  0.94455008  0.95936981  0.75965303  1
  F  F9  1  0.44455008  0.04063019  0.24034697  1
  F  F10  1  0.99443569  0.45673062  0.78645197  1
  F  F11  1  0.49443569  0.54326938  0.21354803  1
  F  F12  1  0.70344136  0.75459773  0.97515795  1
  F  F13  1  0.20344136  0.24540227  0.02484205  1
  F  F14  1  0.71061329  0.85939519  0.47313164  1
  F  F15  1  0.21061329  0.14060481  0.52686836  1
  F  F16  1  0.50250195  0.37871578  0.78155977  1
  F  F17  1  0.00250195  0.62128422  0.21844023  1
