# generated using pymatgen
data_Tb(Al5Ru)2
_symmetry_space_group_name_H-M   'P 1'
_cell_length_a   6.86102561
_cell_length_b   6.86102561
_cell_length_c   9.15719749
_cell_angle_alpha   90.00000000
_cell_angle_beta   90.00000000
_cell_angle_gamma   96.86324675
_symmetry_Int_Tables_number   1
_chemical_formula_structural   Tb(Al5Ru)2
_chemical_formula_sum   'Tb2 Al20 Ru4'
_cell_volume   427.97400528
_cell_formula_units_Z   2
loop_
 _symmetry_equiv_pos_site_id
 _symmetry_equiv_pos_as_xyz
  1  'x, y, z'
loop_
 _atom_site_type_symbol
 _atom_site_label
 _atom_site_symmetry_multiplicity
 _atom_site_fract_x
 _atom_site_fract_y
 _atom_site_fract_z
 _atom_site_occupancy
  Tb  Tb0  1  0.87385075  0.12614925  0.75000000  1
  Tb  Tb1  1  0.12614925  0.87385075  0.25000000  1
  Al  Al2  1  0.62348787  0.37651213  0.95074173  1
  Al  Al3  1  0.37651213  0.62348787  0.04925827  1
  Al  Al4  1  0.37651213  0.62348787  0.45074173  1
  Al  Al5  1  0.62348787  0.37651213  0.54925827  1
  Al  Al6  1  0.77261003  0.77261003  -0.00000000  1
  Al  Al7  1  0.22738997  0.22738997  -0.00000000  1
  Al  Al8  1  0.22738997  0.22738997  0.50000000  1
  Al  Al9  1  0.77261003  0.77261003  0.50000000  1
  Al  Al10  1  0.84339242  0.15660758  0.40043447  1
  Al  Al11  1  0.15660758  0.84339242  0.59956553  1
  Al  Al12  1  0.15660758  0.84339242  0.90043447  1
  Al  Al13  1  0.84339242  0.15660758  0.09956553  1
  Al  Al14  1  0.41395688  0.13889689  0.75000000  1
  Al  Al15  1  0.58604312  0.86110311  0.25000000  1
  Al  Al16  1  0.86110311  0.58604312  0.75000000  1
  Al  Al17  1  0.13889689  0.41395688  0.25000000  1
  Al  Al18  1  0.52011143  0.77756810  0.75000000  1
  Al  Al19  1  0.47988857  0.22243190  0.25000000  1
  Al  Al20  1  0.22243190  0.47988857  0.75000000  1
  Al  Al21  1  0.77756810  0.52011143  0.25000000  1
  Ru  Ru22  1  0.50000000  0.00000000  0.00000000  1
  Ru  Ru23  1  0.50000000  0.00000000  0.50000000  1
  Ru  Ru24  1  -0.00000000  0.50000000  0.50000000  1
  Ru  Ru25  1  -0.00000000  0.50000000  0.00000000  1
