# generated using pymatgen
data_Tb2NiB10
_symmetry_space_group_name_H-M   'P 1'
_cell_length_a   4.14694792
_cell_length_b   5.55916022
_cell_length_c   11.10066661
_cell_angle_alpha   90.00000000
_cell_angle_beta   90.00000000
_cell_angle_gamma   90.00000000
_symmetry_Int_Tables_number   1
_chemical_formula_structural   Tb2NiB10
_chemical_formula_sum   'Tb4 Ni2 B20'
_cell_volume   255.90974954
_cell_formula_units_Z   2
loop_
 _symmetry_equiv_pos_site_id
 _symmetry_equiv_pos_as_xyz
  1  'x, y, z'
loop_
 _atom_site_type_symbol
 _atom_site_label
 _atom_site_symmetry_multiplicity
 _atom_site_fract_x
 _atom_site_fract_y
 _atom_site_fract_z
 _atom_site_occupancy
  Tb  Tb0  1  0.50000000  0.19328357  0.36363339  1
  Tb  Tb1  1  0.50000000  0.80671643  0.63636661  1
  Tb  Tb2  1  0.50000000  0.30671643  0.86363339  1
  Tb  Tb3  1  0.50000000  0.69328357  0.13636661  1
  Ni  Ni4  1  0.00000000  -0.00000000  0.00000000  1
  Ni  Ni5  1  0.00000000  0.50000000  0.50000000  1
  B  B6  1  0.00000000  0.37511015  0.04101343  1
  B  B7  1  0.00000000  0.62488985  0.95898657  1
  B  B8  1  0.00000000  0.12488985  0.54101343  1
  B  B9  1  0.00000000  0.87511015  0.45898657  1
  B  B10  1  0.00000000  0.34624088  0.19736076  1
  B  B11  1  0.00000000  0.65375912  0.80263924  1
  B  B12  1  0.00000000  0.15375912  0.69736076  1
  B  B13  1  0.00000000  0.84624088  0.30263924  1
  B  B14  1  0.00000000  0.03564977  0.18800674  1
  B  B15  1  0.00000000  0.96435023  0.81199326  1
  B  B16  1  0.00000000  0.46435023  0.68800674  1
  B  B17  1  0.00000000  0.53564977  0.31199326  1
  B  B18  1  0.30088845  0.20353948  0.11386463  1
  B  B19  1  0.69911155  0.79646052  0.88613537  1
  B  B20  1  0.30088845  0.79646052  0.88613537  1
  B  B21  1  0.69911155  0.29646052  0.61386463  1
  B  B22  1  0.69911155  0.20353948  0.11386463  1
  B  B23  1  0.30088845  0.70353948  0.38613537  1
  B  B24  1  0.69911155  0.70353948  0.38613537  1
  B  B25  1  0.30088845  0.29646052  0.61386463  1
