# generated using pymatgen
data_Sr5P3O13
_symmetry_space_group_name_H-M   'P 1'
_cell_length_a   7.35430804
_cell_length_b   9.90671949
_cell_length_c   9.90671949
_cell_angle_alpha   119.99999364
_cell_angle_beta   90.00000000
_cell_angle_gamma   90.00000000
_symmetry_Int_Tables_number   1
_chemical_formula_structural   Sr5P3O13
_chemical_formula_sum   'Sr10 P6 O26'
_cell_volume   625.07511304
_cell_formula_units_Z   2
loop_
 _symmetry_equiv_pos_site_id
 _symmetry_equiv_pos_as_xyz
  1  'x, y, z'
loop_
 _atom_site_type_symbol
 _atom_site_label
 _atom_site_symmetry_multiplicity
 _atom_site_fract_x
 _atom_site_fract_y
 _atom_site_fract_z
 _atom_site_occupancy
  Sr  Sr0  1  0.00031090  0.66666700  0.33333300  1
  Sr  Sr1  1  0.99968910  0.33333300  0.66666700  1
  Sr  Sr2  1  0.50031090  0.33333300  0.66666700  1
  Sr  Sr3  1  0.49968910  0.66666700  0.33333300  1
  Sr  Sr4  1  0.75000000  0.75619584  0.01047978  1
  Sr  Sr5  1  0.25000000  0.24380416  0.98952022  1
  Sr  Sr6  1  0.75000000  0.25428394  0.24380416  1
  Sr  Sr7  1  0.25000000  0.74571606  0.75619584  1
  Sr  Sr8  1  0.75000000  0.98952022  0.74571606  1
  Sr  Sr9  1  0.25000000  0.01047978  0.25428394  1
  P  P10  1  0.75000000  0.60157608  0.63152827  1
  P  P11  1  0.25000000  0.39842392  0.36847173  1
  P  P12  1  0.75000000  0.02995220  0.39842392  1
  P  P13  1  0.25000000  0.97004780  0.60157608  1
  P  P14  1  0.75000000  0.36847173  0.97004780  1
  P  P15  1  0.25000000  0.63152827  0.02995220  1
  O  O16  1  0.75000000  0.85025223  0.32956165  1
  O  O17  1  0.25000000  0.14974777  0.67043835  1
  O  O18  1  0.75000000  0.47930943  0.14974777  1
  O  O19  1  0.25000000  0.52069057  0.85025223  1
  O  O20  1  0.75000000  0.67043835  0.52069057  1
  O  O21  1  0.25000000  0.32956165  0.47930943  1
  O  O22  1  0.75000000  0.00000000  -0.00000000  1
  O  O23  1  0.25000000  0.00000000  -0.00000000  1
  O  O24  1  0.75000000  0.41984073  0.53775897  1
  O  O25  1  0.25000000  0.58015927  0.46224103  1
  O  O26  1  0.75000000  0.11791824  0.58015927  1
  O  O27  1  0.25000000  0.88208176  0.41984073  1
  O  O28  1  0.75000000  0.46224103  0.88208176  1
  O  O29  1  0.25000000  0.53775897  0.11791824  1
  O  O30  1  0.92145679  0.65574904  0.73833570  1
  O  O31  1  0.07854321  0.34425096  0.26166430  1
  O  O32  1  0.92145679  0.08258666  0.34425096  1
  O  O33  1  0.42145679  0.34425096  0.26166430  1
  O  O34  1  0.07854321  0.91741334  0.65574904  1
  O  O35  1  0.57854321  0.65574904  0.73833570  1
  O  O36  1  0.92145679  0.26166430  0.91741334  1
  O  O37  1  0.42145679  0.91741334  0.65574904  1
  O  O38  1  0.07854321  0.73833570  0.08258666  1
  O  O39  1  0.57854321  0.08258666  0.34425096  1
  O  O40  1  0.42145679  0.73833570  0.08258666  1
  O  O41  1  0.57854321  0.26166430  0.91741334  1
