# generated using pymatgen
data_Tb6Al43V4
_symmetry_space_group_name_H-M   'P 1'
_cell_length_a   11.00488823
_cell_length_b   11.00488823
_cell_length_c   17.68462754
_cell_angle_alpha   90.00000000
_cell_angle_beta   90.00000000
_cell_angle_gamma   120.00000512
_symmetry_Int_Tables_number   1
_chemical_formula_structural   Tb6Al43V4
_chemical_formula_sum   'Tb12 Al86 V8'
_cell_volume   1854.80303975
_cell_formula_units_Z   2
loop_
 _symmetry_equiv_pos_site_id
 _symmetry_equiv_pos_as_xyz
  1  'x, y, z'
loop_
 _atom_site_type_symbol
 _atom_site_label
 _atom_site_symmetry_multiplicity
 _atom_site_fract_x
 _atom_site_fract_y
 _atom_site_fract_z
 _atom_site_occupancy
  Tb  Tb0  1  0.47063986  0.47063986  0.90442112  1
  Tb  Tb1  1  0.52936014  0.52936014  0.09557888  1
  Tb  Tb2  1  1.00000000  0.52936014  0.90442112  1
  Tb  Tb3  1  0.52936014  0.52936014  0.40442112  1
  Tb  Tb4  1  1.00000000  0.52936014  0.59557888  1
  Tb  Tb5  1  0.00000000  0.47063986  0.09557888  1
  Tb  Tb6  1  0.47063986  0.47063986  0.59557888  1
  Tb  Tb7  1  0.00000000  0.47063986  0.40442112  1
  Tb  Tb8  1  0.52936014  1.00000000  0.90442112  1
  Tb  Tb9  1  0.47063986  0.00000000  0.09557888  1
  Tb  Tb10  1  0.47063986  0.00000000  0.40442112  1
  Tb  Tb11  1  0.52936014  1.00000000  0.59557888  1
  Al  Al12  1  0.85411213  0.45138907  0.75000000  1
  Al  Al13  1  0.14588787  0.54861093  0.25000000  1
  Al  Al14  1  0.59727694  0.14588787  0.75000000  1
  Al  Al15  1  0.40272306  0.54861093  0.75000000  1
  Al  Al16  1  0.40272306  0.85411213  0.25000000  1
  Al  Al17  1  0.59727694  0.45138907  0.25000000  1
  Al  Al18  1  0.54861093  0.40272306  0.75000000  1
  Al  Al19  1  0.45138907  0.85411213  0.75000000  1
  Al  Al20  1  0.45138907  0.59727694  0.25000000  1
  Al  Al21  1  0.54861093  0.14588787  0.25000000  1
  Al  Al22  1  0.14588787  0.59727694  0.75000000  1
  Al  Al23  1  0.85411213  0.40272306  0.25000000  1
  Al  Al24  1  0.84436930  0.84436930  0.38423977  1
  Al  Al25  1  0.15563070  0.15563070  0.61576023  1
  Al  Al26  1  1.00000000  0.15563070  0.38423977  1
  Al  Al27  1  0.15563070  0.15563070  0.88423977  1
  Al  Al28  1  1.00000000  0.15563070  0.11576023  1
  Al  Al29  1  0.00000000  0.84436930  0.61576023  1
  Al  Al30  1  0.84436930  0.84436930  0.11576023  1
  Al  Al31  1  0.00000000  0.84436930  0.88423977  1
  Al  Al32  1  0.15563070  1.00000000  0.38423977  1
  Al  Al33  1  0.84436930  0.00000000  0.61576023  1
  Al  Al34  1  0.84436930  0.00000000  0.88423977  1
  Al  Al35  1  0.15563070  1.00000000  0.11576023  1
  Al  Al36  1  0.75296579  0.24703421  0.00000000  1
  Al  Al37  1  0.24703421  0.75296579  0.00000000  1
  Al  Al38  1  0.49406841  0.24703421  0.00000000  1
  Al  Al39  1  0.24703421  0.75296579  0.50000000  1
  Al  Al40  1  0.50593159  0.75296579  0.50000000  1
  Al  Al41  1  0.50593159  0.75296579  0.00000000  1
  Al  Al42  1  0.75296579  0.24703421  0.50000000  1
  Al  Al43  1  0.49406841  0.24703421  0.50000000  1
  Al  Al44  1  0.75296579  0.50593159  0.00000000  1
  Al  Al45  1  0.24703421  0.49406841  0.00000000  1
  Al  Al46  1  0.24703421  0.49406841  0.50000000  1
  Al  Al47  1  0.75296579  0.50593159  0.50000000  1
  Al  Al48  1  0.85500089  0.85500089  0.75000000  1
  Al  Al49  1  0.14499911  0.14499911  0.25000000  1
  Al  Al50  1  1.00000000  0.14499911  0.75000000  1
  Al  Al51  1  0.00000000  0.85500089  0.25000000  1
  Al  Al52  1  0.14499911  1.00000000  0.75000000  1
  Al  Al53  1  0.85500089  0.00000000  0.25000000  1
  Al  Al54  1  0.66666700  0.33333300  0.87222853  1
  Al  Al55  1  0.33333300  0.66666700  0.12777147  1
  Al  Al56  1  0.33333300  0.66666700  0.37222853  1
  Al  Al57  1  0.33333300  0.66666700  0.62777147  1
  Al  Al58  1  0.66666700  0.33333300  0.62777147  1
  Al  Al59  1  0.66666700  0.33333300  0.37222853  1
  Al  Al60  1  0.66666700  0.33333300  0.12777147  1
  Al  Al61  1  0.33333300  0.66666700  0.87222853  1
  Al  Al62  1  0.74749460  0.74749460  0.97034310  1
  Al  Al63  1  0.25250540  0.25250540  0.02965690  1
  Al  Al64  1  1.00000000  0.25250540  0.97034310  1
  Al  Al65  1  0.25250540  0.25250540  0.47034310  1
  Al  Al66  1  1.00000000  0.25250540  0.52965690  1
  Al  Al67  1  0.00000000  0.74749460  0.02965690  1
  Al  Al68  1  0.74749460  0.74749460  0.52965690  1
  Al  Al69  1  0.00000000  0.74749460  0.47034310  1
  Al  Al70  1  0.25250540  1.00000000  0.97034310  1
  Al  Al71  1  0.74749460  0.00000000  0.02965690  1
  Al  Al72  1  0.74749460  0.00000000  0.47034310  1
  Al  Al73  1  0.25250540  1.00000000  0.52965690  1
  Al  Al74  1  0.84303790  0.23470463  0.83401872  1
  Al  Al75  1  0.15696210  0.76529537  0.16598128  1
  Al  Al76  1  0.39166673  0.15696210  0.83401872  1
  Al  Al77  1  0.15696210  0.76529537  0.33401872  1
  Al  Al78  1  0.60833327  0.76529537  0.66598128  1
  Al  Al79  1  0.60833327  0.84303790  0.16598128  1
  Al  Al80  1  0.84303790  0.23470463  0.66598128  1
  Al  Al81  1  0.39166673  0.23470463  0.33401872  1
  Al  Al82  1  0.76529537  0.60833327  0.83401872  1
  Al  Al83  1  0.60833327  0.84303790  0.33401872  1
  Al  Al84  1  0.23470463  0.84303790  0.66598128  1
  Al  Al85  1  0.23470463  0.39166673  0.16598128  1
  Al  Al86  1  0.39166673  0.15696210  0.66598128  1
  Al  Al87  1  0.76529537  0.15696210  0.33401872  1
  Al  Al88  1  0.39166673  0.23470463  0.16598128  1
  Al  Al89  1  0.60833327  0.76529537  0.83401872  1
  Al  Al90  1  0.23470463  0.39166673  0.33401872  1
  Al  Al91  1  0.76529537  0.15696210  0.16598128  1
  Al  Al92  1  0.76529537  0.60833327  0.66598128  1
  Al  Al93  1  0.23470463  0.84303790  0.83401872  1
  Al  Al94  1  0.15696210  0.39166673  0.66598128  1
  Al  Al95  1  0.84303790  0.60833327  0.33401872  1
  Al  Al96  1  0.84303790  0.60833327  0.16598128  1
  Al  Al97  1  0.15696210  0.39166673  0.83401872  1
  V  V98  1  0.00000000  -0.00000000  0.00000000  1
  V  V99  1  0.00000000  -0.00000000  0.50000000  1
  V  V100  1  0.26892566  0.26892566  0.75000000  1
  V  V101  1  0.73107434  0.73107434  0.25000000  1
  V  V102  1  1.00000000  0.73107434  0.75000000  1
  V  V103  1  0.00000000  0.26892566  0.25000000  1
  V  V104  1  0.73107434  1.00000000  0.75000000  1
  V  V105  1  0.26892566  0.00000000  0.25000000  1
