# generated using pymatgen
data_Tb3(GeRh)2
_symmetry_space_group_name_H-M   'P 1'
_cell_length_a   5.62189475
_cell_length_b   7.90055383
_cell_length_c   13.28532385
_cell_angle_alpha   90.00000000
_cell_angle_beta   90.00000000
_cell_angle_gamma   90.00000000
_symmetry_Int_Tables_number   1
_chemical_formula_structural   Tb3(GeRh)2
_chemical_formula_sum   'Tb12 Ge8 Rh8'
_cell_volume   590.08203483
_cell_formula_units_Z   4
loop_
 _symmetry_equiv_pos_site_id
 _symmetry_equiv_pos_as_xyz
  1  'x, y, z'
loop_
 _atom_site_type_symbol
 _atom_site_label
 _atom_site_symmetry_multiplicity
 _atom_site_fract_x
 _atom_site_fract_y
 _atom_site_fract_z
 _atom_site_occupancy
  Tb  Tb0  1  0.63353804  0.25189801  0.25000000  1
  Tb  Tb1  1  0.36646196  0.74810199  0.75000000  1
  Tb  Tb2  1  0.36646196  0.75189801  0.25000000  1
  Tb  Tb3  1  0.63353804  0.24810199  0.75000000  1
  Tb  Tb4  1  0.14640665  0.39341394  0.10031464  1
  Tb  Tb5  1  0.85359335  0.60658606  0.89968536  1
  Tb  Tb6  1  0.85359335  0.60658606  0.60031464  1
  Tb  Tb7  1  0.85359335  0.89341394  0.39968536  1
  Tb  Tb8  1  0.14640665  0.39341394  0.39968536  1
  Tb  Tb9  1  0.14640665  0.10658606  0.60031464  1
  Tb  Tb10  1  0.14640665  0.10658606  0.89968536  1
  Tb  Tb11  1  0.85359335  0.89341394  0.10031464  1
  Ge  Ge12  1  0.13251845  0.10739056  0.25000000  1
  Ge  Ge13  1  0.86748155  0.89260944  0.75000000  1
  Ge  Ge14  1  0.86748155  0.60739056  0.25000000  1
  Ge  Ge15  1  0.13251845  0.39260944  0.75000000  1
  Ge  Ge16  1  0.65890949  0.25000000  -0.00000000  1
  Ge  Ge17  1  0.34109051  0.75000000  -0.00000000  1
  Ge  Ge18  1  0.34109051  0.75000000  0.50000000  1
  Ge  Ge19  1  0.65890949  0.25000000  0.50000000  1
  Rh  Rh20  1  0.37596590  0.03856319  0.09335886  1
  Rh  Rh21  1  0.62403410  0.96143681  0.90664114  1
  Rh  Rh22  1  0.62403410  0.96143681  0.59335886  1
  Rh  Rh23  1  0.62403410  0.53856319  0.40664114  1
  Rh  Rh24  1  0.37596590  0.03856319  0.40664114  1
  Rh  Rh25  1  0.37596590  0.46143681  0.59335886  1
  Rh  Rh26  1  0.37596590  0.46143681  0.90664114  1
  Rh  Rh27  1  0.62403410  0.53856319  0.09335886  1
