# generated using pymatgen
data_Tb6Ta4Al43
_symmetry_space_group_name_H-M   'P 1'
_cell_length_a   11.13808446
_cell_length_b   11.13808446
_cell_length_c   17.76921699
_cell_angle_alpha   90.00000000
_cell_angle_beta   90.00000000
_cell_angle_gamma   120.00000050
_symmetry_Int_Tables_number   1
_chemical_formula_structural   Tb6Ta4Al43
_chemical_formula_sum   'Tb12 Ta8 Al86'
_cell_volume   1909.06156579
_cell_formula_units_Z   2
loop_
 _symmetry_equiv_pos_site_id
 _symmetry_equiv_pos_as_xyz
  1  'x, y, z'
loop_
 _atom_site_type_symbol
 _atom_site_label
 _atom_site_symmetry_multiplicity
 _atom_site_fract_x
 _atom_site_fract_y
 _atom_site_fract_z
 _atom_site_occupancy
  Tb  Tb0  1  0.47062340  0.47062340  0.90373358  1
  Tb  Tb1  1  0.52937660  0.52937660  0.09626642  1
  Tb  Tb2  1  1.00000000  0.52937660  0.90373358  1
  Tb  Tb3  1  0.52937660  0.52937660  0.40373358  1
  Tb  Tb4  1  1.00000000  0.52937660  0.59626642  1
  Tb  Tb5  1  0.00000000  0.47062340  0.09626642  1
  Tb  Tb6  1  0.47062340  0.47062340  0.59626642  1
  Tb  Tb7  1  0.00000000  0.47062340  0.40373358  1
  Tb  Tb8  1  0.52937660  1.00000000  0.90373358  1
  Tb  Tb9  1  0.47062340  0.00000000  0.09626642  1
  Tb  Tb10  1  0.47062340  0.00000000  0.40373358  1
  Tb  Tb11  1  0.52937660  1.00000000  0.59626642  1
  Ta  Ta12  1  0.00000000  0.00000000  0.00000000  1
  Ta  Ta13  1  0.00000000  0.00000000  0.50000000  1
  Ta  Ta14  1  0.27414744  0.27414744  0.75000000  1
  Ta  Ta15  1  0.72585256  0.72585256  0.25000000  1
  Ta  Ta16  1  1.00000000  0.72585256  0.75000000  1
  Ta  Ta17  1  0.00000000  0.27414744  0.25000000  1
  Ta  Ta18  1  0.72585256  1.00000000  0.75000000  1
  Ta  Ta19  1  0.27414744  0.00000000  0.25000000  1
  Al  Al20  1  0.85057504  0.44567123  0.75000000  1
  Al  Al21  1  0.14942496  0.55432877  0.25000000  1
  Al  Al22  1  0.59509619  0.14942496  0.75000000  1
  Al  Al23  1  0.40490381  0.55432877  0.75000000  1
  Al  Al24  1  0.40490381  0.85057504  0.25000000  1
  Al  Al25  1  0.59509619  0.44567123  0.25000000  1
  Al  Al26  1  0.55432877  0.40490381  0.75000000  1
  Al  Al27  1  0.44567123  0.85057504  0.75000000  1
  Al  Al28  1  0.44567123  0.59509619  0.25000000  1
  Al  Al29  1  0.55432877  0.14942496  0.25000000  1
  Al  Al30  1  0.14942496  0.59509619  0.75000000  1
  Al  Al31  1  0.85057504  0.40490381  0.25000000  1
  Al  Al32  1  0.84107534  0.84107534  0.38480734  1
  Al  Al33  1  0.15892466  0.15892466  0.61519266  1
  Al  Al34  1  1.00000000  0.15892466  0.38480734  1
  Al  Al35  1  0.15892466  0.15892466  0.88480734  1
  Al  Al36  1  1.00000000  0.15892466  0.11519266  1
  Al  Al37  1  0.00000000  0.84107534  0.61519266  1
  Al  Al38  1  0.84107534  0.84107534  0.11519266  1
  Al  Al39  1  0.00000000  0.84107534  0.88480734  1
  Al  Al40  1  0.15892466  1.00000000  0.38480734  1
  Al  Al41  1  0.84107534  0.00000000  0.61519266  1
  Al  Al42  1  0.84107534  0.00000000  0.88480734  1
  Al  Al43  1  0.15892466  1.00000000  0.11519266  1
  Al  Al44  1  0.75287989  0.24712011  0.00000000  1
  Al  Al45  1  0.24712011  0.75287989  0.00000000  1
  Al  Al46  1  0.49424022  0.24712011  0.00000000  1
  Al  Al47  1  0.24712011  0.75287989  0.50000000  1
  Al  Al48  1  0.50575978  0.75287989  0.50000000  1
  Al  Al49  1  0.50575978  0.75287989  0.00000000  1
  Al  Al50  1  0.75287989  0.24712011  0.50000000  1
  Al  Al51  1  0.49424022  0.24712011  0.50000000  1
  Al  Al52  1  0.75287989  0.50575978  0.00000000  1
  Al  Al53  1  0.24712011  0.49424022  0.00000000  1
  Al  Al54  1  0.24712011  0.49424022  0.50000000  1
  Al  Al55  1  0.75287989  0.50575978  0.50000000  1
  Al  Al56  1  0.85322728  0.85322728  0.75000000  1
  Al  Al57  1  0.14677272  0.14677272  0.25000000  1
  Al  Al58  1  1.00000000  0.14677272  0.75000000  1
  Al  Al59  1  0.00000000  0.85322728  0.25000000  1
  Al  Al60  1  0.14677272  1.00000000  0.75000000  1
  Al  Al61  1  0.85322728  0.00000000  0.25000000  1
  Al  Al62  1  0.66666700  0.33333300  0.87348334  1
  Al  Al63  1  0.33333300  0.66666700  0.12651666  1
  Al  Al64  1  0.33333300  0.66666700  0.37348334  1
  Al  Al65  1  0.33333300  0.66666700  0.62651666  1
  Al  Al66  1  0.66666700  0.33333300  0.62651666  1
  Al  Al67  1  0.66666700  0.33333300  0.37348334  1
  Al  Al68  1  0.66666700  0.33333300  0.12651666  1
  Al  Al69  1  0.33333300  0.66666700  0.87348334  1
  Al  Al70  1  0.74418644  0.74418644  0.96985017  1
  Al  Al71  1  0.25581356  0.25581356  0.03014983  1
  Al  Al72  1  0.00000000  0.25581356  0.96985017  1
  Al  Al73  1  0.25581356  0.25581356  0.46985017  1
  Al  Al74  1  0.00000000  0.25581356  0.53014983  1
  Al  Al75  1  -0.00000000  0.74418644  0.03014983  1
  Al  Al76  1  0.74418644  0.74418644  0.53014983  1
  Al  Al77  1  -0.00000000  0.74418644  0.46985017  1
  Al  Al78  1  0.25581356  0.00000000  0.96985017  1
  Al  Al79  1  0.74418644  -0.00000000  0.03014983  1
  Al  Al80  1  0.74418644  -0.00000000  0.46985017  1
  Al  Al81  1  0.25581356  0.00000000  0.53014983  1
  Al  Al82  1  0.84273352  0.23718353  0.83625153  1
  Al  Al83  1  0.15726648  0.76281647  0.16374847  1
  Al  Al84  1  0.39445000  0.15726648  0.83625153  1
  Al  Al85  1  0.15726648  0.76281647  0.33625153  1
  Al  Al86  1  0.60555000  0.76281647  0.66374847  1
  Al  Al87  1  0.60555000  0.84273352  0.16374847  1
  Al  Al88  1  0.84273352  0.23718353  0.66374847  1
  Al  Al89  1  0.39445000  0.23718353  0.33625153  1
  Al  Al90  1  0.76281647  0.60555000  0.83625153  1
  Al  Al91  1  0.60555000  0.84273352  0.33625153  1
  Al  Al92  1  0.23718353  0.84273352  0.66374847  1
  Al  Al93  1  0.23718353  0.39445000  0.16374847  1
  Al  Al94  1  0.39445000  0.15726648  0.66374847  1
  Al  Al95  1  0.76281647  0.15726648  0.33625153  1
  Al  Al96  1  0.39445000  0.23718353  0.16374847  1
  Al  Al97  1  0.60555000  0.76281647  0.83625153  1
  Al  Al98  1  0.23718353  0.39445000  0.33625153  1
  Al  Al99  1  0.76281647  0.15726648  0.16374847  1
  Al  Al100  1  0.76281647  0.60555000  0.66374847  1
  Al  Al101  1  0.23718353  0.84273352  0.83625153  1
  Al  Al102  1  0.15726648  0.39445000  0.66374847  1
  Al  Al103  1  0.84273352  0.60555000  0.33625153  1
  Al  Al104  1  0.84273352  0.60555000  0.16374847  1
  Al  Al105  1  0.15726648  0.39445000  0.83625153  1
