# generated using pymatgen
data_Tb4(Al8Pd3)3
_symmetry_space_group_name_H-M   'P 1'
_cell_length_a   7.49210059
_cell_length_b   7.56401845
_cell_length_c   13.26683470
_cell_angle_alpha   84.68656926
_cell_angle_beta   79.41375086
_cell_angle_gamma   60.07975285
_symmetry_Int_Tables_number   1
_chemical_formula_structural   Tb4(Al8Pd3)3
_chemical_formula_sum   'Tb4 Al24 Pd9'
_cell_volume   640.54073382
_cell_formula_units_Z   1
loop_
 _symmetry_equiv_pos_site_id
 _symmetry_equiv_pos_as_xyz
  1  'x, y, z'
loop_
 _atom_site_type_symbol
 _atom_site_label
 _atom_site_symmetry_multiplicity
 _atom_site_fract_x
 _atom_site_fract_y
 _atom_site_fract_z
 _atom_site_occupancy
  Tb  Tb0  1  0.39310536  0.16972241  0.80892247  1
  Tb  Tb1  1  0.60689464  0.83027759  0.19107753  1
  Tb  Tb2  1  0.73347450  0.49771702  0.80880104  1
  Tb  Tb3  1  0.26652550  0.50228298  0.19119896  1
  Al  Al4  1  0.68583437  0.83369139  0.94498757  1
  Al  Al5  1  0.31416563  0.16630861  0.05501243  1
  Al  Al6  1  0.14579342  0.83329162  0.56002762  1
  Al  Al7  1  0.85420658  0.16670838  0.43997238  1
  Al  Al8  1  0.47846645  0.16665627  0.55816653  1
  Al  Al9  1  0.52153355  0.83334373  0.44183347  1
  Al  Al10  1  0.21587422  0.16512712  0.32951105  1
  Al  Al11  1  0.78412578  0.83487288  0.67048895  1
  Al  Al12  1  0.43694283  0.50637473  0.67021547  1
  Al  Al13  1  0.56305717  0.49362527  0.32978453  1
  Al  Al14  1  0.10859010  0.15983535  0.66923612  1
  Al  Al15  1  0.89140990  0.84016465  0.33076388  1
  Al  Al16  1  0.35204188  0.50100532  0.94553216  1
  Al  Al17  1  0.64795812  0.49899468  0.05446784  1
  Al  Al18  1  0.01566414  0.16666213  0.95405246  1
  Al  Al19  1  0.98433586  0.83333787  0.04594754  1
  Al  Al20  1  0.18741913  0.49970357  0.44120255  1
  Al  Al21  1  0.81258087  0.50029643  0.55879745  1
  Al  Al22  1  0.73311049  0.16375050  0.18336127  1
  Al  Al23  1  0.26688951  0.83624950  0.81663873  1
  Al  Al24  1  0.06178372  0.63112841  0.81531745  1
  Al  Al25  1  0.93821628  0.36887159  0.18468255  1
  Al  Al26  1  0.85541726  0.04100051  0.81594355  1
  Al  Al27  1  0.14458274  0.95899949  0.18405645  1
  Pd  Pd28  1  0.11934766  0.49353667  0.63771754  1
  Pd  Pd29  1  0.88065234  0.50646333  0.36228246  1
  Pd  Pd30  1  0.65726233  0.17090422  0.99938342  1
  Pd  Pd31  1  0.34273767  0.82909578  0.00061658  1
  Pd  Pd32  1  0.53924786  0.16654864  0.36184889  1
  Pd  Pd33  1  0.46075214  0.83345136  0.63815111  1
  Pd  Pd34  1  0.77872253  0.17337958  0.63676641  1
  Pd  Pd35  1  0.22127747  0.82662042  0.36323359  1
  Pd  Pd36  1  -0.00000000  0.50000000  0.00000000  1
