# generated using pymatgen
data_Tb12Co5Bi
_symmetry_space_group_name_H-M   'P 1'
_cell_length_a   8.36861018
_cell_length_b   8.36861018
_cell_length_c   8.36861018
_cell_angle_alpha   107.03140144
_cell_angle_beta   110.78207219
_cell_angle_gamma   110.62743299
_symmetry_Int_Tables_number   1
_chemical_formula_structural   Tb12Co5Bi
_chemical_formula_sum   'Tb12 Co5 Bi1'
_cell_volume   450.55666759
_cell_formula_units_Z   1
loop_
 _symmetry_equiv_pos_site_id
 _symmetry_equiv_pos_as_xyz
  1  'x, y, z'
loop_
 _atom_site_type_symbol
 _atom_site_label
 _atom_site_symmetry_multiplicity
 _atom_site_fract_x
 _atom_site_fract_y
 _atom_site_fract_z
 _atom_site_occupancy
  Tb  Tb0  1  0.52673903  0.81678371  0.70995533  1
  Tb  Tb1  1  0.47326097  0.18321629  0.29004467  1
  Tb  Tb2  1  0.89317162  0.18321629  0.70995533  1
  Tb  Tb3  1  0.10682838  0.81678371  0.29004467  1
  Tb  Tb4  1  0.69080589  0.68707928  0.37788517  1
  Tb  Tb5  1  0.30919411  0.31292072  0.62211483  1
  Tb  Tb6  1  0.30919411  0.68707928  0.99627339  1
  Tb  Tb7  1  0.69080589  0.31292072  0.00372661  1
  Tb  Tb8  1  0.80663074  0.60081938  0.79418864  1
  Tb  Tb9  1  0.19336926  0.39918062  0.20581136  1
  Tb  Tb10  1  0.19336926  0.98755790  0.79418864  1
  Tb  Tb11  1  0.80663074  0.01244210  0.20581136  1
  Co  Co12  1  0.62443008  0.62443008  -0.00000000  1
  Co  Co13  1  0.37556992  0.37556992  -0.00000000  1
  Co  Co14  1  0.50000000  0.11186001  0.61186001  1
  Co  Co15  1  0.50000000  0.88813999  0.38813999  1
  Co  Co16  1  -0.00000000  0.00000000  -0.00000000  1
  Bi  Bi17  1  -0.00000000  0.50000000  0.50000000  1
