# generated using pymatgen
data_SrP2PdO7
_symmetry_space_group_name_H-M   'P 1'
_cell_length_a   6.07359096
_cell_length_b   13.60641743
_cell_length_c   7.43671228
_cell_angle_alpha   90.00000000
_cell_angle_beta   90.00000000
_cell_angle_gamma   90.00000000
_symmetry_Int_Tables_number   1
_chemical_formula_structural   SrP2PdO7
_chemical_formula_sum   'Sr4 P8 Pd4 O28'
_cell_volume   614.56851885
_cell_formula_units_Z   4
loop_
 _symmetry_equiv_pos_site_id
 _symmetry_equiv_pos_as_xyz
  1  'x, y, z'
loop_
 _atom_site_type_symbol
 _atom_site_label
 _atom_site_symmetry_multiplicity
 _atom_site_fract_x
 _atom_site_fract_y
 _atom_site_fract_z
 _atom_site_occupancy
  Sr  Sr0  1  0.75000000  0.75800947  0.25662842  1
  Sr  Sr1  1  0.25000000  0.24199053  0.74337158  1
  Sr  Sr2  1  0.25000000  0.74199053  0.75662842  1
  Sr  Sr3  1  0.75000000  0.25800947  0.24337158  1
  P  P4  1  0.75000000  0.87778449  0.71583286  1
  P  P5  1  0.25000000  0.12221551  0.28416714  1
  P  P6  1  0.25000000  0.62221551  0.21583286  1
  P  P7  1  0.75000000  0.37778449  0.78416714  1
  P  P8  1  0.75000000  0.58925746  0.82292558  1
  P  P9  1  0.25000000  0.41074254  0.17707442  1
  P  P10  1  0.25000000  0.91074254  0.32292558  1
  P  P11  1  0.75000000  0.08925746  0.67707442  1
  Pd  Pd12  1  0.00000000  -0.00000000  -0.00000000  1
  Pd  Pd13  1  0.00000000  0.50000000  0.50000000  1
  Pd  Pd14  1  0.50000000  -0.00000000  -0.00000000  1
  Pd  Pd15  1  0.50000000  0.50000000  0.50000000  1
  O  O16  1  0.75000000  0.66160372  0.97379383  1
  O  O17  1  0.25000000  0.33839628  0.02620617  1
  O  O18  1  0.25000000  0.83839628  0.47379383  1
  O  O19  1  0.75000000  0.16160372  0.52620617  1
  O  O20  1  0.75000000  0.97762782  0.59667434  1
  O  O21  1  0.25000000  0.02237218  0.40332566  1
  O  O22  1  0.25000000  0.52237218  0.09667434  1
  O  O23  1  0.75000000  0.47762782  0.90332566  1
  O  O24  1  0.75000000  0.79186786  0.58964334  1
  O  O25  1  0.25000000  0.20813214  0.41035666  1
  O  O26  1  0.25000000  0.70813214  0.08964334  1
  O  O27  1  0.75000000  0.29186786  0.91035666  1
  O  O28  1  0.96554308  0.59695385  0.70944291  1
  O  O29  1  0.03445692  0.40304615  0.29055709  1
  O  O30  1  0.03445692  0.90304615  0.20944291  1
  O  O31  1  0.46554308  0.40304615  0.29055709  1
  O  O32  1  0.96554308  0.09695385  0.79055709  1
  O  O33  1  0.53445692  0.59695385  0.70944291  1
  O  O34  1  0.53445692  0.09695385  0.79055709  1
  O  O35  1  0.46554308  0.90304615  0.20944291  1
  O  O36  1  0.96232346  0.87971594  0.83406276  1
  O  O37  1  0.03767654  0.12028406  0.16593724  1
  O  O38  1  0.03767654  0.62028406  0.33406276  1
  O  O39  1  0.46232346  0.12028406  0.16593724  1
  O  O40  1  0.96232346  0.37971594  0.66593724  1
  O  O41  1  0.53767654  0.87971594  0.83406276  1
  O  O42  1  0.53767654  0.37971594  0.66593724  1
  O  O43  1  0.46232346  0.62028406  0.33406276  1
