# generated using pymatgen
data_Ta2Fe4O9
_symmetry_space_group_name_H-M   'P 1'
_cell_length_a   5.33515095
_cell_length_b   5.33515095
_cell_length_c   14.24487842
_cell_angle_alpha   90.00000000
_cell_angle_beta   90.00000000
_cell_angle_gamma   120.00000216
_symmetry_Int_Tables_number   1
_chemical_formula_structural   Ta2Fe4O9
_chemical_formula_sum   'Ta4 Fe8 O18'
_cell_volume   351.14201189
_cell_formula_units_Z   2
loop_
 _symmetry_equiv_pos_site_id
 _symmetry_equiv_pos_as_xyz
  1  'x, y, z'
loop_
 _atom_site_type_symbol
 _atom_site_label
 _atom_site_symmetry_multiplicity
 _atom_site_fract_x
 _atom_site_fract_y
 _atom_site_fract_z
 _atom_site_occupancy
  Ta  Ta0  1  -0.00000000  0.00000000  0.85763451  1
  Ta  Ta1  1  -0.00000000  0.00000000  0.14236549  1
  Ta  Ta2  1  -0.00000000  0.00000000  0.64236549  1
  Ta  Ta3  1  -0.00000000  0.00000000  0.35763451  1
  Fe  Fe4  1  0.66666700  0.33333300  0.98425831  1
  Fe  Fe5  1  0.33333300  0.66666700  0.01574169  1
  Fe  Fe6  1  0.33333300  0.66666700  0.51574169  1
  Fe  Fe7  1  0.66666700  0.33333300  0.48425831  1
  Fe  Fe8  1  0.66666700  0.33333300  0.69224203  1
  Fe  Fe9  1  0.33333300  0.66666700  0.30775797  1
  Fe  Fe10  1  0.33333300  0.66666700  0.80775797  1
  Fe  Fe11  1  0.66666700  0.33333300  0.19224203  1
  O  O12  1  0.66402421  0.97598958  0.91564069  1
  O  O13  1  0.33597579  0.02401042  0.08435931  1
  O  O14  1  0.31196537  0.33597579  0.91564069  1
  O  O15  1  0.68803463  0.02401042  0.58435931  1
  O  O16  1  0.68803463  0.66402421  0.08435931  1
  O  O17  1  0.31196537  0.97598958  0.41564069  1
  O  O18  1  0.02401042  0.68803463  0.91564069  1
  O  O19  1  0.97598958  0.66402421  0.58435931  1
  O  O20  1  0.97598958  0.31196537  0.08435931  1
  O  O21  1  0.02401042  0.33597579  0.41564069  1
  O  O22  1  0.33597579  0.31196537  0.58435931  1
  O  O23  1  0.66402421  0.68803463  0.41564069  1
  O  O24  1  0.71960930  0.71960930  0.75000000  1
  O  O25  1  0.28039070  0.28039070  0.25000000  1
  O  O26  1  1.00000000  0.28039070  0.75000000  1
  O  O27  1  0.00000000  0.71960930  0.25000000  1
  O  O28  1  0.28039070  1.00000000  0.75000000  1
  O  O29  1  0.71960930  0.00000000  0.25000000  1
