# generated using pymatgen
data_Sr2DyTaO6
_symmetry_space_group_name_H-M   'P 1'
_cell_length_a   5.85838806
_cell_length_b   5.93250605
_cell_length_c   8.33047395
_cell_angle_alpha   90.00000000
_cell_angle_beta   90.28521113
_cell_angle_gamma   90.00000000
_symmetry_Int_Tables_number   1
_chemical_formula_structural   Sr2DyTaO6
_chemical_formula_sum   'Sr4 Dy2 Ta2 O12'
_cell_volume   289.52139033
_cell_formula_units_Z   2
loop_
 _symmetry_equiv_pos_site_id
 _symmetry_equiv_pos_as_xyz
  1  'x, y, z'
loop_
 _atom_site_type_symbol
 _atom_site_label
 _atom_site_symmetry_multiplicity
 _atom_site_fract_x
 _atom_site_fract_y
 _atom_site_fract_z
 _atom_site_occupancy
  Sr  Sr0  1  0.00781375  0.46439493  0.25102529  1
  Sr  Sr1  1  0.99218625  0.53560507  0.74897471  1
  Sr  Sr2  1  0.49218625  0.96439493  0.24897471  1
  Sr  Sr3  1  0.50781375  0.03560507  0.75102529  1
  Dy  Dy4  1  0.00000000  -0.00000000  0.50000000  1
  Dy  Dy5  1  0.50000000  0.50000000  -0.00000000  1
  Ta  Ta6  1  0.00000000  0.00000000  -0.00000000  1
  Ta  Ta7  1  0.50000000  0.50000000  0.50000000  1
  O  O8  1  0.91937340  0.02440302  0.23460118  1
  O  O9  1  0.08062660  0.97559698  0.76539882  1
  O  O10  1  0.58062660  0.52440302  0.26539882  1
  O  O11  1  0.41937340  0.47559698  0.73460118  1
  O  O12  1  0.19451282  0.72508815  0.04583501  1
  O  O13  1  0.80548718  0.27491185  0.95416499  1
  O  O14  1  0.30548718  0.22508815  0.45416499  1
  O  O15  1  0.69451282  0.77491185  0.54583501  1
  O  O16  1  0.27427700  0.19711532  0.04091372  1
  O  O17  1  0.72572300  0.80288468  0.95908628  1
  O  O18  1  0.22572300  0.69711532  0.45908628  1
  O  O19  1  0.77427700  0.30288468  0.54091372  1
