# generated using pymatgen
data_Sr3Li6Ta2O11
_symmetry_space_group_name_H-M   'P 1'
_cell_length_a   5.87904014
_cell_length_b   8.43252294
_cell_length_c   10.67961489
_cell_angle_alpha   90.00000000
_cell_angle_beta   90.00000000
_cell_angle_gamma   90.00000000
_symmetry_Int_Tables_number   1
_chemical_formula_structural   Sr3Li6Ta2O11
_chemical_formula_sum   'Sr6 Li12 Ta4 O22'
_cell_volume   529.44341235
_cell_formula_units_Z   2
loop_
 _symmetry_equiv_pos_site_id
 _symmetry_equiv_pos_as_xyz
  1  'x, y, z'
loop_
 _atom_site_type_symbol
 _atom_site_label
 _atom_site_symmetry_multiplicity
 _atom_site_fract_x
 _atom_site_fract_y
 _atom_site_fract_z
 _atom_site_occupancy
  Sr  Sr0  1  0.38325042  -0.00000000  0.75000000  1
  Sr  Sr1  1  0.61674958  0.00000000  0.25000000  1
  Sr  Sr2  1  0.50000000  0.73685727  0.00000000  1
  Sr  Sr3  1  0.50000000  0.26314273  0.00000000  1
  Sr  Sr4  1  0.50000000  0.26314273  0.50000000  1
  Sr  Sr5  1  0.50000000  0.73685727  0.50000000  1
  Li  Li6  1  0.21857169  0.68345611  0.75000000  1
  Li  Li7  1  0.78142831  0.31654389  0.25000000  1
  Li  Li8  1  0.21857169  0.31654389  0.75000000  1
  Li  Li9  1  0.78142831  0.68345611  0.25000000  1
  Li  Li10  1  0.00000000  0.64512598  0.00000000  1
  Li  Li11  1  0.00000000  0.35487402  0.00000000  1
  Li  Li12  1  0.00000000  0.35487402  0.50000000  1
  Li  Li13  1  0.00000000  0.64512598  0.50000000  1
  Li  Li14  1  0.85181434  0.85401817  0.75000000  1
  Li  Li15  1  0.14818566  0.14598183  0.25000000  1
  Li  Li16  1  0.85181434  0.14598183  0.75000000  1
  Li  Li17  1  0.14818566  0.85401817  0.25000000  1
  Ta  Ta18  1  0.73500215  0.50000000  0.75000000  1
  Ta  Ta19  1  0.26499785  0.50000000  0.25000000  1
  Ta  Ta20  1  0.00000000  -0.00000000  0.00000000  1
  Ta  Ta21  1  0.00000000  0.00000000  0.50000000  1
  O  O22  1  0.74649554  0.50000000  0.93854994  1
  O  O23  1  0.25350446  0.50000000  0.06145006  1
  O  O24  1  0.74649554  0.50000000  0.56145006  1
  O  O25  1  0.25350446  0.50000000  0.43854994  1
  O  O26  1  0.71933224  0.00000000  0.89312258  1
  O  O27  1  0.28066776  0.00000000  0.10687742  1
  O  O28  1  0.71933224  0.00000000  0.60687742  1
  O  O29  1  0.28066776  -0.00000000  0.39312258  1
  O  O30  1  0.86714044  0.82704811  0.38975028  1
  O  O31  1  0.13285956  0.17295189  0.61024972  1
  O  O32  1  0.86714044  0.17295189  0.11024972  1
  O  O33  1  0.13285956  0.82704811  0.61024972  1
  O  O34  1  0.13285956  0.82704811  0.88975028  1
  O  O35  1  0.86714044  0.17295189  0.38975028  1
  O  O36  1  0.13285956  0.17295189  0.88975028  1
  O  O37  1  0.86714044  0.82704811  0.11024972  1
  O  O38  1  0.56836538  0.69836896  0.75000000  1
  O  O39  1  0.43163462  0.30163104  0.25000000  1
  O  O40  1  0.56836538  0.30163104  0.75000000  1
  O  O41  1  0.43163462  0.69836896  0.25000000  1
  O  O42  1  0.05427490  0.50000000  0.75000000  1
  O  O43  1  0.94572510  0.50000000  0.25000000  1
