# generated using pymatgen
data_Sr2H6Pt
_symmetry_space_group_name_H-M   'P 1'
_cell_length_a   5.64217738
_cell_length_b   5.64518196
_cell_length_c   7.43617101
_cell_angle_alpha   90.00000000
_cell_angle_beta   112.29489822
_cell_angle_gamma   90.00000000
_symmetry_Int_Tables_number   1
_chemical_formula_structural   Sr2H6Pt
_chemical_formula_sum   'Sr4 H12 Pt2'
_cell_volume   219.14425665
_cell_formula_units_Z   2
loop_
 _symmetry_equiv_pos_site_id
 _symmetry_equiv_pos_as_xyz
  1  'x, y, z'
loop_
 _atom_site_type_symbol
 _atom_site_label
 _atom_site_symmetry_multiplicity
 _atom_site_fract_x
 _atom_site_fract_y
 _atom_site_fract_z
 _atom_site_occupancy
  Sr  Sr0  1  0.35394618  0.00000000  0.70789235  1
  Sr  Sr1  1  0.64605382  0.00000000  0.29210765  1
  Sr  Sr2  1  0.14605382  0.50000000  0.29210765  1
  Sr  Sr3  1  0.85394618  0.50000000  0.70789235  1
  H  H4  1  0.12118252  0.00000000  0.24236504  1
  H  H5  1  0.87881748  -0.00000000  0.75763496  1
  H  H6  1  0.37881748  0.50000000  0.75763496  1
  H  H7  1  0.62118252  0.50000000  0.24236504  1
  H  H8  1  0.50125713  0.25000000  0.50000000  1
  H  H9  1  0.49874287  0.75000000  0.50000000  1
  H  H10  1  0.99874287  0.75000000  0.50000000  1
  H  H11  1  0.00125713  0.25000000  0.50000000  1
  H  H12  1  0.20696953  0.22019624  1.00000000  1
  H  H13  1  0.79303047  0.77980376  0.00000000  1
  H  H14  1  0.29303047  0.72019624  0.00000000  1
  H  H15  1  0.70696953  0.27980376  1.00000000  1
  Pt  Pt16  1  -0.00000000  0.00000000  -0.00000000  1
  Pt  Pt17  1  0.50000000  0.50000000  0.00000000  1
