# generated using pymatgen
data_SmBC
_symmetry_space_group_name_H-M   'P 1'
_cell_length_a   8.28830550
_cell_length_b   8.31457464
_cell_length_c   12.27223859
_cell_angle_alpha   90.00000000
_cell_angle_beta   90.00000000
_cell_angle_gamma   90.00000000
_symmetry_Int_Tables_number   1
_chemical_formula_structural   SmBC
_chemical_formula_sum   'Sm20 B20 C20'
_cell_volume   845.72579460
_cell_formula_units_Z   20
loop_
 _symmetry_equiv_pos_site_id
 _symmetry_equiv_pos_as_xyz
  1  'x, y, z'
loop_
 _atom_site_type_symbol
 _atom_site_label
 _atom_site_symmetry_multiplicity
 _atom_site_fract_x
 _atom_site_fract_y
 _atom_site_fract_z
 _atom_site_occupancy
  Sm  Sm0  1  0.15891716  0.00839398  0.57951313  1
  Sm  Sm1  1  0.34108284  0.99160602  0.07951313  1
  Sm  Sm2  1  0.84108284  0.50839398  0.92048687  1
  Sm  Sm3  1  0.65891716  0.49160602  0.42048687  1
  Sm  Sm4  1  0.15722945  0.41033853  0.09719051  1
  Sm  Sm5  1  0.34277055  0.58966147  0.59719051  1
  Sm  Sm6  1  0.84277055  0.91033853  0.40280949  1
  Sm  Sm7  1  0.65722945  0.08966147  0.90280949  1
  Sm  Sm8  1  0.45202077  0.09878659  0.35945423  1
  Sm  Sm9  1  0.04797923  0.90121341  0.85945423  1
  Sm  Sm10  1  0.54797923  0.59878659  0.14054577  1
  Sm  Sm11  1  0.95202077  0.40121341  0.64054577  1
  Sm  Sm12  1  0.06182960  0.30350598  0.36674270  1
  Sm  Sm13  1  0.43817040  0.69649402  0.86674270  1
  Sm  Sm14  1  0.93817040  0.80350598  0.13325730  1
  Sm  Sm15  1  0.56182960  0.19649402  0.63325730  1
  Sm  Sm16  1  0.75700177  0.21535275  0.17339711  1
  Sm  Sm17  1  0.74299823  0.78464725  0.67339711  1
  Sm  Sm18  1  0.24299823  0.71535275  0.32660289  1
  Sm  Sm19  1  0.25700177  0.28464725  0.82660289  1
  B  B20  1  0.38041301  0.40063912  0.28698817  1
  B  B21  1  0.11958699  0.59936088  0.78698817  1
  B  B22  1  0.61958699  0.90063912  0.21301183  1
  B  B23  1  0.88041301  0.09936088  0.71301183  1
  B  B24  1  0.02171653  0.11250208  0.03961147  1
  B  B25  1  0.47828347  0.88749792  0.53961147  1
  B  B26  1  0.97828347  0.61250208  0.46038853  1
  B  B27  1  0.52171653  0.38749792  0.96038853  1
  B  B28  1  0.31568451  0.30585093  0.50872045  1
  B  B29  1  0.18431549  0.69414907  0.00872045  1
  B  B30  1  0.68431549  0.80585093  0.99127955  1
  B  B31  1  0.81568451  0.19414907  0.49127955  1
  B  B32  1  0.43743578  0.29491076  0.18080489  1
  B  B33  1  0.06256422  0.70508924  0.68080489  1
  B  B34  1  0.56256422  0.79491076  0.31919511  1
  B  B35  1  0.93743578  0.20508924  0.81919511  1
  B  B36  1  0.10059409  0.02308498  0.25980029  1
  B  B37  1  0.39940591  0.97691502  0.75980029  1
  B  B38  1  0.89940591  0.52308498  0.24019971  1
  B  B39  1  0.60059409  0.47691502  0.74019971  1
  C  C40  1  0.14564016  0.00706904  0.37544278  1
  C  C41  1  0.35435984  0.99293096  0.87544278  1
  C  C42  1  0.85435984  0.50706904  0.12455722  1
  C  C43  1  0.64564016  0.49293096  0.62455722  1
  C  C44  1  0.25202692  0.29667300  0.62010036  1
  C  C45  1  0.24797308  0.70332700  0.12010036  1
  C  C46  1  0.74797308  0.79667300  0.87989964  1
  C  C47  1  0.75202692  0.20332700  0.37989964  1
  C  C48  1  0.05389142  0.11229624  0.15906694  1
  C  C49  1  0.44610858  0.88770376  0.65906694  1
  C  C50  1  0.94610858  0.61229624  0.34093306  1
  C  C51  1  0.55389142  0.38770376  0.84093306  1
  C  C52  1  0.47170729  0.30565856  0.06216958  1
  C  C53  1  0.02829271  0.69434144  0.56216958  1
  C  C54  1  0.52829271  0.80565856  0.43783042  1
  C  C55  1  0.97170729  0.19434144  0.93783042  1
  C  C56  1  0.35342292  0.40088463  0.40855201  1
  C  C57  1  0.14657708  0.59911537  0.90855201  1
  C  C58  1  0.64657708  0.90088463  0.09144799  1
  C  C59  1  0.85342292  0.09911537  0.59144799  1
