# generated using pymatgen
data_Tb3(Ge3Pt2)2
_symmetry_space_group_name_H-M   'P 1'
_cell_length_a   4.40155029
_cell_length_b   25.94230200
_cell_length_c   8.86977230
_cell_angle_alpha   90.00000000
_cell_angle_beta   90.00000000
_cell_angle_gamma   90.00000000
_symmetry_Int_Tables_number   1
_chemical_formula_structural   Tb3(Ge3Pt2)2
_chemical_formula_sum   'Tb12 Ge24 Pt16'
_cell_volume   1012.80689670
_cell_formula_units_Z   4
loop_
 _symmetry_equiv_pos_site_id
 _symmetry_equiv_pos_as_xyz
  1  'x, y, z'
loop_
 _atom_site_type_symbol
 _atom_site_label
 _atom_site_symmetry_multiplicity
 _atom_site_fract_x
 _atom_site_fract_y
 _atom_site_fract_z
 _atom_site_occupancy
  Tb  Tb0  1  0.75000000  0.72016661  0.62504709  1
  Tb  Tb1  1  0.25000000  0.27983339  0.37495291  1
  Tb  Tb2  1  0.25000000  0.77983339  0.12504709  1
  Tb  Tb3  1  0.75000000  0.22016661  0.87495291  1
  Tb  Tb4  1  0.75000000  0.59246032  0.86527157  1
  Tb  Tb5  1  0.25000000  0.40753968  0.13472843  1
  Tb  Tb6  1  0.25000000  0.90753968  0.36527157  1
  Tb  Tb7  1  0.75000000  0.09246032  0.63472843  1
  Tb  Tb8  1  0.75000000  0.59191526  0.38612071  1
  Tb  Tb9  1  0.25000000  0.40808474  0.61387929  1
  Tb  Tb10  1  0.25000000  0.90808474  0.88612071  1
  Tb  Tb11  1  0.75000000  0.09191526  0.11387929  1
  Ge  Ge12  1  0.75000000  0.71438666  0.27257335  1
  Ge  Ge13  1  0.25000000  0.28561334  0.72742665  1
  Ge  Ge14  1  0.25000000  0.78561334  0.77257335  1
  Ge  Ge15  1  0.75000000  0.21438666  0.22742665  1
  Ge  Ge16  1  0.75000000  0.85759874  0.62594625  1
  Ge  Ge17  1  0.25000000  0.14240126  0.37405375  1
  Ge  Ge18  1  0.25000000  0.64240126  0.12594625  1
  Ge  Ge19  1  0.75000000  0.35759874  0.87405375  1
  Ge  Ge20  1  0.75000000  0.71461240  0.97797173  1
  Ge  Ge21  1  0.25000000  0.28538760  0.02202827  1
  Ge  Ge22  1  0.25000000  0.78538760  0.47797173  1
  Ge  Ge23  1  0.75000000  0.21461240  0.52202827  1
  Ge  Ge24  1  0.75000000  0.86098580  0.12602093  1
  Ge  Ge25  1  0.25000000  0.13901420  0.87397907  1
  Ge  Ge26  1  0.25000000  0.63901420  0.62602093  1
  Ge  Ge27  1  0.75000000  0.36098580  0.37397907  1
  Ge  Ge28  1  0.75000000  0.99707860  0.87250430  1
  Ge  Ge29  1  0.25000000  0.00292140  0.12749570  1
  Ge  Ge30  1  0.25000000  0.50292140  0.37250430  1
  Ge  Ge31  1  0.75000000  0.49707860  0.62749570  1
  Ge  Ge32  1  0.75000000  0.50093182  0.12282143  1
  Ge  Ge33  1  0.25000000  0.49906818  0.87717857  1
  Ge  Ge34  1  0.25000000  0.99906818  0.62282143  1
  Ge  Ge35  1  0.75000000  0.00093182  0.37717857  1
  Pt  Pt36  1  0.75000000  0.81257912  0.37389999  1
  Pt  Pt37  1  0.25000000  0.18742088  0.62610001  1
  Pt  Pt38  1  0.25000000  0.68742088  0.87389999  1
  Pt  Pt39  1  0.75000000  0.31257912  0.12610001  1
  Pt  Pt40  1  0.75000000  0.45544510  0.37187982  1
  Pt  Pt41  1  0.25000000  0.54455490  0.62812018  1
  Pt  Pt42  1  0.25000000  0.04455490  0.87187982  1
  Pt  Pt43  1  0.75000000  0.95544510  0.12812018  1
  Pt  Pt44  1  0.75000000  0.81258146  0.87781812  1
  Pt  Pt45  1  0.25000000  0.18741854  0.12218188  1
  Pt  Pt46  1  0.25000000  0.68741854  0.37781812  1
  Pt  Pt47  1  0.75000000  0.31258146  0.62218188  1
  Pt  Pt48  1  0.75000000  0.95084565  0.62128336  1
  Pt  Pt49  1  0.25000000  0.04915435  0.37871664  1
  Pt  Pt50  1  0.25000000  0.54915435  0.12128336  1
  Pt  Pt51  1  0.75000000  0.45084565  0.87871664  1
