# generated using pymatgen
data_Sm3Sc2Al3O12
_symmetry_space_group_name_H-M   'P 1'
_cell_length_a   10.89599452
_cell_length_b   10.89599452
_cell_length_c   10.89599452
_cell_angle_alpha   109.47122063
_cell_angle_beta   109.47122063
_cell_angle_gamma   109.47122063
_symmetry_Int_Tables_number   1
_chemical_formula_structural   Sm3Sc2Al3O12
_chemical_formula_sum   'Sm12 Sc8 Al12 O48'
_cell_volume   995.81516983
_cell_formula_units_Z   4
loop_
 _symmetry_equiv_pos_site_id
 _symmetry_equiv_pos_as_xyz
  1  'x, y, z'
loop_
 _atom_site_type_symbol
 _atom_site_label
 _atom_site_symmetry_multiplicity
 _atom_site_fract_x
 _atom_site_fract_y
 _atom_site_fract_z
 _atom_site_occupancy
  Sm  Sm0  1  0.87500000  0.62500000  0.75000000  1
  Sm  Sm1  1  0.12500000  0.37500000  0.25000000  1
  Sm  Sm2  1  0.62500000  0.87500000  0.25000000  1
  Sm  Sm3  1  0.62500000  0.75000000  0.87500000  1
  Sm  Sm4  1  0.87500000  0.25000000  0.62500000  1
  Sm  Sm5  1  0.37500000  0.12500000  0.75000000  1
  Sm  Sm6  1  0.37500000  0.25000000  0.12500000  1
  Sm  Sm7  1  0.12500000  0.75000000  0.37500000  1
  Sm  Sm8  1  0.75000000  0.87500000  0.62500000  1
  Sm  Sm9  1  0.25000000  0.12500000  0.37500000  1
  Sm  Sm10  1  0.25000000  0.62500000  0.87500000  1
  Sm  Sm11  1  0.75000000  0.37500000  0.12500000  1
  Sc  Sc12  1  -0.00000000  0.00000000  0.00000000  1
  Sc  Sc13  1  0.50000000  0.00000000  0.50000000  1
  Sc  Sc14  1  0.50000000  0.50000000  0.00000000  1
  Sc  Sc15  1  -0.00000000  0.00000000  0.50000000  1
  Sc  Sc16  1  -0.00000000  0.50000000  0.50000000  1
  Sc  Sc17  1  0.50000000  0.50000000  0.50000000  1
  Sc  Sc18  1  0.50000000  0.00000000  0.00000000  1
  Sc  Sc19  1  0.00000000  0.50000000  0.00000000  1
  Al  Al20  1  0.62500000  0.37500000  0.75000000  1
  Al  Al21  1  0.37500000  0.62500000  0.25000000  1
  Al  Al22  1  0.87500000  0.12500000  0.25000000  1
  Al  Al23  1  0.37500000  0.75000000  0.62500000  1
  Al  Al24  1  0.62500000  0.25000000  0.37500000  1
  Al  Al25  1  0.12500000  0.87500000  0.75000000  1
  Al  Al26  1  0.12500000  0.25000000  0.87500000  1
  Al  Al27  1  0.87500000  0.75000000  0.12500000  1
  Al  Al28  1  0.75000000  0.62500000  0.37500000  1
  Al  Al29  1  0.25000000  0.37500000  0.62500000  1
  Al  Al30  1  0.25000000  0.87500000  0.12500000  1
  Al  Al31  1  0.75000000  0.12500000  0.87500000  1
  O  O32  1  0.71073050  0.62306632  0.52201274  1
  O  O33  1  0.28926950  0.37693368  0.47798726  1
  O  O34  1  0.78926950  0.81128223  0.41233582  1
  O  O35  1  0.39894642  0.87693368  0.08766418  1
  O  O36  1  0.62306632  0.52201274  0.71073050  1
  O  O37  1  0.71073050  0.08766418  0.68871777  1
  O  O38  1  0.21073050  0.18871777  0.58766418  1
  O  O39  1  0.60105358  0.12306632  0.91233582  1
  O  O40  1  0.37693368  0.47798726  0.28926950  1
  O  O41  1  0.28926950  0.91233582  0.31128223  1
  O  O42  1  0.10105358  0.68871777  0.97798726  1
  O  O43  1  0.81128223  0.41233582  0.78926950  1
  O  O44  1  0.78926950  0.97798726  0.87693368  1
  O  O45  1  0.89894642  0.31128223  0.02201274  1
  O  O46  1  0.18871777  0.58766418  0.21073050  1
  O  O47  1  0.21073050  0.02201274  0.12306632  1
  O  O48  1  0.87693368  0.08766418  0.39894642  1
  O  O49  1  0.39894642  0.52201274  0.81128223  1
  O  O50  1  0.12306632  0.91233582  0.60105358  1
  O  O51  1  0.60105358  0.47798726  0.18871777  1
  O  O52  1  0.68871777  0.97798726  0.10105358  1
  O  O53  1  0.10105358  0.41233582  0.62306632  1
  O  O54  1  0.31128223  0.02201274  0.89894642  1
  O  O55  1  0.89894642  0.58766418  0.37693368  1
  O  O56  1  0.52201274  0.71073050  0.62306632  1
  O  O57  1  0.62306632  0.10105358  0.41233582  1
  O  O58  1  0.47798726  0.28926950  0.37693368  1
  O  O59  1  0.37693368  0.89894642  0.58766418  1
  O  O60  1  0.08766418  0.39894642  0.87693368  1
  O  O61  1  0.87693368  0.78926950  0.97798726  1
  O  O62  1  0.91233582  0.60105358  0.12306632  1
  O  O63  1  0.12306632  0.21073050  0.02201274  1
  O  O64  1  0.97798726  0.10105358  0.68871777  1
  O  O65  1  0.68871777  0.71073050  0.08766418  1
  O  O66  1  0.02201274  0.89894642  0.31128223  1
  O  O67  1  0.31128223  0.28926950  0.91233582  1
  O  O68  1  0.41233582  0.78926950  0.81128223  1
  O  O69  1  0.81128223  0.39894642  0.52201274  1
  O  O70  1  0.58766418  0.21073050  0.18871777  1
  O  O71  1  0.18871777  0.60105358  0.47798726  1
  O  O72  1  0.08766418  0.68871777  0.71073050  1
  O  O73  1  0.91233582  0.31128223  0.28926950  1
  O  O74  1  0.97798726  0.87693368  0.78926950  1
  O  O75  1  0.02201274  0.12306632  0.21073050  1
  O  O76  1  0.41233582  0.62306632  0.10105358  1
  O  O77  1  0.58766418  0.37693368  0.89894642  1
  O  O78  1  0.52201274  0.81128223  0.39894642  1
  O  O79  1  0.47798726  0.18871777  0.60105358  1
