# generated using pymatgen
data_Sm2Sb5
_symmetry_space_group_name_H-M   'P 1'
_cell_length_a   4.21896702
_cell_length_b   13.43638723
_cell_length_c   15.06561463
_cell_angle_alpha   101.97055215
_cell_angle_beta   90.00000000
_cell_angle_gamma   90.00000000
_symmetry_Int_Tables_number   1
_chemical_formula_structural   Sm2Sb5
_chemical_formula_sum   'Sm8 Sb20'
_cell_volume   835.46310454
_cell_formula_units_Z   4
loop_
 _symmetry_equiv_pos_site_id
 _symmetry_equiv_pos_as_xyz
  1  'x, y, z'
loop_
 _atom_site_type_symbol
 _atom_site_label
 _atom_site_symmetry_multiplicity
 _atom_site_fract_x
 _atom_site_fract_y
 _atom_site_fract_z
 _atom_site_occupancy
  Sm  Sm0  1  0.75000000  0.66888377  0.42325313  1
  Sm  Sm1  1  0.25000000  0.33111623  0.57674687  1
  Sm  Sm2  1  0.75000000  0.39312993  0.22806253  1
  Sm  Sm3  1  0.25000000  0.60687007  0.77193747  1
  Sm  Sm4  1  0.75000000  0.95277976  0.63952199  1
  Sm  Sm5  1  0.25000000  0.04722024  0.36047801  1
  Sm  Sm6  1  0.75000000  0.66330977  0.14382875  1
  Sm  Sm7  1  0.25000000  0.33669023  0.85617125  1
  Sb  Sb8  1  0.75000000  0.42635073  0.44502773  1
  Sb  Sb9  1  0.25000000  0.57364927  0.55497227  1
  Sb  Sb10  1  0.75000000  0.71845909  0.93893347  1
  Sb  Sb11  1  0.25000000  0.28154091  0.06106653  1
  Sb  Sb12  1  0.75000000  0.42045822  0.02504520  1
  Sb  Sb13  1  0.25000000  0.57954178  0.97495480  1
  Sb  Sb14  1  0.75000000  0.86047016  0.32252558  1
  Sb  Sb15  1  0.25000000  0.13952984  0.67747442  1
  Sb  Sb16  1  0.75000000  0.15022798  0.82454503  1
  Sb  Sb17  1  0.25000000  0.84977202  0.17545497  1
  Sb  Sb18  1  0.75000000  0.71304876  0.64849251  1
  Sb  Sb19  1  0.25000000  0.28695124  0.35150749  1
  Sb  Sb20  1  0.75000000  0.14257009  0.21865864  1
  Sb  Sb21  1  0.25000000  0.85742991  0.78134136  1
  Sb  Sb22  1  0.75000000  0.42489927  0.73475385  1
  Sb  Sb23  1  0.25000000  0.57510073  0.26524615  1
  Sb  Sb24  1  0.75000000  0.14256161  0.52063387  1
  Sb  Sb25  1  0.25000000  0.85743839  0.47936613  1
  Sb  Sb26  1  0.75000000  0.97123458  0.89917265  1
  Sb  Sb27  1  0.25000000  0.02876542  0.10082735  1
