# generated using pymatgen
data_Sm2HgO4
_symmetry_space_group_name_H-M   'P 1'
_cell_length_a   3.77514502
_cell_length_b   7.18799368
_cell_length_c   9.08596805
_cell_angle_alpha   77.15823571
_cell_angle_beta   78.00971179
_cell_angle_gamma   74.77556259
_symmetry_Int_Tables_number   1
_chemical_formula_structural   Sm2HgO4
_chemical_formula_sum   'Sm4 Hg2 O8'
_cell_volume   229.00813392
_cell_formula_units_Z   2
loop_
 _symmetry_equiv_pos_site_id
 _symmetry_equiv_pos_as_xyz
  1  'x, y, z'
loop_
 _atom_site_type_symbol
 _atom_site_label
 _atom_site_symmetry_multiplicity
 _atom_site_fract_x
 _atom_site_fract_y
 _atom_site_fract_z
 _atom_site_occupancy
  Sm  Sm0  1  0.61952440  0.22103916  0.53991204  1
  Sm  Sm1  1  0.38047560  0.77896084  0.46008796  1
  Sm  Sm2  1  0.84071446  0.52007862  0.79849246  1
  Sm  Sm3  1  0.15928554  0.47992138  0.20150754  1
  Hg  Hg4  1  0.88556650  0.06710256  0.16176444  1
  Hg  Hg5  1  0.11443350  0.93289744  0.83823556  1
  O  O6  1  0.96414736  0.79058609  0.28111918  1
  O  O7  1  0.03585264  0.20941391  0.71888082  1
  O  O8  1  0.58155535  0.49029259  0.34659672  1
  O  O9  1  0.41844465  0.50970741  0.65340328  1
  O  O10  1  0.79707047  0.35022027  0.05563880  1
  O  O11  1  0.20292953  0.64977973  0.94436120  1
  O  O12  1  0.76984067  0.84898283  0.61133582  1
  O  O13  1  0.23015933  0.15101717  0.38866418  1
