# generated using pymatgen
data_Sm4Al2O9
_symmetry_space_group_name_H-M   'P 1'
_cell_length_a   7.66871630
_cell_length_b   10.81148677
_cell_length_c   11.36337122
_cell_angle_alpha   90.00000000
_cell_angle_beta   109.01457057
_cell_angle_gamma   90.00000000
_symmetry_Int_Tables_number   1
_chemical_formula_structural   Sm4Al2O9
_chemical_formula_sum   'Sm16 Al8 O36'
_cell_volume   890.73252007
_cell_formula_units_Z   4
loop_
 _symmetry_equiv_pos_site_id
 _symmetry_equiv_pos_as_xyz
  1  'x, y, z'
loop_
 _atom_site_type_symbol
 _atom_site_label
 _atom_site_symmetry_multiplicity
 _atom_site_fract_x
 _atom_site_fract_y
 _atom_site_fract_z
 _atom_site_occupancy
  Sm  Sm0  1  0.52487428  0.41045666  0.30882633  1
  Sm  Sm1  1  0.47512572  0.58954334  0.69117367  1
  Sm  Sm2  1  0.47512572  0.91045666  0.19117367  1
  Sm  Sm3  1  0.52487428  0.08954334  0.80882633  1
  Sm  Sm4  1  0.02356778  0.39616481  0.28700643  1
  Sm  Sm5  1  0.97643222  0.60383519  0.71299357  1
  Sm  Sm6  1  0.97643222  0.89616481  0.21299357  1
  Sm  Sm7  1  0.02356778  0.10383519  0.78700643  1
  Sm  Sm8  1  0.16427371  0.62446302  0.06855660  1
  Sm  Sm9  1  0.83572629  0.37553698  0.93144340  1
  Sm  Sm10  1  0.83572629  0.12446302  0.43144340  1
  Sm  Sm11  1  0.16427371  0.87553698  0.56855660  1
  Sm  Sm12  1  0.33619422  0.12223382  0.41387409  1
  Sm  Sm13  1  0.66380578  0.87776618  0.58612591  1
  Sm  Sm14  1  0.66380578  0.62223382  0.08612591  1
  Sm  Sm15  1  0.33619422  0.37776618  0.91387409  1
  Al  Al16  1  0.15225436  0.18518970  0.11664108  1
  Al  Al17  1  0.84774564  0.81481030  0.88335892  1
  Al  Al18  1  0.84774564  0.68518970  0.38335892  1
  Al  Al19  1  0.15225436  0.31481030  0.61664108  1
  Al  Al20  1  0.72108453  0.18728779  0.12866677  1
  Al  Al21  1  0.27891547  0.81271221  0.87133323  1
  Al  Al22  1  0.27891547  0.68728779  0.37133323  1
  Al  Al23  1  0.72108453  0.31271221  0.62866677  1
  O  O24  1  0.57562046  0.26594467  0.48158086  1
  O  O25  1  0.42437954  0.73405533  0.51841914  1
  O  O26  1  0.42437954  0.76594467  0.01841914  1
  O  O27  1  0.57562046  0.23405533  0.98158086  1
  O  O28  1  0.13871658  0.27036204  0.46453889  1
  O  O29  1  0.86128342  0.72963796  0.53546111  1
  O  O30  1  0.86128342  0.77036204  0.03546111  1
  O  O31  1  0.13871658  0.22963796  0.96453889  1
  O  O32  1  0.19897496  0.03024891  0.16739181  1
  O  O33  1  0.80102504  0.96975109  0.83260819  1
  O  O34  1  0.80102504  0.53024891  0.33260819  1
  O  O35  1  0.19897496  0.46975109  0.66739181  1
  O  O36  1  0.42296111  0.49504010  0.10677354  1
  O  O37  1  0.57703889  0.50495990  0.89322646  1
  O  O38  1  0.57703889  0.99504010  0.39322646  1
  O  O39  1  0.42296111  0.00495990  0.60677354  1
  O  O40  1  0.28497980  0.27224547  0.24685117  1
  O  O41  1  0.71502020  0.72775453  0.75314883  1
  O  O42  1  0.71502020  0.77224547  0.25314883  1
  O  O43  1  0.28497980  0.22775453  0.74685117  1
  O  O44  1  0.73201894  0.27120549  0.26575891  1
  O  O45  1  0.26798106  0.72879451  0.73424109  1
  O  O46  1  0.26798106  0.77120549  0.23424109  1
  O  O47  1  0.73201894  0.22879451  0.76575891  1
  O  O48  1  0.06669503  0.74068869  0.38438472  1
  O  O49  1  0.93330497  0.25931131  0.61561528  1
  O  O50  1  0.93330497  0.24068869  0.11561528  1
  O  O51  1  0.06669503  0.75931131  0.88438472  1
  O  O52  1  0.28341839  0.52932783  0.33673043  1
  O  O53  1  0.71658161  0.47067217  0.66326957  1
  O  O54  1  0.71658161  0.02932783  0.16326957  1
  O  O55  1  0.28341839  0.97067217  0.83673043  1
  O  O56  1  0.06679603  0.00798671  0.39530938  1
  O  O57  1  0.93320397  0.99201329  0.60469062  1
  O  O58  1  0.93320397  0.50798671  0.10469062  1
  O  O59  1  0.06679603  0.49201329  0.89530938  1
