# generated using pymatgen
data_Sc2NiB2Ir5
_symmetry_space_group_name_H-M   'P 1'
_cell_length_a   3.07112245
_cell_length_b   9.34940820
_cell_length_c   9.34940820
_cell_angle_alpha   90.00000000
_cell_angle_beta   90.00000000
_cell_angle_gamma   90.00000000
_symmetry_Int_Tables_number   1
_chemical_formula_structural   Sc2NiB2Ir5
_chemical_formula_sum   'Sc4 Ni2 B4 Ir10'
_cell_volume   268.45121639
_cell_formula_units_Z   2
loop_
 _symmetry_equiv_pos_site_id
 _symmetry_equiv_pos_as_xyz
  1  'x, y, z'
loop_
 _atom_site_type_symbol
 _atom_site_label
 _atom_site_symmetry_multiplicity
 _atom_site_fract_x
 _atom_site_fract_y
 _atom_site_fract_z
 _atom_site_occupancy
  Sc  Sc0  1  0.00000000  0.17576487  0.67576487  1
  Sc  Sc1  1  0.00000000  0.82423513  0.32423513  1
  Sc  Sc2  1  -0.00000000  0.32423513  0.17576487  1
  Sc  Sc3  1  0.00000000  0.67576487  0.82423513  1
  Ni  Ni4  1  -0.00000000  0.00000000  -0.00000000  1
  Ni  Ni5  1  0.00000000  0.50000000  0.50000000  1
  B  B6  1  0.00000000  0.62591344  0.12591344  1
  B  B7  1  0.00000000  0.37408656  0.87408656  1
  B  B8  1  -0.00000000  0.87408656  0.62591344  1
  B  B9  1  -0.00000000  0.12591344  0.37408656  1
  Ir  Ir10  1  0.50000000  0.07048269  0.21378694  1
  Ir  Ir11  1  0.50000000  0.92951731  0.78621306  1
  Ir  Ir12  1  0.50000000  0.78621306  0.07048269  1
  Ir  Ir13  1  0.50000000  0.42951731  0.71378694  1
  Ir  Ir14  1  0.50000000  0.21378694  0.92951731  1
  Ir  Ir15  1  0.50000000  0.57048269  0.28621306  1
  Ir  Ir16  1  0.50000000  0.71378694  0.57048269  1
  Ir  Ir17  1  0.50000000  0.28621306  0.42951731  1
  Ir  Ir18  1  0.50000000  0.00000000  0.50000000  1
  Ir  Ir19  1  0.50000000  0.50000000  -0.00000000  1
