# generated using pymatgen
data_RbCuTeS3
_symmetry_space_group_name_H-M   'P 1'
_cell_length_a   7.52333874
_cell_length_b   8.22831302
_cell_length_c   10.63266084
_cell_angle_alpha   90.00000000
_cell_angle_beta   90.00000000
_cell_angle_gamma   105.86034492
_symmetry_Int_Tables_number   1
_chemical_formula_structural   RbCuTeS3
_chemical_formula_sum   'Rb4 Cu4 Te4 S12'
_cell_volume   633.15080469
_cell_formula_units_Z   4
loop_
 _symmetry_equiv_pos_site_id
 _symmetry_equiv_pos_as_xyz
  1  'x, y, z'
loop_
 _atom_site_type_symbol
 _atom_site_label
 _atom_site_symmetry_multiplicity
 _atom_site_fract_x
 _atom_site_fract_y
 _atom_site_fract_z
 _atom_site_occupancy
  Rb  Rb0  1  0.47385951  0.61559474  0.73692345  1
  Rb  Rb1  1  0.52614049  0.38440526  0.26307655  1
  Rb  Rb2  1  0.52614049  0.88440526  0.23692345  1
  Rb  Rb3  1  0.47385951  0.11559474  0.76307655  1
  Cu  Cu4  1  0.91668463  0.97931242  0.74970844  1
  Cu  Cu5  1  0.08331537  0.02068758  0.25029156  1
  Cu  Cu6  1  0.08331537  0.52068758  0.24970844  1
  Cu  Cu7  1  0.91668463  0.47931242  0.75029156  1
  Te  Te8  1  0.93580201  0.73267871  0.99791820  1
  Te  Te9  1  0.06419799  0.26732129  0.00208180  1
  Te  Te10  1  0.06419799  0.76732129  0.49791820  1
  Te  Te11  1  0.93580201  0.23267871  0.50208180  1
  S  S12  1  0.74680650  0.96020633  0.56424797  1
  S  S13  1  0.25319350  0.03979367  0.43575203  1
  S  S14  1  0.25319350  0.53979367  0.06424797  1
  S  S15  1  0.74680650  0.46020633  0.93575203  1
  S  S16  1  0.89548827  0.72512401  0.22605319  1
  S  S17  1  0.10451173  0.27487599  0.77394681  1
  S  S18  1  0.10451173  0.77487599  0.72605319  1
  S  S19  1  0.89548827  0.22512401  0.27394681  1
  S  S20  1  0.74432423  0.90938618  0.93402783  1
  S  S21  1  0.25567577  0.09061382  0.06597217  1
  S  S22  1  0.25567577  0.59061382  0.43402783  1
  S  S23  1  0.74432423  0.40938618  0.56597217  1
