# generated using pymatgen
data_Rb2Sr(PO3)4
_symmetry_space_group_name_H-M   'P 1'
_cell_length_a   7.53268688
_cell_length_b   7.53268688
_cell_length_c   7.53268688
_cell_angle_alpha   92.21759647
_cell_angle_beta   118.72803638
_cell_angle_gamma   118.72803638
_symmetry_Int_Tables_number   1
_chemical_formula_structural   Rb2Sr(PO3)4
_chemical_formula_sum   'Rb2 Sr1 P4 O12'
_cell_volume   307.78916771
_cell_formula_units_Z   1
loop_
 _symmetry_equiv_pos_site_id
 _symmetry_equiv_pos_as_xyz
  1  'x, y, z'
loop_
 _atom_site_type_symbol
 _atom_site_label
 _atom_site_symmetry_multiplicity
 _atom_site_fract_x
 _atom_site_fract_y
 _atom_site_fract_z
 _atom_site_occupancy
  Rb  Rb0  1  0.50000000  0.92267606  0.42267606  1
  Rb  Rb1  1  0.50000000  0.57732394  0.07732394  1
  Sr  Sr2  1  -0.00000000  0.00000000  -0.00000000  1
  P  P3  1  0.56084123  0.43349974  0.56324635  1
  P  P4  1  0.43915877  0.00240512  0.87265851  1
  P  P5  1  0.12974661  0.12734149  0.56650026  1
  P  P6  1  0.87025339  0.43675365  0.99759488  1
  O  O7  1  0.36010679  0.36620787  0.62220255  1
  O  O8  1  0.63989321  0.26209576  0.00610108  1
  O  O9  1  0.25599468  0.99389892  0.63379213  1
  O  O10  1  0.74400532  0.37779745  0.73790424  1
  O  O11  1  0.69382383  0.67258240  0.61100559  1
  O  O12  1  0.30617617  0.91718176  0.97875857  1
  O  O13  1  0.93842319  0.02124143  0.32741760  1
  O  O14  1  0.06157681  0.38899441  0.08281824  1
  O  O15  1  0.44237168  0.28025736  0.34599649  1
  O  O16  1  0.55762832  0.90362481  0.83788568  1
  O  O17  1  0.06573914  0.16211432  0.71974264  1
  O  O18  1  0.93426086  0.65400351  0.09637519  1
