# generated using pymatgen
data_PrSBr
_symmetry_space_group_name_H-M   'P 1'
_cell_length_a   7.05219597
_cell_length_b   7.12385102
_cell_length_c   7.16577829
_cell_angle_alpha   90.00000000
_cell_angle_beta   90.00000000
_cell_angle_gamma   99.70663169
_symmetry_Int_Tables_number   1
_chemical_formula_structural   PrSBr
_chemical_formula_sum   'Pr4 S4 Br4'
_cell_volume   354.84628031
_cell_formula_units_Z   4
loop_
 _symmetry_equiv_pos_site_id
 _symmetry_equiv_pos_as_xyz
  1  'x, y, z'
loop_
 _atom_site_type_symbol
 _atom_site_label
 _atom_site_symmetry_multiplicity
 _atom_site_fract_x
 _atom_site_fract_y
 _atom_site_fract_z
 _atom_site_occupancy
  Pr  Pr0  1  0.21044877  0.31945740  0.03532957  1
  Pr  Pr1  1  0.78955123  0.68054260  0.96467043  1
  Pr  Pr2  1  0.28955123  0.68054260  0.53532957  1
  Pr  Pr3  1  0.71044877  0.31945740  0.46467043  1
  S  S4  1  0.00761541  0.55192968  0.25869848  1
  S  S5  1  0.99238459  0.44807032  0.74130152  1
  S  S6  1  0.49238459  0.44807032  0.75869848  1
  S  S7  1  0.50761541  0.55192968  0.24130152  1
  Br  Br8  1  0.28877008  0.08528470  0.38424114  1
  Br  Br9  1  0.71122992  0.91471530  0.61575886  1
  Br  Br10  1  0.21122992  0.91471530  0.88424114  1
  Br  Br11  1  0.78877008  0.08528470  0.11575886  1
