# generated using pymatgen
data_Sc5Sb3
_symmetry_space_group_name_H-M   'P 1'
_cell_length_a   7.62172492
_cell_length_b   8.77289479
_cell_length_c   11.17134000
_cell_angle_alpha   90.00000000
_cell_angle_beta   90.00000000
_cell_angle_gamma   90.00000000
_symmetry_Int_Tables_number   1
_chemical_formula_structural   Sc5Sb3
_chemical_formula_sum   'Sc20 Sb12'
_cell_volume   746.96707825
_cell_formula_units_Z   4
loop_
 _symmetry_equiv_pos_site_id
 _symmetry_equiv_pos_as_xyz
  1  'x, y, z'
loop_
 _atom_site_type_symbol
 _atom_site_label
 _atom_site_symmetry_multiplicity
 _atom_site_fract_x
 _atom_site_fract_y
 _atom_site_fract_z
 _atom_site_occupancy
  Sc  Sc0  1  0.02666052  0.25000000  0.51058560  1
  Sc  Sc1  1  0.97333948  0.75000000  0.48941440  1
  Sc  Sc2  1  0.47333948  0.75000000  0.01058560  1
  Sc  Sc3  1  0.52666052  0.25000000  0.98941440  1
  Sc  Sc4  1  0.35312117  0.25000000  0.28423966  1
  Sc  Sc5  1  0.64687883  0.75000000  0.71576034  1
  Sc  Sc6  1  0.14687883  0.75000000  0.78423966  1
  Sc  Sc7  1  0.85312117  0.25000000  0.21576034  1
  Sc  Sc8  1  0.18669791  0.25000000  0.77940647  1
  Sc  Sc9  1  0.81330209  0.75000000  0.22059353  1
  Sc  Sc10  1  0.31330209  0.75000000  0.27940647  1
  Sc  Sc11  1  0.68669791  0.25000000  0.72059353  1
  Sc  Sc12  1  0.19599736  0.06241807  0.06070747  1
  Sc  Sc13  1  0.80400264  0.93758193  0.93929253  1
  Sc  Sc14  1  0.30400264  0.93758193  0.56070747  1
  Sc  Sc15  1  0.80400264  0.56241807  0.93929253  1
  Sc  Sc16  1  0.69599736  0.06241807  0.43929253  1
  Sc  Sc17  1  0.19599736  0.43758193  0.06070747  1
  Sc  Sc18  1  0.69599736  0.43758193  0.43929253  1
  Sc  Sc19  1  0.30400264  0.56241807  0.56070747  1
  Sb  Sb20  1  0.41195947  0.25000000  0.53991319  1
  Sb  Sb21  1  0.58804053  0.75000000  0.46008681  1
  Sb  Sb22  1  0.08804053  0.75000000  0.03991319  1
  Sb  Sb23  1  0.91195947  0.25000000  0.96008681  1
  Sb  Sb24  1  0.06622396  0.00389690  0.32655148  1
  Sb  Sb25  1  0.93377604  0.99610310  0.67344852  1
  Sb  Sb26  1  0.43377604  0.99610310  0.82655148  1
  Sb  Sb27  1  0.93377604  0.50389690  0.67344852  1
  Sb  Sb28  1  0.56622396  0.00389690  0.17344852  1
  Sb  Sb29  1  0.06622396  0.49610310  0.32655148  1
  Sb  Sb30  1  0.56622396  0.49610310  0.17344852  1
  Sb  Sb31  1  0.43377604  0.50389690  0.82655148  1
