# generated using pymatgen
data_Sc2B4Ru5
_symmetry_space_group_name_H-M   'P 1'
_cell_length_a   3.01006201
_cell_length_b   8.53167451
_cell_length_c   10.10006231
_cell_angle_alpha   89.94811437
_cell_angle_beta   90.00000000
_cell_angle_gamma   90.00000000
_symmetry_Int_Tables_number   1
_chemical_formula_structural   Sc2B4Ru5
_chemical_formula_sum   'Sc4 B8 Ru10'
_cell_volume   259.37827405
_cell_formula_units_Z   2
loop_
 _symmetry_equiv_pos_site_id
 _symmetry_equiv_pos_as_xyz
  1  'x, y, z'
loop_
 _atom_site_type_symbol
 _atom_site_label
 _atom_site_symmetry_multiplicity
 _atom_site_fract_x
 _atom_site_fract_y
 _atom_site_fract_z
 _atom_site_occupancy
  Sc  Sc0  1  0.50000000  0.84326122  0.18094736  1
  Sc  Sc1  1  0.50000000  0.15673878  0.81905264  1
  Sc  Sc2  1  0.50000000  0.65745868  0.68045507  1
  Sc  Sc3  1  0.50000000  0.34254132  0.31954493  1
  B  B4  1  0.50000000  0.96519555  0.58957437  1
  B  B5  1  0.50000000  0.03480445  0.41042563  1
  B  B6  1  0.50000000  0.85168242  0.89952530  1
  B  B7  1  0.50000000  0.14831758  0.10047470  1
  B  B8  1  0.50000000  0.64759823  0.39856066  1
  B  B9  1  0.50000000  0.35240177  0.60143934  1
  B  B10  1  0.50000000  0.46644105  0.91015421  1
  B  B11  1  0.50000000  0.53355895  0.08984579  1
  Ru  Ru12  1  0.00000000  0.65933278  0.95304143  1
  Ru  Ru13  1  -0.00000000  0.34066722  0.04695857  1
  Ru  Ru14  1  -0.00000000  0.84010960  0.45196824  1
  Ru  Ru15  1  0.00000000  0.15989040  0.54803176  1
  Ru  Ru16  1  0.00000000  -0.00000000  0.00000000  1
  Ru  Ru17  1  0.00000000  0.40415829  0.76190016  1
  Ru  Ru18  1  -0.00000000  0.59584171  0.23809984  1
  Ru  Ru19  1  0.00000000  0.50000000  0.50000000  1
  Ru  Ru20  1  -0.00000000  0.90354252  0.73883047  1
  Ru  Ru21  1  0.00000000  0.09645748  0.26116953  1
