# generated using pymatgen
data_RbSb2PO8
_symmetry_space_group_name_H-M   'P 1'
_cell_length_a   7.22995181
_cell_length_b   7.30036220
_cell_length_c   15.26586651
_cell_angle_alpha   95.71512092
_cell_angle_beta   90.00000000
_cell_angle_gamma   119.68146279
_symmetry_Int_Tables_number   1
_chemical_formula_structural   RbSb2PO8
_chemical_formula_sum   'Rb4 Sb8 P4 O32'
_cell_volume   695.41676014
_cell_formula_units_Z   4
loop_
 _symmetry_equiv_pos_site_id
 _symmetry_equiv_pos_as_xyz
  1  'x, y, z'
loop_
 _atom_site_type_symbol
 _atom_site_label
 _atom_site_symmetry_multiplicity
 _atom_site_fract_x
 _atom_site_fract_y
 _atom_site_fract_z
 _atom_site_occupancy
  Rb  Rb0  1  0.07730370  0.39602103  0.92039087  1
  Rb  Rb1  1  0.31871733  0.39602103  0.42039087  1
  Rb  Rb2  1  0.01996310  0.27914829  0.64692964  1
  Rb  Rb3  1  0.25918519  0.27914829  0.14692964  1
  Sb  Sb4  1  0.04326056  0.83202647  0.78540850  1
  Sb  Sb5  1  0.78876590  0.83202647  0.28540850  1
  Sb  Sb6  1  0.35776702  0.98019714  0.59538002  1
  Sb  Sb7  1  0.62243012  0.98019714  0.09538002  1
  Sb  Sb8  1  0.54604034  0.83739684  0.77859921  1
  Sb  Sb9  1  0.29135650  0.83739684  0.27859921  1
  Sb  Sb10  1  0.71214285  0.68733993  0.96852493  1
  Sb  Sb11  1  0.97519709  0.68733993  0.46852493  1
  P  P12  1  0.65513435  0.53513804  0.63800053  1
  P  P13  1  0.88000369  0.53513804  0.13800053  1
  P  P14  1  0.45521882  0.13345754  0.92573965  1
  P  P15  1  0.67823871  0.13345754  0.42573965  1
  O  O16  1  0.50749250  0.11176164  0.35727657  1
  O  O17  1  0.60426914  0.11176164  0.85727657  1
  O  O18  1  0.18900233  0.01179565  0.69193949  1
  O  O19  1  0.82279333  0.01179565  0.19193949  1
  O  O20  1  0.50937867  0.65953928  0.87362361  1
  O  O21  1  0.15016061  0.65953928  0.37362361  1
  O  O22  1  0.23842661  0.07633913  0.88006659  1
  O  O23  1  0.83791251  0.07633913  0.38006659  1
  O  O24  1  0.23016585  0.70417584  0.77957374  1
  O  O25  1  0.47400999  0.70417584  0.27957374  1
  O  O26  1  0.41840680  0.99126203  0.00022111  1
  O  O27  1  0.57285523  0.99126203  0.50022111  1
  O  O28  1  0.51783072  0.30413567  0.59612927  1
  O  O29  1  0.78630496  0.30413567  0.09612927  1
  O  O30  1  0.72812437  0.55958601  0.20443136  1
  O  O31  1  0.83146164  0.55958601  0.70443136  1
  O  O32  1  0.16734205  0.66927862  0.55918599  1
  O  O33  1  0.50193656  0.66927862  0.05918599  1
  O  O34  1  0.86130257  0.96616699  0.78511942  1
  O  O35  1  0.10486442  0.96616699  0.28511942  1
  O  O36  1  0.55251395  0.36489306  0.96842877  1
  O  O37  1  0.81237910  0.36489306  0.46842877  1
  O  O38  1  0.49616225  0.59017796  0.68565480  1
  O  O39  1  0.09401571  0.59017796  0.18565480  1
  O  O40  1  0.83434906  0.99743602  0.00552379  1
  O  O41  1  0.16308696  0.99743602  0.50552379  1
  O  O42  1  0.75791218  0.66733207  0.38549657  1
  O  O43  1  0.90941989  0.66733207  0.88549657  1
  O  O44  1  0.57748153  0.99507113  0.67566662  1
  O  O45  1  0.41758960  0.99507113  0.17566662  1
  O  O46  1  0.75821994  0.67840364  0.56336893  1
  O  O47  1  0.92018369  0.67840364  0.06336893  1
