# generated using pymatgen
data_UP3O11
_symmetry_space_group_name_H-M   'P 1'
_cell_length_a   8.76845793
_cell_length_b   10.18149718
_cell_length_c   21.07841044
_cell_angle_alpha   93.76468197
_cell_angle_beta   90.00000000
_cell_angle_gamma   90.00000000
_symmetry_Int_Tables_number   1
_chemical_formula_structural   UP3O11
_chemical_formula_sum   'U8 P24 O88'
_cell_volume   1877.73612551
_cell_formula_units_Z   8
loop_
 _symmetry_equiv_pos_site_id
 _symmetry_equiv_pos_as_xyz
  1  'x, y, z'
loop_
 _atom_site_type_symbol
 _atom_site_label
 _atom_site_symmetry_multiplicity
 _atom_site_fract_x
 _atom_site_fract_y
 _atom_site_fract_z
 _atom_site_occupancy
  U  U0  1  0.37876028  0.79962743  0.90262607  1
  U  U1  1  0.62123972  0.20037257  0.09737393  1
  U  U2  1  0.87876028  0.20037257  0.59737393  1
  U  U3  1  0.12123972  0.79962743  0.40262607  1
  U  U4  1  0.61908374  0.71191308  0.64382740  1
  U  U5  1  0.38091626  0.28808692  0.35617260  1
  U  U6  1  0.11908374  0.28808692  0.85617260  1
  U  U7  1  0.88091626  0.71191308  0.14382740  1
  P  P8  1  0.75107533  0.36210663  0.94741348  1
  P  P9  1  0.24892467  0.63789337  0.05258652  1
  P  P10  1  0.25107533  0.63789337  0.55258652  1
  P  P11  1  0.74892467  0.36210663  0.44741348  1
  P  P12  1  0.28832422  0.85324039  0.73292515  1
  P  P13  1  0.71167578  0.14675961  0.26707485  1
  P  P14  1  0.78832422  0.14675961  0.76707485  1
  P  P15  1  0.21167578  0.85324039  0.23292515  1
  P  P16  1  0.72041252  0.87817998  0.80908237  1
  P  P17  1  0.27958748  0.12182002  0.19091763  1
  P  P18  1  0.22041252  0.12182002  0.69091763  1
  P  P19  1  0.77958748  0.87817998  0.30908237  1
  P  P20  1  0.54928185  0.30030217  0.83356961  1
  P  P21  1  0.45071815  0.69969783  0.16643039  1
  P  P22  1  0.04928185  0.69969783  0.66643039  1
  P  P23  1  0.95071815  0.30030217  0.33356961  1
  P  P24  1  0.94606291  0.80085652  0.90286510  1
  P  P25  1  0.05393709  0.19914348  0.09713490  1
  P  P26  1  0.44606291  0.19914348  0.59713490  1
  P  P27  1  0.55393709  0.80085652  0.40286510  1
  P  P28  1  0.72427002  0.64929343  0.97779663  1
  P  P29  1  0.27572998  0.35070657  0.02220337  1
  P  P30  1  0.22427002  0.35070657  0.52220337  1
  P  P31  1  0.77572998  0.64929343  0.47779663  1
  O  O32  1  0.61295910  0.18496496  0.78490761  1
  O  O33  1  0.38704090  0.81503504  0.21509239  1
  O  O34  1  0.11295910  0.81503504  0.71509239  1
  O  O35  1  0.88704090  0.18496496  0.28490761  1
  O  O36  1  0.28257237  0.68853659  0.98893791  1
  O  O37  1  0.71742763  0.31146341  0.01106209  1
  O  O38  1  0.78257237  0.31146341  0.51106209  1
  O  O39  1  0.21742763  0.68853659  0.48893791  1
  O  O40  1  0.41681722  0.64680229  0.85776724  1
  O  O41  1  0.58318278  0.35319771  0.14223276  1
  O  O42  1  0.91681722  0.35319771  0.64223276  1
  O  O43  1  0.08318278  0.64680229  0.35776724  1
  O  O44  1  0.57356843  0.43295806  0.80786096  1
  O  O45  1  0.42643157  0.56704194  0.19213904  1
  O  O46  1  0.07356843  0.56704194  0.69213904  1
  O  O47  1  0.92643157  0.43295806  0.30786096  1
  O  O48  1  0.67988147  0.50770049  0.94467916  1
  O  O49  1  0.32011853  0.49229951  0.05532084  1
  O  O50  1  0.17988147  0.49229951  0.55532084  1
  O  O51  1  0.82011853  0.50770049  0.44467916  1
  O  O52  1  0.64565373  0.27943643  0.89689471  1
  O  O53  1  0.35434627  0.72056357  0.10310529  1
  O  O54  1  0.14565373  0.72056357  0.60310529  1
  O  O55  1  0.85434627  0.27943643  0.39689471  1
  O  O56  1  0.29815413  0.88258732  0.80322516  1
  O  O57  1  0.70184587  0.11741268  0.19677484  1
  O  O58  1  0.79815413  0.11741268  0.69677484  1
  O  O59  1  0.20184587  0.88258732  0.30322516  1
  O  O60  1  0.91304118  0.36144550  0.92465572  1
  O  O61  1  0.08695882  0.63855450  0.07534428  1
  O  O62  1  0.41304118  0.63855450  0.57534428  1
  O  O63  1  0.58695882  0.36144550  0.42465572  1
  O  O64  1  0.34675949  0.95309196  0.94676322  1
  O  O65  1  0.65324051  0.04690804  0.05323678  1
  O  O66  1  0.84675949  0.04690804  0.55323678  1
  O  O67  1  0.15324051  0.95309196  0.44676322  1
  O  O68  1  0.31141871  0.98579506  0.69686773  1
  O  O69  1  0.68858129  0.01420494  0.30313227  1
  O  O70  1  0.81141871  0.01420494  0.80313227  1
  O  O71  1  0.18858129  0.98579506  0.19686773  1
  O  O72  1  0.87802614  0.68165064  0.93937807  1
  O  O73  1  0.12197386  0.31834936  0.06062193  1
  O  O74  1  0.37802614  0.31834936  0.56062193  1
  O  O75  1  0.62197386  0.68165064  0.43937807  1
  O  O76  1  0.73058096  0.63499078  0.54556672  1
  O  O77  1  0.26941904  0.36500922  0.45443328  1
  O  O78  1  0.23058096  0.36500922  0.95443328  1
  O  O79  1  0.76941904  0.63499078  0.04556672  1
  O  O80  1  0.39099589  0.75051077  0.70140176  1
  O  O81  1  0.60900411  0.24948923  0.29859824  1
  O  O82  1  0.89099589  0.24948923  0.79859824  1
  O  O83  1  0.10900411  0.75051077  0.20140176  1
  O  O84  1  0.63618181  0.55059156  0.67228062  1
  O  O85  1  0.36381819  0.44940844  0.32771938  1
  O  O86  1  0.13618181  0.44940844  0.82771938  1
  O  O87  1  0.86381819  0.55059156  0.17228062  1
  O  O88  1  0.59507215  0.89972101  0.85740684  1
  O  O89  1  0.40492785  0.10027899  0.14259316  1
  O  O90  1  0.09507215  0.10027899  0.64259316  1
  O  O91  1  0.90492785  0.89972101  0.35740684  1
  O  O92  1  0.85349018  0.78885668  0.83656473  1
  O  O93  1  0.14650982  0.21114332  0.16343527  1
  O  O94  1  0.35349018  0.21114332  0.66343527  1
  O  O95  1  0.64650982  0.78885668  0.33656473  1
  O  O96  1  0.59641325  0.87256666  0.61451884  1
  O  O97  1  0.40358675  0.12743334  0.38548116  1
  O  O98  1  0.09641325  0.12743334  0.88548116  1
  O  O99  1  0.90358675  0.87256666  0.11451884  1
  O  O100  1  0.59829878  0.74220301  0.96359217  1
  O  O101  1  0.40170122  0.25779699  0.03640783  1
  O  O102  1  0.09829878  0.25779699  0.53640783  1
  O  O103  1  0.90170122  0.74220301  0.46359217  1
  O  O104  1  0.67931962  0.81897598  0.74470093  1
  O  O105  1  0.32068038  0.18102402  0.25529907  1
  O  O106  1  0.17931962  0.18102402  0.75529907  1
  O  O107  1  0.82068038  0.81897598  0.24470093  1
  O  O108  1  0.88646987  0.73525509  0.65245269  1
  O  O109  1  0.11353013  0.26474491  0.34754731  1
  O  O110  1  0.38646987  0.26474491  0.84754731  1
  O  O111  1  0.61353013  0.73525509  0.15245269  1
  O  O112  1  0.92189284  0.93150905  0.93929837  1
  O  O113  1  0.07810716  0.06849095  0.06070163  1
  O  O114  1  0.42189284  0.06849095  0.56070163  1
  O  O115  1  0.57810716  0.93150905  0.43929837  1
  O  O116  1  0.38989743  0.76767163  0.38777472  1
  O  O117  1  0.61010257  0.23232837  0.61222528  1
  O  O118  1  0.88989743  0.23232837  0.11222528  1
  O  O119  1  0.11010257  0.76767163  0.88777472  1
