# generated using pymatgen
data_RbCOF3
_symmetry_space_group_name_H-M   'P 1'
_cell_length_a   5.74342386
_cell_length_b   7.43786117
_cell_length_c   9.01301566
_cell_angle_alpha   90.00000000
_cell_angle_beta   89.83197205
_cell_angle_gamma   90.00000000
_symmetry_Int_Tables_number   1
_chemical_formula_structural   RbCOF3
_chemical_formula_sum   'Rb4 C4 O4 F12'
_cell_volume   385.02346105
_cell_formula_units_Z   4
loop_
 _symmetry_equiv_pos_site_id
 _symmetry_equiv_pos_as_xyz
  1  'x, y, z'
loop_
 _atom_site_type_symbol
 _atom_site_label
 _atom_site_symmetry_multiplicity
 _atom_site_fract_x
 _atom_site_fract_y
 _atom_site_fract_z
 _atom_site_occupancy
  Rb  Rb0  1  0.25656279  0.65743089  0.17887478  1
  Rb  Rb1  1  0.74343721  0.34256911  0.82112522  1
  Rb  Rb2  1  0.74343721  0.15743089  0.32112522  1
  Rb  Rb3  1  0.25656279  0.84256911  0.67887478  1
  C  C4  1  0.27254150  0.20344409  0.06669903  1
  C  C5  1  0.72745850  0.79655591  0.93330097  1
  C  C6  1  0.72745850  0.70344409  0.43330097  1
  C  C7  1  0.27254150  0.29655591  0.56669903  1
  O  O8  1  0.44592616  0.29812100  0.08151270  1
  O  O9  1  0.55407384  0.70187900  0.91848730  1
  O  O10  1  0.55407384  0.79812100  0.41848730  1
  O  O11  1  0.44592616  0.20187900  0.58151270  1
  F  F12  1  0.24145808  0.05937200  0.17222332  1
  F  F13  1  0.75854192  0.94062800  0.82777668  1
  F  F14  1  0.75854192  0.55937200  0.32777668  1
  F  F15  1  0.24145808  0.44062800  0.67222332  1
  F  F16  1  0.04738826  0.29640387  0.08164294  1
  F  F17  1  0.95261174  0.70359613  0.91835706  1
  F  F18  1  0.95261174  0.79640387  0.41835706  1
  F  F19  1  0.04738826  0.20359613  0.58164294  1
  F  F20  1  0.24174496  0.38626724  0.42812589  1
  F  F21  1  0.75825504  0.61373276  0.57187411  1
  F  F22  1  0.75825504  0.88626724  0.07187411  1
  F  F23  1  0.24174496  0.11373276  0.92812589  1
