# generated using pymatgen
data_RbFeI4
_symmetry_space_group_name_H-M   'P 1'
_cell_length_a   7.44348320
_cell_length_b   8.49516758
_cell_length_c   18.36639158
_cell_angle_alpha   90.00000000
_cell_angle_beta   90.00000000
_cell_angle_gamma   106.47032814
_symmetry_Int_Tables_number   1
_chemical_formula_structural   RbFeI4
_chemical_formula_sum   'Rb4 Fe4 I16'
_cell_volume   1113.71873232
_cell_formula_units_Z   4
loop_
 _symmetry_equiv_pos_site_id
 _symmetry_equiv_pos_as_xyz
  1  'x, y, z'
loop_
 _atom_site_type_symbol
 _atom_site_label
 _atom_site_symmetry_multiplicity
 _atom_site_fract_x
 _atom_site_fract_y
 _atom_site_fract_z
 _atom_site_occupancy
  Rb  Rb0  1  0.18936833  0.79109285  0.63115108  1
  Rb  Rb1  1  0.81063167  0.20890715  0.36884892  1
  Rb  Rb2  1  0.81063167  0.70890715  0.13115108  1
  Rb  Rb3  1  0.18936833  0.29109285  0.86884892  1
  Fe  Fe4  1  0.81570143  0.70256758  0.87238302  1
  Fe  Fe5  1  0.18429857  0.29743242  0.12761698  1
  Fe  Fe6  1  0.18429857  0.79743242  0.37238302  1
  Fe  Fe7  1  0.81570143  0.20256758  0.62761698  1
  I  I8  1  0.64519679  0.64376444  0.75096098  1
  I  I9  1  0.35480321  0.35623556  0.24903902  1
  I  I10  1  0.35480321  0.85623556  0.25096098  1
  I  I11  1  0.64519679  0.14376444  0.74903902  1
  I  I12  1  0.73022037  0.93579585  0.55217559  1
  I  I13  1  0.26977963  0.06420415  0.44782441  1
  I  I14  1  0.26977963  0.56420415  0.05217559  1
  I  I15  1  0.73022037  0.43579585  0.94782441  1
  I  I16  1  0.73214067  0.92634317  0.94749459  1
  I  I17  1  0.26785933  0.07365683  0.05250541  1
  I  I18  1  0.26785933  0.57365683  0.44749459  1
  I  I19  1  0.73214067  0.42634317  0.55250541  1
  I  I20  1  0.82823482  0.71027364  0.34461988  1
  I  I21  1  0.17176518  0.28972636  0.65538012  1
  I  I22  1  0.17176518  0.78972636  0.84461988  1
  I  I23  1  0.82823482  0.21027364  0.15538012  1
