# generated using pymatgen
data_Pr5AgSn3
_symmetry_space_group_name_H-M   'P 1'
_cell_length_a   6.84040809
_cell_length_b   9.65196489
_cell_length_c   9.65196489
_cell_angle_alpha   119.99999994
_cell_angle_beta   90.00000000
_cell_angle_gamma   90.00000000
_symmetry_Int_Tables_number   1
_chemical_formula_structural   Pr5AgSn3
_chemical_formula_sum   'Pr10 Ag2 Sn6'
_cell_volume   551.87930783
_cell_formula_units_Z   2
loop_
 _symmetry_equiv_pos_site_id
 _symmetry_equiv_pos_as_xyz
  1  'x, y, z'
loop_
 _atom_site_type_symbol
 _atom_site_label
 _atom_site_symmetry_multiplicity
 _atom_site_fract_x
 _atom_site_fract_y
 _atom_site_fract_z
 _atom_site_occupancy
  Pr  Pr0  1  0.75000000  0.72607325  0.72607325  1
  Pr  Pr1  1  0.25000000  0.27392675  0.27392675  1
  Pr  Pr2  1  0.75000000  1.00000000  0.27392675  1
  Pr  Pr3  1  0.25000000  0.00000000  0.72607325  1
  Pr  Pr4  1  0.75000000  0.27392675  1.00000000  1
  Pr  Pr5  1  0.25000000  0.72607325  0.00000000  1
  Pr  Pr6  1  -0.00000000  0.66666700  0.33333300  1
  Pr  Pr7  1  0.00000000  0.33333300  0.66666700  1
  Pr  Pr8  1  0.50000000  0.33333300  0.66666700  1
  Pr  Pr9  1  0.50000000  0.66666700  0.33333300  1
  Ag  Ag10  1  0.00000000  0.00000000  -0.00000000  1
  Ag  Ag11  1  0.50000000  -0.00000000  -0.00000000  1
  Sn  Sn12  1  0.75000000  0.37911041  0.37911041  1
  Sn  Sn13  1  0.25000000  0.62088959  0.62088959  1
  Sn  Sn14  1  0.75000000  0.00000000  0.62088959  1
  Sn  Sn15  1  0.25000000  -0.00000000  0.37911041  1
  Sn  Sn16  1  0.75000000  0.62088959  0.00000000  1
  Sn  Sn17  1  0.25000000  0.37911041  -0.00000000  1
