# generated using pymatgen
data_Rb3TbCl6
_symmetry_space_group_name_H-M   'P 1'
_cell_length_a   8.02010743
_cell_length_b   13.02944342
_cell_length_c   13.70377492
_cell_angle_alpha   99.00464120
_cell_angle_beta   107.01511599
_cell_angle_gamma   90.00000000
_symmetry_Int_Tables_number   1
_chemical_formula_structural   Rb3TbCl6
_chemical_formula_sum   'Rb12 Tb4 Cl24'
_cell_volume   1350.86089059
_cell_formula_units_Z   4
loop_
 _symmetry_equiv_pos_site_id
 _symmetry_equiv_pos_as_xyz
  1  'x, y, z'
loop_
 _atom_site_type_symbol
 _atom_site_label
 _atom_site_symmetry_multiplicity
 _atom_site_fract_x
 _atom_site_fract_y
 _atom_site_fract_z
 _atom_site_occupancy
  Rb  Rb0  1  0.69748501  0.06683405  0.90089355  1
  Rb  Rb1  1  0.30251499  0.93316595  0.09910645  1
  Rb  Rb2  1  0.79659147  0.43316595  0.09910645  1
  Rb  Rb3  1  0.20340853  0.56683405  0.90089355  1
  Rb  Rb4  1  0.53409998  0.35590383  0.69244288  1
  Rb  Rb5  1  0.46590002  0.64409617  0.30755712  1
  Rb  Rb6  1  0.84165710  0.14409617  0.30755712  1
  Rb  Rb7  1  0.15834290  0.85590383  0.69244288  1
  Rb  Rb8  1  0.34905325  0.29963547  0.32367384  1
  Rb  Rb9  1  0.65094675  0.70036453  0.67632616  1
  Rb  Rb10  1  0.02537941  0.20036453  0.67632616  1
  Rb  Rb11  1  0.97462059  0.79963547  0.32367384  1
  Tb  Tb12  1  0.21697108  0.25000000  1.00000000  1
  Tb  Tb13  1  0.78302892  0.75000000  0.00000000  1
  Tb  Tb14  1  0.50000000  0.00000000  0.50000000  1
  Tb  Tb15  1  0.00000000  0.50000000  0.50000000  1
  Cl  Cl16  1  0.37736321  0.08127801  0.65514216  1
  Cl  Cl17  1  0.62263679  0.91872199  0.34485784  1
  Cl  Cl18  1  0.72222105  0.41872199  0.34485784  1
  Cl  Cl19  1  0.27777895  0.58127801  0.65514216  1
  Cl  Cl20  1  0.50424152  0.17885281  0.11776208  1
  Cl  Cl21  1  0.49575848  0.82114719  0.88223792  1
  Cl  Cl22  1  0.38647944  0.32114719  0.88223792  1
  Cl  Cl23  1  0.61352056  0.67885281  0.11776208  1
  Cl  Cl24  1  0.21637095  0.03444243  0.35369533  1
  Cl  Cl25  1  0.78362905  0.96555757  0.64630467  1
  Cl  Cl26  1  0.86267563  0.46555757  0.64630467  1
  Cl  Cl27  1  0.13732437  0.53444243  0.35369533  1
  Cl  Cl28  1  0.08748274  0.69639814  0.11813826  1
  Cl  Cl29  1  0.91251726  0.30360186  0.88186174  1
  Cl  Cl30  1  0.96934449  0.80360186  0.88186174  1
  Cl  Cl31  1  0.03065551  0.19639814  0.11813826  1
  Cl  Cl32  1  0.28313066  0.43531459  0.11627964  1
  Cl  Cl33  1  0.71686934  0.56468541  0.88372036  1
  Cl  Cl34  1  0.16685103  0.06468541  0.88372036  1
  Cl  Cl35  1  0.83314897  0.93531459  0.11627964  1
  Cl  Cl36  1  0.64033374  0.18640765  0.49912560  1
  Cl  Cl37  1  0.35966626  0.81359235  0.50087440  1
  Cl  Cl38  1  0.14120814  0.31359235  0.50087440  1
  Cl  Cl39  1  0.85879186  0.68640765  0.49912560  1
