# generated using pymatgen
data_RbIn3O5
_symmetry_space_group_name_H-M   'P 1'
_cell_length_a   3.34222858
_cell_length_b   9.81254695
_cell_length_c   17.02460143
_cell_angle_alpha   90.00000000
_cell_angle_beta   90.00000000
_cell_angle_gamma   90.00000000
_symmetry_Int_Tables_number   1
_chemical_formula_structural   RbIn3O5
_chemical_formula_sum   'Rb4 In12 O20'
_cell_volume   558.33499556
_cell_formula_units_Z   4
loop_
 _symmetry_equiv_pos_site_id
 _symmetry_equiv_pos_as_xyz
  1  'x, y, z'
loop_
 _atom_site_type_symbol
 _atom_site_label
 _atom_site_symmetry_multiplicity
 _atom_site_fract_x
 _atom_site_fract_y
 _atom_site_fract_z
 _atom_site_occupancy
  Rb  Rb0  1  0.75000000  0.50088243  0.38414739  1
  Rb  Rb1  1  0.25000000  0.49911757  0.61585261  1
  Rb  Rb2  1  0.25000000  0.99911757  0.88414739  1
  Rb  Rb3  1  0.75000000  0.00088243  0.11585261  1
  In  In4  1  0.75000000  0.84496665  0.30273306  1
  In  In5  1  0.25000000  0.15503335  0.69726694  1
  In  In6  1  0.25000000  0.65503335  0.80273306  1
  In  In7  1  0.75000000  0.34496665  0.19726694  1
  In  In8  1  0.75000000  0.65141413  0.97677918  1
  In  In9  1  0.25000000  0.34858587  0.02322082  1
  In  In10  1  0.25000000  0.84858587  0.47677918  1
  In  In11  1  0.75000000  0.15141413  0.52322082  1
  In  In12  1  0.75000000  0.86184904  0.64792618  1
  In  In13  1  0.25000000  0.13815096  0.35207382  1
  In  In14  1  0.25000000  0.63815096  0.14792618  1
  In  In15  1  0.75000000  0.36184904  0.85207382  1
  O  O16  1  0.75000000  0.99722857  0.42401820  1
  O  O17  1  0.25000000  0.00277143  0.57598180  1
  O  O18  1  0.25000000  0.50277143  0.92401820  1
  O  O19  1  0.75000000  0.49722857  0.07598180  1
  O  O20  1  0.75000000  0.75059758  0.53525908  1
  O  O21  1  0.25000000  0.24940242  0.46474092  1
  O  O22  1  0.25000000  0.74940242  0.03525908  1
  O  O23  1  0.75000000  0.25059758  0.96474092  1
  O  O24  1  0.75000000  0.74590687  0.19167831  1
  O  O25  1  0.25000000  0.25409313  0.80832169  1
  O  O26  1  0.25000000  0.75409313  0.69167831  1
  O  O27  1  0.75000000  0.24590687  0.30832169  1
  O  O28  1  0.75000000  0.75593966  0.86744374  1
  O  O29  1  0.25000000  0.24406034  0.13255626  1
  O  O30  1  0.25000000  0.74406034  0.36744374  1
  O  O31  1  0.75000000  0.25593966  0.63255626  1
  O  O32  1  0.75000000  0.52341795  0.76908910  1
  O  O33  1  0.25000000  0.47658205  0.23091090  1
  O  O34  1  0.25000000  0.97658205  0.26908910  1
  O  O35  1  0.75000000  0.02341795  0.73091090  1
