# generated using pymatgen
data_Sr5Re3IO15
_symmetry_space_group_name_H-M   'P 1'
_cell_length_a   7.60539874
_cell_length_b   10.85831784
_cell_length_c   19.02156875
_cell_angle_alpha   90.00000000
_cell_angle_beta   90.00000000
_cell_angle_gamma   90.00000000
_symmetry_Int_Tables_number   1
_chemical_formula_structural   Sr5Re3IO15
_chemical_formula_sum   'Sr20 Re12 I4 O60'
_cell_volume   1570.83608655
_cell_formula_units_Z   4
loop_
 _symmetry_equiv_pos_site_id
 _symmetry_equiv_pos_as_xyz
  1  'x, y, z'
loop_
 _atom_site_type_symbol
 _atom_site_label
 _atom_site_symmetry_multiplicity
 _atom_site_fract_x
 _atom_site_fract_y
 _atom_site_fract_z
 _atom_site_occupancy
  Sr  Sr0  1  0.74166366  0.60695507  0.39702972  1
  Sr  Sr1  1  0.25833634  0.39304493  0.60297028  1
  Sr  Sr2  1  0.75833634  0.10695507  0.60297028  1
  Sr  Sr3  1  0.25833634  0.39304493  0.89702972  1
  Sr  Sr4  1  0.24166366  0.89304493  0.39702972  1
  Sr  Sr5  1  0.74166366  0.60695507  0.10297028  1
  Sr  Sr6  1  0.24166366  0.89304493  0.10297028  1
  Sr  Sr7  1  0.75833634  0.10695507  0.89702972  1
  Sr  Sr8  1  0.71382073  0.52481856  0.75000000  1
  Sr  Sr9  1  0.28617927  0.47518144  0.25000000  1
  Sr  Sr10  1  0.78617927  0.02481856  0.25000000  1
  Sr  Sr11  1  0.21382073  0.97518144  0.75000000  1
  Sr  Sr12  1  0.99831633  0.74556007  0.91524017  1
  Sr  Sr13  1  0.00168367  0.25443993  0.08475983  1
  Sr  Sr14  1  0.50168367  0.24556007  0.08475983  1
  Sr  Sr15  1  0.00168367  0.25443993  0.41524017  1
  Sr  Sr16  1  0.49831633  0.75443993  0.91524017  1
  Sr  Sr17  1  0.99831633  0.74556007  0.58475983  1
  Sr  Sr18  1  0.49831633  0.75443993  0.58475983  1
  Sr  Sr19  1  0.50168367  0.24556007  0.41524017  1
  Re  Re20  1  0.77876360  0.85313556  0.75000000  1
  Re  Re21  1  0.22123640  0.14686444  0.25000000  1
  Re  Re22  1  0.72123640  0.35313556  0.25000000  1
  Re  Re23  1  0.27876360  0.64686444  0.75000000  1
  Re  Re24  1  0.79355070  0.44114380  0.94322796  1
  Re  Re25  1  0.20644930  0.55885620  0.05677204  1
  Re  Re26  1  0.70644930  0.94114380  0.05677204  1
  Re  Re27  1  0.20644930  0.55885620  0.44322796  1
  Re  Re28  1  0.29355070  0.05885620  0.94322796  1
  Re  Re29  1  0.79355070  0.44114380  0.55677204  1
  Re  Re30  1  0.29355070  0.05885620  0.55677204  1
  Re  Re31  1  0.70644930  0.94114380  0.44322796  1
  I  I32  1  0.89496985  0.24497879  0.75000000  1
  I  I33  1  0.10503015  0.75502121  0.25000000  1
  I  I34  1  0.60503015  0.74497879  0.25000000  1
  I  I35  1  0.39496985  0.25502121  0.75000000  1
  O  O36  1  0.87455881  0.89294468  0.38586967  1
  O  O37  1  0.12544119  0.10705532  0.61413033  1
  O  O38  1  0.62544119  0.39294468  0.61413033  1
  O  O39  1  0.12544119  0.10705532  0.88586967  1
  O  O40  1  0.37455881  0.60705532  0.38586967  1
  O  O41  1  0.87455881  0.89294468  0.11413033  1
  O  O42  1  0.37455881  0.60705532  0.11413033  1
  O  O43  1  0.62544119  0.39294468  0.88586967  1
  O  O44  1  0.77382723  0.90024129  0.96511090  1
  O  O45  1  0.22617277  0.09975871  0.03488910  1
  O  O46  1  0.72617277  0.40024129  0.03488910  1
  O  O47  1  0.22617277  0.09975871  0.46511090  1
  O  O48  1  0.27382723  0.59975871  0.96511090  1
  O  O49  1  0.77382723  0.90024129  0.53488910  1
  O  O50  1  0.27382723  0.59975871  0.53488910  1
  O  O51  1  0.72617277  0.40024129  0.46511090  1
  O  O52  1  0.58208242  0.93627907  0.75000000  1
  O  O53  1  0.41791758  0.06372093  0.25000000  1
  O  O54  1  0.91791758  0.43627907  0.25000000  1
  O  O55  1  0.08208242  0.56372093  0.75000000  1
  O  O56  1  0.74809802  0.72772068  0.81690998  1
  O  O57  1  0.25190198  0.27227932  0.18309002  1
  O  O58  1  0.75190198  0.22772068  0.18309002  1
  O  O59  1  0.25190198  0.27227932  0.31690998  1
  O  O60  1  0.24809802  0.77227932  0.81690998  1
  O  O61  1  0.74809802  0.72772068  0.68309002  1
  O  O62  1  0.24809802  0.77227932  0.68309002  1
  O  O63  1  0.75190198  0.22772068  0.31690998  1
  O  O64  1  0.96202633  0.51144203  0.88653011  1
  O  O65  1  0.03797367  0.48855797  0.11346989  1
  O  O66  1  0.53797367  0.01144203  0.11346989  1
  O  O67  1  0.03797367  0.48855797  0.38653011  1
  O  O68  1  0.46202633  0.98855797  0.88653011  1
  O  O69  1  0.96202633  0.51144203  0.61346989  1
  O  O70  1  0.46202633  0.98855797  0.61346989  1
  O  O71  1  0.53797367  0.01144203  0.38653011  1
  O  O72  1  0.94323201  0.30707560  0.94933382  1
  O  O73  1  0.05676799  0.69292440  0.05066618  1
  O  O74  1  0.55676799  0.80707560  0.05066618  1
  O  O75  1  0.05676799  0.69292440  0.44933382  1
  O  O76  1  0.44323201  0.19292440  0.94933382  1
  O  O77  1  0.94323201  0.30707560  0.55066618  1
  O  O78  1  0.44323201  0.19292440  0.55066618  1
  O  O79  1  0.55676799  0.80707560  0.44933382  1
  O  O80  1  0.92030424  0.92678508  0.81713571  1
  O  O81  1  0.07969576  0.07321492  0.18286429  1
  O  O82  1  0.57969576  0.42678508  0.18286429  1
  O  O83  1  0.07969576  0.07321492  0.31713571  1
  O  O84  1  0.42030424  0.57321492  0.81713571  1
  O  O85  1  0.92030424  0.92678508  0.68286429  1
  O  O86  1  0.42030424  0.57321492  0.68286429  1
  O  O87  1  0.57969576  0.42678508  0.31713571  1
  O  O88  1  0.73563932  0.60302273  0.96836312  1
  O  O89  1  0.26436068  0.39697727  0.03163688  1
  O  O90  1  0.76436068  0.10302273  0.03163688  1
  O  O91  1  0.26436068  0.39697727  0.46836312  1
  O  O92  1  0.23563932  0.89697727  0.96836312  1
  O  O93  1  0.73563932  0.60302273  0.53163688  1
  O  O94  1  0.23563932  0.89697727  0.53163688  1
  O  O95  1  0.76436068  0.10302273  0.46836312  1
