# generated using pymatgen
data_La(NO2)3
_symmetry_space_group_name_H-M   'P 1'
_cell_length_a   6.23070702
_cell_length_b   6.23070702
_cell_length_c   6.23070701
_cell_angle_alpha   114.82628921
_cell_angle_beta   114.82628929
_cell_angle_gamma   114.82628916
_symmetry_Int_Tables_number   1
_chemical_formula_structural   La(NO2)3
_chemical_formula_sum   'La1 N3 O6'
_cell_volume   137.49174137
_cell_formula_units_Z   1
loop_
 _symmetry_equiv_pos_site_id
 _symmetry_equiv_pos_as_xyz
  1  'x, y, z'
loop_
 _atom_site_type_symbol
 _atom_site_label
 _atom_site_symmetry_multiplicity
 _atom_site_fract_x
 _atom_site_fract_y
 _atom_site_fract_z
 _atom_site_occupancy
  N  N0  1  0.87492511  0.87492511  0.41345932  1
  N  N1  1  0.87492511  0.41345932  0.87492511  1
  N  N2  1  0.41345932  0.87492511  0.87492511  1
  O  O3  1  0.15500622  0.57674094  0.15500622  1
  O  O4  1  0.15500622  0.15500622  0.57674094  1
  O  O5  1  0.86104192  0.60800637  0.86104192  1
  O  O6  1  0.86104192  0.86104192  0.60800637  1
  O  O7  1  0.60800637  0.86104192  0.86104192  1
  O  O8  1  0.57674094  0.15500622  0.15500622  1
  La  La9  1  0.28084687  0.28084687  0.28084687  1
