# generated using pymatgen
data_PrAlRh
_symmetry_space_group_name_H-M   'P 1'
_cell_length_a   4.30828798
_cell_length_b   7.12539324
_cell_length_c   8.13313639
_cell_angle_alpha   90.00000000
_cell_angle_beta   90.00000000
_cell_angle_gamma   90.00000000
_symmetry_Int_Tables_number   1
_chemical_formula_structural   PrAlRh
_chemical_formula_sum   'Pr4 Al4 Rh4'
_cell_volume   249.67302205
_cell_formula_units_Z   4
loop_
 _symmetry_equiv_pos_site_id
 _symmetry_equiv_pos_as_xyz
  1  'x, y, z'
loop_
 _atom_site_type_symbol
 _atom_site_label
 _atom_site_symmetry_multiplicity
 _atom_site_fract_x
 _atom_site_fract_y
 _atom_site_fract_z
 _atom_site_occupancy
  Pr  Pr0  1  0.75000000  0.96510161  0.31914682  1
  Pr  Pr1  1  0.25000000  0.03489839  0.68085318  1
  Pr  Pr2  1  0.25000000  0.53489839  0.81914682  1
  Pr  Pr3  1  0.75000000  0.46510161  0.18085318  1
  Al  Al4  1  0.75000000  0.86498962  0.93871352  1
  Al  Al5  1  0.25000000  0.13501038  0.06128648  1
  Al  Al6  1  0.25000000  0.63501038  0.43871352  1
  Al  Al7  1  0.75000000  0.36498962  0.56128648  1
  Rh  Rh8  1  0.75000000  0.72529190  0.61562207  1
  Rh  Rh9  1  0.25000000  0.27470810  0.38437793  1
  Rh  Rh10  1  0.25000000  0.77470810  0.11562207  1
  Rh  Rh11  1  0.75000000  0.22529190  0.88437793  1
