# generated using pymatgen
data_Sm23Mg4Ni7
_symmetry_space_group_name_H-M   'P 1'
_cell_length_a   9.88849117
_cell_length_b   9.88849117
_cell_length_c   22.38926210
_cell_angle_alpha   90.00000000
_cell_angle_beta   90.00000000
_cell_angle_gamma   120.00000370
_symmetry_Int_Tables_number   1
_chemical_formula_structural   Sm23Mg4Ni7
_chemical_formula_sum   'Sm46 Mg8 Ni14'
_cell_volume   1895.96561304
_cell_formula_units_Z   2
loop_
 _symmetry_equiv_pos_site_id
 _symmetry_equiv_pos_as_xyz
  1  'x, y, z'
loop_
 _atom_site_type_symbol
 _atom_site_label
 _atom_site_symmetry_multiplicity
 _atom_site_fract_x
 _atom_site_fract_y
 _atom_site_fract_z
 _atom_site_occupancy
  Sm  Sm0  1  0.20756799  0.41513598  0.71914944  1
  Sm  Sm1  1  0.20756799  0.79243201  0.71914944  1
  Sm  Sm2  1  0.79243201  0.58486402  0.21914944  1
  Sm  Sm3  1  0.58486402  0.79243201  0.71914944  1
  Sm  Sm4  1  0.79243201  0.20756799  0.21914944  1
  Sm  Sm5  1  0.41513598  0.20756799  0.21914944  1
  Sm  Sm6  1  0.79213675  0.58427350  0.94780006  1
  Sm  Sm7  1  0.79213675  0.20786325  0.94780006  1
  Sm  Sm8  1  0.20786325  0.41572650  0.44780006  1
  Sm  Sm9  1  0.41572650  0.20786325  0.94780006  1
  Sm  Sm10  1  0.20786325  0.79213675  0.44780006  1
  Sm  Sm11  1  0.58427350  0.79213675  0.44780006  1
  Sm  Sm12  1  0.21124688  0.42249376  0.99095383  1
  Sm  Sm13  1  0.21124688  0.78875312  0.99095383  1
  Sm  Sm14  1  0.78875312  0.57750624  0.49095383  1
  Sm  Sm15  1  0.57750624  0.78875312  0.99095383  1
  Sm  Sm16  1  0.78875312  0.21124688  0.49095383  1
  Sm  Sm17  1  0.42249376  0.21124688  0.49095383  1
  Sm  Sm18  1  0.87130624  0.74261249  0.63394947  1
  Sm  Sm19  1  0.87130624  0.12869376  0.63394947  1
  Sm  Sm20  1  0.12869376  0.25738751  0.13394947  1
  Sm  Sm21  1  0.25738751  0.12869376  0.63394947  1
  Sm  Sm22  1  0.12869376  0.87130624  0.13394947  1
  Sm  Sm23  1  0.74261249  0.87130624  0.13394947  1
  Sm  Sm24  1  0.45731341  0.91462683  0.85620222  1
  Sm  Sm25  1  0.45731341  0.54268659  0.85620222  1
  Sm  Sm26  1  0.54268659  0.08537317  0.35620222  1
  Sm  Sm27  1  0.08537317  0.54268659  0.85620222  1
  Sm  Sm28  1  0.54268659  0.45731341  0.35620222  1
  Sm  Sm29  1  0.91462683  0.45731341  0.35620222  1
  Sm  Sm30  1  0.00000000  0.00000000  0.00054868  1
  Sm  Sm31  1  0.00000000  0.00000000  0.50054868  1
  Sm  Sm32  1  0.46039147  0.92078294  0.58538766  1
  Sm  Sm33  1  0.46039147  0.53960853  0.58538766  1
  Sm  Sm34  1  0.53960853  0.07921706  0.08538766  1
  Sm  Sm35  1  0.07921706  0.53960853  0.58538766  1
  Sm  Sm36  1  0.53960853  0.46039147  0.08538766  1
  Sm  Sm37  1  0.92078294  0.46039147  0.08538766  1
  Sm  Sm38  1  0.79503267  0.59006534  0.78181584  1
  Sm  Sm39  1  0.79503267  0.20496733  0.78181584  1
  Sm  Sm40  1  0.20496733  0.40993466  0.28181584  1
  Sm  Sm41  1  0.40993466  0.20496733  0.78181584  1
  Sm  Sm42  1  0.20496733  0.79503267  0.28181584  1
  Sm  Sm43  1  0.59006534  0.79503267  0.28181584  1
  Sm  Sm44  1  0.66666700  0.33333300  0.64467743  1
  Sm  Sm45  1  0.33333300  0.66666700  0.14467743  1
  Mg  Mg46  1  0.00000000  0.00000000  0.74987957  1
  Mg  Mg47  1  0.00000000  0.00000000  0.24987957  1
  Mg  Mg48  1  0.10579955  0.21159911  0.86299635  1
  Mg  Mg49  1  0.10579955  0.89420045  0.86299635  1
  Mg  Mg50  1  0.89420045  0.78840089  0.36299635  1
  Mg  Mg51  1  0.78840089  0.89420045  0.86299635  1
  Mg  Mg52  1  0.89420045  0.10579955  0.36299635  1
  Mg  Mg53  1  0.21159911  0.10579955  0.36299635  1
  Ni  Ni54  1  0.52122662  0.04245324  0.71002364  1
  Ni  Ni55  1  0.52122662  0.47877338  0.71002364  1
  Ni  Ni56  1  0.47877338  0.95754676  0.21002364  1
  Ni  Ni57  1  0.95754676  0.47877338  0.71002364  1
  Ni  Ni58  1  0.47877338  0.52122662  0.21002364  1
  Ni  Ni59  1  0.04245324  0.52122662  0.21002364  1
  Ni  Ni60  1  0.66666700  0.33333300  0.86340558  1
  Ni  Ni61  1  0.33333300  0.66666700  0.36340558  1
  Ni  Ni62  1  0.14330954  0.28661908  0.56445774  1
  Ni  Ni63  1  0.14330954  0.85669046  0.56445774  1
  Ni  Ni64  1  0.85669046  0.71338092  0.06445774  1
  Ni  Ni65  1  0.71338092  0.85669046  0.56445774  1
  Ni  Ni66  1  0.85669046  0.14330954  0.06445774  1
  Ni  Ni67  1  0.28661908  0.14330954  0.06445774  1
