# generated using pymatgen
data_Pr3RuBr3
_symmetry_space_group_name_H-M   'P 1'
_cell_length_a   4.29394201
_cell_length_b   9.13665910
_cell_length_c   11.92800721
_cell_angle_alpha   93.10178225
_cell_angle_beta   90.00000000
_cell_angle_gamma   90.00000000
_symmetry_Int_Tables_number   1
_chemical_formula_structural   Pr3RuBr3
_chemical_formula_sum   'Pr6 Ru2 Br6'
_cell_volume   467.27739887
_cell_formula_units_Z   2
loop_
 _symmetry_equiv_pos_site_id
 _symmetry_equiv_pos_as_xyz
  1  'x, y, z'
loop_
 _atom_site_type_symbol
 _atom_site_label
 _atom_site_symmetry_multiplicity
 _atom_site_fract_x
 _atom_site_fract_y
 _atom_site_fract_z
 _atom_site_occupancy
  Pr  Pr0  1  0.75000000  0.32173461  0.62054116  1
  Pr  Pr1  1  0.25000000  0.67826539  0.37945884  1
  Pr  Pr2  1  0.75000000  0.89394191  0.61544259  1
  Pr  Pr3  1  0.25000000  0.10605809  0.38455741  1
  Pr  Pr4  1  0.75000000  0.87737291  0.16009505  1
  Pr  Pr5  1  0.25000000  0.12262709  0.83990495  1
  Ru  Ru6  1  0.75000000  0.88902818  0.37906962  1
  Ru  Ru7  1  0.25000000  0.11097182  0.62093038  1
  Br  Br8  1  0.75000000  0.40123050  0.36909429  1
  Br  Br9  1  0.25000000  0.59876950  0.63090571  1
  Br  Br10  1  0.75000000  0.88486885  0.88334811  1
  Br  Br11  1  0.25000000  0.11513115  0.11665189  1
  Br  Br12  1  0.75000000  0.35280098  0.87921516  1
  Br  Br13  1  0.25000000  0.64719902  0.12078484  1
