# generated using pymatgen
data_Rb2ErCl5
_symmetry_space_group_name_H-M   'P 1'
_cell_length_a   7.43571933
_cell_length_b   9.56247437
_cell_length_c   14.96661694
_cell_angle_alpha   90.00000000
_cell_angle_beta   90.00000000
_cell_angle_gamma   90.00000000
_symmetry_Int_Tables_number   1
_chemical_formula_structural   Rb2ErCl5
_chemical_formula_sum   'Rb8 Er4 Cl20'
_cell_volume   1064.18446779
_cell_formula_units_Z   4
loop_
 _symmetry_equiv_pos_site_id
 _symmetry_equiv_pos_as_xyz
  1  'x, y, z'
loop_
 _atom_site_type_symbol
 _atom_site_label
 _atom_site_symmetry_multiplicity
 _atom_site_fract_x
 _atom_site_fract_y
 _atom_site_fract_z
 _atom_site_occupancy
  Rb  Rb0  1  0.75000000  0.83587118  0.58329902  1
  Rb  Rb1  1  0.25000000  0.16412882  0.41670098  1
  Rb  Rb2  1  0.25000000  0.66412882  0.08329902  1
  Rb  Rb3  1  0.75000000  0.33587118  0.91670098  1
  Rb  Rb4  1  0.75000000  0.52358706  0.28772993  1
  Rb  Rb5  1  0.25000000  0.47641294  0.71227007  1
  Rb  Rb6  1  0.25000000  0.97641294  0.78772993  1
  Rb  Rb7  1  0.75000000  0.02358706  0.21227007  1
  Er  Er8  1  0.75000000  0.82108581  0.93455862  1
  Er  Er9  1  0.25000000  0.17891419  0.06544138  1
  Er  Er10  1  0.25000000  0.67891419  0.43455862  1
  Er  Er11  1  0.75000000  0.32108581  0.56544138  1
  Cl  Cl12  1  0.75000000  0.98088979  0.79598823  1
  Cl  Cl13  1  0.25000000  0.01911021  0.20401177  1
  Cl  Cl14  1  0.25000000  0.51911021  0.29598823  1
  Cl  Cl15  1  0.75000000  0.48088979  0.70401177  1
  Cl  Cl16  1  0.49334085  0.66494155  0.88139764  1
  Cl  Cl17  1  0.50665915  0.33505845  0.11860236  1
  Cl  Cl18  1  0.50665915  0.83505845  0.38139764  1
  Cl  Cl19  1  0.99334085  0.33505845  0.11860236  1
  Cl  Cl20  1  0.49334085  0.16494155  0.61860236  1
  Cl  Cl21  1  0.00665915  0.66494155  0.88139764  1
  Cl  Cl22  1  0.00665915  0.16494155  0.61860236  1
  Cl  Cl23  1  0.99334085  0.83505845  0.38139764  1
  Cl  Cl24  1  0.75000000  0.71247894  0.09623408  1
  Cl  Cl25  1  0.25000000  0.28752106  0.90376592  1
  Cl  Cl26  1  0.25000000  0.78752106  0.59623408  1
  Cl  Cl27  1  0.75000000  0.21247894  0.40376592  1
  Cl  Cl28  1  -0.00000000  0.00000000  -0.00000000  1
  Cl  Cl29  1  -0.00000000  0.50000000  0.50000000  1
  Cl  Cl30  1  0.50000000  0.00000000  -0.00000000  1
  Cl  Cl31  1  0.50000000  0.50000000  0.50000000  1
