# generated using pymatgen
data_RbLaZr6FeCl18
_symmetry_space_group_name_H-M   'P 1'
_cell_length_a   9.87871944
_cell_length_b   9.87871944
_cell_length_c   18.76453325
_cell_angle_alpha   90.00000000
_cell_angle_beta   90.00000000
_cell_angle_gamma   120.00000134
_symmetry_Int_Tables_number   1
_chemical_formula_structural   RbLaZr6FeCl18
_chemical_formula_sum   'Rb2 La2 Zr12 Fe2 Cl36'
_cell_volume   1585.87770986
_cell_formula_units_Z   2
loop_
 _symmetry_equiv_pos_site_id
 _symmetry_equiv_pos_as_xyz
  1  'x, y, z'
loop_
 _atom_site_type_symbol
 _atom_site_label
 _atom_site_symmetry_multiplicity
 _atom_site_fract_x
 _atom_site_fract_y
 _atom_site_fract_z
 _atom_site_occupancy
  Rb  Rb0  1  0.33333300  0.66666700  0.75000000  1
  Rb  Rb1  1  0.66666700  0.33333300  0.25000000  1
  La  La2  1  0.66666700  0.33333300  0.75000000  1
  La  La3  1  0.33333300  0.66666700  0.25000000  1
  Zr  Zr4  1  0.95942167  0.17793931  0.92529675  1
  Zr  Zr5  1  0.04057833  0.82206069  0.07470325  1
  Zr  Zr6  1  0.21851764  0.04057833  0.92529675  1
  Zr  Zr7  1  0.21851764  0.17793931  0.57470325  1
  Zr  Zr8  1  0.78148236  0.95942167  0.07470325  1
  Zr  Zr9  1  0.78148236  0.82206069  0.42529675  1
  Zr  Zr10  1  0.82206069  0.78148236  0.92529675  1
  Zr  Zr11  1  0.82206069  0.04057833  0.57470325  1
  Zr  Zr12  1  0.17793931  0.21851764  0.07470325  1
  Zr  Zr13  1  0.17793931  0.95942167  0.42529675  1
  Zr  Zr14  1  0.95942167  0.78148236  0.57470325  1
  Zr  Zr15  1  0.04057833  0.21851764  0.42529675  1
  Fe  Fe16  1  -0.00000000  -0.00000000  -0.00000000  1
  Fe  Fe17  1  -0.00000000  -0.00000000  0.50000000  1
  Cl  Cl18  1  0.58265972  0.72931074  0.99918979  1
  Cl  Cl19  1  0.41734028  0.27068926  0.00081021  1
  Cl  Cl20  1  0.14665102  0.41734028  0.99918979  1
  Cl  Cl21  1  0.14665102  0.72931074  0.50081021  1
  Cl  Cl22  1  0.85334898  0.58265972  0.00081021  1
  Cl  Cl23  1  0.85334898  0.27068926  0.49918979  1
  Cl  Cl24  1  0.27068926  0.85334898  0.99918979  1
  Cl  Cl25  1  0.27068926  0.41734028  0.50081021  1
  Cl  Cl26  1  0.72931074  0.14665102  0.00081021  1
  Cl  Cl27  1  0.72931074  0.58265972  0.49918979  1
  Cl  Cl28  1  0.58265972  0.85334898  0.50081021  1
  Cl  Cl29  1  0.41734028  0.14665102  0.49918979  1
  Cl  Cl30  1  0.76944371  0.95758793  0.84201408  1
  Cl  Cl31  1  0.23055629  0.04241207  0.15798592  1
  Cl  Cl32  1  0.18814422  0.23055629  0.84201408  1
  Cl  Cl33  1  0.18814422  0.95758793  0.65798592  1
  Cl  Cl34  1  0.81185578  0.76944371  0.15798592  1
  Cl  Cl35  1  0.81185578  0.04241207  0.34201408  1
  Cl  Cl36  1  0.04241207  0.81185578  0.84201408  1
  Cl  Cl37  1  0.04241207  0.23055629  0.65798592  1
  Cl  Cl38  1  0.95758793  0.18814422  0.15798592  1
  Cl  Cl39  1  0.95758793  0.76944371  0.34201408  1
  Cl  Cl40  1  0.76944371  0.81185578  0.65798592  1
  Cl  Cl41  1  0.23055629  0.18814422  0.34201408  1
  Cl  Cl42  1  0.92159837  0.37879951  0.83717401  1
  Cl  Cl43  1  0.07840163  0.62120049  0.16282599  1
  Cl  Cl44  1  0.45720113  0.07840163  0.83717401  1
  Cl  Cl45  1  0.45720113  0.37879951  0.66282599  1
  Cl  Cl46  1  0.54279887  0.92159837  0.16282599  1
  Cl  Cl47  1  0.54279887  0.62120049  0.33717401  1
  Cl  Cl48  1  0.62120049  0.54279887  0.83717401  1
  Cl  Cl49  1  0.62120049  0.07840163  0.66282599  1
  Cl  Cl50  1  0.37879951  0.45720113  0.16282599  1
  Cl  Cl51  1  0.37879951  0.92159837  0.33717401  1
  Cl  Cl52  1  0.92159837  0.54279887  0.66282599  1
  Cl  Cl53  1  0.07840163  0.45720113  0.33717401  1
