# generated using pymatgen
data_Rb2Mn2Be3F12
_symmetry_space_group_name_H-M   'P 1'
_cell_length_a   10.42428839
_cell_length_b   10.42428839
_cell_length_c   10.42428839
_cell_angle_alpha   90.00000000
_cell_angle_beta   90.00000000
_cell_angle_gamma   90.00000000
_symmetry_Int_Tables_number   1
_chemical_formula_structural   Rb2Mn2Be3F12
_chemical_formula_sum   'Rb8 Mn8 Be12 F48'
_cell_volume   1132.76351680
_cell_formula_units_Z   4
loop_
 _symmetry_equiv_pos_site_id
 _symmetry_equiv_pos_as_xyz
  1  'x, y, z'
loop_
 _atom_site_type_symbol
 _atom_site_label
 _atom_site_symmetry_multiplicity
 _atom_site_fract_x
 _atom_site_fract_y
 _atom_site_fract_z
 _atom_site_occupancy
  Rb  Rb0  1  0.04879385  0.04879385  0.04879385  1
  Rb  Rb1  1  0.45120615  0.95120615  0.54879385  1
  Rb  Rb2  1  0.95120615  0.54879385  0.45120615  1
  Rb  Rb3  1  0.54879385  0.45120615  0.95120615  1
  Rb  Rb4  1  0.81601540  0.81601540  0.81601540  1
  Rb  Rb5  1  0.68398460  0.18398460  0.31601540  1
  Rb  Rb6  1  0.18398460  0.31601540  0.68398460  1
  Rb  Rb7  1  0.31601540  0.68398460  0.18398460  1
  Mn  Mn8  1  0.33445795  0.33445795  0.33445795  1
  Mn  Mn9  1  0.16554205  0.66554205  0.83445795  1
  Mn  Mn10  1  0.66554205  0.83445795  0.16554205  1
  Mn  Mn11  1  0.83445795  0.16554205  0.66554205  1
  Mn  Mn12  1  0.59772091  0.59772091  0.59772091  1
  Mn  Mn13  1  0.90227909  0.40227909  0.09772091  1
  Mn  Mn14  1  0.40227909  0.09772091  0.90227909  1
  Mn  Mn15  1  0.09772091  0.90227909  0.40227909  1
  Be  Be16  1  0.01903859  0.21532120  0.37570315  1
  Be  Be17  1  0.48096141  0.78467880  0.87570315  1
  Be  Be18  1  0.98096141  0.71532120  0.12429685  1
  Be  Be19  1  0.37570315  0.01903859  0.21532120  1
  Be  Be20  1  0.51903859  0.28467880  0.62429685  1
  Be  Be21  1  0.87570315  0.48096141  0.78467880  1
  Be  Be22  1  0.12429685  0.98096141  0.71532120  1
  Be  Be23  1  0.62429685  0.51903859  0.28467880  1
  Be  Be24  1  0.21532120  0.37570315  0.01903859  1
  Be  Be25  1  0.71532120  0.12429685  0.98096141  1
  Be  Be26  1  0.28467880  0.62429685  0.51903859  1
  Be  Be27  1  0.78467880  0.87570315  0.48096141  1
  F  F28  1  0.01122169  0.07291412  0.32919902  1
  F  F29  1  0.48877831  0.92708588  0.82919902  1
  F  F30  1  0.98877831  0.57291412  0.17080098  1
  F  F31  1  0.32919902  0.01122169  0.07291412  1
  F  F32  1  0.51122169  0.42708588  0.67080098  1
  F  F33  1  0.82919902  0.48877831  0.92708588  1
  F  F34  1  0.17080098  0.98877831  0.57291412  1
  F  F35  1  0.67080098  0.51122169  0.42708588  1
  F  F36  1  0.07291412  0.32919902  0.01122169  1
  F  F37  1  0.57291412  0.17080098  0.98877831  1
  F  F38  1  0.42708588  0.67080098  0.51122169  1
  F  F39  1  0.92708588  0.82919902  0.48877831  1
  F  F40  1  0.26566159  0.49817420  0.43929374  1
  F  F41  1  0.23433841  0.50182580  0.93929374  1
  F  F42  1  0.73433841  0.99817420  0.06070626  1
  F  F43  1  0.43929374  0.26566159  0.49817420  1
  F  F44  1  0.76566159  0.00182580  0.56070626  1
  F  F45  1  0.93929374  0.23433841  0.50182580  1
  F  F46  1  0.06070626  0.73433841  0.99817420  1
  F  F47  1  0.56070626  0.76566159  0.00182580  1
  F  F48  1  0.49817420  0.43929374  0.26566159  1
  F  F49  1  0.99817420  0.06070626  0.73433841  1
  F  F50  1  0.00182580  0.56070626  0.76566159  1
  F  F51  1  0.50182580  0.93929374  0.23433841  1
  F  F52  1  0.04447179  0.80482859  0.22766541  1
  F  F53  1  0.45552821  0.19517141  0.72766541  1
  F  F54  1  0.95552821  0.30482859  0.27233459  1
  F  F55  1  0.22766541  0.04447179  0.80482859  1
  F  F56  1  0.54447179  0.69517141  0.77233459  1
  F  F57  1  0.72766541  0.45552821  0.19517141  1
  F  F58  1  0.27233459  0.95552821  0.30482859  1
  F  F59  1  0.77233459  0.54447179  0.69517141  1
  F  F60  1  0.80482859  0.22766541  0.04447179  1
  F  F61  1  0.30482859  0.27233459  0.95552821  1
  F  F62  1  0.69517141  0.77233459  0.54447179  1
  F  F63  1  0.19517141  0.72766541  0.45552821  1
  F  F64  1  0.15994353  0.25524653  0.40263468  1
  F  F65  1  0.34005647  0.74475347  0.90263468  1
  F  F66  1  0.84005647  0.75524653  0.09736532  1
  F  F67  1  0.40263468  0.15994353  0.25524653  1
  F  F68  1  0.65994353  0.24475347  0.59736532  1
  F  F69  1  0.90263468  0.34005647  0.74475347  1
  F  F70  1  0.09736532  0.84005647  0.75524653  1
  F  F71  1  0.59736532  0.65994353  0.24475347  1
  F  F72  1  0.25524653  0.40263468  0.15994353  1
  F  F73  1  0.75524653  0.09736532  0.84005647  1
  F  F74  1  0.24475347  0.59736532  0.65994353  1
  F  F75  1  0.74475347  0.90263468  0.34005647  1
