# generated using pymatgen
data_Rb2Ca2Be3F12
_symmetry_space_group_name_H-M   'P 1'
_cell_length_a   10.71193008
_cell_length_b   10.71193008
_cell_length_c   10.71193008
_cell_angle_alpha   90.00000000
_cell_angle_beta   90.00000000
_cell_angle_gamma   90.00000000
_symmetry_Int_Tables_number   1
_chemical_formula_structural   Rb2Ca2Be3F12
_chemical_formula_sum   'Rb8 Ca8 Be12 F48'
_cell_volume   1229.14519497
_cell_formula_units_Z   4
loop_
 _symmetry_equiv_pos_site_id
 _symmetry_equiv_pos_as_xyz
  1  'x, y, z'
loop_
 _atom_site_type_symbol
 _atom_site_label
 _atom_site_symmetry_multiplicity
 _atom_site_fract_x
 _atom_site_fract_y
 _atom_site_fract_z
 _atom_site_occupancy
  Rb  Rb0  1  0.04942109  0.04942109  0.04942109  1
  Rb  Rb1  1  0.45057891  0.95057891  0.54942109  1
  Rb  Rb2  1  0.95057891  0.54942109  0.45057891  1
  Rb  Rb3  1  0.54942109  0.45057891  0.95057891  1
  Rb  Rb4  1  0.81542347  0.81542347  0.81542347  1
  Rb  Rb5  1  0.68457653  0.18457653  0.31542347  1
  Rb  Rb6  1  0.18457653  0.31542347  0.68457653  1
  Rb  Rb7  1  0.31542347  0.68457653  0.18457653  1
  Ca  Ca8  1  0.33348282  0.33348282  0.33348282  1
  Ca  Ca9  1  0.16651718  0.66651718  0.83348282  1
  Ca  Ca10  1  0.66651718  0.83348282  0.16651718  1
  Ca  Ca11  1  0.83348282  0.16651718  0.66651718  1
  Ca  Ca12  1  0.59646723  0.59646723  0.59646723  1
  Ca  Ca13  1  0.90353277  0.40353277  0.09646723  1
  Ca  Ca14  1  0.40353277  0.09646723  0.90353277  1
  Ca  Ca15  1  0.09646723  0.90353277  0.40353277  1
  Be  Be16  1  0.01703802  0.21687113  0.37554157  1
  Be  Be17  1  0.48296198  0.78312887  0.87554157  1
  Be  Be18  1  0.98296198  0.71687113  0.12445843  1
  Be  Be19  1  0.37554157  0.01703802  0.21687113  1
  Be  Be20  1  0.51703802  0.28312887  0.62445843  1
  Be  Be21  1  0.87554157  0.48296198  0.78312887  1
  Be  Be22  1  0.12445843  0.98296198  0.71687113  1
  Be  Be23  1  0.62445843  0.51703802  0.28312887  1
  Be  Be24  1  0.21687113  0.37554157  0.01703802  1
  Be  Be25  1  0.71687113  0.12445843  0.98296198  1
  Be  Be26  1  0.28312887  0.62445843  0.51703802  1
  Be  Be27  1  0.78312887  0.87554157  0.48296198  1
  F  F28  1  0.00972528  0.07978199  0.32616059  1
  F  F29  1  0.49027472  0.92021801  0.82616059  1
  F  F30  1  0.99027472  0.57978199  0.17383941  1
  F  F31  1  0.32616059  0.00972528  0.07978199  1
  F  F32  1  0.50972528  0.42021801  0.67383941  1
  F  F33  1  0.82616059  0.49027472  0.92021801  1
  F  F34  1  0.17383941  0.99027472  0.57978199  1
  F  F35  1  0.67383941  0.50972528  0.42021801  1
  F  F36  1  0.07978199  0.32616059  0.00972528  1
  F  F37  1  0.57978199  0.17383941  0.99027472  1
  F  F38  1  0.42021801  0.67383941  0.50972528  1
  F  F39  1  0.92021801  0.82616059  0.49027472  1
  F  F40  1  0.26476815  0.50153163  0.44034254  1
  F  F41  1  0.23523185  0.49846837  0.94034254  1
  F  F42  1  0.73523185  0.00153163  0.05965746  1
  F  F43  1  0.44034254  0.26476815  0.50153163  1
  F  F44  1  0.76476815  0.99846837  0.55965746  1
  F  F45  1  0.94034254  0.23523185  0.49846837  1
  F  F46  1  0.05965746  0.73523185  0.00153163  1
  F  F47  1  0.55965746  0.76476815  0.99846837  1
  F  F48  1  0.50153163  0.44034254  0.26476815  1
  F  F49  1  0.00153163  0.05965746  0.73523185  1
  F  F50  1  0.99846837  0.55965746  0.76476815  1
  F  F51  1  0.49846837  0.94034254  0.23523185  1
  F  F52  1  0.04435862  0.80453044  0.22383093  1
  F  F53  1  0.45564138  0.19546956  0.72383093  1
  F  F54  1  0.95564138  0.30453044  0.27616907  1
  F  F55  1  0.22383093  0.04435862  0.80453044  1
  F  F56  1  0.54435862  0.69546956  0.77616907  1
  F  F57  1  0.72383093  0.45564138  0.19546956  1
  F  F58  1  0.27616907  0.95564138  0.30453044  1
  F  F59  1  0.77616907  0.54435862  0.69546956  1
  F  F60  1  0.80453044  0.22383093  0.04435862  1
  F  F61  1  0.30453044  0.27616907  0.95564138  1
  F  F62  1  0.69546956  0.77616907  0.54435862  1
  F  F63  1  0.19546956  0.72383093  0.45564138  1
  F  F64  1  0.15430978  0.25356839  0.40521505  1
  F  F65  1  0.34569022  0.74643161  0.90521505  1
  F  F66  1  0.84569022  0.75356839  0.09478495  1
  F  F67  1  0.40521505  0.15430978  0.25356839  1
  F  F68  1  0.65430978  0.24643161  0.59478495  1
  F  F69  1  0.90521505  0.34569022  0.74643161  1
  F  F70  1  0.09478495  0.84569022  0.75356839  1
  F  F71  1  0.59478495  0.65430978  0.24643161  1
  F  F72  1  0.25356839  0.40521505  0.15430978  1
  F  F73  1  0.75356839  0.09478495  0.84569022  1
  F  F74  1  0.24643161  0.59478495  0.65430978  1
  F  F75  1  0.74643161  0.90521505  0.34569022  1
