# generated using pymatgen
data_Pr2NiB10
_symmetry_space_group_name_H-M   'P 1'
_cell_length_a   4.20166574
_cell_length_b   5.64338251
_cell_length_c   11.25426118
_cell_angle_alpha   90.00000000
_cell_angle_beta   90.00000000
_cell_angle_gamma   90.00000000
_symmetry_Int_Tables_number   1
_chemical_formula_structural   Pr2NiB10
_chemical_formula_sum   'Pr4 Ni2 B20'
_cell_volume   266.85661761
_cell_formula_units_Z   2
loop_
 _symmetry_equiv_pos_site_id
 _symmetry_equiv_pos_as_xyz
  1  'x, y, z'
loop_
 _atom_site_type_symbol
 _atom_site_label
 _atom_site_symmetry_multiplicity
 _atom_site_fract_x
 _atom_site_fract_y
 _atom_site_fract_z
 _atom_site_occupancy
  Pr  Pr0  1  0.50000000  0.19376920  0.36368423  1
  Pr  Pr1  1  0.50000000  0.80623080  0.63631577  1
  Pr  Pr2  1  0.50000000  0.30623080  0.86368423  1
  Pr  Pr3  1  0.50000000  0.69376920  0.13631577  1
  Ni  Ni4  1  -0.00000000  0.00000000  -0.00000000  1
  Ni  Ni5  1  0.00000000  0.50000000  0.50000000  1
  B  B6  1  0.00000000  0.37479379  0.04151757  1
  B  B7  1  -0.00000000  0.62520621  0.95848243  1
  B  B8  1  0.00000000  0.12520621  0.54151757  1
  B  B9  1  0.00000000  0.87479379  0.45848243  1
  B  B10  1  0.00000000  0.34603577  0.19705554  1
  B  B11  1  -0.00000000  0.65396423  0.80294446  1
  B  B12  1  -0.00000000  0.15396423  0.69705554  1
  B  B13  1  0.00000000  0.84603577  0.30294446  1
  B  B14  1  -0.00000000  0.03719183  0.18807907  1
  B  B15  1  -0.00000000  0.96280817  0.81192093  1
  B  B16  1  0.00000000  0.46280817  0.68807907  1
  B  B17  1  -0.00000000  0.53719183  0.31192093  1
  B  B18  1  0.29979142  0.20310471  0.11364645  1
  B  B19  1  0.70020858  0.79689529  0.88635355  1
  B  B20  1  0.29979142  0.79689529  0.88635355  1
  B  B21  1  0.70020858  0.29689529  0.61364645  1
  B  B22  1  0.70020858  0.20310471  0.11364645  1
  B  B23  1  0.29979142  0.70310471  0.38635355  1
  B  B24  1  0.70020858  0.70310471  0.38635355  1
  B  B25  1  0.29979142  0.29689529  0.61364645  1
