# generated using pymatgen
data_LiV(PO4)2
_symmetry_space_group_name_H-M   'P 1'
_cell_length_a   7.68544036
_cell_length_b   7.49439524
_cell_length_c   5.07791910
_cell_angle_alpha   90.00000000
_cell_angle_beta   95.22881304
_cell_angle_gamma   90.00000000
_symmetry_Int_Tables_number   1
_chemical_formula_structural   LiV(PO4)2
_chemical_formula_sum   'Li2 V2 P4 O16'
_cell_volume   291.25951681
_cell_formula_units_Z   2
loop_
 _symmetry_equiv_pos_site_id
 _symmetry_equiv_pos_as_xyz
  1  'x, y, z'
loop_
 _atom_site_type_symbol
 _atom_site_label
 _atom_site_symmetry_multiplicity
 _atom_site_fract_x
 _atom_site_fract_y
 _atom_site_fract_z
 _atom_site_occupancy
  Li  Li0  1  0.58094239  0.12392492  0.09108698  1
  Li  Li1  1  0.91905667  0.62392511  0.40891242  1
  O  O2  1  0.42062149  0.64116490  0.71859829  1
  O  O3  1  0.08084953  0.18327700  0.26314977  1
  O  O4  1  0.15152990  0.55435293  0.41935349  1
  O  O5  1  0.22343917  0.88168183  0.50558964  1
  O  O6  1  0.27656158  0.38168163  0.99440970  1
  O  O7  1  0.34846972  0.05435273  0.08064516  1
  O  O8  1  0.07937796  0.14116471  0.78140087  1
  O  O9  1  0.41915010  0.68327719  0.23684888  1
  O  O10  1  0.58491466  0.31059075  0.78812603  1
  O  O11  1  0.57894563  0.36023621  0.29674594  1
  O  O12  1  0.92105474  0.86023640  0.20325562  1
  O  O13  1  0.72717364  0.62202723  0.01867606  1
  O  O14  1  0.77282673  0.12202703  0.48132352  1
  O  O15  1  0.84946590  0.44215698  0.60515965  1
  O  O16  1  0.91508553  0.81059094  0.71187406  1
  O  O17  1  0.65053429  0.94215717  0.89484044  1
  P  P18  1  0.20679671  0.18850621  0.03509521  1
  P  P19  1  0.29320292  0.68850640  0.46490344  1
  P  P20  1  0.70383462  0.31396242  0.55378393  1
  P  P21  1  0.79616557  0.81396261  0.94621616  1
  V  V22  1  0.00335187  0.00995615  0.49221415  1
  V  V23  1  0.49664906  0.50995635  0.00778666  1
