# generated using pymatgen
data_Rb2MoP2O9
_symmetry_space_group_name_H-M   'P 1'
_cell_length_a   8.49148784
_cell_length_b   8.37288611
_cell_length_c   16.03747451
_cell_angle_alpha   97.57236168
_cell_angle_beta   90.00000000
_cell_angle_gamma   120.46969038
_symmetry_Int_Tables_number   1
_chemical_formula_structural   Rb2MoP2O9
_chemical_formula_sum   'Rb8 Mo4 P8 O36'
_cell_volume   971.21239540
_cell_formula_units_Z   4
loop_
 _symmetry_equiv_pos_site_id
 _symmetry_equiv_pos_as_xyz
  1  'x, y, z'
loop_
 _atom_site_type_symbol
 _atom_site_label
 _atom_site_symmetry_multiplicity
 _atom_site_fract_x
 _atom_site_fract_y
 _atom_site_fract_z
 _atom_site_occupancy
  Rb  Rb0  1  0.49142457  0.28053241  0.73333741  1
  Rb  Rb1  1  0.50857543  0.71946759  0.26666259  1
  Rb  Rb2  1  0.21089216  0.71946759  0.76666259  1
  Rb  Rb3  1  0.78910784  0.28053241  0.23333741  1
  Rb  Rb4  1  0.55214351  0.28834980  0.47809277  1
  Rb  Rb5  1  0.44785649  0.71165020  0.52190723  1
  Rb  Rb6  1  0.26379371  0.71165020  0.02190723  1
  Rb  Rb7  1  0.73620629  0.28834980  0.97809277  1
  Mo  Mo8  1  0.76220042  0.77543640  0.86184577  1
  Mo  Mo9  1  0.23779958  0.22456360  0.13815423  1
  Mo  Mo10  1  0.98676402  0.22456360  0.63815423  1
  Mo  Mo11  1  0.01323598  0.77543640  0.36184577  1
  P  P12  1  0.23331198  0.08374612  0.92779127  1
  P  P13  1  0.76668802  0.91625388  0.07220873  1
  P  P14  1  0.14956586  0.91625388  0.57220873  1
  P  P15  1  0.85043414  0.08374612  0.42779127  1
  P  P16  1  0.80307117  0.75352502  0.65719217  1
  P  P17  1  0.19692883  0.24647498  0.34280783  1
  P  P18  1  0.04954615  0.24647498  0.84280783  1
  P  P19  1  0.95045385  0.75352502  0.15719217  1
  O  O20  1  0.38024951  0.07019268  0.88047282  1
  O  O21  1  0.61975049  0.92980732  0.11952718  1
  O  O22  1  0.31005683  0.92980732  0.61952718  1
  O  O23  1  0.68994317  0.07019268  0.38047282  1
  O  O24  1  0.21217551  0.25046585  0.89849442  1
  O  O25  1  0.78782449  0.74953415  0.10150558  1
  O  O26  1  0.96170966  0.74953415  0.60150558  1
  O  O27  1  0.03829034  0.25046585  0.39849442  1
  O  O28  1  0.62876329  0.57234107  0.62670491  1
  O  O29  1  0.37123671  0.42765893  0.37329509  1
  O  O30  1  0.05642222  0.42765893  0.87329509  1
  O  O31  1  0.94357778  0.57234107  0.12670491  1
  O  O32  1  0.55079001  0.71095625  0.81376002  1
  O  O33  1  0.44920999  0.28904375  0.18623998  1
  O  O34  1  0.83983376  0.28904375  0.68623998  1
  O  O35  1  0.16016624  0.71095625  0.31376002  1
  O  O36  1  0.73204262  0.56194067  0.88161557  1
  O  O37  1  0.26795738  0.43805933  0.11838443  1
  O  O38  1  0.17010195  0.43805933  0.61838443  1
  O  O39  1  0.82989805  0.56194067  0.38161557  1
  O  O40  1  0.69949936  0.84786918  0.97682741  1
  O  O41  1  0.30050064  0.15213082  0.02317259  1
  O  O42  1  0.85163018  0.15213082  0.52317259  1
  O  O43  1  0.14836982  0.84786918  0.47682741  1
  O  O44  1  0.79876868  0.93005560  0.64573734  1
  O  O45  1  0.20123132  0.06994440  0.35426266  1
  O  O46  1  0.86871307  0.06994440  0.85426266  1
  O  O47  1  0.13128693  0.93005560  0.14573734  1
  O  O48  1  0.85713841  0.90277118  0.41640073  1
  O  O49  1  0.14286159  0.09722882  0.58359927  1
  O  O50  1  0.95436724  0.09722882  0.08359927  1
  O  O51  1  0.04563276  0.90277118  0.91640073  1
  O  O52  1  0.87640724  0.76866975  0.74969760  1
  O  O53  1  0.12359276  0.23133025  0.25030240  1
  O  O54  1  0.10773749  0.23133025  0.75030240  1
  O  O55  1  0.89226251  0.76866975  0.24969760  1
