# generated using pymatgen
data_Rb2UI5
_symmetry_space_group_name_H-M   'P 1'
_cell_length_a   9.40220905
_cell_length_b   9.99161286
_cell_length_c   15.32023183
_cell_angle_alpha   90.00000000
_cell_angle_beta   90.00000000
_cell_angle_gamma   90.00000000
_symmetry_Int_Tables_number   1
_chemical_formula_structural   Rb2UI5
_chemical_formula_sum   'Rb8 U4 I20'
_cell_volume   1439.23210622
_cell_formula_units_Z   4
loop_
 _symmetry_equiv_pos_site_id
 _symmetry_equiv_pos_as_xyz
  1  'x, y, z'
loop_
 _atom_site_type_symbol
 _atom_site_label
 _atom_site_symmetry_multiplicity
 _atom_site_fract_x
 _atom_site_fract_y
 _atom_site_fract_z
 _atom_site_occupancy
  Rb  Rb0  1  0.96283816  0.99834142  0.67489667  1
  Rb  Rb1  1  0.03716184  0.00165858  0.32510333  1
  Rb  Rb2  1  0.46283816  0.00165858  0.82510333  1
  Rb  Rb3  1  0.03716184  0.49834142  0.32510333  1
  Rb  Rb4  1  0.53716184  0.99834142  0.17489667  1
  Rb  Rb5  1  0.96283816  0.50165858  0.67489667  1
  Rb  Rb6  1  0.53716184  0.50165858  0.17489667  1
  Rb  Rb7  1  0.46283816  0.49834142  0.82510333  1
  U  U8  1  0.92631897  0.75000000  0.99856897  1
  U  U9  1  0.07368103  0.25000000  0.00143103  1
  U  U10  1  0.42631897  0.25000000  0.50143103  1
  U  U11  1  0.57368103  0.75000000  0.49856897  1
  I  I12  1  0.66979170  0.75000000  0.69814695  1
  I  I13  1  0.33020830  0.25000000  0.30185305  1
  I  I14  1  0.16979170  0.25000000  0.80185305  1
  I  I15  1  0.83020830  0.75000000  0.19814695  1
  I  I16  1  0.13546021  0.75000000  0.83384967  1
  I  I17  1  0.86453979  0.25000000  0.16615033  1
  I  I18  1  0.63546021  0.25000000  0.66615033  1
  I  I19  1  0.36453979  0.75000000  0.33384967  1
  I  I20  1  0.58372464  0.75000000  0.98809597  1
  I  I21  1  0.41627536  0.25000000  0.01190403  1
  I  I22  1  0.08372464  0.25000000  0.51190403  1
  I  I23  1  0.91627536  0.75000000  0.48809597  1
  I  I24  1  0.84487446  0.45758361  0.91969610  1
  I  I25  1  0.15512554  0.54241639  0.08030390  1
  I  I26  1  0.34487446  0.54241639  0.58030390  1
  I  I27  1  0.15512554  0.95758361  0.08030390  1
  I  I28  1  0.65512554  0.45758361  0.41969610  1
  I  I29  1  0.84487446  0.04241639  0.91969610  1
  I  I30  1  0.65512554  0.04241639  0.41969610  1
  I  I31  1  0.34487446  0.95758361  0.58030390  1
