# generated using pymatgen
data_PrH6(CO3)3
_symmetry_space_group_name_H-M   'P 1'
_cell_length_a   8.54108525
_cell_length_b   9.79005306
_cell_length_c   10.30307822
_cell_angle_alpha   98.69223561
_cell_angle_beta   90.00000000
_cell_angle_gamma   90.00000000
_symmetry_Int_Tables_number   1
_chemical_formula_structural   PrH6(CO3)3
_chemical_formula_sum   'Pr4 H24 C12 O36'
_cell_volume   851.62438568
_cell_formula_units_Z   4
loop_
 _symmetry_equiv_pos_site_id
 _symmetry_equiv_pos_as_xyz
  1  'x, y, z'
loop_
 _atom_site_type_symbol
 _atom_site_label
 _atom_site_symmetry_multiplicity
 _atom_site_fract_x
 _atom_site_fract_y
 _atom_site_fract_z
 _atom_site_occupancy
  Pr  Pr0  1  0.59885862  0.18279816  0.93531455  1
  Pr  Pr1  1  0.40114138  0.81720184  0.06468545  1
  Pr  Pr2  1  0.09885862  0.81720184  0.56468545  1
  Pr  Pr3  1  0.90114138  0.18279816  0.43531455  1
  H  H4  1  0.56536853  0.60988481  0.71547132  1
  H  H5  1  0.43463147  0.39011519  0.28452868  1
  H  H6  1  0.06536853  0.39011519  0.78452868  1
  H  H7  1  0.93463147  0.60988481  0.21547132  1
  H  H8  1  0.51888954  0.63133977  0.57295917  1
  H  H9  1  0.48111046  0.36866023  0.42704083  1
  H  H10  1  0.01888954  0.36866023  0.92704083  1
  H  H11  1  0.98111046  0.63133977  0.07295917  1
  H  H12  1  0.73599675  0.73269389  0.59345014  1
  H  H13  1  0.26400325  0.26730611  0.40654986  1
  H  H14  1  0.23599675  0.26730611  0.90654986  1
  H  H15  1  0.76400325  0.73269389  0.09345014  1
  H  H16  1  0.64969942  0.40043487  0.58379695  1
  H  H17  1  0.35030058  0.59956513  0.41620305  1
  H  H18  1  0.14969942  0.59956513  0.91620305  1
  H  H19  1  0.85030058  0.40043487  0.08379695  1
  H  H20  1  0.40260727  0.75184728  0.40333613  1
  H  H21  1  0.59739273  0.24815272  0.59666387  1
  H  H22  1  0.90260727  0.24815272  0.09666387  1
  H  H23  1  0.09739273  0.75184728  0.90333613  1
  H  H24  1  0.74391916  0.85862705  0.50831494  1
  H  H25  1  0.25608084  0.14137295  0.49168506  1
  H  H26  1  0.24391916  0.14137295  0.99168506  1
  H  H27  1  0.75608084  0.85862705  0.00831494  1
  C  C28  1  0.51618583  0.50590627  0.92656738  1
  C  C29  1  0.48381417  0.49409373  0.07343262  1
  C  C30  1  0.01618583  0.49409373  0.57343262  1
  C  C31  1  0.98381417  0.50590627  0.42656738  1
  C  C32  1  0.90249587  0.97531630  0.82620322  1
  C  C33  1  0.09750413  0.02468370  0.17379678  1
  C  C34  1  0.40249587  0.02468370  0.67379678  1
  C  C35  1  0.59750413  0.97531630  0.32620322  1
  C  C36  1  0.39166399  0.91808310  0.77014304  1
  C  C37  1  0.60833601  0.08191690  0.22985696  1
  C  C38  1  0.89166399  0.08191690  0.72985696  1
  C  C39  1  0.10833601  0.91808310  0.27014304  1
  O  O40  1  0.60685455  0.60156638  0.62452373  1
  O  O41  1  0.39314545  0.39843362  0.37547627  1
  O  O42  1  0.10685455  0.39843362  0.87547627  1
  O  O43  1  0.89314545  0.60156638  0.12452373  1
  O  O44  1  0.64219965  0.30550455  0.53440223  1
  O  O45  1  0.35780035  0.69449545  0.46559777  1
  O  O46  1  0.14219965  0.69449545  0.96559777  1
  O  O47  1  0.85780035  0.30550455  0.03440223  1
  O  O48  1  0.80350444  0.80723853  0.56790581  1
  O  O49  1  0.19649556  0.19276147  0.43209419  1
  O  O50  1  0.30350444  0.19276147  0.93209419  1
  O  O51  1  0.69649556  0.80723853  0.06790581  1
  O  O52  1  0.99731431  0.87629733  0.79944090  1
  O  O53  1  0.00268569  0.12370267  0.20055910  1
  O  O54  1  0.49731431  0.12370267  0.70055910  1
  O  O55  1  0.50268569  0.87629733  0.29944090  1
  O  O56  1  0.48984600  0.62201979  0.89049100  1
  O  O57  1  0.51015400  0.37798021  0.10950900  1
  O  O58  1  0.98984600  0.37798021  0.60950900  1
  O  O59  1  0.01015400  0.62201979  0.39049100  1
  O  O60  1  0.56667651  0.39985504  0.85277149  1
  O  O61  1  0.43332349  0.60014496  0.14722851  1
  O  O62  1  0.06667651  0.60014496  0.64722851  1
  O  O63  1  0.93332349  0.39985504  0.35277149  1
  O  O64  1  0.47453312  0.94184418  0.87471306  1
  O  O65  1  0.52546688  0.05815582  0.12528694  1
  O  O66  1  0.97453312  0.05815582  0.62528694  1
  O  O67  1  0.02546688  0.94184418  0.37471306  1
  O  O68  1  0.30169113  0.81654072  0.74227877  1
  O  O69  1  0.69830887  0.18345928  0.25772123  1
  O  O70  1  0.80169113  0.18345928  0.75772123  1
  O  O71  1  0.19830887  0.81654072  0.24227877  1
  O  O72  1  0.81185784  0.99713884  0.92522751  1
  O  O73  1  0.18814216  0.00286116  0.07477249  1
  O  O74  1  0.31185784  0.00286116  0.57477249  1
  O  O75  1  0.68814216  0.99713884  0.42522751  1
