# generated using pymatgen
data_Pr2MnNiO6
_symmetry_space_group_name_H-M   'P 1'
_cell_length_a   5.47519856
_cell_length_b   5.58823641
_cell_length_c   7.78174040
_cell_angle_alpha   90.00000000
_cell_angle_beta   90.01284431
_cell_angle_gamma   90.00000000
_symmetry_Int_Tables_number   1
_chemical_formula_structural   Pr2MnNiO6
_chemical_formula_sum   'Pr4 Mn2 Ni2 O12'
_cell_volume   238.09560114
_cell_formula_units_Z   2
loop_
 _symmetry_equiv_pos_site_id
 _symmetry_equiv_pos_as_xyz
  1  'x, y, z'
loop_
 _atom_site_type_symbol
 _atom_site_label
 _atom_site_symmetry_multiplicity
 _atom_site_fract_x
 _atom_site_fract_y
 _atom_site_fract_z
 _atom_site_occupancy
  Pr  Pr0  1  0.01068932  0.45012873  0.25047078  1
  Pr  Pr1  1  0.98931068  0.54987127  0.74952922  1
  Pr  Pr2  1  0.48931068  0.95012873  0.24952922  1
  Pr  Pr3  1  0.51068932  0.04987127  0.75047078  1
  Mn  Mn4  1  0.00000000  0.00000000  -0.00000000  1
  Mn  Mn5  1  0.50000000  0.50000000  0.50000000  1
  Ni  Ni6  1  0.00000000  0.00000000  0.50000000  1
  Ni  Ni7  1  0.50000000  0.50000000  -0.00000000  1
  O  O8  1  0.92046870  0.01770719  0.24222617  1
  O  O9  1  0.07953130  0.98229281  0.75777383  1
  O  O10  1  0.57953130  0.51770719  0.25777383  1
  O  O11  1  0.42046870  0.48229281  0.74222617  1
  O  O12  1  0.20021595  0.71710507  0.04326496  1
  O  O13  1  0.79978405  0.28289493  0.95673504  1
  O  O14  1  0.29978405  0.21710507  0.45673504  1
  O  O15  1  0.70021595  0.78289493  0.54326496  1
  O  O16  1  0.28283437  0.20156238  0.04173956  1
  O  O17  1  0.71716563  0.79843762  0.95826044  1
  O  O18  1  0.21716563  0.70156238  0.45826044  1
  O  O19  1  0.78283437  0.29843762  0.54173956  1
