# generated using pymatgen
data_Nd2Pd2O5
_symmetry_space_group_name_H-M   'P 1'
_cell_length_a   5.62698337
_cell_length_b   6.65342715
_cell_length_c   6.65342715
_cell_angle_alpha   90.00000000
_cell_angle_beta   90.00000000
_cell_angle_gamma   90.00000000
_symmetry_Int_Tables_number   1
_chemical_formula_structural   Nd2Pd2O5
_chemical_formula_sum   'Nd4 Pd4 O10'
_cell_volume   249.09582223
_cell_formula_units_Z   2
loop_
 _symmetry_equiv_pos_site_id
 _symmetry_equiv_pos_as_xyz
  1  'x, y, z'
loop_
 _atom_site_type_symbol
 _atom_site_label
 _atom_site_symmetry_multiplicity
 _atom_site_fract_x
 _atom_site_fract_y
 _atom_site_fract_z
 _atom_site_occupancy
  Nd  Nd0  1  0.00000000  0.25951200  0.10748693  1
  Nd  Nd1  1  0.00000000  0.74048800  0.89251307  1
  Nd  Nd2  1  0.50000000  0.89251307  0.25951200  1
  Nd  Nd3  1  0.50000000  0.10748693  0.74048800  1
  Pd  Pd4  1  0.00000000  0.30509866  0.59543606  1
  Pd  Pd5  1  0.00000000  0.69490134  0.40456394  1
  Pd  Pd6  1  0.50000000  0.40456394  0.30509866  1
  Pd  Pd7  1  0.50000000  0.59543606  0.69490134  1
  O  O8  1  0.25855646  0.19478521  0.40125488  1
  O  O9  1  0.74144354  0.80521479  0.59874512  1
  O  O10  1  0.25855646  0.80521479  0.59874512  1
  O  O11  1  0.75855646  0.59874512  0.19478521  1
  O  O12  1  0.74144354  0.19478521  0.40125488  1
  O  O13  1  0.24144354  0.40125488  0.80521479  1
  O  O14  1  0.75855646  0.40125488  0.80521479  1
  O  O15  1  0.24144354  0.59874512  0.19478521  1
  O  O16  1  0.25000000  -0.00000000  -0.00000000  1
  O  O17  1  0.75000000  -0.00000000  -0.00000000  1
