# generated using pymatgen
data_NdSi2Ir3
_symmetry_space_group_name_H-M   'P 1'
_cell_length_a   5.62401433
_cell_length_b   6.71952295
_cell_length_c   6.71952295
_cell_angle_alpha   65.51207545
_cell_angle_beta   65.26114025
_cell_angle_gamma   65.26114025
_symmetry_Int_Tables_number   1
_chemical_formula_structural   NdSi2Ir3
_chemical_formula_sum   'Nd2 Si4 Ir6'
_cell_volume   200.45045798
_cell_formula_units_Z   2
loop_
 _symmetry_equiv_pos_site_id
 _symmetry_equiv_pos_as_xyz
  1  'x, y, z'
loop_
 _atom_site_type_symbol
 _atom_site_label
 _atom_site_symmetry_multiplicity
 _atom_site_fract_x
 _atom_site_fract_y
 _atom_site_fract_z
 _atom_site_occupancy
  Nd  Nd0  1  0.02795074  0.25000000  0.25000000  1
  Nd  Nd1  1  0.97204926  0.75000000  0.75000000  1
  Si  Si2  1  0.71790704  0.07973544  0.07973544  1
  Si  Si3  1  0.28209296  0.92026456  0.92026456  1
  Si  Si4  1  0.37737793  0.42026456  0.42026456  1
  Si  Si5  1  0.62262207  0.57973544  0.57973544  1
  Ir  Ir6  1  0.50000000  0.00000000  0.50000000  1
  Ir  Ir7  1  0.50000000  0.50000000  0.00000000  1
  Ir  Ir8  1  0.00000000  0.72006002  0.27993998  1
  Ir  Ir9  1  0.00000000  0.27993998  0.72006002  1
  Ir  Ir10  1  0.50000000  0.77993998  0.22006002  1
  Ir  Ir11  1  0.50000000  0.22006002  0.77993998  1
