# generated using pymatgen
data_NdHf2F11
_symmetry_space_group_name_H-M   'P 1'
_cell_length_a   7.78305910
_cell_length_b   8.41931981
_cell_length_c   8.41931981
_cell_angle_alpha   73.26778961
_cell_angle_beta   62.46991521
_cell_angle_gamma   62.46991521
_symmetry_Int_Tables_number   1
_chemical_formula_structural   NdHf2F11
_chemical_formula_sum   'Nd2 Hf4 F22'
_cell_volume   431.89638451
_cell_formula_units_Z   2
loop_
 _symmetry_equiv_pos_site_id
 _symmetry_equiv_pos_as_xyz
  1  'x, y, z'
loop_
 _atom_site_type_symbol
 _atom_site_label
 _atom_site_symmetry_multiplicity
 _atom_site_fract_x
 _atom_site_fract_y
 _atom_site_fract_z
 _atom_site_occupancy
  Nd  Nd0  1  0.25000000  0.25000000  0.25000000  1
  Nd  Nd1  1  0.75000000  0.75000000  0.75000000  1
  Hf  Hf2  1  0.86564084  0.81875504  0.18124496  1
  Hf  Hf3  1  0.13435916  0.18124496  0.81875504  1
  Hf  Hf4  1  0.63435916  0.31875504  0.68124496  1
  Hf  Hf5  1  0.36564084  0.68124496  0.31875504  1
  F  F6  1  0.60683261  0.05245917  0.20600189  1
  F  F7  1  0.39316739  0.94754083  0.79399811  1
  F  F8  1  0.13470633  0.20600189  0.05245917  1
  F  F9  1  0.89316739  0.29399811  0.44754083  1
  F  F10  1  0.86529367  0.79399811  0.94754083  1
  F  F11  1  0.10683261  0.70600189  0.55245917  1
  F  F12  1  0.36529367  0.44754083  0.29399811  1
  F  F13  1  0.63470633  0.55245917  0.70600189  1
  F  F14  1  0.00000000  0.00000000  -0.00000000  1
  F  F15  1  0.50000000  0.50000000  0.50000000  1
  F  F16  1  0.62952320  0.72044434  0.27955566  1
  F  F17  1  0.37047680  0.27955566  0.72044434  1
  F  F18  1  0.87047680  0.22044434  0.77955566  1
  F  F19  1  0.12952320  0.77955566  0.22044434  1
  F  F20  1  0.76276240  0.82070637  0.45054502  1
  F  F21  1  0.23723760  0.17929363  0.54945498  1
  F  F22  1  0.96598620  0.45054502  0.82070637  1
  F  F23  1  0.73723760  0.04945498  0.67929363  1
  F  F24  1  0.03401380  0.54945498  0.17929363  1
  F  F25  1  0.26276240  0.95054502  0.32070637  1
  F  F26  1  0.53401380  0.67929363  0.04945498  1
  F  F27  1  0.46598620  0.32070637  0.95054502  1
