# generated using pymatgen
data_Pr2(Al3Ir)3
_symmetry_space_group_name_H-M   'P 1'
_cell_length_a   7.62765651
_cell_length_b   7.70018173
_cell_length_c   9.64037183
_cell_angle_alpha   90.00000000
_cell_angle_beta   90.00000000
_cell_angle_gamma   120.31502581
_symmetry_Int_Tables_number   1
_chemical_formula_structural   Pr2(Al3Ir)3
_chemical_formula_sum   'Pr4 Al18 Ir6'
_cell_volume   488.79766186
_cell_formula_units_Z   2
loop_
 _symmetry_equiv_pos_site_id
 _symmetry_equiv_pos_as_xyz
  1  'x, y, z'
loop_
 _atom_site_type_symbol
 _atom_site_label
 _atom_site_symmetry_multiplicity
 _atom_site_fract_x
 _atom_site_fract_y
 _atom_site_fract_z
 _atom_site_occupancy
  Pr  Pr0  1  0.67425254  0.66932417  0.25000000  1
  Pr  Pr1  1  0.32574746  0.33067583  0.75000000  1
  Pr  Pr2  1  0.32574746  0.99507163  0.25000000  1
  Pr  Pr3  1  0.67425254  0.00492837  0.75000000  1
  Al  Al4  1  0.00000000  0.13004561  0.25000000  1
  Al  Al5  1  1.00000000  0.86995439  0.75000000  1
  Al  Al6  1  0.33110353  0.33492175  0.07170713  1
  Al  Al7  1  0.66889647  0.66507825  0.92829287  1
  Al  Al8  1  0.66889647  0.66507825  0.57170713  1
  Al  Al9  1  0.66889647  0.00381822  0.42829287  1
  Al  Al10  1  0.33110353  0.33492175  0.42829287  1
  Al  Al11  1  0.33110353  0.99618178  0.57170713  1
  Al  Al12  1  0.33110353  0.99618178  0.92829287  1
  Al  Al13  1  0.66889647  0.00381822  0.07170713  1
  Al  Al14  1  0.00000000  0.33492377  0.54889647  1
  Al  Al15  1  1.00000000  0.66507623  0.45110353  1
  Al  Al16  1  1.00000000  0.66507623  0.04889647  1
  Al  Al17  1  0.00000000  0.33492377  0.95110353  1
  Al  Al18  1  0.20638625  0.54427353  0.25000000  1
  Al  Al19  1  0.79361375  0.45572647  0.75000000  1
  Al  Al20  1  0.79361375  0.33788728  0.25000000  1
  Al  Al21  1  0.20638625  0.66211272  0.75000000  1
  Ir  Ir22  1  0.65850895  0.32925447  0.00000000  1
  Ir  Ir23  1  0.34149105  0.67074553  -0.00000000  1
  Ir  Ir24  1  0.34149105  0.67074553  0.50000000  1
  Ir  Ir25  1  0.65850895  0.32925447  0.50000000  1
  Ir  Ir26  1  0.00000000  0.00000000  0.00000000  1
  Ir  Ir27  1  0.00000000  0.00000000  0.50000000  1
