# generated using pymatgen
data_Nb16N13
_symmetry_space_group_name_H-M   'P 1'
_cell_length_a   17.73268931
_cell_length_b   6.26941564
_cell_length_c   8.26564404
_cell_angle_alpha   67.69373850
_cell_angle_beta   36.41586698
_cell_angle_gamma   45.00033615
_symmetry_Int_Tables_number   1
_chemical_formula_structural   Nb16N13
_chemical_formula_sum   'Nb16 N13'
_cell_volume   344.20792245
_cell_formula_units_Z   1
loop_
 _symmetry_equiv_pos_site_id
 _symmetry_equiv_pos_as_xyz
  1  'x, y, z'
loop_
 _atom_site_type_symbol
 _atom_site_label
 _atom_site_symmetry_multiplicity
 _atom_site_fract_x
 _atom_site_fract_y
 _atom_site_fract_z
 _atom_site_occupancy
  N  N0  1  0.25000000  0.50000000  0.00000000  1
  N  N1  1  0.12521394  0.24932040  0.49924953  1
  N  N2  1  0.12638088  0.74785619  0.49911401  1
  N  N3  1  0.50016573  0.49966853  0.00000000  1
  N  N4  1  0.37361912  0.25214381  0.50088599  1
  N  N5  1  0.75000000  0.00000000  0.00000000  1
  N  N6  1  0.37478606  0.75067960  0.50075047  1
  N  N7  1  0.75000000  0.50000000  0.00000000  1
  N  N8  1  0.62446347  0.25132478  0.50075047  1
  N  N9  1  0.62549489  0.74839227  0.50088599  1
  N  N10  1  0.99983427  0.50033147  0.00000000  1
  N  N11  1  0.87450511  0.25160773  0.49911401  1
  N  N12  1  0.87553653  0.74867522  0.49924953  1
  Nb  Nb13  1  0.12399229  0.00281412  0.99920870  1
  Nb  Nb14  1  0.12320099  0.50279933  0.00079130  1
  Nb  Nb15  1  0.00686672  0.24112907  0.48626656  1
  Nb  Nb16  1  0.37600771  0.99718588  0.00079130  1
  Nb  Nb17  1  0.37679901  0.49720067  0.99920870  1
  Nb  Nb18  1  0.25968026  0.24037896  0.47991943  1
  Nb  Nb19  1  0.62067583  0.99850574  0.99935273  1
  Nb  Nb20  1  0.24031974  0.75962104  0.52008057  1
  Nb  Nb21  1  0.62002856  0.52008547  0.00064727  1
  Nb  Nb22  1  0.49933421  0.24918189  0.50133157  1
  Nb  Nb23  1  0.87932417  0.00149426  0.00064727  1
  Nb  Nb24  1  0.49313328  0.75887093  0.51373344  1
  Nb  Nb25  1  0.87997144  0.47991453  0.99935273  1
  Nb  Nb26  1  0.76040031  0.23893885  0.47991943  1
  Nb  Nb27  1  0.73959969  0.76106115  0.52008057  1
  Nb  Nb28  1  0.00066579  0.75081811  0.49866843  1
