# generated using pymatgen
data_Pr23Cd4Ni7
_symmetry_space_group_name_H-M   'P 1'
_cell_length_a   9.91834651
_cell_length_b   9.91834651
_cell_length_c   22.42974195
_cell_angle_alpha   90.00000000
_cell_angle_beta   90.00000000
_cell_angle_gamma   120.00000155
_symmetry_Int_Tables_number   1
_chemical_formula_structural   Pr23Cd4Ni7
_chemical_formula_sum   'Pr46 Cd8 Ni14'
_cell_volume   1910.88018029
_cell_formula_units_Z   2
loop_
 _symmetry_equiv_pos_site_id
 _symmetry_equiv_pos_as_xyz
  1  'x, y, z'
loop_
 _atom_site_type_symbol
 _atom_site_label
 _atom_site_symmetry_multiplicity
 _atom_site_fract_x
 _atom_site_fract_y
 _atom_site_fract_z
 _atom_site_occupancy
  Pr  Pr0  1  0.20603262  0.41206524  0.71986629  1
  Pr  Pr1  1  0.20603262  0.79396738  0.71986629  1
  Pr  Pr2  1  0.79396738  0.58793476  0.21986629  1
  Pr  Pr3  1  0.58793476  0.79396738  0.71986629  1
  Pr  Pr4  1  0.79396738  0.20603262  0.21986629  1
  Pr  Pr5  1  0.41206524  0.20603262  0.21986629  1
  Pr  Pr6  1  0.79317164  0.58634329  0.94686439  1
  Pr  Pr7  1  0.79317164  0.20682836  0.94686439  1
  Pr  Pr8  1  0.20682836  0.41365671  0.44686439  1
  Pr  Pr9  1  0.41365671  0.20682836  0.94686439  1
  Pr  Pr10  1  0.20682836  0.79317164  0.44686439  1
  Pr  Pr11  1  0.58634329  0.79317164  0.44686439  1
  Pr  Pr12  1  0.21104384  0.42208767  0.99054012  1
  Pr  Pr13  1  0.21104384  0.78895616  0.99054012  1
  Pr  Pr14  1  0.78895616  0.57791233  0.49054012  1
  Pr  Pr15  1  0.57791233  0.78895616  0.99054012  1
  Pr  Pr16  1  0.78895616  0.21104384  0.49054012  1
  Pr  Pr17  1  0.42208767  0.21104384  0.49054012  1
  Pr  Pr18  1  0.87302405  0.74604811  0.63374809  1
  Pr  Pr19  1  0.87302405  0.12697595  0.63374809  1
  Pr  Pr20  1  0.12697595  0.25395189  0.13374809  1
  Pr  Pr21  1  0.25395189  0.12697595  0.63374809  1
  Pr  Pr22  1  0.12697595  0.87302405  0.13374809  1
  Pr  Pr23  1  0.74604811  0.87302405  0.13374809  1
  Pr  Pr24  1  0.45756140  0.91512281  0.85581126  1
  Pr  Pr25  1  0.45756140  0.54243860  0.85581126  1
  Pr  Pr26  1  0.54243860  0.08487719  0.35581126  1
  Pr  Pr27  1  0.08487719  0.54243860  0.85581126  1
  Pr  Pr28  1  0.54243860  0.45756140  0.35581126  1
  Pr  Pr29  1  0.91512281  0.45756140  0.35581126  1
  Pr  Pr30  1  0.00000000  0.00000000  0.99870067  1
  Pr  Pr31  1  0.00000000  0.00000000  0.49870067  1
  Pr  Pr32  1  0.46043941  0.92087882  0.58583216  1
  Pr  Pr33  1  0.46043941  0.53956059  0.58583216  1
  Pr  Pr34  1  0.53956059  0.07912118  0.08583216  1
  Pr  Pr35  1  0.07912118  0.53956059  0.58583216  1
  Pr  Pr36  1  0.53956059  0.46043941  0.08583216  1
  Pr  Pr37  1  0.92087882  0.46043941  0.08583216  1
  Pr  Pr38  1  0.79716643  0.59433285  0.78244219  1
  Pr  Pr39  1  0.79716643  0.20283357  0.78244219  1
  Pr  Pr40  1  0.20283357  0.40566715  0.28244219  1
  Pr  Pr41  1  0.40566715  0.20283357  0.78244219  1
  Pr  Pr42  1  0.20283357  0.79716643  0.28244219  1
  Pr  Pr43  1  0.59433285  0.79716643  0.28244219  1
  Pr  Pr44  1  0.66666700  0.33333300  0.64558581  1
  Pr  Pr45  1  0.33333300  0.66666700  0.14558581  1
  Cd  Cd46  1  0.00000000  0.00000000  0.74905379  1
  Cd  Cd47  1  0.00000000  0.00000000  0.24905379  1
  Cd  Cd48  1  0.10655662  0.21311323  0.86313180  1
  Cd  Cd49  1  0.10655662  0.89344338  0.86313180  1
  Cd  Cd50  1  0.89344338  0.78688677  0.36313180  1
  Cd  Cd51  1  0.78688677  0.89344338  0.86313180  1
  Cd  Cd52  1  0.89344338  0.10655662  0.36313180  1
  Cd  Cd53  1  0.21311323  0.10655662  0.36313180  1
  Ni  Ni54  1  0.52121097  0.04242194  0.71063672  1
  Ni  Ni55  1  0.52121097  0.47878903  0.71063672  1
  Ni  Ni56  1  0.47878903  0.95757806  0.21063672  1
  Ni  Ni57  1  0.95757806  0.47878903  0.71063672  1
  Ni  Ni58  1  0.47878903  0.52121097  0.21063672  1
  Ni  Ni59  1  0.04242194  0.52121097  0.21063672  1
  Ni  Ni60  1  0.66666700  0.33333300  0.86327026  1
  Ni  Ni61  1  0.33333300  0.66666700  0.36327026  1
  Ni  Ni62  1  0.14278007  0.28556013  0.56449680  1
  Ni  Ni63  1  0.14278007  0.85721993  0.56449680  1
  Ni  Ni64  1  0.85721993  0.71443987  0.06449680  1
  Ni  Ni65  1  0.71443987  0.85721993  0.56449680  1
  Ni  Ni66  1  0.85721993  0.14278007  0.06449680  1
  Ni  Ni67  1  0.28556013  0.14278007  0.06449680  1
