# generated using pymatgen
data_Nd12(OsC3)5
_symmetry_space_group_name_H-M   'P 1'
_cell_length_a   5.34630670
_cell_length_b   10.99017263
_cell_length_c   10.99017263
_cell_angle_alpha   120.00000103
_cell_angle_beta   90.00000000
_cell_angle_gamma   90.00000000
_symmetry_Int_Tables_number   1
_chemical_formula_structural   Nd12(OsC3)5
_chemical_formula_sum   'Nd12 Os5 C15'
_cell_volume   559.23394512
_cell_formula_units_Z   1
loop_
 _symmetry_equiv_pos_site_id
 _symmetry_equiv_pos_as_xyz
  1  'x, y, z'
loop_
 _atom_site_type_symbol
 _atom_site_label
 _atom_site_symmetry_multiplicity
 _atom_site_fract_x
 _atom_site_fract_y
 _atom_site_fract_z
 _atom_site_occupancy
  Nd  Nd0  1  0.50000000  0.20651503  0.20651503  1
  Nd  Nd1  1  0.50000000  1.00000000  0.79348497  1
  Nd  Nd2  1  0.50000000  0.79348497  1.00000000  1
  Nd  Nd3  1  0.00000000  0.72611256  0.18371335  1
  Nd  Nd4  1  -0.00000000  0.45760079  0.27388744  1
  Nd  Nd5  1  -0.00000000  0.54239921  0.81628665  1
  Nd  Nd6  1  0.00000000  0.81628665  0.54239921  1
  Nd  Nd7  1  -0.00000000  0.18371335  0.72611256  1
  Nd  Nd8  1  0.00000000  0.27388744  0.45760079  1
  Nd  Nd9  1  0.50000000  0.57302479  0.57302479  1
  Nd  Nd10  1  0.50000000  0.00000000  0.42697521  1
  Nd  Nd11  1  0.50000000  0.42697521  0.00000000  1
  Os  Os12  1  -0.00000000  0.83998572  0.83998572  1
  Os  Os13  1  -0.00000000  0.00000000  0.16001428  1
  Os  Os14  1  0.00000000  0.16001428  0.00000000  1
  Os  Os15  1  0.50000000  0.66666700  0.33333300  1
  Os  Os16  1  0.50000000  0.33333300  0.66666700  1
  C  C17  1  -0.00000000  0.66902419  0.66902419  1
  C  C18  1  0.00000000  1.00000000  0.33097581  1
  C  C19  1  -0.00000000  0.33097581  1.00000000  1
  C  C20  1  0.00000000  0.20078279  0.20078279  1
  C  C21  1  0.00000000  0.00000000  0.79921721  1
  C  C22  1  -0.00000000  0.79921721  0.00000000  1
  C  C23  1  -0.00000000  0.54760795  0.54760795  1
  C  C24  1  -0.00000000  1.00000000  0.45239205  1
  C  C25  1  0.00000000  0.45239205  1.00000000  1
  C  C26  1  0.50000000  0.71253017  0.18657072  1
  C  C27  1  0.50000000  0.47404055  0.28746983  1
  C  C28  1  0.50000000  0.52595945  0.81342928  1
  C  C29  1  0.50000000  0.81342928  0.52595945  1
  C  C30  1  0.50000000  0.18657072  0.71253017  1
  C  C31  1  0.50000000  0.28746983  0.47404055  1
