# generated using pymatgen
data_Ni15O16
_symmetry_space_group_name_H-M   'P 1'
_cell_length_a   5.91018747
_cell_length_b   12.22283742
_cell_length_c   5.91104095
_cell_angle_alpha   118.99123524
_cell_angle_beta   120.14254010
_cell_angle_gamma   89.83644889
_symmetry_Int_Tables_number   1
_chemical_formula_structural   Ni15O16
_chemical_formula_sum   'Ni15 O16'
_cell_volume   306.23233630
_cell_formula_units_Z   1
loop_
 _symmetry_equiv_pos_site_id
 _symmetry_equiv_pos_as_xyz
  1  'x, y, z'
loop_
 _atom_site_type_symbol
 _atom_site_label
 _atom_site_symmetry_multiplicity
 _atom_site_fract_x
 _atom_site_fract_y
 _atom_site_fract_z
 _atom_site_occupancy
  Ni  Ni0  1  0.99981726  0.49912695  0.49848427  1
  Ni  Ni1  1  0.00000000  0.75000000  0.50000000  1
  Ni  Ni2  1  0.00018274  0.00087305  0.50151573  1
  Ni  Ni3  1  0.99987035  0.00061961  0.99902106  1
  Ni  Ni4  1  0.00012965  0.49938039  0.00097894  1
  Ni  Ni5  1  0.00000000  0.75000000  0.00000000  1
  Ni  Ni6  1  0.35186348  0.27878191  0.70540849  1
  Ni  Ni7  1  0.49789434  0.49942571  0.49874776  1
  Ni  Ni8  1  0.50000000  0.75000000  0.50000000  1
  Ni  Ni9  1  0.50210566  0.00057429  0.50125224  1
  Ni  Ni10  1  0.50000000  0.75000000  0.00000000  1
  Ni  Ni11  1  0.48900906  0.98369313  0.97836431  1
  Ni  Ni12  1  0.51099094  0.51630687  0.02163569  1
  Ni  Ni13  1  0.64813652  0.22121809  0.29459151  1
  Ni  Ni14  1  0.00000000  0.25000000  0.00000000  1
  O  O15  1  0.22879067  0.09286210  0.45713801  1
  O  O16  1  0.25574540  0.38637882  0.51217181  1
  O  O17  1  0.25034437  0.62558535  0.50085331  1
  O  O18  1  0.24611301  0.86822392  0.49246941  1
  O  O19  1  0.23941101  0.11371449  0.98305949  1
  O  O20  1  0.25601595  0.63176624  0.00965427  1
  O  O21  1  0.25619366  0.38651041  0.01685879  1
  O  O22  1  0.24634683  0.86842441  0.99051180  1
  O  O23  1  0.77120933  0.40713790  0.54286199  1
  O  O24  1  0.74965563  0.87441465  0.49914669  1
  O  O25  1  0.74425460  0.11362118  0.48782819  1
  O  O26  1  0.75388699  0.63177608  0.50753059  1
  O  O27  1  0.74380634  0.11348959  0.98314121  1
  O  O28  1  0.76058899  0.38628551  0.01694051  1
  O  O29  1  0.75365317  0.63157559  0.00948820  1
  O  O30  1  0.74398405  0.86823376  0.99034573  1
