# generated using pymatgen
data_Rb2Cd2(MoO4)3
_symmetry_space_group_name_H-M   'P 1'
_cell_length_a   11.48461623
_cell_length_b   11.48461623
_cell_length_c   11.48461623
_cell_angle_alpha   90.00000000
_cell_angle_beta   90.00000000
_cell_angle_gamma   90.00000000
_symmetry_Int_Tables_number   1
_chemical_formula_structural   Rb2Cd2(MoO4)3
_chemical_formula_sum   'Rb8 Cd8 Mo12 O48'
_cell_volume   1514.77965039
_cell_formula_units_Z   4
loop_
 _symmetry_equiv_pos_site_id
 _symmetry_equiv_pos_as_xyz
  1  'x, y, z'
loop_
 _atom_site_type_symbol
 _atom_site_label
 _atom_site_symmetry_multiplicity
 _atom_site_fract_x
 _atom_site_fract_y
 _atom_site_fract_z
 _atom_site_occupancy
  Rb  Rb0  1  0.05260708  0.05260708  0.05260708  1
  Rb  Rb1  1  0.44739292  0.94739292  0.55260708  1
  Rb  Rb2  1  0.94739292  0.55260708  0.44739292  1
  Rb  Rb3  1  0.55260708  0.44739292  0.94739292  1
  Rb  Rb4  1  0.81880590  0.81880590  0.81880590  1
  Rb  Rb5  1  0.68119410  0.18119410  0.31880590  1
  Rb  Rb6  1  0.18119410  0.31880590  0.68119410  1
  Rb  Rb7  1  0.31880590  0.68119410  0.18119410  1
  Cd  Cd8  1  0.33512811  0.33512811  0.33512811  1
  Cd  Cd9  1  0.16487189  0.66487189  0.83512811  1
  Cd  Cd10  1  0.66487189  0.83512811  0.16487189  1
  Cd  Cd11  1  0.83512811  0.16487189  0.66487189  1
  Cd  Cd12  1  0.59995346  0.59995346  0.59995346  1
  Cd  Cd13  1  0.90004654  0.40004654  0.09995346  1
  Cd  Cd14  1  0.40004654  0.09995346  0.90004654  1
  Cd  Cd15  1  0.09995346  0.90004654  0.40004654  1
  Mo  Mo16  1  0.01957370  0.21430073  0.37654470  1
  Mo  Mo17  1  0.48042630  0.78569927  0.87654470  1
  Mo  Mo18  1  0.98042630  0.71430073  0.12345530  1
  Mo  Mo19  1  0.37654470  0.01957370  0.21430073  1
  Mo  Mo20  1  0.51957370  0.28569927  0.62345530  1
  Mo  Mo21  1  0.87654470  0.48042630  0.78569927  1
  Mo  Mo22  1  0.12345530  0.98042630  0.71430073  1
  Mo  Mo23  1  0.62345530  0.51957370  0.28569927  1
  Mo  Mo24  1  0.21430073  0.37654470  0.01957370  1
  Mo  Mo25  1  0.71430073  0.12345530  0.98042630  1
  Mo  Mo26  1  0.28569927  0.62345530  0.51957370  1
  Mo  Mo27  1  0.78569927  0.87654470  0.48042630  1
  O  O28  1  0.01274307  0.06574955  0.32504615  1
  O  O29  1  0.48725693  0.93425045  0.82504615  1
  O  O30  1  0.98725693  0.56574955  0.17495385  1
  O  O31  1  0.32504615  0.01274307  0.06574955  1
  O  O32  1  0.51274307  0.43425045  0.67495385  1
  O  O33  1  0.82504615  0.48725693  0.93425045  1
  O  O34  1  0.17495385  0.98725693  0.56574955  1
  O  O35  1  0.67495385  0.51274307  0.43425045  1
  O  O36  1  0.06574955  0.32504615  0.01274307  1
  O  O37  1  0.56574955  0.17495385  0.98725693  1
  O  O38  1  0.43425045  0.67495385  0.51274307  1
  O  O39  1  0.93425045  0.82504615  0.48725693  1
  O  O40  1  0.26661186  0.49207624  0.43781012  1
  O  O41  1  0.23338814  0.50792376  0.93781012  1
  O  O42  1  0.73338814  0.99207624  0.06218988  1
  O  O43  1  0.43781012  0.26661186  0.49207624  1
  O  O44  1  0.76661186  0.00792376  0.56218988  1
  O  O45  1  0.93781012  0.23338814  0.50792376  1
  O  O46  1  0.06218988  0.73338814  0.99207624  1
  O  O47  1  0.56218988  0.76661186  0.00792376  1
  O  O48  1  0.49207624  0.43781012  0.26661186  1
  O  O49  1  0.99207624  0.06218988  0.73338814  1
  O  O50  1  0.00792376  0.56218988  0.76661186  1
  O  O51  1  0.50792376  0.93781012  0.23338814  1
  O  O52  1  0.04684616  0.80688518  0.23012244  1
  O  O53  1  0.45315384  0.19311482  0.73012244  1
  O  O54  1  0.95315384  0.30688518  0.26987756  1
  O  O55  1  0.23012244  0.04684616  0.80688518  1
  O  O56  1  0.54684616  0.69311482  0.76987756  1
  O  O57  1  0.73012244  0.45315384  0.19311482  1
  O  O58  1  0.26987756  0.95315384  0.30688518  1
  O  O59  1  0.76987756  0.54684616  0.69311482  1
  O  O60  1  0.80688518  0.23012244  0.04684616  1
  O  O61  1  0.30688518  0.26987756  0.95315384  1
  O  O62  1  0.69311482  0.76987756  0.54684616  1
  O  O63  1  0.19311482  0.73012244  0.45315384  1
  O  O64  1  0.16665323  0.25719594  0.40613188  1
  O  O65  1  0.33334677  0.74280406  0.90613188  1
  O  O66  1  0.83334677  0.75719594  0.09386812  1
  O  O67  1  0.40613188  0.16665323  0.25719594  1
  O  O68  1  0.66665323  0.24280406  0.59386812  1
  O  O69  1  0.90613188  0.33334677  0.74280406  1
  O  O70  1  0.09386812  0.83334677  0.75719594  1
  O  O71  1  0.59386812  0.66665323  0.24280406  1
  O  O72  1  0.25719594  0.40613188  0.16665323  1
  O  O73  1  0.75719594  0.09386812  0.83334677  1
  O  O74  1  0.24280406  0.59386812  0.66665323  1
  O  O75  1  0.74280406  0.90613188  0.33334677  1
