# generated using pymatgen
data_Pr23Cd4Rh7
_symmetry_space_group_name_H-M   'P 1'
_cell_length_a   10.06365610
_cell_length_b   10.06365610
_cell_length_c   22.83078901
_cell_angle_alpha   90.00000000
_cell_angle_beta   90.00000000
_cell_angle_gamma   120.00000220
_symmetry_Int_Tables_number   1
_chemical_formula_structural   Pr23Cd4Rh7
_chemical_formula_sum   'Pr46 Cd8 Rh14'
_cell_volume   2002.45662225
_cell_formula_units_Z   2
loop_
 _symmetry_equiv_pos_site_id
 _symmetry_equiv_pos_as_xyz
  1  'x, y, z'
loop_
 _atom_site_type_symbol
 _atom_site_label
 _atom_site_symmetry_multiplicity
 _atom_site_fract_x
 _atom_site_fract_y
 _atom_site_fract_z
 _atom_site_occupancy
  Pr  Pr0  1  0.20687892  0.41375784  0.72054239  1
  Pr  Pr1  1  0.20687892  0.79312108  0.72054239  1
  Pr  Pr2  1  0.79312108  0.58624216  0.22054239  1
  Pr  Pr3  1  0.58624216  0.79312108  0.72054239  1
  Pr  Pr4  1  0.79312108  0.20687892  0.22054239  1
  Pr  Pr5  1  0.41375784  0.20687892  0.22054239  1
  Pr  Pr6  1  0.79361439  0.58722879  0.94694014  1
  Pr  Pr7  1  0.79361439  0.20638561  0.94694014  1
  Pr  Pr8  1  0.20638561  0.41277121  0.44694014  1
  Pr  Pr9  1  0.41277121  0.20638561  0.94694014  1
  Pr  Pr10  1  0.20638561  0.79361439  0.44694014  1
  Pr  Pr11  1  0.58722879  0.79361439  0.44694014  1
  Pr  Pr12  1  0.20996028  0.41992056  0.98975795  1
  Pr  Pr13  1  0.20996028  0.79003972  0.98975795  1
  Pr  Pr14  1  0.79003972  0.58007944  0.48975795  1
  Pr  Pr15  1  0.58007944  0.79003972  0.98975795  1
  Pr  Pr16  1  0.79003972  0.20996028  0.48975795  1
  Pr  Pr17  1  0.41992056  0.20996028  0.48975795  1
  Pr  Pr18  1  0.87285436  0.74570871  0.63557773  1
  Pr  Pr19  1  0.87285436  0.12714564  0.63557773  1
  Pr  Pr20  1  0.12714564  0.25429129  0.13557773  1
  Pr  Pr21  1  0.25429129  0.12714564  0.63557773  1
  Pr  Pr22  1  0.12714564  0.87285436  0.13557773  1
  Pr  Pr23  1  0.74570871  0.87285436  0.13557773  1
  Pr  Pr24  1  0.45913765  0.91827530  0.85633616  1
  Pr  Pr25  1  0.45913765  0.54086235  0.85633616  1
  Pr  Pr26  1  0.54086235  0.08172470  0.35633616  1
  Pr  Pr27  1  0.08172470  0.54086235  0.85633616  1
  Pr  Pr28  1  0.54086235  0.45913765  0.35633616  1
  Pr  Pr29  1  0.91827530  0.45913765  0.35633616  1
  Pr  Pr30  1  0.00000000  -0.00000000  0.99723850  1
  Pr  Pr31  1  0.00000000  -0.00000000  0.49723850  1
  Pr  Pr32  1  0.46019635  0.92039271  0.58508062  1
  Pr  Pr33  1  0.46019635  0.53980365  0.58508062  1
  Pr  Pr34  1  0.53980365  0.07960729  0.08508062  1
  Pr  Pr35  1  0.07960729  0.53980365  0.58508062  1
  Pr  Pr36  1  0.53980365  0.46019635  0.08508062  1
  Pr  Pr37  1  0.92039271  0.46019635  0.08508062  1
  Pr  Pr38  1  0.79850432  0.59700864  0.78240562  1
  Pr  Pr39  1  0.79850432  0.20149568  0.78240562  1
  Pr  Pr40  1  0.20149568  0.40299136  0.28240562  1
  Pr  Pr41  1  0.40299136  0.20149568  0.78240562  1
  Pr  Pr42  1  0.20149568  0.79850432  0.28240562  1
  Pr  Pr43  1  0.59700864  0.79850432  0.28240562  1
  Pr  Pr44  1  0.66666700  0.33333300  0.64503495  1
  Pr  Pr45  1  0.33333300  0.66666700  0.14503495  1
  Cd  Cd46  1  0.00000000  -0.00000000  0.74923753  1
  Cd  Cd47  1  0.00000000  -0.00000000  0.24923753  1
  Cd  Cd48  1  0.10664747  0.21329494  0.86350058  1
  Cd  Cd49  1  0.10664747  0.89335253  0.86350058  1
  Cd  Cd50  1  0.89335253  0.78670506  0.36350058  1
  Cd  Cd51  1  0.78670506  0.89335253  0.86350058  1
  Cd  Cd52  1  0.89335253  0.10664747  0.36350058  1
  Cd  Cd53  1  0.21329494  0.10664747  0.36350058  1
  Rh  Rh54  1  0.52116070  0.04232140  0.71053176  1
  Rh  Rh55  1  0.52116070  0.47883930  0.71053176  1
  Rh  Rh56  1  0.47883930  0.95767860  0.21053176  1
  Rh  Rh57  1  0.95767860  0.47883930  0.71053176  1
  Rh  Rh58  1  0.47883930  0.52116070  0.21053176  1
  Rh  Rh59  1  0.04232140  0.52116070  0.21053176  1
  Rh  Rh60  1  0.66666700  0.33333300  0.86409008  1
  Rh  Rh61  1  0.33333300  0.66666700  0.36409008  1
  Rh  Rh62  1  0.14370531  0.28741062  0.56303336  1
  Rh  Rh63  1  0.14370531  0.85629469  0.56303336  1
  Rh  Rh64  1  0.85629469  0.71258938  0.06303336  1
  Rh  Rh65  1  0.71258938  0.85629469  0.56303336  1
  Rh  Rh66  1  0.85629469  0.14370531  0.06303336  1
  Rh  Rh67  1  0.28741062  0.14370531  0.06303336  1
