# generated using pymatgen
data_NaCr2FeO8
_symmetry_space_group_name_H-M   'P 1'
_cell_length_a   5.15564140
_cell_length_b   5.15564140
_cell_length_c   7.06794936
_cell_angle_alpha   89.03122374
_cell_angle_beta   89.03122374
_cell_angle_gamma   65.85260875
_symmetry_Int_Tables_number   1
_chemical_formula_structural   NaCr2FeO8
_chemical_formula_sum   'Na1 Cr2 Fe1 O8'
_cell_volume   171.39641633
_cell_formula_units_Z   1
loop_
 _symmetry_equiv_pos_site_id
 _symmetry_equiv_pos_as_xyz
  1  'x, y, z'
loop_
 _atom_site_type_symbol
 _atom_site_label
 _atom_site_symmetry_multiplicity
 _atom_site_fract_x
 _atom_site_fract_y
 _atom_site_fract_z
 _atom_site_occupancy
  Na  Na0  1  0.00000000  0.00000000  0.50000000  1
  Cr  Cr1  1  0.36490175  0.36490175  0.77885940  1
  Cr  Cr2  1  0.63509825  0.63509825  0.22114060  1
  Fe  Fe3  1  0.00000000  0.00000000  -0.00000000  1
  O  O4  1  0.28582987  0.28582987  0.57420319  1
  O  O5  1  0.71417013  0.71417013  0.42579681  1
  O  O6  1  0.72483819  0.22391835  0.79727505  1
  O  O7  1  0.27516181  0.77608165  0.20272495  1
  O  O8  1  0.77608165  0.27516181  0.20272495  1
  O  O9  1  0.22391835  0.72483819  0.79727505  1
  O  O10  1  0.23008175  0.23008175  0.94934790  1
  O  O11  1  0.76991825  0.76991825  0.05065210  1
