# generated using pymatgen
data_NaDyCl4
_symmetry_space_group_name_H-M   'P 1'
_cell_length_a   6.69487081
_cell_length_b   6.78612304
_cell_length_c   7.07919701
_cell_angle_alpha   89.61303334
_cell_angle_beta   88.07092536
_cell_angle_gamma   78.46774142
_symmetry_Int_Tables_number   1
_chemical_formula_structural   NaDyCl4
_chemical_formula_sum   'Na2 Dy2 Cl8'
_cell_volume   314.95217848
_cell_formula_units_Z   2
loop_
 _symmetry_equiv_pos_site_id
 _symmetry_equiv_pos_as_xyz
  1  'x, y, z'
loop_
 _atom_site_type_symbol
 _atom_site_label
 _atom_site_symmetry_multiplicity
 _atom_site_fract_x
 _atom_site_fract_y
 _atom_site_fract_z
 _atom_site_occupancy
  Na  Na0  1  0.23131112  0.19796261  0.53549701  1
  Na  Na1  1  0.76868888  0.80203739  0.46450299  1
  Dy  Dy2  1  0.78914068  0.29975134  0.05465574  1
  Dy  Dy3  1  0.21085932  0.70024866  0.94534426  1
  Cl  Cl4  1  0.61246533  0.20749761  0.36499195  1
  Cl  Cl5  1  0.38753467  0.79250239  0.63500805  1
  Cl  Cl6  1  0.09534700  0.00200351  0.20497556  1
  Cl  Cl7  1  0.90465300  0.99799649  0.79502444  1
  Cl  Cl8  1  0.04694320  0.50339042  0.24002092  1
  Cl  Cl9  1  0.95305680  0.49660958  0.75997908  1
  Cl  Cl10  1  0.56671776  0.68522447  0.11738498  1
  Cl  Cl11  1  0.43328224  0.31477553  0.88261502  1
