# generated using pymatgen
data_NaLiHo2F8
_symmetry_space_group_name_H-M   'P 1'
_cell_length_a   6.69177491
_cell_length_b   6.69177491
_cell_length_c   7.04026076
_cell_angle_alpha   89.96747527
_cell_angle_beta   90.03252473
_cell_angle_gamma   103.15906621
_symmetry_Int_Tables_number   1
_chemical_formula_structural   NaLiHo2F8
_chemical_formula_sum   'Na2 Li2 Ho4 F16'
_cell_volume   306.98354078
_cell_formula_units_Z   2
loop_
 _symmetry_equiv_pos_site_id
 _symmetry_equiv_pos_as_xyz
  1  'x, y, z'
loop_
 _atom_site_type_symbol
 _atom_site_label
 _atom_site_symmetry_multiplicity
 _atom_site_fract_x
 _atom_site_fract_y
 _atom_site_fract_z
 _atom_site_occupancy
  Na  Na0  1  0.65656774  0.65656774  0.25000000  1
  Na  Na1  1  0.34343226  0.34343226  0.75000000  1
  Li  Li2  1  0.00000000  0.00000000  0.00000000  1
  Li  Li3  1  0.00000000  0.00000000  0.50000000  1
  Ho  Ho4  1  0.44990420  0.07589774  0.25004018  1
  Ho  Ho5  1  0.55009580  0.92410226  0.74995982  1
  Ho  Ho6  1  0.07589774  0.44990420  0.24995982  1
  Ho  Ho7  1  0.92410226  0.55009580  0.75004018  1
  F  F8  1  0.08626371  0.08626371  0.25000000  1
  F  F9  1  0.91373629  0.91373629  0.75000000  1
  F  F10  1  0.65957481  0.93386498  0.05122657  1
  F  F11  1  0.34042519  0.06613502  0.94877343  1
  F  F12  1  0.93386498  0.65957481  0.44877343  1
  F  F13  1  0.06613502  0.34042519  0.55122657  1
  F  F14  1  0.39054365  0.39054365  0.25000000  1
  F  F15  1  0.60945635  0.60945635  0.75000000  1
  F  F16  1  0.30529910  0.74597455  0.25070102  1
  F  F17  1  0.69470090  0.25402545  0.74929898  1
  F  F18  1  0.74597455  0.30529910  0.24929898  1
  F  F19  1  0.25402545  0.69470090  0.75070102  1
  F  F20  1  0.33991928  0.06588713  0.55131372  1
  F  F21  1  0.66008072  0.93411287  0.44868628  1
  F  F22  1  0.06588713  0.33991928  0.94868628  1
  F  F23  1  0.93411287  0.66008072  0.05131372  1
