# generated using pymatgen
data_LiTm(WO4)2
_symmetry_space_group_name_H-M   'P 1'
_cell_length_a   5.10820578
_cell_length_b   5.86375008
_cell_length_c   9.96994962
_cell_angle_alpha   90.00000000
_cell_angle_beta   93.15474578
_cell_angle_gamma   90.00000000
_symmetry_Int_Tables_number   1
_chemical_formula_structural   LiTm(WO4)2
_chemical_formula_sum   'Li2 Tm2 W4 O16'
_cell_volume   298.17974966
_cell_formula_units_Z   2
loop_
 _symmetry_equiv_pos_site_id
 _symmetry_equiv_pos_as_xyz
  1  'x, y, z'
loop_
 _atom_site_type_symbol
 _atom_site_label
 _atom_site_symmetry_multiplicity
 _atom_site_fract_x
 _atom_site_fract_y
 _atom_site_fract_z
 _atom_site_occupancy
  Li  Li0  1  0.25000000  0.69830598  0.25000000  1
  Li  Li1  1  0.75000000  0.30169402  0.75000000  1
  Tm  Tm2  1  0.75000000  0.31895789  0.25000000  1
  Tm  Tm3  1  0.25000000  0.68104211  0.75000000  1
  W  W4  1  0.74782105  0.82505512  0.01097047  1
  W  W5  1  0.25217895  0.17494488  0.98902953  1
  W  W6  1  0.75217895  0.82505512  0.48902953  1
  W  W7  1  0.24782105  0.17494488  0.51097047  1
  O  O8  1  0.44165887  0.88998611  0.59793533  1
  O  O9  1  0.55834113  0.11001389  0.40206467  1
  O  O10  1  0.05834113  0.88998611  0.90206467  1
  O  O11  1  0.94165887  0.11001389  0.09793533  1
  O  O12  1  0.10513744  0.37179924  0.38391738  1
  O  O13  1  0.89486256  0.62820076  0.61608262  1
  O  O14  1  0.39486256  0.37179924  0.11608262  1
  O  O15  1  0.60513744  0.62820076  0.88391738  1
  O  O16  1  0.04460598  0.90873723  0.38877979  1
  O  O17  1  0.95539402  0.09126277  0.61122021  1
  O  O18  1  0.45539402  0.90873723  0.11122021  1
  O  O19  1  0.54460598  0.09126277  0.88877979  1
  O  O20  1  0.89891462  0.62614192  0.13329479  1
  O  O21  1  0.10108538  0.37385808  0.86670521  1
  O  O22  1  0.60108538  0.62614192  0.36670521  1
  O  O23  1  0.39891462  0.37385808  0.63329479  1
