# generated using pymatgen
data_Mg5Ni9P7
_symmetry_space_group_name_H-M   'P 1'
_cell_length_a   3.63949835
_cell_length_b   9.28658745
_cell_length_c   9.28658746
_cell_angle_alpha   119.99999654
_cell_angle_beta   90.00000000
_cell_angle_gamma   90.00000000
_symmetry_Int_Tables_number   1
_chemical_formula_structural   Mg5Ni9P7
_chemical_formula_sum   'Mg5 Ni9 P7'
_cell_volume   271.82192240
_cell_formula_units_Z   1
loop_
 _symmetry_equiv_pos_site_id
 _symmetry_equiv_pos_as_xyz
  1  'x, y, z'
loop_
 _atom_site_type_symbol
 _atom_site_label
 _atom_site_symmetry_multiplicity
 _atom_site_fract_x
 _atom_site_fract_y
 _atom_site_fract_z
 _atom_site_occupancy
  Mg  Mg0  1  0.50000000  0.77377541  0.89560398  1
  Mg  Mg1  1  0.50000000  0.12182857  0.22622459  1
  Mg  Mg2  1  0.50000000  0.10439602  0.87817143  1
  Mg  Mg3  1  -0.00000000  0.66666700  0.33333300  1
  Mg  Mg4  1  0.50000000  0.33333300  0.66666700  1
  Ni  Ni5  1  -0.00000000  0.56528812  0.92836846  1
  Ni  Ni6  1  0.00000000  0.36308034  0.43471188  1
  Ni  Ni7  1  -0.00000000  0.07163154  0.63691966  1
  Ni  Ni8  1  0.50000000  0.94509901  0.39105605  1
  Ni  Ni9  1  0.50000000  0.44595704  0.05490099  1
  Ni  Ni10  1  0.50000000  0.60894395  0.55404296  1
  Ni  Ni11  1  -0.00000000  0.87116759  0.16219571  1
  Ni  Ni12  1  -0.00000000  0.29102812  0.12883241  1
  Ni  Ni13  1  0.00000000  0.83780429  0.70897188  1
  P  P14  1  0.50000000  0.71136081  0.13655964  1
  P  P15  1  0.50000000  0.42519883  0.28863919  1
  P  P16  1  0.50000000  0.86344036  0.57480117  1
  P  P17  1  -0.00000000  0.00000000  0.00000000  1
  P  P18  1  -0.00000000  0.57604679  0.68942616  1
  P  P19  1  -0.00000000  0.11337936  0.42395321  1
  P  P20  1  0.00000000  0.31057384  0.88662064  1
