# generated using pymatgen
data_Lu5Bi3
_symmetry_space_group_name_H-M   'P 1'
_cell_length_a   8.08942706
_cell_length_b   9.40635782
_cell_length_c   11.77456217
_cell_angle_alpha   90.00000000
_cell_angle_beta   90.00000000
_cell_angle_gamma   90.00000000
_symmetry_Int_Tables_number   1
_chemical_formula_structural   Lu5Bi3
_chemical_formula_sum   'Lu20 Bi12'
_cell_volume   895.95052021
_cell_formula_units_Z   4
loop_
 _symmetry_equiv_pos_site_id
 _symmetry_equiv_pos_as_xyz
  1  'x, y, z'
loop_
 _atom_site_type_symbol
 _atom_site_label
 _atom_site_symmetry_multiplicity
 _atom_site_fract_x
 _atom_site_fract_y
 _atom_site_fract_z
 _atom_site_occupancy
  Lu  Lu0  1  0.02482180  0.25000000  0.50963272  1
  Lu  Lu1  1  0.97517820  0.75000000  0.49036728  1
  Lu  Lu2  1  0.47517820  0.75000000  0.00963272  1
  Lu  Lu3  1  0.52482180  0.25000000  0.99036728  1
  Lu  Lu4  1  0.35468894  0.25000000  0.28287479  1
  Lu  Lu5  1  0.64531106  0.75000000  0.71712521  1
  Lu  Lu6  1  0.14531106  0.75000000  0.78287479  1
  Lu  Lu7  1  0.85468894  0.25000000  0.21712521  1
  Lu  Lu8  1  0.18863032  0.25000000  0.78097011  1
  Lu  Lu9  1  0.81136968  0.75000000  0.21902989  1
  Lu  Lu10  1  0.31136968  0.75000000  0.28097011  1
  Lu  Lu11  1  0.68863032  0.25000000  0.71902989  1
  Lu  Lu12  1  0.19419860  0.06467741  0.05978527  1
  Lu  Lu13  1  0.80580140  0.93532259  0.94021473  1
  Lu  Lu14  1  0.30580140  0.93532259  0.55978527  1
  Lu  Lu15  1  0.80580140  0.56467741  0.94021473  1
  Lu  Lu16  1  0.69419860  0.06467741  0.44021473  1
  Lu  Lu17  1  0.19419860  0.43532259  0.05978527  1
  Lu  Lu18  1  0.69419860  0.43532259  0.44021473  1
  Lu  Lu19  1  0.30580140  0.56467741  0.55978527  1
  Bi  Bi20  1  0.40782501  0.25000000  0.54299146  1
  Bi  Bi21  1  0.59217499  0.75000000  0.45700854  1
  Bi  Bi22  1  0.09217499  0.75000000  0.04299146  1
  Bi  Bi23  1  0.90782501  0.25000000  0.95700854  1
  Bi  Bi24  1  0.06669028  0.00312556  0.32559496  1
  Bi  Bi25  1  0.93330972  0.99687444  0.67440504  1
  Bi  Bi26  1  0.43330972  0.99687444  0.82559496  1
  Bi  Bi27  1  0.93330972  0.50312556  0.67440504  1
  Bi  Bi28  1  0.56669028  0.00312556  0.17440504  1
  Bi  Bi29  1  0.06669028  0.49687444  0.32559496  1
  Bi  Bi30  1  0.56669028  0.49687444  0.17440504  1
  Bi  Bi31  1  0.43330972  0.50312556  0.82559496  1
