# generated using pymatgen
data_LiTb6B3O14
_symmetry_space_group_name_H-M   'P 1'
_cell_length_a   8.45775011
_cell_length_b   8.93048647
_cell_length_c   15.65997899
_cell_angle_alpha   90.00000000
_cell_angle_beta   90.00000000
_cell_angle_gamma   91.99463170
_symmetry_Int_Tables_number   1
_chemical_formula_structural   LiTb6B3O14
_chemical_formula_sum   'Li4 Tb24 B12 O56'
_cell_volume   1182.11007594
_cell_formula_units_Z   4
loop_
 _symmetry_equiv_pos_site_id
 _symmetry_equiv_pos_as_xyz
  1  'x, y, z'
loop_
 _atom_site_type_symbol
 _atom_site_label
 _atom_site_symmetry_multiplicity
 _atom_site_fract_x
 _atom_site_fract_y
 _atom_site_fract_z
 _atom_site_occupancy
  Li  Li0  1  0.68022593  0.56038372  0.39615670  1
  Li  Li1  1  0.31977407  0.43961628  0.60384330  1
  Li  Li2  1  0.81977407  0.93961628  0.89615670  1
  Li  Li3  1  0.18022593  0.06038372  0.10384330  1
  Tb  Tb4  1  0.14219803  0.69323105  0.17795890  1
  Tb  Tb5  1  0.85780197  0.30676895  0.82204110  1
  Tb  Tb6  1  0.35780197  0.80676895  0.67795890  1
  Tb  Tb7  1  0.64219803  0.19323105  0.32204110  1
  Tb  Tb8  1  0.95997763  0.94509857  0.67448171  1
  Tb  Tb9  1  0.04002237  0.05490143  0.32551829  1
  Tb  Tb10  1  0.54002237  0.55490143  0.17448171  1
  Tb  Tb11  1  0.45997763  0.44509857  0.82551829  1
  Tb  Tb12  1  0.72747110  0.57571249  0.64382403  1
  Tb  Tb13  1  0.27252890  0.42428751  0.35617597  1
  Tb  Tb14  1  0.77252890  0.92428751  0.14382403  1
  Tb  Tb15  1  0.22747110  0.07571249  0.85617597  1
  Tb  Tb16  1  0.05178830  0.71728419  0.48650775  1
  Tb  Tb17  1  0.94821170  0.28271581  0.51349225  1
  Tb  Tb18  1  0.44821170  0.78271581  0.98650775  1
  Tb  Tb19  1  0.55178830  0.21728419  0.01349225  1
  Tb  Tb20  1  0.70015037  0.93849013  0.49591497  1
  Tb  Tb21  1  0.29984963  0.06150987  0.50408503  1
  Tb  Tb22  1  0.79984963  0.56150987  0.99591497  1
  Tb  Tb23  1  0.20015037  0.43849013  0.00408503  1
  Tb  Tb24  1  0.42188780  0.83396038  0.33410630  1
  Tb  Tb25  1  0.57811220  0.16603962  0.66589370  1
  Tb  Tb26  1  0.07811220  0.66603962  0.83410630  1
  Tb  Tb27  1  0.92188780  0.33396038  0.16589370  1
  B  B28  1  0.42868491  0.97292720  0.17305706  1
  B  B29  1  0.57131509  0.02707280  0.82694294  1
  B  B30  1  0.07131509  0.52707280  0.67305706  1
  B  B31  1  0.92868491  0.47292720  0.32694294  1
  B  B32  1  0.06386688  0.85522831  0.00068721  1
  B  B33  1  0.93613312  0.14477169  0.99931279  1
  B  B34  1  0.43613312  0.64477169  0.50068721  1
  B  B35  1  0.56386688  0.35522831  0.49931279  1
  B  B36  1  0.82030921  0.77853115  0.30687034  1
  B  B37  1  0.17969079  0.22146885  0.69312966  1
  B  B38  1  0.67969079  0.72146885  0.80687034  1
  B  B39  1  0.32030921  0.27853115  0.19312966  1
  O  O40  1  0.93929070  0.82225891  0.24882805  1
  O  O41  1  0.06070930  0.17774109  0.75117195  1
  O  O42  1  0.56070930  0.67774109  0.74882805  1
  O  O43  1  0.43929070  0.32225891  0.25117195  1
  O  O44  1  0.70912127  0.40597502  0.53314531  1
  O  O45  1  0.29087873  0.59402498  0.46685469  1
  O  O46  1  0.79087873  0.09402498  0.03314531  1
  O  O47  1  0.20912127  0.90597502  0.96685469  1
  O  O48  1  0.84458389  0.77923354  0.57921539  1
  O  O49  1  0.15541611  0.22076646  0.42078461  1
  O  O50  1  0.65541611  0.72076646  0.07921539  1
  O  O51  1  0.34458389  0.27923354  0.92078461  1
  O  O52  1  0.02884294  0.88204229  0.08528099  1
  O  O53  1  0.97115706  0.11795771  0.91471901  1
  O  O54  1  0.47115706  0.61795771  0.58528099  1
  O  O55  1  0.52884294  0.38204229  0.41471901  1
  O  O56  1  0.46583270  0.99063732  0.08789639  1
  O  O57  1  0.53416730  0.00936268  0.91210361  1
  O  O58  1  0.03416730  0.50936268  0.58789639  1
  O  O59  1  0.96583270  0.49063732  0.41210361  1
  O  O60  1  0.28303655  0.92440240  0.20434848  1
  O  O61  1  0.71696345  0.07559760  0.79565152  1
  O  O62  1  0.21696345  0.57559760  0.70434848  1
  O  O63  1  0.78303655  0.42440240  0.29565152  1
  O  O64  1  0.45660935  0.27932829  0.55119548  1
  O  O65  1  0.54339065  0.72067171  0.44880452  1
  O  O66  1  0.04339065  0.22067171  0.05119548  1
  O  O67  1  0.95660935  0.77932829  0.94880452  1
  O  O68  1  0.19247793  0.89441842  0.40183407  1
  O  O69  1  0.80752207  0.10558158  0.59816593  1
  O  O70  1  0.30752207  0.60558158  0.90183407  1
  O  O71  1  0.69247793  0.39441842  0.09816593  1
  O  O72  1  0.00872525  0.53610714  0.08942733  1
  O  O73  1  0.99127475  0.46389286  0.91057267  1
  O  O74  1  0.49127475  0.96389286  0.58942733  1
  O  O75  1  0.50872525  0.03610714  0.41057267  1
  O  O76  1  0.16220878  0.87618481  0.58557297  1
  O  O77  1  0.83779122  0.12381519  0.41442703  1
  O  O78  1  0.33779122  0.62381519  0.08557297  1
  O  O79  1  0.66220878  0.37618481  0.91442703  1
  O  O80  1  0.15444000  0.87820581  0.76808090  1
  O  O81  1  0.84556000  0.12179419  0.23191910  1
  O  O82  1  0.34556000  0.62179419  0.26808090  1
  O  O83  1  0.65444000  0.37820581  0.73191910  1
  O  O84  1  0.82504434  0.77150003  0.77490545  1
  O  O85  1  0.17495566  0.22849997  0.22509455  1
  O  O86  1  0.67495566  0.72849997  0.27490545  1
  O  O87  1  0.32504434  0.27150003  0.72509455  1
  O  O88  1  0.85126635  0.79914608  0.39303267  1
  O  O89  1  0.14873365  0.20085392  0.60696733  1
  O  O90  1  0.64873365  0.70085392  0.89303267  1
  O  O91  1  0.35126635  0.29914608  0.10696733  1
  O  O92  1  0.54904507  0.99654583  0.23220302  1
  O  O93  1  0.45095493  0.00345417  0.76779698  1
  O  O94  1  0.95095493  0.50345417  0.73220302  1
  O  O95  1  0.04904507  0.49654583  0.26779698  1
