# generated using pymatgen
data_Li2Pr2Si3
_symmetry_space_group_name_H-M   'P 1'
_cell_length_a   4.44710928
_cell_length_b   6.86060361
_cell_length_c   9.59090979
_cell_angle_alpha   90.00000000
_cell_angle_beta   103.40541290
_cell_angle_gamma   90.00000000
_symmetry_Int_Tables_number   1
_chemical_formula_structural   Li2Pr2Si3
_chemical_formula_sum   'Li4 Pr4 Si6'
_cell_volume   284.64460159
_cell_formula_units_Z   2
loop_
 _symmetry_equiv_pos_site_id
 _symmetry_equiv_pos_as_xyz
  1  'x, y, z'
loop_
 _atom_site_type_symbol
 _atom_site_label
 _atom_site_symmetry_multiplicity
 _atom_site_fract_x
 _atom_site_fract_y
 _atom_site_fract_z
 _atom_site_occupancy
  Li  Li0  1  0.81050695  0.55962974  0.62101391  1
  Li  Li1  1  0.18949305  0.44037026  0.37898609  1
  Li  Li2  1  0.18949305  0.05962974  0.37898609  1
  Li  Li3  1  0.81050695  0.94037026  0.62101391  1
  Pr  Pr4  1  0.55260588  0.25000000  0.10521176  1
  Pr  Pr5  1  0.44739412  0.75000000  0.89478824  1
  Pr  Pr6  1  0.34207471  0.25000000  0.68414942  1
  Pr  Pr7  1  0.65792529  0.75000000  0.31585058  1
  Si  Si8  1  0.94205874  0.07472731  0.88411747  1
  Si  Si9  1  0.05794126  0.92527269  0.11588253  1
  Si  Si10  1  0.05794126  0.57472731  0.11588253  1
  Si  Si11  1  0.94205874  0.42527269  0.88411747  1
  Si  Si12  1  0.71950594  0.25000000  0.43901189  1
  Si  Si13  1  0.28049406  0.75000000  0.56098811  1
