# generated using pymatgen
data_NbIrS4
_symmetry_space_group_name_H-M   'P 1'
_cell_length_a   3.50154668
_cell_length_b   6.59899452
_cell_length_c   7.16093679
_cell_angle_alpha   60.65046715
_cell_angle_beta   104.15165809
_cell_angle_gamma   122.04723450
_symmetry_Int_Tables_number   1
_chemical_formula_structural   NbIrS4
_chemical_formula_sum   'Nb1 Ir1 S4'
_cell_volume   122.22146998
_cell_formula_units_Z   1
loop_
 _symmetry_equiv_pos_site_id
 _symmetry_equiv_pos_as_xyz
  1  'x, y, z'
loop_
 _atom_site_type_symbol
 _atom_site_label
 _atom_site_symmetry_multiplicity
 _atom_site_fract_x
 _atom_site_fract_y
 _atom_site_fract_z
 _atom_site_occupancy
  Nb  Nb0  1  -0.00000000  -0.00000000  0.00000000  1
  Ir  Ir1  1  -0.00000000  0.50000000  0.00000000  1
  S  S2  1  0.65460866  0.77108074  0.76705584  1
  S  S3  1  0.32448573  0.70278986  0.24339073  1
  S  S4  1  0.34539134  0.22891926  0.23294416  1
  S  S5  1  0.67551427  0.29721014  0.75660927  1
