# generated using pymatgen
data_Lu4MgNi
_symmetry_space_group_name_H-M   'P 1'
_cell_length_a   9.40773436
_cell_length_b   9.40773436
_cell_length_c   9.40773436
_cell_angle_alpha   60.00000000
_cell_angle_beta   60.00000000
_cell_angle_gamma   60.00000000
_symmetry_Int_Tables_number   1
_chemical_formula_structural   Lu4MgNi
_chemical_formula_sum   'Lu16 Mg4 Ni4'
_cell_volume   588.76249890
_cell_formula_units_Z   4
loop_
 _symmetry_equiv_pos_site_id
 _symmetry_equiv_pos_as_xyz
  1  'x, y, z'
loop_
 _atom_site_type_symbol
 _atom_site_label
 _atom_site_symmetry_multiplicity
 _atom_site_fract_x
 _atom_site_fract_y
 _atom_site_fract_z
 _atom_site_occupancy
  Lu  Lu0  1  0.65408011  0.65408011  0.65408011  1
  Lu  Lu1  1  0.03775967  0.65408011  0.65408011  1
  Lu  Lu2  1  0.65408011  0.03775967  0.65408011  1
  Lu  Lu3  1  0.65408011  0.65408011  0.03775967  1
  Lu  Lu4  1  0.81254575  0.81254575  0.18745425  1
  Lu  Lu5  1  0.18745425  0.18745425  0.81254575  1
  Lu  Lu6  1  0.81254575  0.18745425  0.81254575  1
  Lu  Lu7  1  0.18745425  0.81254575  0.18745425  1
  Lu  Lu8  1  0.18745425  0.81254575  0.81254575  1
  Lu  Lu9  1  0.81254575  0.18745425  0.18745425  1
  Lu  Lu10  1  0.43583551  0.43583551  0.06416449  1
  Lu  Lu11  1  0.06416449  0.06416449  0.43583551  1
  Lu  Lu12  1  0.43583551  0.06416449  0.43583551  1
  Lu  Lu13  1  0.06416449  0.43583551  0.06416449  1
  Lu  Lu14  1  0.06416449  0.43583551  0.43583551  1
  Lu  Lu15  1  0.43583551  0.06416449  0.06416449  1
  Mg  Mg16  1  0.42009382  0.42009382  0.42009382  1
  Mg  Mg17  1  0.73971853  0.42009382  0.42009382  1
  Mg  Mg18  1  0.42009382  0.73971853  0.42009382  1
  Mg  Mg19  1  0.42009382  0.42009382  0.73971853  1
  Ni  Ni20  1  0.85810909  0.85810909  0.85810909  1
  Ni  Ni21  1  0.42567272  0.85810909  0.85810909  1
  Ni  Ni22  1  0.85810909  0.42567272  0.85810909  1
  Ni  Ni23  1  0.85810909  0.85810909  0.42567272  1
