# generated using pymatgen
data_LiTm6B3O14
_symmetry_space_group_name_H-M   'P 1'
_cell_length_a   8.29766368
_cell_length_b   8.76420995
_cell_length_c   15.38903453
_cell_angle_alpha   90.00000000
_cell_angle_beta   90.00000000
_cell_angle_gamma   91.76511677
_symmetry_Int_Tables_number   1
_chemical_formula_structural   LiTm6B3O14
_chemical_formula_sum   'Li4 Tm24 B12 O56'
_cell_volume   1118.59752195
_cell_formula_units_Z   4
loop_
 _symmetry_equiv_pos_site_id
 _symmetry_equiv_pos_as_xyz
  1  'x, y, z'
loop_
 _atom_site_type_symbol
 _atom_site_label
 _atom_site_symmetry_multiplicity
 _atom_site_fract_x
 _atom_site_fract_y
 _atom_site_fract_z
 _atom_site_occupancy
  Li  Li0  1  0.68132249  0.56147020  0.39574301  1
  Li  Li1  1  0.31867751  0.43852980  0.60425699  1
  Li  Li2  1  0.81867751  0.93852980  0.89574301  1
  Li  Li3  1  0.18132249  0.06147020  0.10425699  1
  Tm  Tm4  1  0.14301808  0.69256541  0.17805786  1
  Tm  Tm5  1  0.85698192  0.30743459  0.82194214  1
  Tm  Tm6  1  0.35698192  0.80743459  0.67805786  1
  Tm  Tm7  1  0.64301808  0.19256541  0.32194214  1
  Tm  Tm8  1  0.96056813  0.94330939  0.67336019  1
  Tm  Tm9  1  0.03943187  0.05669061  0.32663981  1
  Tm  Tm10  1  0.53943187  0.55669061  0.17336019  1
  Tm  Tm11  1  0.46056813  0.44330939  0.82663981  1
  Tm  Tm12  1  0.72565018  0.57490281  0.64419604  1
  Tm  Tm13  1  0.27434982  0.42509719  0.35580396  1
  Tm  Tm14  1  0.77434982  0.92509719  0.14419604  1
  Tm  Tm15  1  0.22565018  0.07490281  0.85580396  1
  Tm  Tm16  1  0.05116500  0.71756617  0.48684159  1
  Tm  Tm17  1  0.94883500  0.28243383  0.51315841  1
  Tm  Tm18  1  0.44883500  0.78243383  0.98684159  1
  Tm  Tm19  1  0.55116500  0.21756617  0.01315841  1
  Tm  Tm20  1  0.69907714  0.93933170  0.49646509  1
  Tm  Tm21  1  0.30092286  0.06066830  0.50353491  1
  Tm  Tm22  1  0.80092286  0.56066830  0.99646509  1
  Tm  Tm23  1  0.19907714  0.43933170  0.00353491  1
  Tm  Tm24  1  0.42134890  0.83587245  0.33365085  1
  Tm  Tm25  1  0.57865110  0.16412755  0.66634915  1
  Tm  Tm26  1  0.07865110  0.66412755  0.83365085  1
  Tm  Tm27  1  0.92134890  0.33587245  0.16634915  1
  B  B28  1  0.42921460  0.97236614  0.17267955  1
  B  B29  1  0.57078540  0.02763386  0.82732045  1
  B  B30  1  0.07078540  0.52763386  0.67267955  1
  B  B31  1  0.92921460  0.47236614  0.32732045  1
  B  B32  1  0.06450439  0.85384320  0.00030088  1
  B  B33  1  0.93549561  0.14615680  0.99969912  1
  B  B34  1  0.43549561  0.64615680  0.50030088  1
  B  B35  1  0.56450439  0.35384320  0.49969912  1
  B  B36  1  0.82052052  0.77817406  0.30738668  1
  B  B37  1  0.17947948  0.22182594  0.69261332  1
  B  B38  1  0.67947948  0.72182594  0.80738668  1
  B  B39  1  0.32052052  0.27817406  0.19261332  1
  O  O40  1  0.94135588  0.82318871  0.24856757  1
  O  O41  1  0.05864412  0.17681129  0.75143243  1
  O  O42  1  0.55864412  0.67681129  0.74856757  1
  O  O43  1  0.44135588  0.32318871  0.25143243  1
  O  O44  1  0.71163694  0.40822136  0.53378961  1
  O  O45  1  0.28836306  0.59177864  0.46621039  1
  O  O46  1  0.78836306  0.09177864  0.03378961  1
  O  O47  1  0.21163694  0.90822136  0.96621039  1
  O  O48  1  0.84291099  0.77828315  0.57960968  1
  O  O49  1  0.15708901  0.22171685  0.42039032  1
  O  O50  1  0.65708901  0.72171685  0.07960968  1
  O  O51  1  0.34291099  0.27828315  0.92039032  1
  O  O52  1  0.02748416  0.88080158  0.08630263  1
  O  O53  1  0.97251584  0.11919842  0.91369737  1
  O  O54  1  0.47251584  0.61919842  0.58630263  1
  O  O55  1  0.52748416  0.38080158  0.41369737  1
  O  O56  1  0.46614359  0.99145931  0.08645749  1
  O  O57  1  0.53385641  0.00854069  0.91354251  1
  O  O58  1  0.03385641  0.50854069  0.58645749  1
  O  O59  1  0.96614359  0.49145931  0.41354251  1
  O  O60  1  0.28196196  0.92080820  0.20526563  1
  O  O61  1  0.71803804  0.07919180  0.79473437  1
  O  O62  1  0.21803804  0.57919180  0.70526563  1
  O  O63  1  0.78196196  0.42080820  0.29473437  1
  O  O64  1  0.45749392  0.27473231  0.55232457  1
  O  O65  1  0.54250608  0.72526769  0.44767543  1
  O  O66  1  0.04250608  0.22526769  0.05232457  1
  O  O67  1  0.95749392  0.77473231  0.94767543  1
  O  O68  1  0.19271576  0.89490974  0.40177152  1
  O  O69  1  0.80728424  0.10509026  0.59822848  1
  O  O70  1  0.30728424  0.60509026  0.90177152  1
  O  O71  1  0.69271576  0.39490974  0.09822848  1
  O  O72  1  0.00912507  0.53694565  0.08955702  1
  O  O73  1  0.99087493  0.46305435  0.91044298  1
  O  O74  1  0.49087493  0.96305435  0.58955702  1
  O  O75  1  0.50912507  0.03694565  0.41044298  1
  O  O76  1  0.16212802  0.87543351  0.58515169  1
  O  O77  1  0.83787198  0.12456649  0.41484831  1
  O  O78  1  0.33787198  0.62456649  0.08515169  1
  O  O79  1  0.66212802  0.37543351  0.91484831  1
  O  O80  1  0.15322727  0.87728259  0.76823600  1
  O  O81  1  0.84677273  0.12271741  0.23176400  1
  O  O82  1  0.34677273  0.62271741  0.26823600  1
  O  O83  1  0.65322727  0.37728259  0.73176400  1
  O  O84  1  0.82661471  0.77401230  0.77477864  1
  O  O85  1  0.17338529  0.22598770  0.22522136  1
  O  O86  1  0.67338529  0.72598770  0.27477864  1
  O  O87  1  0.32661471  0.27401230  0.72522136  1
  O  O88  1  0.85166966  0.79979715  0.39488855  1
  O  O89  1  0.14833034  0.20020285  0.60511145  1
  O  O90  1  0.64833034  0.70020285  0.89488855  1
  O  O91  1  0.35166966  0.29979715  0.10511145  1
  O  O92  1  0.55115335  0.99746371  0.23313388  1
  O  O93  1  0.44884665  0.00253629  0.76686612  1
  O  O94  1  0.94884665  0.50253629  0.73313388  1
  O  O95  1  0.05115335  0.49746371  0.26686612  1
