# generated using pymatgen
data_Ce2CdSe4
_symmetry_space_group_name_H-M   'P 1'
_cell_length_a   7.78610455
_cell_length_b   7.78610481
_cell_length_c   7.78610520
_cell_angle_alpha   110.90344302
_cell_angle_beta   110.90344353
_cell_angle_gamma   106.64326034
_symmetry_Int_Tables_number   1
_chemical_formula_structural   Ce2CdSe4
_chemical_formula_sum   'Ce4 Cd2 Se8'
_cell_volume   362.70166337
_cell_formula_units_Z   2
loop_
 _symmetry_equiv_pos_site_id
 _symmetry_equiv_pos_as_xyz
  1  'x, y, z'
loop_
 _atom_site_type_symbol
 _atom_site_label
 _atom_site_symmetry_multiplicity
 _atom_site_fract_x
 _atom_site_fract_y
 _atom_site_fract_z
 _atom_site_occupancy
  Ce  Ce0  1  0.11300810  0.75000000  0.86300810  1
  Ce  Ce1  1  0.25000000  0.61300810  0.36300810  1
  Ce  Ce2  1  0.38699190  0.25000000  0.63699190  1
  Ce  Ce3  1  0.75000000  0.88699190  0.13699190  1
  Cd  Cd4  1  0.62500000  0.37500000  0.25000000  1
  Cd  Cd5  1  0.87500000  0.12500000  0.75000000  1
  Se  Se6  1  0.00709568  0.87913636  0.51235919  1
  Se  Se7  1  0.99473649  0.36677717  0.48764081  1
  Se  Se8  1  0.49290432  0.00526351  0.87204068  1
  Se  Se9  1  0.12086364  0.13322283  0.12795932  1
  Se  Se10  1  0.37913636  0.50709568  0.01235919  1
  Se  Se11  1  0.63322283  0.62086364  0.62795932  1
  Se  Se12  1  0.50526351  0.99290432  0.37204068  1
  Se  Se13  1  0.86677717  0.49473649  0.98764081  1
