# generated using pymatgen
data_KGdF4
_symmetry_space_group_name_H-M   'P 1'
_cell_length_a   3.69375809
_cell_length_b   6.23517923
_cell_length_c   15.66330659
_cell_angle_alpha   90.00000000
_cell_angle_beta   90.00000000
_cell_angle_gamma   90.00000000
_symmetry_Int_Tables_number   1
_chemical_formula_structural   KGdF4
_chemical_formula_sum   'K4 Gd4 F16'
_cell_volume   360.74543159
_cell_formula_units_Z   4
loop_
 _symmetry_equiv_pos_site_id
 _symmetry_equiv_pos_as_xyz
  1  'x, y, z'
loop_
 _atom_site_type_symbol
 _atom_site_label
 _atom_site_symmetry_multiplicity
 _atom_site_fract_x
 _atom_site_fract_y
 _atom_site_fract_z
 _atom_site_occupancy
  K  K0  1  0.75000000  0.77552285  0.79910082  1
  K  K1  1  0.25000000  0.22447715  0.20089918  1
  K  K2  1  0.25000000  0.72447715  0.29910082  1
  K  K3  1  0.75000000  0.27552285  0.70089918  1
  Gd  Gd4  1  0.75000000  0.24899144  0.43992508  1
  Gd  Gd5  1  0.25000000  0.75100856  0.56007492  1
  Gd  Gd6  1  0.25000000  0.25100856  0.93992508  1
  Gd  Gd7  1  0.75000000  0.74899144  0.06007492  1
  F  F8  1  0.75000000  0.89194133  0.63304719  1
  F  F9  1  0.25000000  0.10805867  0.36695281  1
  F  F10  1  0.25000000  0.60805867  0.13304719  1
  F  F11  1  0.75000000  0.39194133  0.86695281  1
  F  F12  1  0.75000000  0.86723142  0.46405145  1
  F  F13  1  0.25000000  0.13276858  0.53594855  1
  F  F14  1  0.25000000  0.63276858  0.96405145  1
  F  F15  1  0.75000000  0.36723142  0.03594855  1
  F  F16  1  0.75000000  0.99563294  0.94298689  1
  F  F17  1  0.25000000  0.00436706  0.05701311  1
  F  F18  1  0.25000000  0.50436706  0.44298689  1
  F  F19  1  0.75000000  0.49563294  0.55701311  1
  F  F20  1  0.75000000  0.90736207  0.18998656  1
  F  F21  1  0.25000000  0.09263793  0.81001344  1
  F  F22  1  0.25000000  0.59263793  0.68998656  1
  F  F23  1  0.75000000  0.40736207  0.31001344  1
