# generated using pymatgen
data_KErBeF6
_symmetry_space_group_name_H-M   'P 1'
_cell_length_a   5.81139341
_cell_length_b   6.42876502
_cell_length_c   7.07750727
_cell_angle_alpha   113.02579840
_cell_angle_beta   90.00000000
_cell_angle_gamma   90.00000000
_symmetry_Int_Tables_number   1
_chemical_formula_structural   KErBeF6
_chemical_formula_sum   'K2 Er2 Be2 F12'
_cell_volume   243.34990336
_cell_formula_units_Z   2
loop_
 _symmetry_equiv_pos_site_id
 _symmetry_equiv_pos_as_xyz
  1  'x, y, z'
loop_
 _atom_site_type_symbol
 _atom_site_label
 _atom_site_symmetry_multiplicity
 _atom_site_fract_x
 _atom_site_fract_y
 _atom_site_fract_z
 _atom_site_occupancy
  K  K0  1  0.75000000  0.07140918  0.20353100  1
  K  K1  1  0.25000000  0.92859082  0.79646900  1
  Er  Er2  1  0.75000000  0.38893606  0.82014050  1
  Er  Er3  1  0.25000000  0.61106394  0.17985950  1
  Be  Be4  1  0.75000000  0.76629062  0.53502880  1
  Be  Be5  1  0.25000000  0.23370938  0.46497120  1
  F  F6  1  0.96661684  0.76648294  0.40324442  1
  F  F7  1  0.03338316  0.23351706  0.59675558  1
  F  F8  1  0.46661684  0.23351706  0.59675558  1
  F  F9  1  0.53338316  0.76648294  0.40324442  1
  F  F10  1  0.75000000  0.55806146  0.59304192  1
  F  F11  1  0.25000000  0.44193854  0.40695808  1
  F  F12  1  0.99885523  0.67751411  0.96580625  1
  F  F13  1  0.00114477  0.32248589  0.03419375  1
  F  F14  1  0.49885523  0.32248589  0.03419375  1
  F  F15  1  0.50114477  0.67751411  0.96580625  1
  F  F16  1  0.75000000  0.98892757  0.73747290  1
  F  F17  1  0.25000000  0.01107243  0.26252710  1
