# generated using pymatgen
data_KLuBeF6
_symmetry_space_group_name_H-M   'P 1'
_cell_length_a   5.73175388
_cell_length_b   6.39184176
_cell_length_c   7.00500790
_cell_angle_alpha   113.12277295
_cell_angle_beta   90.00000000
_cell_angle_gamma   90.00000000
_symmetry_Int_Tables_number   1
_chemical_formula_structural   KLuBeF6
_chemical_formula_sum   'K2 Lu2 Be2 F12'
_cell_volume   236.02177142
_cell_formula_units_Z   2
loop_
 _symmetry_equiv_pos_site_id
 _symmetry_equiv_pos_as_xyz
  1  'x, y, z'
loop_
 _atom_site_type_symbol
 _atom_site_label
 _atom_site_symmetry_multiplicity
 _atom_site_fract_x
 _atom_site_fract_y
 _atom_site_fract_z
 _atom_site_occupancy
  K  K0  1  0.75000000  0.07113821  0.20316158  1
  K  K1  1  0.25000000  0.92886179  0.79683842  1
  Lu  Lu2  1  0.75000000  0.39054931  0.82173010  1
  Lu  Lu3  1  0.25000000  0.60945069  0.17826990  1
  Be  Be4  1  0.75000000  0.76614060  0.53557613  1
  Be  Be5  1  0.25000000  0.23385940  0.46442387  1
  F  F6  1  0.96918735  0.76501681  0.40150721  1
  F  F7  1  0.03081265  0.23498319  0.59849279  1
  F  F8  1  0.46918735  0.23498319  0.59849279  1
  F  F9  1  0.53081265  0.76501681  0.40150721  1
  F  F10  1  0.75000000  0.55821921  0.59522586  1
  F  F11  1  0.25000000  0.44178079  0.40477414  1
  F  F12  1  0.99893804  0.67497768  0.96601846  1
  F  F13  1  0.00106196  0.32502232  0.03398154  1
  F  F14  1  0.49893804  0.32502232  0.03398154  1
  F  F15  1  0.50106196  0.67497768  0.96601846  1
  F  F16  1  0.75000000  0.99035553  0.73825106  1
  F  F17  1  0.25000000  0.00964447  0.26174894  1
