# generated using pymatgen
data_Li5OsO6
_symmetry_space_group_name_H-M   'P 1'
_cell_length_a   5.04572727
_cell_length_b   5.08555472
_cell_length_c   5.11047021
_cell_angle_alpha   60.16114822
_cell_angle_beta   80.45167407
_cell_angle_gamma   70.52567194
_symmetry_Int_Tables_number   1
_chemical_formula_structural   Li5OsO6
_chemical_formula_sum   'Li5 Os1 O6'
_cell_volume   107.24373811
_cell_formula_units_Z   1
loop_
 _symmetry_equiv_pos_site_id
 _symmetry_equiv_pos_as_xyz
  1  'x, y, z'
loop_
 _atom_site_type_symbol
 _atom_site_label
 _atom_site_symmetry_multiplicity
 _atom_site_fract_x
 _atom_site_fract_y
 _atom_site_fract_z
 _atom_site_occupancy
  Li  Li0  1  1.00000000  0.16963951  0.66072098  1
  Li  Li1  1  0.00000000  0.83036049  0.33927902  1
  Li  Li2  1  0.50000000  0.31768330  0.36463340  1
  Li  Li3  1  0.50000000  0.68231670  0.63536660  1
  Li  Li4  1  0.50000000  0.00000000  -0.00000000  1
  Os  Os5  1  -0.00000000  0.50000000  -0.00000000  1
  O  O6  1  0.23504435  0.11432885  0.30780897  1
  O  O7  1  0.76495565  0.88567115  0.69219103  1
  O  O8  1  0.76495565  0.57786218  0.30780897  1
  O  O9  1  0.23504435  0.42213782  0.69219103  1
  O  O10  1  0.22828075  0.72938659  1.00000000  1
  O  O11  1  0.77171925  0.27061341  0.00000000  1
