# generated using pymatgen
data_KYbBr3
_symmetry_space_group_name_H-M   'P 1'
_cell_length_a   7.69781456
_cell_length_b   8.04372109
_cell_length_c   11.09011893
_cell_angle_alpha   90.00000000
_cell_angle_beta   90.00000000
_cell_angle_gamma   90.00000000
_symmetry_Int_Tables_number   1
_chemical_formula_structural   KYbBr3
_chemical_formula_sum   'K4 Yb4 Br12'
_cell_volume   686.68988719
_cell_formula_units_Z   4
loop_
 _symmetry_equiv_pos_site_id
 _symmetry_equiv_pos_as_xyz
  1  'x, y, z'
loop_
 _atom_site_type_symbol
 _atom_site_label
 _atom_site_symmetry_multiplicity
 _atom_site_fract_x
 _atom_site_fract_y
 _atom_site_fract_z
 _atom_site_occupancy
  K  K0  1  0.01662919  0.43605355  0.25000000  1
  K  K1  1  0.98337081  0.56394645  0.75000000  1
  K  K2  1  0.51662919  0.06394645  0.75000000  1
  K  K3  1  0.48337081  0.93605355  0.25000000  1
  Yb  Yb4  1  0.00000000  -0.00000000  0.00000000  1
  Yb  Yb5  1  0.50000000  0.50000000  0.00000000  1
  Yb  Yb6  1  0.00000000  -0.00000000  0.50000000  1
  Yb  Yb7  1  0.50000000  0.50000000  0.50000000  1
  Br  Br8  1  0.30460416  0.19929595  0.05061716  1
  Br  Br9  1  0.69539584  0.80070405  0.94938284  1
  Br  Br10  1  0.80460416  0.30070405  0.94938284  1
  Br  Br11  1  0.69539584  0.80070405  0.55061716  1
  Br  Br12  1  0.19539584  0.69929595  0.05061716  1
  Br  Br13  1  0.30460416  0.19929595  0.44938284  1
  Br  Br14  1  0.19539584  0.69929595  0.44938284  1
  Br  Br15  1  0.80460416  0.30070405  0.55061716  1
  Br  Br16  1  0.59950863  0.53241165  0.25000000  1
  Br  Br17  1  0.40049137  0.46758835  0.75000000  1
  Br  Br18  1  0.09950863  0.96758835  0.75000000  1
  Br  Br19  1  0.90049137  0.03241165  0.25000000  1
