# generated using pymatgen
data_RbDyS2O9
_symmetry_space_group_name_H-M   'P 1'
_cell_length_a   8.60910183
_cell_length_b   10.68806902
_cell_length_c   10.19704259
_cell_angle_alpha   120.35860331
_cell_angle_beta   90.00000000
_cell_angle_gamma   90.00000000
_symmetry_Int_Tables_number   1
_chemical_formula_structural   RbDyS2O9
_chemical_formula_sum   'Rb4 Dy4 S8 O36'
_cell_volume   809.62005353
_cell_formula_units_Z   4
loop_
 _symmetry_equiv_pos_site_id
 _symmetry_equiv_pos_as_xyz
  1  'x, y, z'
loop_
 _atom_site_type_symbol
 _atom_site_label
 _atom_site_symmetry_multiplicity
 _atom_site_fract_x
 _atom_site_fract_y
 _atom_site_fract_z
 _atom_site_occupancy
  Rb  Rb0  1  0.33507814  0.67981095  0.95985712  1
  Rb  Rb1  1  0.66492186  0.32018905  0.04014288  1
  Rb  Rb2  1  0.83507814  0.82018905  0.54014288  1
  Rb  Rb3  1  0.16492186  0.17981095  0.45985712  1
  Dy  Dy4  1  0.37115412  0.97017389  0.71863339  1
  Dy  Dy5  1  0.62884588  0.02982611  0.28136661  1
  Dy  Dy6  1  0.87115412  0.52982611  0.78136661  1
  Dy  Dy7  1  0.12884588  0.47017389  0.21863339  1
  S  S8  1  0.13184720  0.31442700  0.87559326  1
  S  S9  1  0.86815280  0.68557300  0.12440674  1
  S  S10  1  0.63184720  0.18557300  0.62440674  1
  S  S11  1  0.36815280  0.81442700  0.37559326  1
  S  S12  1  0.19633868  0.61169834  0.59847679  1
  S  S13  1  0.80366132  0.38830166  0.40152321  1
  S  S14  1  0.69633868  0.88830166  0.90152321  1
  S  S15  1  0.30366132  0.11169834  0.09847679  1
  O  O16  1  0.79267984  0.02125941  0.97443861  1
  O  O17  1  0.20732016  0.97874059  0.02556139  1
  O  O18  1  0.29267984  0.47874059  0.52556139  1
  O  O19  1  0.70732016  0.52125941  0.47443861  1
  O  O20  1  0.20302291  0.17424356  0.76359420  1
  O  O21  1  0.79697709  0.82575644  0.23640580  1
  O  O22  1  0.70302291  0.32575644  0.73640580  1
  O  O23  1  0.29697709  0.67424356  0.26359420  1
  O  O24  1  0.29795804  0.74340186  0.68204616  1
  O  O25  1  0.70204196  0.25659814  0.31795384  1
  O  O26  1  0.79795804  0.75659814  0.81795384  1
  O  O27  1  0.20204196  0.24340186  0.18204616  1
  O  O28  1  0.39526507  0.12423868  0.98173008  1
  O  O29  1  0.60473493  0.87576132  0.01826992  1
  O  O30  1  0.89526507  0.37576132  0.51826992  1
  O  O31  1  0.10473493  0.62423868  0.48173008  1
  O  O32  1  0.11960797  0.93909557  0.77921098  1
  O  O33  1  0.88039203  0.06090443  0.22078902  1
  O  O34  1  0.61960797  0.56090443  0.72078902  1
  O  O35  1  0.38039203  0.43909557  0.27921098  1
  O  O36  1  0.25204943  0.41665637  0.98441488  1
  O  O37  1  0.74795057  0.58334363  0.01558512  1
  O  O38  1  0.75204943  0.08334363  0.51558512  1
  O  O39  1  0.24795057  0.91665637  0.48441488  1
  O  O40  1  0.01281524  0.30071788  0.97354503  1
  O  O41  1  0.98718476  0.69928212  0.02645497  1
  O  O42  1  0.51281524  0.19928212  0.52645497  1
  O  O43  1  0.48718476  0.80071788  0.47354503  1
  O  O44  1  0.06142276  0.37856871  0.78897733  1
  O  O45  1  0.93857724  0.62143129  0.21102267  1
  O  O46  1  0.56142276  0.12143129  0.71102267  1
  O  O47  1  0.43857724  0.87856871  0.28897733  1
  O  O48  1  0.59340765  0.89110023  0.78650674  1
  O  O49  1  0.40659235  0.10889977  0.21349326  1
  O  O50  1  0.09340765  0.60889977  0.71349326  1
  O  O51  1  0.90659235  0.39110023  0.28650674  1
