# generated using pymatgen
data_La4CI6N
_symmetry_space_group_name_H-M   'P 1'
_cell_length_a   9.81094881
_cell_length_b   14.32390379
_cell_length_c   14.32390379
_cell_angle_alpha   90.00000000
_cell_angle_beta   90.00000000
_cell_angle_gamma   90.00000000
_symmetry_Int_Tables_number   1
_chemical_formula_structural   La4CI6N
_chemical_formula_sum   'La16 C4 I24 N4'
_cell_volume   2012.95376744
_cell_formula_units_Z   4
loop_
 _symmetry_equiv_pos_site_id
 _symmetry_equiv_pos_as_xyz
  1  'x, y, z'
loop_
 _atom_site_type_symbol
 _atom_site_label
 _atom_site_symmetry_multiplicity
 _atom_site_fract_x
 _atom_site_fract_y
 _atom_site_fract_z
 _atom_site_occupancy
  La  La0  1  0.00000000  0.40990441  0.59009559  1
  La  La1  1  0.00000000  0.59009559  0.40990441  1
  La  La2  1  0.50000000  0.90990441  0.90990441  1
  La  La3  1  0.50000000  0.09009559  0.09009559  1
  La  La4  1  0.00000000  0.15230440  0.15230440  1
  La  La5  1  0.00000000  0.84769560  0.84769560  1
  La  La6  1  0.50000000  0.34769560  0.65230440  1
  La  La7  1  0.50000000  0.65230440  0.34769560  1
  La  La8  1  0.30513742  0.41139155  0.41139155  1
  La  La9  1  0.69486258  0.58860845  0.58860845  1
  La  La10  1  0.30513742  0.58860845  0.58860845  1
  La  La11  1  0.80513742  0.08860845  0.91139155  1
  La  La12  1  0.19486258  0.08860845  0.91139155  1
  La  La13  1  0.69486258  0.41139155  0.41139155  1
  La  La14  1  0.19486258  0.91139155  0.08860845  1
  La  La15  1  0.80513742  0.91139155  0.08860845  1
  C  C16  1  0.00000000  0.03514576  0.03514576  1
  C  C17  1  0.00000000  0.96485424  0.96485424  1
  C  C18  1  0.50000000  0.46485424  0.53514576  1
  C  C19  1  0.50000000  0.53514576  0.46485424  1
  I  I20  1  0.00000000  0.21950995  0.78049005  1
  I  I21  1  0.00000000  0.78049005  0.21950995  1
  I  I22  1  0.50000000  0.71950995  0.71950995  1
  I  I23  1  0.50000000  0.28049005  0.28049005  1
  I  I24  1  0.00000000  0.32712587  0.32712587  1
  I  I25  1  0.00000000  0.67287413  0.67287413  1
  I  I26  1  0.50000000  0.17287413  0.82712587  1
  I  I27  1  0.50000000  0.82712587  0.17287413  1
  I  I28  1  0.24963564  0.05033636  0.26297321  1
  I  I29  1  0.75036436  0.94966364  0.73702679  1
  I  I30  1  0.24963564  0.94966364  0.73702679  1
  I  I31  1  0.74963564  0.23702679  0.55033636  1
  I  I32  1  0.25036436  0.44966364  0.76297321  1
  I  I33  1  0.75036436  0.05033636  0.26297321  1
  I  I34  1  0.25036436  0.76297321  0.44966364  1
  I  I35  1  0.74963564  0.55033636  0.23702679  1
  I  I36  1  0.74963564  0.76297321  0.44966364  1
  I  I37  1  0.25036436  0.55033636  0.23702679  1
  I  I38  1  0.25036436  0.23702679  0.55033636  1
  I  I39  1  0.74963564  0.44966364  0.76297321  1
  I  I40  1  0.75036436  0.26297321  0.05033636  1
  I  I41  1  0.24963564  0.73702679  0.94966364  1
  I  I42  1  0.75036436  0.73702679  0.94966364  1
  I  I43  1  0.24963564  0.26297321  0.05033636  1
  N  N44  1  0.34957957  -0.00000000  -0.00000000  1
  N  N45  1  0.65042043  -0.00000000  -0.00000000  1
  N  N46  1  0.84957957  0.50000000  0.50000000  1
  N  N47  1  0.15042043  0.50000000  0.50000000  1
