# generated using pymatgen
data_KLiLuF5
_symmetry_space_group_name_H-M   'P 1'
_cell_length_a   6.41638646
_cell_length_b   6.23938098
_cell_length_c   11.72451029
_cell_angle_alpha   90.00000000
_cell_angle_beta   90.00000000
_cell_angle_gamma   114.20839921
_symmetry_Int_Tables_number   1
_chemical_formula_structural   KLiLuF5
_chemical_formula_sum   'K4 Li4 Lu4 F20'
_cell_volume   428.10484824
_cell_formula_units_Z   4
loop_
 _symmetry_equiv_pos_site_id
 _symmetry_equiv_pos_as_xyz
  1  'x, y, z'
loop_
 _atom_site_type_symbol
 _atom_site_label
 _atom_site_symmetry_multiplicity
 _atom_site_fract_x
 _atom_site_fract_y
 _atom_site_fract_z
 _atom_site_occupancy
  K  K0  1  0.94731724  0.96251335  0.34940556  1
  K  K1  1  0.05268276  0.03748665  0.65059444  1
  K  K2  1  0.05268276  0.53748665  0.84940556  1
  K  K3  1  0.94731724  0.46251335  0.15059444  1
  Li  Li4  1  0.55910548  0.96256747  0.74536446  1
  Li  Li5  1  0.44089452  0.03743253  0.25463554  1
  Li  Li6  1  0.44089452  0.53743253  0.24536446  1
  Li  Li7  1  0.55910548  0.46256747  0.75463554  1
  Lu  Lu8  1  0.68145536  0.81999941  0.99792754  1
  Lu  Lu9  1  0.31854464  0.18000059  0.00207246  1
  Lu  Lu10  1  0.31854464  0.68000059  0.49792754  1
  Lu  Lu11  1  0.68145536  0.31999941  0.50207246  1
  F  F12  1  0.72239602  0.77824641  0.80918560  1
  F  F13  1  0.27760398  0.22175359  0.19081440  1
  F  F14  1  0.27760398  0.72175359  0.30918560  1
  F  F15  1  0.72239602  0.27824641  0.69081440  1
  F  F16  1  0.66399316  0.95297864  0.53073438  1
  F  F17  1  0.33600684  0.04702136  0.46926562  1
  F  F18  1  0.33600684  0.54702136  0.03073438  1
  F  F19  1  0.66399316  0.45297864  0.96926562  1
  F  F20  1  0.95331701  0.66950326  0.50688689  1
  F  F21  1  0.04668299  0.33049674  0.49311311  1
  F  F22  1  0.04668299  0.83049674  0.00688689  1
  F  F23  1  0.95331701  0.16950326  0.99311311  1
  F  F24  1  0.46430752  0.96685261  0.89696069  1
  F  F25  1  0.53569248  0.03314739  0.10303931  1
  F  F26  1  0.53569248  0.53314739  0.39696069  1
  F  F27  1  0.46430752  0.46685261  0.60303931  1
  F  F28  1  0.28503848  0.77299508  0.67140437  1
  F  F29  1  0.71496152  0.22700492  0.32859563  1
  F  F30  1  0.71496152  0.72700492  0.17140437  1
  F  F31  1  0.28503848  0.27299508  0.82859563  1
