# generated using pymatgen
data_KTm(MoO4)2
_symmetry_space_group_name_H-M   'P 1'
_cell_length_a   5.09832242
_cell_length_b   8.03732749
_cell_length_c   18.43287697
_cell_angle_alpha   90.00000000
_cell_angle_beta   90.00000000
_cell_angle_gamma   90.00000000
_symmetry_Int_Tables_number   1
_chemical_formula_structural   KTm(MoO4)2
_chemical_formula_sum   'K4 Tm4 Mo8 O32'
_cell_volume   755.32191556
_cell_formula_units_Z   4
loop_
 _symmetry_equiv_pos_site_id
 _symmetry_equiv_pos_as_xyz
  1  'x, y, z'
loop_
 _atom_site_type_symbol
 _atom_site_label
 _atom_site_symmetry_multiplicity
 _atom_site_fract_x
 _atom_site_fract_y
 _atom_site_fract_z
 _atom_site_occupancy
  K  K0  1  0.00000000  0.75000000  0.22990442  1
  K  K1  1  -0.00000000  0.25000000  0.77009558  1
  K  K2  1  0.50000000  0.25000000  0.27009558  1
  K  K3  1  0.50000000  0.75000000  0.72990442  1
  Tm  Tm4  1  0.00000000  0.75000000  0.99409831  1
  Tm  Tm5  1  0.00000000  0.25000000  0.00590169  1
  Tm  Tm6  1  0.50000000  0.25000000  0.50590169  1
  Tm  Tm7  1  0.50000000  0.75000000  0.49409831  1
  Mo  Mo8  1  0.97753816  0.98399495  0.60050584  1
  Mo  Mo9  1  0.02246184  0.01600505  0.39949416  1
  Mo  Mo10  1  0.52246184  0.48399495  0.89949416  1
  Mo  Mo11  1  0.02246184  0.51600505  0.60050584  1
  Mo  Mo12  1  0.47753816  0.51600505  0.10050584  1
  Mo  Mo13  1  0.97753816  0.48399495  0.39949416  1
  Mo  Mo14  1  0.47753816  0.01600505  0.89949416  1
  Mo  Mo15  1  0.52246184  0.98399495  0.10050584  1
  O  O16  1  0.89810434  0.52519289  0.68928387  1
  O  O17  1  0.10189566  0.47480711  0.31071613  1
  O  O18  1  0.60189566  0.02519289  0.81071613  1
  O  O19  1  0.10189566  0.97480711  0.68928387  1
  O  O20  1  0.39810434  0.97480711  0.18928387  1
  O  O21  1  0.89810434  0.02519289  0.31071613  1
  O  O22  1  0.39810434  0.47480711  0.81071613  1
  O  O23  1  0.60189566  0.52519289  0.18928387  1
  O  O24  1  0.73378659  0.66322754  0.90181708  1
  O  O25  1  0.26621341  0.33677246  0.09818292  1
  O  O26  1  0.76621341  0.16322754  0.59818292  1
  O  O27  1  0.26621341  0.83677246  0.90181708  1
  O  O28  1  0.23378659  0.83677246  0.40181708  1
  O  O29  1  0.73378659  0.16322754  0.09818292  1
  O  O30  1  0.23378659  0.33677246  0.59818292  1
  O  O31  1  0.76621341  0.66322754  0.40181708  1
  O  O32  1  0.75447948  0.99477123  0.96547700  1
  O  O33  1  0.24552052  0.00522877  0.03452300  1
  O  O34  1  0.74552052  0.49477123  0.53452300  1
  O  O35  1  0.24552052  0.50522877  0.96547700  1
  O  O36  1  0.25447948  0.50522877  0.46547700  1
  O  O37  1  0.75447948  0.49477123  0.03452300  1
  O  O38  1  0.25447948  0.00522877  0.53452300  1
  O  O39  1  0.74552052  0.99477123  0.46547700  1
  O  O40  1  0.75301460  0.80896012  0.59169216  1
  O  O41  1  0.24698540  0.19103988  0.40830784  1
  O  O42  1  0.74698540  0.30896012  0.90830784  1
  O  O43  1  0.24698540  0.69103988  0.59169216  1
  O  O44  1  0.25301460  0.69103988  0.09169216  1
  O  O45  1  0.75301460  0.30896012  0.40830784  1
  O  O46  1  0.25301460  0.19103988  0.90830784  1
  O  O47  1  0.74698540  0.80896012  0.09169216  1
