# generated using pymatgen
data_K6Na14Tl18Cd
_symmetry_space_group_name_H-M   'P 1'
_cell_length_a   10.85613586
_cell_length_b   10.85613586
_cell_length_c   10.85613586
_cell_angle_alpha   90.00000000
_cell_angle_beta   90.00000000
_cell_angle_gamma   90.00000000
_symmetry_Int_Tables_number   1
_chemical_formula_structural   K6Na14Tl18Cd
_chemical_formula_sum   'K6 Na14 Tl18 Cd1'
_cell_volume   1279.45733704
_cell_formula_units_Z   1
loop_
 _symmetry_equiv_pos_site_id
 _symmetry_equiv_pos_as_xyz
  1  'x, y, z'
loop_
 _atom_site_type_symbol
 _atom_site_label
 _atom_site_symmetry_multiplicity
 _atom_site_fract_x
 _atom_site_fract_y
 _atom_site_fract_z
 _atom_site_occupancy
  K  K0  1  0.18755931  -0.00000000  0.50000000  1
  K  K1  1  0.81244069  -0.00000000  0.50000000  1
  K  K2  1  0.50000000  0.18755931  -0.00000000  1
  K  K3  1  0.50000000  0.81244069  -0.00000000  1
  K  K4  1  0.00000000  0.50000000  0.18755931  1
  K  K5  1  0.00000000  0.50000000  0.81244069  1
  Na  Na6  1  0.28106222  0.28106222  0.28106222  1
  Na  Na7  1  0.71893778  0.71893778  0.71893778  1
  Na  Na8  1  0.71893778  0.71893778  0.28106222  1
  Na  Na9  1  0.71893778  0.28106222  0.71893778  1
  Na  Na10  1  0.28106222  0.28106222  0.71893778  1
  Na  Na11  1  0.28106222  0.71893778  0.28106222  1
  Na  Na12  1  0.28106222  0.71893778  0.71893778  1
  Na  Na13  1  0.71893778  0.28106222  0.28106222  1
  Na  Na14  1  0.33015889  0.50000000  -0.00000000  1
  Na  Na15  1  0.66984111  0.50000000  -0.00000000  1
  Na  Na16  1  0.00000000  0.33015889  0.50000000  1
  Na  Na17  1  0.00000000  0.66984111  0.50000000  1
  Na  Na18  1  0.50000000  -0.00000000  0.33015889  1
  Na  Na19  1  0.50000000  -0.00000000  0.66984111  1
  Tl  Tl20  1  0.00000000  0.15495497  0.25389994  1
  Tl  Tl21  1  0.00000000  0.84504503  0.74610006  1
  Tl  Tl22  1  0.00000000  0.84504503  0.25389994  1
  Tl  Tl23  1  0.00000000  0.15495497  0.74610006  1
  Tl  Tl24  1  0.25389994  -0.00000000  0.15495497  1
  Tl  Tl25  1  0.74610006  -0.00000000  0.84504503  1
  Tl  Tl26  1  0.25389994  -0.00000000  0.84504503  1
  Tl  Tl27  1  0.74610006  -0.00000000  0.15495497  1
  Tl  Tl28  1  0.15495497  0.25389994  -0.00000000  1
  Tl  Tl29  1  0.84504503  0.74610006  -0.00000000  1
  Tl  Tl30  1  0.15495497  0.74610006  -0.00000000  1
  Tl  Tl31  1  0.84504503  0.25389994  -0.00000000  1
  Tl  Tl32  1  0.27983124  0.50000000  0.50000000  1
  Tl  Tl33  1  0.72016876  0.50000000  0.50000000  1
  Tl  Tl34  1  0.50000000  0.27983124  0.50000000  1
  Tl  Tl35  1  0.50000000  0.72016876  0.50000000  1
  Tl  Tl36  1  0.50000000  0.50000000  0.27983124  1
  Tl  Tl37  1  0.50000000  0.50000000  0.72016876  1
  Cd  Cd38  1  0.00000000  -0.00000000  -0.00000000  1
