# generated using pymatgen
data_K2TbCl5
_symmetry_space_group_name_H-M   'P 1'
_cell_length_a   8.06895376
_cell_length_b   8.61684985
_cell_length_c   12.96006772
_cell_angle_alpha   90.00000000
_cell_angle_beta   90.00000000
_cell_angle_gamma   90.00000000
_symmetry_Int_Tables_number   1
_chemical_formula_structural   K2TbCl5
_chemical_formula_sum   'K8 Tb4 Cl20'
_cell_volume   901.10006894
_cell_formula_units_Z   4
loop_
 _symmetry_equiv_pos_site_id
 _symmetry_equiv_pos_as_xyz
  1  'x, y, z'
loop_
 _atom_site_type_symbol
 _atom_site_label
 _atom_site_symmetry_multiplicity
 _atom_site_fract_x
 _atom_site_fract_y
 _atom_site_fract_z
 _atom_site_occupancy
  K  K0  1  0.55137028  0.49516170  0.67204126  1
  K  K1  1  0.44862972  0.50483830  0.32795874  1
  K  K2  1  0.05137028  0.50483830  0.82795874  1
  K  K3  1  0.44862972  0.99516170  0.32795874  1
  K  K4  1  0.94862972  0.49516170  0.17204126  1
  K  K5  1  0.55137028  0.00483830  0.67204126  1
  K  K6  1  0.94862972  0.00483830  0.17204126  1
  K  K7  1  0.05137028  0.99516170  0.82795874  1
  Tb  Tb8  1  0.57399404  0.75000000  0.99605088  1
  Tb  Tb9  1  0.42600596  0.25000000  0.00394912  1
  Tb  Tb10  1  0.07399404  0.25000000  0.50394912  1
  Tb  Tb11  1  0.92600596  0.75000000  0.49605088  1
  Cl  Cl12  1  0.38005425  0.75000000  0.82614627  1
  Cl  Cl13  1  0.61994575  0.25000000  0.17385373  1
  Cl  Cl14  1  0.88005425  0.25000000  0.67385373  1
  Cl  Cl15  1  0.11994575  0.75000000  0.32614627  1
  Cl  Cl16  1  0.66035168  0.45793492  0.92589851  1
  Cl  Cl17  1  0.33964832  0.54206508  0.07410149  1
  Cl  Cl18  1  0.16035168  0.54206508  0.57410149  1
  Cl  Cl19  1  0.33964832  0.95793492  0.07410149  1
  Cl  Cl20  1  0.83964832  0.45793492  0.42589851  1
  Cl  Cl21  1  0.66035168  0.04206508  0.92589851  1
  Cl  Cl22  1  0.83964832  0.04206508  0.42589851  1
  Cl  Cl23  1  0.16035168  0.95793492  0.57410149  1
  Cl  Cl24  1  0.91250928  0.75000000  0.98987325  1
  Cl  Cl25  1  0.08749072  0.25000000  0.01012675  1
  Cl  Cl26  1  0.41250928  0.25000000  0.51012675  1
  Cl  Cl27  1  0.58749072  0.75000000  0.48987325  1
  Cl  Cl28  1  0.84140888  0.75000000  0.69785491  1
  Cl  Cl29  1  0.15859112  0.25000000  0.30214509  1
  Cl  Cl30  1  0.34140888  0.25000000  0.80214509  1
  Cl  Cl31  1  0.65859112  0.75000000  0.19785491  1
