# generated using pymatgen
data_Li3NiF6
_symmetry_space_group_name_H-M   'P 1'
_cell_length_a   5.04589008
_cell_length_b   8.48768813
_cell_length_c   9.77429566
_cell_angle_alpha   90.00000000
_cell_angle_beta   90.00000000
_cell_angle_gamma   90.00000000
_symmetry_Int_Tables_number   1
_chemical_formula_structural   Li3NiF6
_chemical_formula_sum   'Li12 Ni4 F24'
_cell_volume   418.61296114
_cell_formula_units_Z   4
loop_
 _symmetry_equiv_pos_site_id
 _symmetry_equiv_pos_as_xyz
  1  'x, y, z'
loop_
 _atom_site_type_symbol
 _atom_site_label
 _atom_site_symmetry_multiplicity
 _atom_site_fract_x
 _atom_site_fract_y
 _atom_site_fract_z
 _atom_site_occupancy
  Li  Li0  1  0.98920191  0.85207956  0.62533999  1
  Li  Li1  1  0.48920191  0.14792044  0.37466001  1
  Li  Li2  1  0.98920191  0.64792044  0.12533999  1
  Li  Li3  1  0.48920191  0.35207956  0.87466001  1
  Li  Li4  1  0.99330134  0.54791124  0.85381972  1
  Li  Li5  1  0.49330134  0.45208876  0.14618028  1
  Li  Li6  1  0.99330134  0.95208876  0.35381972  1
  Li  Li7  1  0.49330134  0.04791124  0.64618028  1
  Li  Li8  1  0.00097320  0.95406194  0.89413213  1
  Li  Li9  1  0.50097320  0.04593806  0.10586787  1
  Li  Li10  1  0.00097320  0.54593806  0.39413213  1
  Li  Li11  1  0.50097320  0.45406194  0.60586787  1
  Ni  Ni12  1  0.49705735  0.73928630  0.87203514  1
  Ni  Ni13  1  0.99705735  0.26071370  0.12796486  1
  Ni  Ni14  1  0.49705735  0.76071370  0.37203514  1
  Ni  Ni15  1  0.99705735  0.23928630  0.62796486  1
  F  F16  1  0.67577061  0.58669610  0.98943726  1
  F  F17  1  0.17577061  0.41330390  0.01056274  1
  F  F18  1  0.67577061  0.91330390  0.48943726  1
  F  F19  1  0.17577061  0.08669610  0.51056274  1
  F  F20  1  0.35232100  0.56106630  0.77512065  1
  F  F21  1  0.85232100  0.43893370  0.22487935  1
  F  F22  1  0.35232100  0.93893370  0.27512065  1
  F  F23  1  0.85232100  0.06106630  0.72487935  1
  F  F24  1  0.65149850  0.90759158  0.97351356  1
  F  F25  1  0.15149850  0.09240842  0.02648644  1
  F  F26  1  0.65149850  0.59240842  0.47351356  1
  F  F27  1  0.15149850  0.40759158  0.52648644  1
  F  F28  1  0.81152870  0.73208064  0.76142967  1
  F  F29  1  0.31152870  0.26791936  0.23857033  1
  F  F30  1  0.81152870  0.76791936  0.26142967  1
  F  F31  1  0.31152870  0.23208064  0.73857033  1
  F  F32  1  0.81451120  0.38666226  0.74669231  1
  F  F33  1  0.31451120  0.61333774  0.25330769  1
  F  F34  1  0.81451120  0.11333774  0.24669231  1
  F  F35  1  0.31451120  0.88666226  0.75330769  1
  F  F36  1  0.17536620  0.74529415  0.97808315  1
  F  F37  1  0.67536620  0.25470585  0.02191685  1
  F  F38  1  0.17536620  0.75470585  0.47808315  1
  F  F39  1  0.67536620  0.24529415  0.52191685  1
