# generated using pymatgen
data_LaSI
_symmetry_space_group_name_H-M   'P 1'
_cell_length_a   7.13396333
_cell_length_b   7.39553092
_cell_length_c   14.73078086
_cell_angle_alpha   90.00000000
_cell_angle_beta   90.00000000
_cell_angle_gamma   90.00000000
_symmetry_Int_Tables_number   1
_chemical_formula_structural   LaSI
_chemical_formula_sum   'La8 S8 I8'
_cell_volume   777.18784305
_cell_formula_units_Z   8
loop_
 _symmetry_equiv_pos_site_id
 _symmetry_equiv_pos_as_xyz
  1  'x, y, z'
loop_
 _atom_site_type_symbol
 _atom_site_label
 _atom_site_symmetry_multiplicity
 _atom_site_fract_x
 _atom_site_fract_y
 _atom_site_fract_z
 _atom_site_occupancy
  La  La0  1  0.74273485  0.52968293  0.58351471  1
  La  La1  1  0.25726515  0.47031707  0.41648529  1
  La  La2  1  0.75726515  0.02968293  0.41648529  1
  La  La3  1  0.25726515  0.97031707  0.08351471  1
  La  La4  1  0.24273485  0.97031707  0.58351471  1
  La  La5  1  0.74273485  0.02968293  0.91648529  1
  La  La6  1  0.24273485  0.47031707  0.91648529  1
  La  La7  1  0.75726515  0.52968293  0.08351471  1
  S  S8  1  0.00065065  0.75718679  0.97712225  1
  S  S9  1  0.99934935  0.24281321  0.02287775  1
  S  S10  1  0.49934935  0.25718679  0.02287775  1
  S  S11  1  0.99934935  0.74281321  0.47712225  1
  S  S12  1  0.50065065  0.74281321  0.97712225  1
  S  S13  1  0.00065065  0.25718679  0.52287775  1
  S  S14  1  0.50065065  0.24281321  0.52287775  1
  S  S15  1  0.49934935  0.75718679  0.47712225  1
  I  I16  1  0.81701387  0.90635719  0.69893792  1
  I  I17  1  0.18298613  0.09364281  0.30106208  1
  I  I18  1  0.68298613  0.40635719  0.30106208  1
  I  I19  1  0.18298613  0.59364281  0.19893792  1
  I  I20  1  0.31701387  0.59364281  0.69893792  1
  I  I21  1  0.81701387  0.40635719  0.80106208  1
  I  I22  1  0.31701387  0.09364281  0.80106208  1
  I  I23  1  0.68298613  0.90635719  0.19893792  1
