# generated using pymatgen
data_K4HfO4
_symmetry_space_group_name_H-M   'P 1'
_cell_length_a   6.61460989
_cell_length_b   6.62399996
_cell_length_c   9.87030503
_cell_angle_alpha   71.88506682
_cell_angle_beta   80.09440673
_cell_angle_gamma   66.97889759
_symmetry_Int_Tables_number   1
_chemical_formula_structural   K4HfO4
_chemical_formula_sum   'K8 Hf2 O8'
_cell_volume   377.67009002
_cell_formula_units_Z   2
loop_
 _symmetry_equiv_pos_site_id
 _symmetry_equiv_pos_as_xyz
  1  'x, y, z'
loop_
 _atom_site_type_symbol
 _atom_site_label
 _atom_site_symmetry_multiplicity
 _atom_site_fract_x
 _atom_site_fract_y
 _atom_site_fract_z
 _atom_site_occupancy
  K  K0  1  0.77751150  0.04063697  0.38221538  1
  K  K1  1  0.22248850  0.95936303  0.61778462  1
  K  K2  1  0.74213567  0.58828360  0.16678545  1
  K  K3  1  0.25786433  0.41171640  0.83321455  1
  K  K4  1  0.24260177  0.76375961  0.02588409  1
  K  K5  1  0.75739823  0.23624039  0.97411591  1
  K  K6  1  0.27329807  0.51270027  0.44142144  1
  K  K7  1  0.72670193  0.48729973  0.55857856  1
  Hf  Hf8  1  0.27684343  0.15428945  0.24621433  1
  Hf  Hf9  1  0.72315657  0.84571055  0.75378567  1
  O  O10  1  0.03974613  0.29083611  0.37788816  1
  O  O11  1  0.96025387  0.70916389  0.62211184  1
  O  O12  1  0.54188580  0.15501669  0.64781212  1
  O  O13  1  0.45811420  0.84498331  0.35218788  1
  O  O14  1  0.46222819  0.34156241  0.19098624  1
  O  O15  1  0.53777181  0.65843759  0.80901376  1
  O  O16  1  0.13229866  0.15947455  0.08605011  1
  O  O17  1  0.86770134  0.84052545  0.91394989  1
