# generated using pymatgen
data_KSr2Si4O10F
_symmetry_space_group_name_H-M   'P 1'
_cell_length_a   8.60988053
_cell_length_b   11.62004591
_cell_length_c   11.74096623
_cell_angle_alpha   112.23393124
_cell_angle_beta   90.00000000
_cell_angle_gamma   90.00000000
_symmetry_Int_Tables_number   1
_chemical_formula_structural   KSr2Si4O10F
_chemical_formula_sum   'K4 Sr8 Si16 O40 F4'
_cell_volume   1087.31166384
_cell_formula_units_Z   4
loop_
 _symmetry_equiv_pos_site_id
 _symmetry_equiv_pos_as_xyz
  1  'x, y, z'
loop_
 _atom_site_type_symbol
 _atom_site_label
 _atom_site_symmetry_multiplicity
 _atom_site_fract_x
 _atom_site_fract_y
 _atom_site_fract_z
 _atom_site_occupancy
  K  K0  1  0.78331092  0.03357803  0.92589022  1
  K  K1  1  0.21668908  0.96642197  0.07410978  1
  K  K2  1  0.28331092  0.46642197  0.57410978  1
  K  K3  1  0.71668908  0.53357803  0.42589022  1
  Sr  Sr4  1  0.21678068  0.54214818  0.95958662  1
  Sr  Sr5  1  0.78321932  0.45785182  0.04041338  1
  Sr  Sr6  1  0.71678068  0.95785182  0.54041338  1
  Sr  Sr7  1  0.28321932  0.04214818  0.45958662  1
  Sr  Sr8  1  0.01936006  0.28781667  0.72107407  1
  Sr  Sr9  1  0.98063994  0.71218333  0.27892593  1
  Sr  Sr10  1  0.51936006  0.21218333  0.77892593  1
  Sr  Sr11  1  0.48063994  0.78781667  0.22107407  1
  Si  Si12  1  0.46617848  0.88138373  0.75697878  1
  Si  Si13  1  0.53382152  0.11861627  0.24302122  1
  Si  Si14  1  0.96617848  0.61861627  0.74302122  1
  Si  Si15  1  0.03382152  0.38138373  0.25697878  1
  Si  Si16  1  0.02568007  0.77669205  0.58541700  1
  Si  Si17  1  0.97431993  0.22330795  0.41458300  1
  Si  Si18  1  0.52568007  0.72330795  0.91458300  1
  Si  Si19  1  0.47431993  0.27669205  0.08541700  1
  Si  Si20  1  0.15930446  0.01566252  0.76906732  1
  Si  Si21  1  0.84069554  0.98433748  0.23093268  1
  Si  Si22  1  0.65930446  0.48433748  0.73093268  1
  Si  Si23  1  0.34069554  0.51566252  0.26906732  1
  Si  Si24  1  0.12421751  0.25091706  0.99597725  1
  Si  Si25  1  0.87578249  0.74908294  0.00402275  1
  Si  Si26  1  0.62421751  0.24908294  0.50402275  1
  Si  Si27  1  0.37578249  0.75091706  0.49597725  1
  O  O28  1  0.04173754  0.66597315  0.63969067  1
  O  O29  1  0.95826246  0.33402685  0.36030933  1
  O  O30  1  0.54173754  0.83402685  0.86030933  1
  O  O31  1  0.45826246  0.16597315  0.13969067  1
  O  O32  1  0.62101572  0.26367677  0.99730984  1
  O  O33  1  0.37898428  0.73632323  0.00269016  1
  O  O34  1  0.12101572  0.23632323  0.50269016  1
  O  O35  1  0.87898428  0.76367677  0.49730984  1
  O  O36  1  0.18465855  0.76743212  0.50181011  1
  O  O37  1  0.81534145  0.23256788  0.49818989  1
  O  O38  1  0.68465855  0.73256788  0.99818989  1
  O  O39  1  0.31534145  0.26743212  0.00181011  1
  O  O40  1  0.08334694  0.10621091  0.90366797  1
  O  O41  1  0.91665306  0.89378909  0.09633203  1
  O  O42  1  0.58334694  0.39378909  0.59633203  1
  O  O43  1  0.41665306  0.60621091  0.40366797  1
  O  O44  1  0.21813233  0.09291813  0.68943544  1
  O  O45  1  0.78186767  0.90708187  0.31056456  1
  O  O46  1  0.71813233  0.40708187  0.81056456  1
  O  O47  1  0.28186767  0.59291813  0.18943544  1
  O  O48  1  0.04344813  0.35241626  0.95300262  1
  O  O49  1  0.95655187  0.64758374  0.04699738  1
  O  O50  1  0.54344813  0.14758374  0.54699738  1
  O  O51  1  0.45655187  0.85241626  0.45300262  1
  O  O52  1  0.29390500  0.93830310  0.81139083  1
  O  O53  1  0.70609500  0.06169690  0.18860917  1
  O  O54  1  0.79390500  0.56169690  0.68860917  1
  O  O55  1  0.20609500  0.43830310  0.31139083  1
  O  O56  1  0.02215677  0.91328373  0.70085387  1
  O  O57  1  0.97784323  0.08671627  0.29914613  1
  O  O58  1  0.52215677  0.58671627  0.79914613  1
  O  O59  1  0.47784323  0.41328373  0.20085387  1
  O  O60  1  0.43793629  0.75575957  0.63051885  1
  O  O61  1  0.56206371  0.24424043  0.36948115  1
  O  O62  1  0.93793629  0.74424043  0.86948115  1
  O  O63  1  0.06206371  0.25575957  0.13051885  1
  O  O64  1  0.57518238  0.98272996  0.73606639  1
  O  O65  1  0.42481762  0.01727004  0.26393361  1
  O  O66  1  0.07518238  0.51727004  0.76393361  1
  O  O67  1  0.92481762  0.48272996  0.23606639  1
  F  F68  1  0.31677363  0.36143890  0.78853533  1
  F  F69  1  0.68322637  0.63856110  0.21146467  1
  F  F70  1  0.81677363  0.13856110  0.71146467  1
  F  F71  1  0.18322637  0.86143890  0.28853533  1
