# generated using pymatgen
data_KCo2(PO4)2
_symmetry_space_group_name_H-M   'P 1'
_cell_length_a   8.93432833
_cell_length_b   9.62724878
_cell_length_c   9.62724878
_cell_angle_alpha   89.25573994
_cell_angle_beta   83.14139847
_cell_angle_gamma   83.14139847
_symmetry_Int_Tables_number   1
_chemical_formula_structural   KCo2(PO4)2
_chemical_formula_sum   'K4 Co8 P8 O32'
_cell_volume   816.25878482
_cell_formula_units_Z   4
loop_
 _symmetry_equiv_pos_site_id
 _symmetry_equiv_pos_as_xyz
  1  'x, y, z'
loop_
 _atom_site_type_symbol
 _atom_site_label
 _atom_site_symmetry_multiplicity
 _atom_site_fract_x
 _atom_site_fract_y
 _atom_site_fract_z
 _atom_site_occupancy
  K  K0  1  0.27989975  0.93094347  0.43445110  1
  K  K1  1  0.72010025  0.06905653  0.56554890  1
  K  K2  1  0.22010025  0.56554890  0.06905653  1
  K  K3  1  0.77989975  0.43445110  0.93094347  1
  Co  Co4  1  0.04933865  0.29972314  0.54576464  1
  Co  Co5  1  0.95066135  0.70027686  0.45423536  1
  Co  Co6  1  0.45066135  0.45423536  0.70027686  1
  Co  Co7  1  0.54933865  0.54576464  0.29972314  1
  Co  Co8  1  0.38578484  0.93324135  0.80846006  1
  Co  Co9  1  0.61421516  0.06675865  0.19153994  1
  Co  Co10  1  0.11421516  0.19153994  0.06675865  1
  Co  Co11  1  0.88578484  0.80846006  0.93324135  1
  P  P12  1  0.02693738  0.06396679  0.78521515  1
  P  P13  1  0.97306262  0.93603321  0.21478485  1
  P  P14  1  0.47306262  0.21478485  0.93603321  1
  P  P15  1  0.52693738  0.78521515  0.06396679  1
  P  P16  1  0.41237938  0.28502012  0.42044641  1
  P  P17  1  0.58762062  0.71497988  0.57955359  1
  P  P18  1  0.08762062  0.57955359  0.71497988  1
  P  P19  1  0.91237938  0.42044641  0.28502012  1
  O  O20  1  0.49308800  0.85063132  0.63805151  1
  O  O21  1  0.50691200  0.14936868  0.36194849  1
  O  O22  1  0.00691200  0.36194849  0.14936868  1
  O  O23  1  0.99308800  0.63805151  0.85063132  1
  O  O24  1  0.09045055  0.68624550  0.59266174  1
  O  O25  1  0.90954945  0.31375450  0.40733826  1
  O  O26  1  0.40954945  0.40733826  0.31375450  1
  O  O27  1  0.59045055  0.59266174  0.68624550  1
  O  O28  1  0.18355505  0.97639711  0.76472231  1
  O  O29  1  0.81644495  0.02360289  0.23527769  1
  O  O30  1  0.31644495  0.23527769  0.02360289  1
  O  O31  1  0.68355505  0.76472231  0.97639711  1
  O  O32  1  0.48394450  0.09832900  0.82451388  1
  O  O33  1  0.51605550  0.90167100  0.17548612  1
  O  O34  1  0.01605550  0.17548612  0.90167100  1
  O  O35  1  0.98394450  0.82451388  0.09832900  1
  O  O36  1  0.10116920  0.03155192  0.18151965  1
  O  O37  1  0.89883080  0.96844808  0.81848035  1
  O  O38  1  0.39883080  0.81848035  0.96844808  1
  O  O39  1  0.60116920  0.18151965  0.03155192  1
  O  O40  1  0.00747089  0.86264335  0.35433243  1
  O  O41  1  0.99252911  0.13735665  0.64566757  1
  O  O42  1  0.49252911  0.64566757  0.13735665  1
  O  O43  1  0.50747089  0.35433243  0.86264335  1
  O  O44  1  0.24926914  0.24819851  0.46244608  1
  O  O45  1  0.75073086  0.75180149  0.53755392  1
  O  O46  1  0.25073086  0.53755392  0.75180149  1
  O  O47  1  0.74926914  0.46244608  0.24819851  1
  O  O48  1  0.48758536  0.32656972  0.54950498  1
  O  O49  1  0.51241464  0.67343028  0.45049502  1
  O  O50  1  0.01241464  0.45049502  0.67343028  1
  O  O51  1  0.98758536  0.54950498  0.32656972  1
