# generated using pymatgen
data_K3LiGe4
_symmetry_space_group_name_H-M   'P 1'
_cell_length_a   7.81149267
_cell_length_b   9.98763066
_cell_length_c   12.53963217
_cell_angle_alpha   90.00000000
_cell_angle_beta   90.00000000
_cell_angle_gamma   90.00000000
_symmetry_Int_Tables_number   1
_chemical_formula_structural   K3LiGe4
_chemical_formula_sum   'K12 Li4 Ge16'
_cell_volume   978.32083082
_cell_formula_units_Z   4
loop_
 _symmetry_equiv_pos_site_id
 _symmetry_equiv_pos_as_xyz
  1  'x, y, z'
loop_
 _atom_site_type_symbol
 _atom_site_label
 _atom_site_symmetry_multiplicity
 _atom_site_fract_x
 _atom_site_fract_y
 _atom_site_fract_z
 _atom_site_occupancy
  K  K0  1  0.15562274  0.25000000  0.60040466  1
  K  K1  1  0.84437726  0.75000000  0.39959534  1
  K  K2  1  0.34437726  0.75000000  0.10040466  1
  K  K3  1  0.65562274  0.25000000  0.89959534  1
  K  K4  1  0.15471579  0.05558378  0.30650680  1
  K  K5  1  0.84528421  0.94441622  0.69349320  1
  K  K6  1  0.34528421  0.94441622  0.80650680  1
  K  K7  1  0.84528421  0.55558378  0.69349320  1
  K  K8  1  0.65471579  0.05558378  0.19349320  1
  K  K9  1  0.15471579  0.44441622  0.30650680  1
  K  K10  1  0.65471579  0.44441622  0.19349320  1
  K  K11  1  0.34528421  0.55558378  0.80650680  1
  Li  Li12  1  0.00000000  0.00000000  -0.00000000  1
  Li  Li13  1  0.50000000  -0.00000000  0.50000000  1
  Li  Li14  1  0.00000000  0.50000000  -0.00000000  1
  Li  Li15  1  0.50000000  0.50000000  0.50000000  1
  Ge  Ge16  1  0.63666328  0.25000000  0.60677446  1
  Ge  Ge17  1  0.36333672  0.75000000  0.39322554  1
  Ge  Ge18  1  0.86333672  0.75000000  0.10677446  1
  Ge  Ge19  1  0.13666328  0.25000000  0.89322554  1
  Ge  Ge20  1  0.29069688  0.12259264  0.04927099  1
  Ge  Ge21  1  0.70930312  0.87740736  0.95072901  1
  Ge  Ge22  1  0.20930312  0.87740736  0.54927099  1
  Ge  Ge23  1  0.70930312  0.62259264  0.95072901  1
  Ge  Ge24  1  0.79069688  0.12259264  0.45072901  1
  Ge  Ge25  1  0.29069688  0.37740736  0.04927099  1
  Ge  Ge26  1  0.79069688  0.37740736  0.45072901  1
  Ge  Ge27  1  0.20930312  0.62259264  0.54927099  1
  Ge  Ge28  1  0.00281681  0.25000000  0.08623588  1
  Ge  Ge29  1  0.99718319  0.75000000  0.91376412  1
  Ge  Ge30  1  0.49718319  0.75000000  0.58623588  1
  Ge  Ge31  1  0.50281681  0.25000000  0.41376412  1
