# generated using pymatgen
data_Cs2RbFe(CN)6
_symmetry_space_group_name_H-M   'P 1'
_cell_length_a   7.85765371
_cell_length_b   8.35668032
_cell_length_c   11.38949568
_cell_angle_alpha   90.00000000
_cell_angle_beta   90.45532467
_cell_angle_gamma   90.00000000
_symmetry_Int_Tables_number   1
_chemical_formula_structural   Cs2RbFe(CN)6
_chemical_formula_sum   'Cs4 Rb2 Fe2 C12 N12'
_cell_volume   747.85509125
_cell_formula_units_Z   2
loop_
 _symmetry_equiv_pos_site_id
 _symmetry_equiv_pos_as_xyz
  1  'x, y, z'
loop_
 _atom_site_type_symbol
 _atom_site_label
 _atom_site_symmetry_multiplicity
 _atom_site_fract_x
 _atom_site_fract_y
 _atom_site_fract_z
 _atom_site_occupancy
  Cs  Cs0  1  0.52116157  0.92982293  0.24818197  1
  Cs  Cs1  1  0.97883843  0.42982293  0.25181803  1
  Cs  Cs2  1  0.47883843  0.07017707  0.75181803  1
  Cs  Cs3  1  0.02116157  0.57017707  0.74818197  1
  Rb  Rb4  1  0.00000000  0.00000000  0.50000000  1
  Rb  Rb5  1  0.50000000  0.50000000  0.00000000  1
  Fe  Fe6  1  0.00000000  0.00000000  0.00000000  1
  Fe  Fe7  1  0.50000000  0.50000000  0.50000000  1
  C  C8  1  0.07736820  0.02772170  0.15813960  1
  C  C9  1  0.42263180  0.52772170  0.34186040  1
  C  C10  1  0.92263180  0.97227830  0.84186040  1
  C  C11  1  0.57736820  0.47227830  0.65813960  1
  N  N12  1  0.12634624  0.04783040  0.25511036  1
  N  N13  1  0.37365376  0.54783040  0.24488964  1
  N  N14  1  0.87365376  0.95216960  0.74488964  1
  N  N15  1  0.62634624  0.45216960  0.75511036  1
  C  C16  1  0.79846700  0.11900626  0.03386485  1
  C  C17  1  0.70153300  0.61900626  0.46613515  1
  C  C18  1  0.20153300  0.88099374  0.96613515  1
  C  C19  1  0.29846700  0.38099374  0.53386485  1
  N  N20  1  0.67369438  0.19052855  0.05647352  1
  N  N21  1  0.82630562  0.69052855  0.44352648  1
  N  N22  1  0.32630562  0.80947145  0.94352648  1
  N  N23  1  0.17369438  0.30947145  0.55647352  1
  C  C24  1  0.11425705  0.19306545  0.95569204  1
  C  C25  1  0.38574295  0.69306545  0.54430796  1
  C  C26  1  0.88574295  0.80693455  0.04430796  1
  C  C27  1  0.61425705  0.30693455  0.45569204  1
  N  N28  1  0.18565341  0.31095168  0.92770088  1
  N  N29  1  0.31434659  0.81095168  0.57229912  1
  N  N30  1  0.81434659  0.68904832  0.07229912  1
  N  N31  1  0.68565341  0.18904832  0.42770088  1
