# generated using pymatgen
data_K3Sn2P5S18
_symmetry_space_group_name_H-M   'P 1'
_cell_length_a   6.16834363
_cell_length_b   12.26733016
_cell_length_c   21.30873556
_cell_angle_alpha   105.78021524
_cell_angle_beta   90.00000000
_cell_angle_gamma   104.56116870
_symmetry_Int_Tables_number   1
_chemical_formula_structural   K3Sn2P5S18
_chemical_formula_sum   'K6 Sn4 P10 S36'
_cell_volume   1497.75340681
_cell_formula_units_Z   2
loop_
 _symmetry_equiv_pos_site_id
 _symmetry_equiv_pos_as_xyz
  1  'x, y, z'
loop_
 _atom_site_type_symbol
 _atom_site_label
 _atom_site_symmetry_multiplicity
 _atom_site_fract_x
 _atom_site_fract_y
 _atom_site_fract_z
 _atom_site_occupancy
  K  K0  1  0.73512357  0.68977375  0.82577155  1
  K  K1  1  0.26487643  0.31022625  0.17422845  1
  K  K2  1  0.04534983  0.31022625  0.67422845  1
  K  K3  1  0.95465017  0.68977375  0.32577155  1
  K  K4  1  0.00000000  -0.00000000  0.00000000  1
  K  K5  1  0.00000000  -0.00000000  0.50000000  1
  Sn  Sn6  1  0.62521149  0.76112879  0.62617955  1
  Sn  Sn7  1  0.37478851  0.23887121  0.37382045  1
  Sn  Sn8  1  0.86408270  0.23887121  0.87382045  1
  Sn  Sn9  1  0.13591730  0.76112879  0.12617955  1
  P  P10  1  0.74898201  0.00000000  0.75000000  1
  P  P11  1  0.25101799  -0.00000000  0.25000000  1
  P  P12  1  0.31432679  0.75653200  0.98086298  1
  P  P13  1  0.68567321  0.24346800  0.01913702  1
  P  P14  1  0.55779478  0.24346800  0.51913702  1
  P  P15  1  0.44220522  0.75653200  0.48086298  1
  P  P16  1  0.65620694  0.50737023  0.64022226  1
  P  P17  1  0.34379306  0.49262977  0.35977774  1
  P  P18  1  0.14883670  0.49262977  0.85977774  1
  P  P19  1  0.85116330  0.50737023  0.14022226  1
  S  S20  1  0.37690599  0.58546755  0.94557021  1
  S  S21  1  0.62309401  0.41453245  0.05442979  1
  S  S22  1  0.79143844  0.41453245  0.55442979  1
  S  S23  1  0.20856156  0.58546755  0.44557021  1
  S  S24  1  0.75039708  0.73318240  0.50629861  1
  S  S25  1  0.24960292  0.26681760  0.49370139  1
  S  S26  1  0.01721468  0.26681760  0.99370139  1
  S  S27  1  0.98278532  0.73318240  0.00629861  1
  S  S28  1  0.91983196  0.96413701  0.66628643  1
  S  S29  1  0.08016804  0.03586299  0.33371357  1
  S  S30  1  0.95569495  0.03586299  0.83371357  1
  S  S31  1  0.04430505  0.96413701  0.16628643  1
  S  S32  1  0.60290360  0.42138066  0.70658959  1
  S  S33  1  0.39709640  0.57861934  0.29341041  1
  S  S34  1  0.18152293  0.57861934  0.79341041  1
  S  S35  1  0.81847707  0.42138066  0.20658959  1
  S  S36  1  0.24077221  0.33444586  0.83475689  1
  S  S37  1  0.75922779  0.66555414  0.16524311  1
  S  S38  1  0.90632634  0.66555414  0.66524311  1
  S  S39  1  0.09367366  0.33444586  0.33475689  1
  S  S40  1  0.37795717  0.55373809  0.61260583  1
  S  S41  1  0.62204283  0.44626191  0.38739417  1
  S  S42  1  0.82421908  0.44626191  0.88739417  1
  S  S43  1  0.17578092  0.55373809  0.11260583  1
  S  S44  1  0.49946593  0.18132950  0.92973551  1
  S  S45  1  0.50053407  0.81867050  0.07026449  1
  S  S46  1  0.31813643  0.81867050  0.57026449  1
  S  S47  1  0.68186357  0.18132950  0.42973551  1
  S  S48  1  0.40013736  0.85536501  0.92137862  1
  S  S49  1  0.59986264  0.14463499  0.07862138  1
  S  S50  1  0.54477234  0.14463499  0.57862138  1
  S  S51  1  0.45522766  0.85536501  0.42137862  1
  S  S52  1  0.49111212  0.85011907  0.73961506  1
  S  S53  1  0.50888788  0.14988093  0.26038494  1
  S  S54  1  0.64099305  0.14988093  0.76038494  1
  S  S55  1  0.35900695  0.85011907  0.23961506  1
