# generated using pymatgen
data_K2LaI5
_symmetry_space_group_name_H-M   'P 1'
_cell_length_a   9.33151724
_cell_length_b   9.98369158
_cell_length_c   14.71103637
_cell_angle_alpha   90.00000000
_cell_angle_beta   90.00000000
_cell_angle_gamma   90.00000000
_symmetry_Int_Tables_number   1
_chemical_formula_structural   K2LaI5
_chemical_formula_sum   'K8 La4 I20'
_cell_volume   1370.52413566
_cell_formula_units_Z   4
loop_
 _symmetry_equiv_pos_site_id
 _symmetry_equiv_pos_as_xyz
  1  'x, y, z'
loop_
 _atom_site_type_symbol
 _atom_site_label
 _atom_site_symmetry_multiplicity
 _atom_site_fract_x
 _atom_site_fract_y
 _atom_site_fract_z
 _atom_site_occupancy
  K  K0  1  0.55031768  0.49490510  0.67126044  1
  K  K1  1  0.44968232  0.50509490  0.32873956  1
  K  K2  1  0.05031768  0.50509490  0.82873956  1
  K  K3  1  0.44968232  0.99490510  0.32873956  1
  K  K4  1  0.94968232  0.49490510  0.17126044  1
  K  K5  1  0.55031768  0.00509490  0.67126044  1
  K  K6  1  0.94968232  0.00509490  0.17126044  1
  K  K7  1  0.05031768  0.99490510  0.82873956  1
  La  La8  1  0.57742500  0.75000000  0.99445837  1
  La  La9  1  0.42257500  0.25000000  0.00554163  1
  La  La10  1  0.07742500  0.25000000  0.50554163  1
  La  La11  1  0.92257500  0.75000000  0.49445837  1
  I  I12  1  0.37104366  0.75000000  0.81798621  1
  I  I13  1  0.62895634  0.25000000  0.18201379  1
  I  I14  1  0.87104366  0.25000000  0.68201379  1
  I  I15  1  0.12895634  0.75000000  0.31798621  1
  I  I16  1  0.66628892  0.45544737  0.92166281  1
  I  I17  1  0.33371108  0.54455263  0.07833719  1
  I  I18  1  0.16628892  0.54455263  0.57833719  1
  I  I19  1  0.33371108  0.95544737  0.07833719  1
  I  I20  1  0.83371108  0.45544737  0.42166281  1
  I  I21  1  0.66628892  0.04455263  0.92166281  1
  I  I22  1  0.83371108  0.04455263  0.42166281  1
  I  I23  1  0.16628892  0.95544737  0.57833719  1
  I  I24  1  0.92866350  0.75000000  0.99308503  1
  I  I25  1  0.07133650  0.25000000  0.00691497  1
  I  I26  1  0.42866350  0.25000000  0.50691497  1
  I  I27  1  0.57133650  0.75000000  0.49308503  1
  I  I28  1  0.83492070  0.75000000  0.70682366  1
  I  I29  1  0.16507930  0.25000000  0.29317634  1
  I  I30  1  0.33492070  0.25000000  0.79317634  1
  I  I31  1  0.66507930  0.75000000  0.20682366  1
