# generated using pymatgen
data_HoSbIr
_symmetry_space_group_name_H-M   'P 1'
_cell_length_a   4.47350357
_cell_length_b   7.15566312
_cell_length_c   7.98366145
_cell_angle_alpha   90.00000000
_cell_angle_beta   90.00000000
_cell_angle_gamma   90.00000000
_symmetry_Int_Tables_number   1
_chemical_formula_structural   HoSbIr
_chemical_formula_sum   'Ho4 Sb4 Ir4'
_cell_volume   255.56406467
_cell_formula_units_Z   4
loop_
 _symmetry_equiv_pos_site_id
 _symmetry_equiv_pos_as_xyz
  1  'x, y, z'
loop_
 _atom_site_type_symbol
 _atom_site_label
 _atom_site_symmetry_multiplicity
 _atom_site_fract_x
 _atom_site_fract_y
 _atom_site_fract_z
 _atom_site_occupancy
  Ho  Ho0  1  0.75000000  0.98550519  0.31206364  1
  Ho  Ho1  1  0.25000000  0.01449481  0.68793636  1
  Ho  Ho2  1  0.25000000  0.51449481  0.81206364  1
  Ho  Ho3  1  0.75000000  0.48550519  0.18793636  1
  Sb  Sb4  1  0.75000000  0.82710956  0.91327134  1
  Sb  Sb5  1  0.25000000  0.17289044  0.08672866  1
  Sb  Sb6  1  0.25000000  0.67289044  0.41327134  1
  Sb  Sb7  1  0.75000000  0.32710956  0.58672866  1
  Ir  Ir8  1  0.75000000  0.71334296  0.59334497  1
  Ir  Ir9  1  0.25000000  0.28665704  0.40665503  1
  Ir  Ir10  1  0.25000000  0.78665704  0.09334497  1
  Ir  Ir11  1  0.75000000  0.21334296  0.90665503  1
