# generated using pymatgen
data_K4Co(MoO4)3
_symmetry_space_group_name_H-M   'P 1'
_cell_length_a   7.96582267
_cell_length_b   10.09849986
_cell_length_c   10.16893484
_cell_angle_alpha   93.99299095
_cell_angle_beta   106.68177462
_cell_angle_gamma   105.96216908
_symmetry_Int_Tables_number   1
_chemical_formula_structural   K4Co(MoO4)3
_chemical_formula_sum   'K8 Co2 Mo6 O24'
_cell_volume   743.51037868
_cell_formula_units_Z   2
loop_
 _symmetry_equiv_pos_site_id
 _symmetry_equiv_pos_as_xyz
  1  'x, y, z'
loop_
 _atom_site_type_symbol
 _atom_site_label
 _atom_site_symmetry_multiplicity
 _atom_site_fract_x
 _atom_site_fract_y
 _atom_site_fract_z
 _atom_site_occupancy
  K  K0  1  0.00000000  0.50000000  0.50000000  1
  K  K1  1  0.21657425  0.72480151  0.26180329  1
  K  K2  1  0.78342575  0.27519849  0.73819671  1
  K  K3  1  0.25220248  0.02519214  0.97328394  1
  K  K4  1  0.74779752  0.97480786  0.02671606  1
  K  K5  1  0.64291118  0.38675454  0.06749390  1
  K  K6  1  0.35708882  0.61324546  0.93250610  1
  K  K7  1  0.50000000  0.50000000  0.50000000  1
  Co  Co8  1  0.16719512  0.05797033  0.36653464  1
  Co  Co9  1  0.83280488  0.94202967  0.63346536  1
  Mo  Mo10  1  0.22868236  0.23392551  0.67956843  1
  Mo  Mo11  1  0.77131764  0.76607449  0.32043157  1
  Mo  Mo12  1  0.12348138  0.31710268  0.13906729  1
  Mo  Mo13  1  0.87651862  0.68289732  0.86093271  1
  Mo  Mo14  1  0.61622995  0.10993593  0.34839897  1
  Mo  Mo15  1  0.38377005  0.89006407  0.65160103  1
  O  O16  1  0.21091057  0.40388172  0.71318472  1
  O  O17  1  0.78908943  0.59611828  0.28681528  1
  O  O18  1  0.16668644  0.44677777  0.28467935  1
  O  O19  1  0.83331356  0.55322223  0.71532065  1
  O  O20  1  0.44075256  0.23135980  0.79928245  1
  O  O21  1  0.55924744  0.76864020  0.20071755  1
  O  O22  1  0.11897301  0.14494659  0.18790098  1
  O  O23  1  0.88102699  0.85505341  0.81209902  1
  O  O24  1  0.23518055  0.22843162  0.50059123  1
  O  O25  1  0.76481945  0.77156838  0.49940877  1
  O  O26  1  0.29836362  0.36980627  0.05931293  1
  O  O27  1  0.70163638  0.63019373  0.94068707  1
  O  O28  1  0.90461515  0.29616365  0.01329771  1
  O  O29  1  0.09538485  0.70383635  0.98670229  1
  O  O30  1  0.38738573  0.00732072  0.34597681  1
  O  O31  1  0.61261427  0.99267928  0.65402319  1
  O  O32  1  0.78568165  0.02395783  0.41913501  1
  O  O33  1  0.21431835  0.97604217  0.58086499  1
  O  O34  1  0.60599593  0.13073305  0.17296913  1
  O  O35  1  0.39400407  0.86926695  0.82703087  1
  O  O36  1  0.68204607  0.27825735  0.45030613  1
  O  O37  1  0.31795393  0.72174265  0.54969387  1
  O  O38  1  0.03161276  0.12097379  0.71885474  1
  O  O39  1  0.96838724  0.87902621  0.28114526  1
