# generated using pymatgen
data_InPb2F7
_symmetry_space_group_name_H-M   'P 1'
_cell_length_a   5.74158045
_cell_length_b   8.49195027
_cell_length_c   12.57918581
_cell_angle_alpha   90.00000000
_cell_angle_beta   90.00000000
_cell_angle_gamma   89.34936499
_symmetry_Int_Tables_number   1
_chemical_formula_structural   InPb2F7
_chemical_formula_sum   'In4 Pb8 F28'
_cell_volume   613.28653073
_cell_formula_units_Z   4
loop_
 _symmetry_equiv_pos_site_id
 _symmetry_equiv_pos_as_xyz
  1  'x, y, z'
loop_
 _atom_site_type_symbol
 _atom_site_label
 _atom_site_symmetry_multiplicity
 _atom_site_fract_x
 _atom_site_fract_y
 _atom_site_fract_z
 _atom_site_occupancy
  In  In0  1  0.72491271  0.77943239  0.87385975  1
  In  In1  1  0.27508729  0.22056761  0.12614025  1
  In  In2  1  0.27508729  0.72056761  0.37385975  1
  In  In3  1  0.72491271  0.27943239  0.62614025  1
  Pb  Pb4  1  0.77441372  0.94453533  0.21357025  1
  Pb  Pb5  1  0.22558628  0.05546467  0.78642975  1
  Pb  Pb6  1  0.22558628  0.55546467  0.71357025  1
  Pb  Pb7  1  0.77441372  0.44453533  0.28642975  1
  Pb  Pb8  1  0.76485245  0.82266404  0.55961849  1
  Pb  Pb9  1  0.23514755  0.17733596  0.44038151  1
  Pb  Pb10  1  0.23514755  0.67733596  0.05961849  1
  Pb  Pb11  1  0.76485245  0.32266404  0.94038151  1
  F  F12  1  0.39198973  0.87481291  0.92543404  1
  F  F13  1  0.60801027  0.12518709  0.07456596  1
  F  F14  1  0.60801027  0.62518709  0.42543404  1
  F  F15  1  0.39198973  0.37481291  0.57456596  1
  F  F16  1  0.83494862  0.01939743  0.87050427  1
  F  F17  1  0.16505138  0.98060257  0.12949573  1
  F  F18  1  0.16505138  0.48060257  0.37050427  1
  F  F19  1  0.83494862  0.51939743  0.62949573  1
  F  F20  1  0.52012540  0.57000790  0.89543948  1
  F  F21  1  0.47987460  0.42999210  0.10456052  1
  F  F22  1  0.47987460  0.92999210  0.39543948  1
  F  F23  1  0.52012540  0.07000790  0.60456052  1
  F  F24  1  0.80297981  0.28151098  0.45908806  1
  F  F25  1  0.19702019  0.71848902  0.54091194  1
  F  F26  1  0.19702019  0.21848902  0.95908806  1
  F  F27  1  0.80297981  0.78151098  0.04091194  1
  F  F28  1  0.98638744  0.80125347  0.74172941  1
  F  F29  1  0.01361256  0.19874653  0.25827059  1
  F  F30  1  0.01361256  0.69874653  0.24172941  1
  F  F31  1  0.98638744  0.30125347  0.75827059  1
  F  F32  1  0.52523994  0.78406744  0.72742413  1
  F  F33  1  0.47476006  0.21593256  0.27257587  1
  F  F34  1  0.47476006  0.71593256  0.22742413  1
  F  F35  1  0.52523994  0.28406744  0.77257587  1
  F  F36  1  0.98915156  0.59018529  0.89348223  1
  F  F37  1  0.01084844  0.40981471  0.10651777  1
  F  F38  1  0.01084844  0.90981471  0.39348223  1
  F  F39  1  0.98915156  0.09018529  0.60651777  1
