# generated using pymatgen
data_FeNiAg2F7
_symmetry_space_group_name_H-M   'P 1'
_cell_length_a   7.53995799
_cell_length_b   7.54119014
_cell_length_c   7.54119014
_cell_angle_alpha   61.20009844
_cell_angle_beta   60.00540959
_cell_angle_gamma   60.00540959
_symmetry_Int_Tables_number   1
_chemical_formula_structural   FeNiAg2F7
_chemical_formula_sum   'Fe2 Ni2 Ag4 F14'
_cell_volume   305.88244630
_cell_formula_units_Z   2
loop_
 _symmetry_equiv_pos_site_id
 _symmetry_equiv_pos_as_xyz
  1  'x, y, z'
loop_
 _atom_site_type_symbol
 _atom_site_label
 _atom_site_symmetry_multiplicity
 _atom_site_fract_x
 _atom_site_fract_y
 _atom_site_fract_z
 _atom_site_occupancy
  Fe  Fe0  1  0.25025464  0.11227488  0.88772512  1
  Fe  Fe1  1  0.74974536  0.11227488  0.88772512  1
  Ni  Ni2  1  0.24987468  0.11201316  0.38823748  1
  Ni  Ni3  1  0.75012532  0.61176252  0.88798684  1
  Ag  Ag4  1  0.24850805  0.61368858  0.88929533  1
  Ag  Ag5  1  0.75149195  0.11070467  0.38631142  1
  Ag  Ag6  1  0.25105917  0.61239832  0.38760168  1
  Ag  Ag7  1  0.74894083  0.61239832  0.38760168  1
  F  F8  1  0.34456834  0.78865409  0.52220923  1
  F  F9  1  0.65543166  0.47779077  0.21134591  1
  F  F10  1  0.56757108  0.06881322  0.18868135  1
  F  F11  1  0.43242892  0.81131865  0.93118678  1
  F  F12  1  0.82506565  0.81131865  0.93118678  1
  F  F13  1  0.17493435  0.06881322  0.18868135  1
  F  F14  1  0.32605158  0.15560404  0.58666128  1
  F  F15  1  0.67394842  0.41333872  0.84439596  1
  F  F16  1  0.06831690  0.41333872  0.84439596  1
  F  F17  1  0.93168310  0.15560404  0.58666128  1
  F  F18  1  0.00000000  0.02377060  0.97622940  1
  F  F19  1  0.15391001  0.43712045  0.25505954  1
  F  F20  1  0.84608999  0.74494046  0.56287955  1
  F  F21  1  0.50000000  0.20155905  0.79844095  1
