# generated using pymatgen
data_Li3Yb(NO3)6
_symmetry_space_group_name_H-M   'P 1'
_cell_length_a   7.70786489
_cell_length_b   7.91083667
_cell_length_c   24.33059707
_cell_angle_alpha   91.43362520
_cell_angle_beta   90.00000000
_cell_angle_gamma   90.00000000
_symmetry_Int_Tables_number   1
_chemical_formula_structural   Li3Yb(NO3)6
_chemical_formula_sum   'Li12 Yb4 N24 O72'
_cell_volume   1483.10983065
_cell_formula_units_Z   4
loop_
 _symmetry_equiv_pos_site_id
 _symmetry_equiv_pos_as_xyz
  1  'x, y, z'
loop_
 _atom_site_type_symbol
 _atom_site_label
 _atom_site_symmetry_multiplicity
 _atom_site_fract_x
 _atom_site_fract_y
 _atom_site_fract_z
 _atom_site_occupancy
  Li  Li0  1  0.81536184  0.70658011  0.63222406  1
  Li  Li1  1  0.18463816  0.29341989  0.36777594  1
  Li  Li2  1  0.31536184  0.79341989  0.86777594  1
  Li  Li3  1  0.68463816  0.20658011  0.13222406  1
  Li  Li4  1  0.55771130  0.00453717  0.74526922  1
  Li  Li5  1  0.44228870  0.99546283  0.25473078  1
  Li  Li6  1  0.05771130  0.49546283  0.75473078  1
  Li  Li7  1  0.94228870  0.50453717  0.24526922  1
  Li  Li8  1  0.29166939  0.73966748  0.52810517  1
  Li  Li9  1  0.70833061  0.26033252  0.47189483  1
  Li  Li10  1  0.79166939  0.76033252  0.97189483  1
  Li  Li11  1  0.20833061  0.23966748  0.02810517  1
  Yb  Yb12  1  0.30638765  0.24469974  0.61084710  1
  Yb  Yb13  1  0.69361235  0.75530026  0.38915290  1
  Yb  Yb14  1  0.80638765  0.25530026  0.88915290  1
  Yb  Yb15  1  0.19361235  0.74469974  0.11084710  1
  N  N16  1  0.79823718  0.73555989  0.73496350  1
  N  N17  1  0.20176282  0.26444011  0.26503650  1
  N  N18  1  0.29823718  0.76444011  0.76503650  1
  N  N19  1  0.70176282  0.23555989  0.23496350  1
  N  N20  1  0.30204994  0.26113048  0.72981832  1
  N  N21  1  0.69795006  0.73886952  0.27018168  1
  N  N22  1  0.80204994  0.23886952  0.77018168  1
  N  N23  1  0.19795006  0.76113048  0.22981832  1
  N  N24  1  0.49065131  0.14506357  0.94646010  1
  N  N25  1  0.50934869  0.85493643  0.05353990  1
  N  N26  1  0.99065131  0.35493643  0.55353990  1
  N  N27  1  0.00934869  0.64506357  0.44646010  1
  N  N28  1  0.12955296  0.40177366  0.93637796  1
  N  N29  1  0.87044704  0.59822634  0.06362204  1
  N  N30  1  0.62955296  0.09822634  0.56362204  1
  N  N31  1  0.37044704  0.90177366  0.43637796  1
  N  N32  1  0.11454324  0.92466395  0.60644973  1
  N  N33  1  0.88545676  0.07533605  0.39355027  1
  N  N34  1  0.61454324  0.57533605  0.89355027  1
  N  N35  1  0.38545676  0.42466395  0.10644973  1
  N  N36  1  0.00735650  0.94543270  0.90257572  1
  N  N37  1  0.99264350  0.05456730  0.09742428  1
  N  N38  1  0.50735650  0.55456730  0.59742428  1
  N  N39  1  0.49264350  0.44543270  0.40257572  1
  O  O40  1  0.39657236  0.15494831  0.70276333  1
  O  O41  1  0.60342764  0.84505169  0.29723667  1
  O  O42  1  0.89657236  0.34505169  0.79723667  1
  O  O43  1  0.10342764  0.65494831  0.20276333  1
  O  O44  1  0.51872510  0.09089496  0.89787796  1
  O  O45  1  0.48127490  0.90910504  0.10212204  1
  O  O46  1  0.01872510  0.40910504  0.60212204  1
  O  O47  1  0.98127490  0.59089496  0.39787796  1
  O  O48  1  0.60077745  0.24323881  0.96872102  1
  O  O49  1  0.39922255  0.75676119  0.03127898  1
  O  O50  1  0.10077745  0.25676119  0.53127898  1
  O  O51  1  0.89922255  0.74323881  0.46872102  1
  O  O52  1  0.30017997  0.26885518  0.78058804  1
  O  O53  1  0.69982003  0.73114482  0.21941196  1
  O  O54  1  0.80017997  0.23114482  0.71941196  1
  O  O55  1  0.19982003  0.76885518  0.28058804  1
  O  O56  1  0.26542773  0.45911424  0.95750333  1
  O  O57  1  0.73457227  0.54088576  0.04249667  1
  O  O58  1  0.76542773  0.04088576  0.54249667  1
  O  O59  1  0.23457227  0.95911424  0.45750333  1
  O  O60  1  0.05083966  0.05270292  0.86755683  1
  O  O61  1  0.94916034  0.94729708  0.13244317  1
  O  O62  1  0.55083966  0.44729708  0.63244317  1
  O  O63  1  0.44916034  0.55270292  0.36755683  1
  O  O64  1  0.35611240  0.10094514  0.97152885  1
  O  O65  1  0.64388760  0.89905486  0.02847115  1
  O  O66  1  0.85611240  0.39905486  0.52847115  1
  O  O67  1  0.14388760  0.60094514  0.47152885  1
  O  O68  1  0.29646005  0.75445515  0.71409691  1
  O  O69  1  0.70353995  0.24554485  0.28590309  1
  O  O70  1  0.79646005  0.74554485  0.78590309  1
  O  O71  1  0.20353995  0.25445515  0.21409691  1
  O  O72  1  0.63518293  0.46958917  0.42896014  1
  O  O73  1  0.36481707  0.53041083  0.57103986  1
  O  O74  1  0.13518293  0.03041083  0.07103986  1
  O  O75  1  0.86481707  0.96958917  0.92896014  1
  O  O76  1  0.03238347  0.78937572  0.59870373  1
  O  O77  1  0.96761653  0.21062428  0.40129627  1
  O  O78  1  0.53238347  0.71062428  0.90129627  1
  O  O79  1  0.46761653  0.28937572  0.09870373  1
  O  O80  1  0.02857350  0.30824042  0.96486786  1
  O  O81  1  0.97142650  0.69175958  0.03513214  1
  O  O82  1  0.52857350  0.19175958  0.53513214  1
  O  O83  1  0.47142650  0.80824042  0.46486786  1
  O  O84  1  0.08758790  0.43071867  0.88765548  1
  O  O85  1  0.91241210  0.56928133  0.11234452  1
  O  O86  1  0.58758790  0.06928133  0.61234452  1
  O  O87  1  0.41241210  0.93071867  0.38765548  1
  O  O88  1  0.20864108  0.35999061  0.70099629  1
  O  O89  1  0.79135892  0.64000939  0.29900371  1
  O  O90  1  0.70864108  0.14000939  0.79900371  1
  O  O91  1  0.29135892  0.85999061  0.20099629  1
  O  O92  1  0.59874820  0.68144978  0.58762312  1
  O  O93  1  0.40125180  0.31855022  0.41237688  1
  O  O94  1  0.09874820  0.81855022  0.91237688  1
  O  O95  1  0.90125180  0.18144978  0.08762312  1
  O  O96  1  0.06307135  0.04266057  0.63792806  1
  O  O97  1  0.93692865  0.95733943  0.36207194  1
  O  O98  1  0.56307135  0.45733943  0.86207194  1
  O  O99  1  0.43692865  0.54266057  0.13792806  1
  O  O100  1  0.25837534  0.94473776  0.58068561  1
  O  O101  1  0.74162466  0.05526224  0.41931439  1
  O  O102  1  0.75837534  0.55526224  0.91931439  1
  O  O103  1  0.24162466  0.44473776  0.08068561  1
  O  O104  1  0.39161298  0.87407089  0.79101364  1
  O  O105  1  0.60838702  0.12592911  0.20898636  1
  O  O106  1  0.89161298  0.62592911  0.70898636  1
  O  O107  1  0.10838702  0.37407089  0.29101364  1
  O  O108  1  0.70791451  0.83347918  0.70533110  1
  O  O109  1  0.29208549  0.16652082  0.29466890  1
  O  O110  1  0.20791451  0.66652082  0.79466890  1
  O  O111  1  0.79208549  0.33347918  0.20533110  1
