# generated using pymatgen
data_Ba4Ti4O9
_symmetry_space_group_name_H-M   'P 1'
_cell_length_a   8.01917516
_cell_length_b   24.43244607
_cell_length_c   7.01617319
_cell_angle_alpha   48.88791636
_cell_angle_beta   55.14665558
_cell_angle_gamma   80.55451576
_symmetry_Int_Tables_number   1
_chemical_formula_structural   Ba4Ti4O9
_chemical_formula_sum   'Ba12 Ti12 O27'
_cell_volume   798.56505378
_cell_formula_units_Z   3
loop_
 _symmetry_equiv_pos_site_id
 _symmetry_equiv_pos_as_xyz
  1  'x, y, z'
loop_
 _atom_site_type_symbol
 _atom_site_label
 _atom_site_symmetry_multiplicity
 _atom_site_fract_x
 _atom_site_fract_y
 _atom_site_fract_z
 _atom_site_occupancy
  Ba  Ba0  1  0.00122004  0.00018431  0.99359345  1
  Ba  Ba1  1  0.50500220  0.00018431  0.99359345  1
  Ba  Ba2  1  0.42196972  0.16870528  0.99294608  1
  Ba  Ba3  1  0.33915709  0.33365470  0.99241194  1
  Ba  Ba4  1  0.25461034  0.50208325  0.99312485  1
  Ba  Ba5  1  0.17264767  0.66706776  0.99265499  1
  Ba  Ba6  1  0.08762342  0.83542504  0.99250295  1
  Ba  Ba7  1  0.91637992  0.16870528  0.99294608  1
  Ba  Ba8  1  0.83477528  0.33365470  0.99241194  1
  Ba  Ba9  1  0.75018156  0.50208325  0.99312485  1
  Ba  Ba10  1  0.66763058  0.66706776  0.99265499  1
  Ba  Ba11  1  0.58444759  0.83542504  0.99250295  1
  Ti  Ti12  1  0.40554740  0.16308247  0.52582373  1
  Ti  Ti13  1  0.33756036  0.33533986  0.48953842  1
  Ti  Ti14  1  0.23912194  0.49593066  0.52582546  1
  Ti  Ti15  1  0.16856652  0.66787270  0.49499525  1
  Ti  Ti16  1  0.07278942  0.82984106  0.52457911  1
  Ti  Ti17  1  0.92111054  0.16813575  0.48964418  1
  Ti  Ti18  1  0.68472790  0.67292301  0.45762218  1
  Ti  Ti19  1  0.85093425  0.34006180  0.45806870  1
  Ti  Ti20  1  0.75200190  0.50053036  0.49546583  1
  Ti  Ti21  1  0.58809956  0.83469097  0.48910891  1
  Ti  Ti22  1  0.50175250  0.00121450  0.49528050  1
  Ti  Ti23  1  0.01656756  0.00589666  0.46096822  1
  O  O24  1  0.25047740  0.99952804  0.50282882  1
  O  O25  1  0.17399622  0.17010382  0.48041490  1
  O  O26  1  0.08331100  0.33268108  0.50350522  1
  O  O27  1  0.00614485  0.50304440  0.48211537  1
  O  O28  1  0.46605648  0.08577255  0.48211448  1
  O  O29  1  0.38290949  0.25357440  0.48060762  1
  O  O30  1  0.21576425  0.58672986  0.48174163  1
  O  O31  1  0.13260944  0.75191730  0.48286482  1
  O  O32  1  0.29934778  0.41922916  0.48207428  1
  O  O33  1  0.04486975  0.91789910  0.49236040  1
  O  O34  1  0.21114931  0.08528264  0.99241875  1
  O  O35  1  0.04424946  0.41770207  0.99379801  1
  O  O36  1  0.74716674  0.99952804  0.50282882  1
  O  O37  1  0.34217037  0.83621124  0.48281264  1
  O  O38  1  0.67548406  0.17010382  0.48041490  1
  O  O39  1  0.58050270  0.33268108  0.50350522  1
  O  O40  1  0.50869638  0.50304440  0.48211537  1
  O  O41  1  0.41409446  0.66561498  0.50529433  1
  O  O42  1  0.95676888  0.08378641  0.50267583  1
  O  O43  1  0.87363580  0.24894728  0.50378211  1
  O  O44  1  0.70641427  0.58218255  0.50498891  1
  O  O45  1  0.62312067  0.74995149  0.50380816  1
  O  O46  1  0.79004355  0.41651139  0.50340051  1
  O  O47  1  0.54445433  0.91780217  0.49328817  1
  O  O48  1  0.91499522  0.66561498  0.50529433  1
  O  O49  1  0.83880574  0.83621124  0.48281264  1
  O  O50  1  0.87708613  0.75008403  0.99574472  1
