# generated using pymatgen
data_Ho12Ni6Pb
_symmetry_space_group_name_H-M   'P 1'
_cell_length_a   8.36387274
_cell_length_b   8.36387274
_cell_length_c   8.36387274
_cell_angle_alpha   109.47122063
_cell_angle_beta   109.47122063
_cell_angle_gamma   109.47122063
_symmetry_Int_Tables_number   1
_chemical_formula_structural   Ho12Ni6Pb
_chemical_formula_sum   'Ho12 Ni6 Pb1'
_cell_volume   450.40204992
_cell_formula_units_Z   1
loop_
 _symmetry_equiv_pos_site_id
 _symmetry_equiv_pos_as_xyz
  1  'x, y, z'
loop_
 _atom_site_type_symbol
 _atom_site_label
 _atom_site_symmetry_multiplicity
 _atom_site_fract_x
 _atom_site_fract_y
 _atom_site_fract_z
 _atom_site_occupancy
  Ho  Ho0  1  0.81129356  0.69595014  0.50724370  1
  Ho  Ho1  1  0.18870644  0.30404986  0.49275630  1
  Ho  Ho2  1  0.18870644  0.69595014  0.88465659  1
  Ho  Ho3  1  0.81129356  0.30404986  0.11534341  1
  Ho  Ho4  1  0.69595014  0.50724370  0.81129356  1
  Ho  Ho5  1  0.30404986  0.49275630  0.18870644  1
  Ho  Ho6  1  0.69595014  0.88465659  0.18870644  1
  Ho  Ho7  1  0.30404986  0.11534341  0.81129356  1
  Ho  Ho8  1  0.50724370  0.81129356  0.69595014  1
  Ho  Ho9  1  0.49275630  0.18870644  0.30404986  1
  Ho  Ho10  1  0.11534341  0.81129356  0.30404986  1
  Ho  Ho11  1  0.88465659  0.18870644  0.69595014  1
  Ni  Ni12  1  0.87668998  0.37668998  0.50000000  1
  Ni  Ni13  1  0.12331002  0.62331002  0.50000000  1
  Ni  Ni14  1  0.37668998  0.50000000  0.87668998  1
  Ni  Ni15  1  0.62331002  0.50000000  0.12331002  1
  Ni  Ni16  1  0.50000000  0.87668998  0.37668998  1
  Ni  Ni17  1  0.50000000  0.12331002  0.62331002  1
  Pb  Pb18  1  -0.00000000  -0.00000000  -0.00000000  1
