# generated using pymatgen
data_HfTlF5
_symmetry_space_group_name_H-M   'P 1'
_cell_length_a   7.67198904
_cell_length_b   7.96730388
_cell_length_c   7.98842075
_cell_angle_alpha   90.00000000
_cell_angle_beta   116.96161137
_cell_angle_gamma   90.00000000
_symmetry_Int_Tables_number   1
_chemical_formula_structural   HfTlF5
_chemical_formula_sum   'Hf4 Tl4 F20'
_cell_volume   435.22046654
_cell_formula_units_Z   4
loop_
 _symmetry_equiv_pos_site_id
 _symmetry_equiv_pos_as_xyz
  1  'x, y, z'
loop_
 _atom_site_type_symbol
 _atom_site_label
 _atom_site_symmetry_multiplicity
 _atom_site_fract_x
 _atom_site_fract_y
 _atom_site_fract_z
 _atom_site_occupancy
  Hf  Hf0  1  0.00900538  0.16220359  0.34085439  1
  Hf  Hf1  1  0.99099462  0.83779641  0.65914561  1
  Hf  Hf2  1  0.99099462  0.66220359  0.15914561  1
  Hf  Hf3  1  0.00900538  0.33779641  0.84085439  1
  Tl  Tl4  1  0.56903502  0.47130832  0.29664924  1
  Tl  Tl5  1  0.43096498  0.52869168  0.70335076  1
  Tl  Tl6  1  0.43096498  0.97130832  0.20335076  1
  Tl  Tl7  1  0.56903502  0.02869168  0.79664924  1
  F  F8  1  0.72619924  0.20856372  0.16308534  1
  F  F9  1  0.27380076  0.79143628  0.83691466  1
  F  F10  1  0.27380076  0.70856372  0.33691466  1
  F  F11  1  0.72619924  0.29143628  0.66308534  1
  F  F12  1  0.00486654  0.43686261  0.28909373  1
  F  F13  1  0.99513346  0.56313739  0.71090627  1
  F  F14  1  0.99513346  0.93686261  0.21090627  1
  F  F15  1  0.00486654  0.06313739  0.78909373  1
  F  F16  1  0.01224916  0.20992667  0.06497673  1
  F  F17  1  0.98775084  0.79007333  0.93502327  1
  F  F18  1  0.98775084  0.70992667  0.43502327  1
  F  F19  1  0.01224916  0.29007333  0.56497673  1
  F  F20  1  0.17180705  0.50543533  0.07107329  1
  F  F21  1  0.82819295  0.49456467  0.92892671  1
  F  F22  1  0.82819295  0.00543533  0.42892671  1
  F  F23  1  0.17180705  0.99456467  0.57107329  1
  F  F24  1  0.29272548  0.20676885  0.41289726  1
  F  F25  1  0.70727452  0.79323115  0.58710274  1
  F  F26  1  0.70727452  0.70676885  0.08710274  1
  F  F27  1  0.29272548  0.29323115  0.91289726  1
