# generated using pymatgen
data_Ho5(SiSb)2
_symmetry_space_group_name_H-M   'P 1'
_cell_length_a   7.81632470
_cell_length_b   7.84007712
_cell_length_c   8.49989719
_cell_angle_alpha   90.00000000
_cell_angle_beta   117.37351660
_cell_angle_gamma   90.00000000
_symmetry_Int_Tables_number   1
_chemical_formula_structural   Ho5(SiSb)2
_chemical_formula_sum   'Ho10 Si4 Sb4'
_cell_volume   462.55487388
_cell_formula_units_Z   2
loop_
 _symmetry_equiv_pos_site_id
 _symmetry_equiv_pos_as_xyz
  1  'x, y, z'
loop_
 _atom_site_type_symbol
 _atom_site_label
 _atom_site_symmetry_multiplicity
 _atom_site_fract_x
 _atom_site_fract_y
 _atom_site_fract_z
 _atom_site_occupancy
  Ho  Ho0  1  0.29087308  0.33544703  0.25116495  1
  Ho  Ho1  1  0.70912692  0.66455297  0.74883505  1
  Ho  Ho2  1  0.20912692  0.83544703  0.74883505  1
  Ho  Ho3  1  0.53970813  0.16455297  0.74883505  1
  Ho  Ho4  1  0.79087308  0.16455297  0.25116495  1
  Ho  Ho5  1  0.46029187  0.83544703  0.25116495  1
  Ho  Ho6  1  0.96029187  0.66455297  0.25116495  1
  Ho  Ho7  1  0.03970813  0.33544703  0.74883505  1
  Ho  Ho8  1  0.00000000  -0.00000000  0.00000000  1
  Ho  Ho9  1  0.50000000  0.50000000  0.00000000  1
  Si  Si10  1  0.36685632  0.13210029  0.00000000  1
  Si  Si11  1  0.63314368  0.86789971  0.00000000  1
  Si  Si12  1  0.13314368  0.63210029  0.00000000  1
  Si  Si13  1  0.86685632  0.36789971  0.00000000  1
  Sb  Sb14  1  0.20564179  -0.00000000  0.41128358  1
  Sb  Sb15  1  0.79435821  0.00000000  0.58871642  1
  Sb  Sb16  1  0.29435821  0.50000000  0.58871642  1
  Sb  Sb17  1  0.70564179  0.50000000  0.41128358  1
