# generated using pymatgen
data_K2CeCl5
_symmetry_space_group_name_H-M   'P 1'
_cell_length_a   8.17483752
_cell_length_b   8.84946661
_cell_length_c   13.16798974
_cell_angle_alpha   90.00000000
_cell_angle_beta   90.00000000
_cell_angle_gamma   90.00000000
_symmetry_Int_Tables_number   1
_chemical_formula_structural   K2CeCl5
_chemical_formula_sum   'K8 Ce4 Cl20'
_cell_volume   952.61124542
_cell_formula_units_Z   4
loop_
 _symmetry_equiv_pos_site_id
 _symmetry_equiv_pos_as_xyz
  1  'x, y, z'
loop_
 _atom_site_type_symbol
 _atom_site_label
 _atom_site_symmetry_multiplicity
 _atom_site_fract_x
 _atom_site_fract_y
 _atom_site_fract_z
 _atom_site_occupancy
  K  K0  1  0.96805649  0.00022780  0.67369047  1
  K  K1  1  0.03194351  0.99977220  0.32630953  1
  K  K2  1  0.46805649  0.99977220  0.82630953  1
  K  K3  1  0.03194351  0.50022780  0.32630953  1
  K  K4  1  0.53194351  0.00022780  0.17369047  1
  K  K5  1  0.96805649  0.49977220  0.67369047  1
  K  K6  1  0.53194351  0.49977220  0.17369047  1
  K  K7  1  0.46805649  0.50022780  0.82630953  1
  Ce  Ce8  1  0.92568989  0.75000000  0.99607066  1
  Ce  Ce9  1  0.07431011  0.25000000  0.00392934  1
  Ce  Ce10  1  0.42568989  0.25000000  0.50392934  1
  Ce  Ce11  1  0.57431011  0.75000000  0.49607066  1
  Cl  Cl12  1  0.67508486  0.75000000  0.70190321  1
  Cl  Cl13  1  0.32491514  0.25000000  0.29809679  1
  Cl  Cl14  1  0.17508486  0.25000000  0.79809679  1
  Cl  Cl15  1  0.82491514  0.75000000  0.20190321  1
  Cl  Cl16  1  0.14048897  0.75000000  0.83007437  1
  Cl  Cl17  1  0.85951103  0.25000000  0.16992563  1
  Cl  Cl18  1  0.64048897  0.25000000  0.66992563  1
  Cl  Cl19  1  0.35951103  0.75000000  0.33007437  1
  Cl  Cl20  1  0.57968159  0.75000000  0.98938712  1
  Cl  Cl21  1  0.42031841  0.25000000  0.01061288  1
  Cl  Cl22  1  0.07968159  0.25000000  0.51061288  1
  Cl  Cl23  1  0.92031841  0.75000000  0.48938712  1
  Cl  Cl24  1  0.84421561  0.45998079  0.91527026  1
  Cl  Cl25  1  0.15578439  0.54001921  0.08472974  1
  Cl  Cl26  1  0.34421561  0.54001921  0.58472974  1
  Cl  Cl27  1  0.15578439  0.95998079  0.08472974  1
  Cl  Cl28  1  0.65578439  0.45998079  0.41527026  1
  Cl  Cl29  1  0.84421561  0.04001921  0.91527026  1
  Cl  Cl30  1  0.65578439  0.04001921  0.41527026  1
  Cl  Cl31  1  0.34421561  0.95998079  0.58472974  1
