# generated using pymatgen
data_Fe2H4NF6
_symmetry_space_group_name_H-M   'P 1'
_cell_length_a   7.26697867
_cell_length_b   7.57349155
_cell_length_c   10.15983176
_cell_angle_alpha   90.00000000
_cell_angle_beta   90.00000000
_cell_angle_gamma   90.00000000
_symmetry_Int_Tables_number   1
_chemical_formula_structural   Fe2H4NF6
_chemical_formula_sum   'Fe8 H16 N4 F24'
_cell_volume   559.16058044
_cell_formula_units_Z   4
loop_
 _symmetry_equiv_pos_site_id
 _symmetry_equiv_pos_as_xyz
  1  'x, y, z'
loop_
 _atom_site_type_symbol
 _atom_site_label
 _atom_site_symmetry_multiplicity
 _atom_site_fract_x
 _atom_site_fract_y
 _atom_site_fract_z
 _atom_site_occupancy
  Fe  Fe0  1  -0.00000000  0.00000000  0.00000000  1
  Fe  Fe1  1  0.50000000  -0.00000000  0.50000000  1
  Fe  Fe2  1  -0.00000000  0.50000000  0.00000000  1
  Fe  Fe3  1  0.50000000  0.50000000  0.50000000  1
  Fe  Fe4  1  0.20888830  0.25000000  0.26684612  1
  Fe  Fe5  1  0.79111170  0.75000000  0.73315388  1
  Fe  Fe6  1  0.29111170  0.75000000  0.76684612  1
  Fe  Fe7  1  0.70888830  0.25000000  0.23315388  1
  H  H8  1  0.14224015  0.25000000  0.62728841  1
  H  H9  1  0.85775985  0.75000000  0.37271159  1
  H  H10  1  0.35775985  0.75000000  0.12728841  1
  H  H11  1  0.64224015  0.25000000  0.87271159  1
  H  H12  1  0.05231297  0.63915910  0.33647441  1
  H  H13  1  0.94768703  0.36084090  0.66352559  1
  H  H14  1  0.44768703  0.36084090  0.83647441  1
  H  H15  1  0.94768703  0.13915910  0.66352559  1
  H  H16  1  0.55231297  0.63915910  0.16352559  1
  H  H17  1  0.05231297  0.86084090  0.33647441  1
  H  H18  1  0.55231297  0.86084090  0.16352559  1
  H  H19  1  0.44768703  0.13915910  0.83647441  1
  H  H20  1  0.46730765  0.25000000  0.98197037  1
  H  H21  1  0.53269235  0.75000000  0.01802963  1
  H  H22  1  0.03269235  0.75000000  0.48197037  1
  H  H23  1  0.96730765  0.25000000  0.51802963  1
  N  N24  1  0.00111988  0.25000000  0.61824304  1
  N  N25  1  0.99888012  0.75000000  0.38175696  1
  N  N26  1  0.49888012  0.75000000  0.11824304  1
  N  N27  1  0.50111988  0.25000000  0.88175696  1
  F  F28  1  0.44033199  0.25000000  0.15517694  1
  F  F29  1  0.55966801  0.75000000  0.84482306  1
  F  F30  1  0.05966801  0.75000000  0.65517694  1
  F  F31  1  0.94033199  0.25000000  0.34482306  1
  F  F32  1  0.26842643  0.06220793  0.41627222  1
  F  F33  1  0.73157357  0.93779207  0.58372778  1
  F  F34  1  0.23157357  0.93779207  0.91627222  1
  F  F35  1  0.73157357  0.56220793  0.58372778  1
  F  F36  1  0.76842643  0.06220793  0.08372778  1
  F  F37  1  0.26842643  0.43779207  0.41627222  1
  F  F38  1  0.76842643  0.43779207  0.08372778  1
  F  F39  1  0.23157357  0.56220793  0.91627222  1
  F  F40  1  0.56068973  0.25000000  0.53577568  1
  F  F41  1  0.43931027  0.75000000  0.46422432  1
  F  F42  1  0.93931027  0.75000000  0.03577568  1
  F  F43  1  0.06068973  0.25000000  0.96422432  1
  F  F44  1  0.12794109  0.48908545  0.16856938  1
  F  F45  1  0.87205891  0.51091455  0.83143062  1
  F  F46  1  0.37205891  0.51091455  0.66856938  1
  F  F47  1  0.87205891  0.98908545  0.83143062  1
  F  F48  1  0.62794109  0.48908545  0.33143062  1
  F  F49  1  0.12794109  0.01091455  0.16856938  1
  F  F50  1  0.62794109  0.01091455  0.33143062  1
  F  F51  1  0.37205891  0.98908545  0.66856938  1
