# generated using pymatgen
data_Er4CdIr
_symmetry_space_group_name_H-M   'P 1'
_cell_length_a   9.55505010
_cell_length_b   9.55505010
_cell_length_c   9.55505010
_cell_angle_alpha   60.00000000
_cell_angle_beta   60.00000000
_cell_angle_gamma   60.00000000
_symmetry_Int_Tables_number   1
_chemical_formula_structural   Er4CdIr
_chemical_formula_sum   'Er16 Cd4 Ir4'
_cell_volume   616.85616242
_cell_formula_units_Z   4
loop_
 _symmetry_equiv_pos_site_id
 _symmetry_equiv_pos_as_xyz
  1  'x, y, z'
loop_
 _atom_site_type_symbol
 _atom_site_label
 _atom_site_symmetry_multiplicity
 _atom_site_fract_x
 _atom_site_fract_y
 _atom_site_fract_z
 _atom_site_occupancy
  Er  Er0  1  0.65098583  0.65098583  0.65098583  1
  Er  Er1  1  0.04704252  0.65098583  0.65098583  1
  Er  Er2  1  0.65098583  0.04704252  0.65098583  1
  Er  Er3  1  0.65098583  0.65098583  0.04704252  1
  Er  Er4  1  0.81060499  0.81060499  0.18939501  1
  Er  Er5  1  0.18939501  0.18939501  0.81060499  1
  Er  Er6  1  0.81060499  0.18939501  0.81060499  1
  Er  Er7  1  0.18939501  0.81060499  0.18939501  1
  Er  Er8  1  0.18939501  0.81060499  0.81060499  1
  Er  Er9  1  0.81060499  0.18939501  0.18939501  1
  Er  Er10  1  0.43738845  0.43738845  0.06261155  1
  Er  Er11  1  0.06261155  0.06261155  0.43738845  1
  Er  Er12  1  0.43738845  0.06261155  0.43738845  1
  Er  Er13  1  0.06261155  0.43738845  0.06261155  1
  Er  Er14  1  0.06261155  0.43738845  0.43738845  1
  Er  Er15  1  0.43738845  0.06261155  0.06261155  1
  Cd  Cd16  1  0.41856253  0.41856253  0.41856253  1
  Cd  Cd17  1  0.74431240  0.41856253  0.41856253  1
  Cd  Cd18  1  0.41856253  0.74431240  0.41856253  1
  Cd  Cd19  1  0.41856253  0.41856253  0.74431240  1
  Ir  Ir20  1  0.85807462  0.85807462  0.85807462  1
  Ir  Ir21  1  0.42577613  0.85807462  0.85807462  1
  Ir  Ir22  1  0.85807462  0.42577613  0.85807462  1
  Ir  Ir23  1  0.85807462  0.85807462  0.42577613  1
