# generated using pymatgen
data_KGaSiO4
_symmetry_space_group_name_H-M   'P 1'
_cell_length_a   8.62135657
_cell_length_b   18.50583445
_cell_length_c   18.50583446
_cell_angle_alpha   120.00000080
_cell_angle_beta   90.00000000
_cell_angle_gamma   90.00000000
_symmetry_Int_Tables_number   1
_chemical_formula_structural   KGaSiO4
_chemical_formula_sum   'K24 Ga24 Si24 O96'
_cell_volume   2556.95792216
_cell_formula_units_Z   24
loop_
 _symmetry_equiv_pos_site_id
 _symmetry_equiv_pos_as_xyz
  1  'x, y, z'
loop_
 _atom_site_type_symbol
 _atom_site_label
 _atom_site_symmetry_multiplicity
 _atom_site_fract_x
 _atom_site_fract_y
 _atom_site_fract_z
 _atom_site_occupancy
  K  K0  1  0.98493360  0.99527066  0.52516589  1
  K  K1  1  0.98493360  0.52989523  0.00472934  1
  K  K2  1  0.48493360  0.00472934  0.47483411  1
  K  K3  1  0.98493360  0.47483411  0.47010477  1
  K  K4  1  0.48493360  0.47010477  0.99527066  1
  K  K5  1  0.48493360  0.52516589  0.52989523  1
  K  K6  1  0.97937108  0.66666700  0.33333300  1
  K  K7  1  0.47937108  0.33333300  0.66666700  1
  K  K8  1  0.98082640  0.80212497  0.13432978  1
  K  K9  1  0.98082640  0.33220482  0.19787503  1
  K  K10  1  0.48082640  0.19787503  0.86567022  1
  K  K11  1  0.98082640  0.86567022  0.66779518  1
  K  K12  1  0.48082640  0.66779518  0.80212497  1
  K  K13  1  0.48082640  0.13432978  0.33220482  1
  K  K14  1  0.47197871  0.66666700  0.33333300  1
  K  K15  1  0.97197871  0.33333300  0.66666700  1
  K  K16  1  0.98312668  0.66882508  0.85508933  1
  K  K17  1  0.98312668  0.18626425  0.33117492  1
  K  K18  1  0.48312668  0.33117492  0.14491067  1
  K  K19  1  0.98312668  0.14491067  0.81373575  1
  K  K20  1  0.48312668  0.81373575  0.66882508  1
  K  K21  1  0.48312668  0.85508933  0.18626425  1
  K  K22  1  0.99181950  0.00000000  0.00000000  1
  K  K23  1  0.49181950  0.00000000  0.00000000  1
  Ga  Ga24  1  0.68386585  0.50274800  0.82553096  1
  Ga  Ga25  1  0.68386585  0.32278296  0.49725200  1
  Ga  Ga26  1  0.18386585  0.49725200  0.17446904  1
  Ga  Ga27  1  0.68386585  0.17446904  0.67721704  1
  Ga  Ga28  1  0.18386585  0.67721704  0.50274800  1
  Ga  Ga29  1  0.18386585  0.82553096  0.32278296  1
  Ga  Ga30  1  0.68295165  0.65350875  0.16573058  1
  Ga  Ga31  1  0.68295165  0.51222183  0.34649125  1
  Ga  Ga32  1  0.18295165  0.34649125  0.83426942  1
  Ga  Ga33  1  0.68295165  0.83426942  0.48777817  1
  Ga  Ga34  1  0.18295165  0.48777817  0.65350875  1
  Ga  Ga35  1  0.18295165  0.16573058  0.51222183  1
  Ga  Ga36  1  0.79471441  0.66870886  0.66901626  1
  Ga  Ga37  1  0.79471441  0.00030740  0.33129114  1
  Ga  Ga38  1  0.29471441  0.33129114  0.33098374  1
  Ga  Ga39  1  0.79471441  0.33098374  0.99969260  1
  Ga  Ga40  1  0.29471441  0.99969260  0.66870886  1
  Ga  Ga41  1  0.29471441  0.66901626  0.00030740  1
  Ga  Ga42  1  0.66094186  0.83147091  0.99391560  1
  Ga  Ga43  1  0.66094186  0.16244469  0.16852909  1
  Ga  Ga44  1  0.16094186  0.16852909  0.00608440  1
  Ga  Ga45  1  0.66094186  0.00608440  0.83755531  1
  Ga  Ga46  1  0.16094186  0.83755531  0.83147091  1
  Ga  Ga47  1  0.16094186  0.99391560  0.16244469  1
  Si  Si48  1  0.80200840  0.82515472  0.32042397  1
  Si  Si49  1  0.80200840  0.49526925  0.17484528  1
  Si  Si50  1  0.30200840  0.17484528  0.67957603  1
  Si  Si51  1  0.80200840  0.67957603  0.50473075  1
  Si  Si52  1  0.30200840  0.50473075  0.82515472  1
  Si  Si53  1  0.30200840  0.32042397  0.49526925  1
  Si  Si54  1  0.77899122  0.99301553  0.15921429  1
  Si  Si55  1  0.77899122  0.16619876  0.00698447  1
  Si  Si56  1  0.27899122  0.00698447  0.84078571  1
  Si  Si57  1  0.77899122  0.84078571  0.83380124  1
  Si  Si58  1  0.27899122  0.83380124  0.99301553  1
  Si  Si59  1  0.27899122  0.15921429  0.16619876  1
  Si  Si60  1  0.68947633  0.66832589  0.00409369  1
  Si  Si61  1  0.68947633  0.33576781  0.33167411  1
  Si  Si62  1  0.18947633  0.33167411  0.99590631  1
  Si  Si63  1  0.68947633  0.99590631  0.66423219  1
  Si  Si64  1  0.18947633  0.66423219  0.66832589  1
  Si  Si65  1  0.18947633  0.00409369  0.33576781  1
  Si  Si66  1  0.80039279  0.49291624  0.65665590  1
  Si  Si67  1  0.80039279  0.16373967  0.50708376  1
  Si  Si68  1  0.30039279  0.50708376  0.34334410  1
  Si  Si69  1  0.80039279  0.34334410  0.83626033  1
  Si  Si70  1  0.30039279  0.83626033  0.49291624  1
  Si  Si71  1  0.30039279  0.65665590  0.16373967  1
  O  O72  1  0.76290828  0.73793768  0.98299760  1
  O  O73  1  0.76290828  0.24505992  0.26206232  1
  O  O74  1  0.26290828  0.26206232  0.01700240  1
  O  O75  1  0.76290828  0.01700240  0.75494008  1
  O  O76  1  0.26290828  0.75494008  0.73793768  1
  O  O77  1  0.26290828  0.98299760  0.24505992  1
  O  O78  1  0.75047655  0.57477023  0.93360091  1
  O  O79  1  0.75047655  0.35883068  0.42522977  1
  O  O80  1  0.25047655  0.42522977  0.06639909  1
  O  O81  1  0.75047655  0.06639909  0.64116932  1
  O  O82  1  0.25047655  0.64116932  0.57477023  1
  O  O83  1  0.25047655  0.93360091  0.35883068  1
  O  O84  1  0.76001576  0.68847249  0.09497907  1
  O  O85  1  0.76001576  0.40650658  0.31152751  1
  O  O86  1  0.26001576  0.31152751  0.90502093  1
  O  O87  1  0.76001576  0.90502093  0.59349342  1
  O  O88  1  0.26001576  0.59349342  0.68847249  1
  O  O89  1  0.26001576  0.09497907  0.40650658  1
  O  O90  1  0.71721107  0.56403356  0.64031711  1
  O  O91  1  0.71721107  0.07628355  0.43596644  1
  O  O92  1  0.21721107  0.43596644  0.35968289  1
  O  O93  1  0.71721107  0.35968289  0.92371645  1
  O  O94  1  0.21721107  0.92371645  0.56403356  1
  O  O95  1  0.21721107  0.64031711  0.07628355  1
  O  O96  1  0.70467457  0.73674222  0.27572289  1
  O  O97  1  0.70467457  0.53898067  0.26325778  1
  O  O98  1  0.20467457  0.26325778  0.72427711  1
  O  O99  1  0.70467457  0.72427711  0.46101933  1
  O  O100  1  0.20467457  0.46101933  0.73674222  1
  O  O101  1  0.20467457  0.27572289  0.53898067  1
  O  O102  1  0.95704687  0.95587482  0.14343770  1
  O  O103  1  0.95704687  0.18756288  0.04412518  1
  O  O104  1  0.45704687  0.04412518  0.85656230  1
  O  O105  1  0.95704687  0.85656230  0.81243712  1
  O  O106  1  0.45704687  0.81243712  0.95587482  1
  O  O107  1  0.45704687  0.14343770  0.18756288  1
  O  O108  1  0.72555912  0.74208767  0.77589699  1
  O  O109  1  0.72555912  0.03380932  0.25791233  1
  O  O110  1  0.22555912  0.25791233  0.22410301  1
  O  O111  1  0.72555912  0.22410301  0.96619068  1
  O  O112  1  0.22555912  0.96619068  0.74208767  1
  O  O113  1  0.22555912  0.77589699  0.03380932  1
  O  O114  1  0.76901869  0.86844728  0.93272551  1
  O  O115  1  0.76901869  0.06427823  0.13155272  1
  O  O116  1  0.26901869  0.13155272  0.06727449  1
  O  O117  1  0.76901869  0.06727449  0.93572177  1
  O  O118  1  0.26901869  0.93572177  0.86844728  1
  O  O119  1  0.26901869  0.93272551  0.06427823  1
  O  O120  1  0.80071807  0.86216995  0.42166232  1
  O  O121  1  0.80071807  0.55949237  0.13783005  1
  O  O122  1  0.30071807  0.13783005  0.57833768  1
  O  O123  1  0.80071807  0.57833768  0.44050763  1
  O  O124  1  0.30071807  0.44050763  0.86216995  1
  O  O125  1  0.30071807  0.42166232  0.55949237  1
  O  O126  1  0.97830023  0.47243219  0.61926363  1
  O  O127  1  0.97830023  0.14683144  0.52756781  1
  O  O128  1  0.47830023  0.52756781  0.38073637  1
  O  O129  1  0.97830023  0.38073637  0.85316856  1
  O  O130  1  0.47830023  0.85316856  0.47243219  1
  O  O131  1  0.47830023  0.61926363  0.14683144  1
  O  O132  1  0.00351582  0.66515422  0.67628827  1
  O  O133  1  0.00351582  0.01113405  0.33484578  1
  O  O134  1  0.50351582  0.33484578  0.32371173  1
  O  O135  1  0.00351582  0.32371173  0.98886595  1
  O  O136  1  0.50351582  0.98886595  0.66515422  1
  O  O137  1  0.50351582  0.67628827  0.01113405  1
  O  O138  1  0.65927735  0.91559977  0.10395999  1
  O  O139  1  0.65927735  0.18836022  0.08440023  1
  O  O140  1  0.15927735  0.08440023  0.89604001  1
  O  O141  1  0.65927735  0.89604001  0.81163978  1
  O  O142  1  0.15927735  0.81163978  0.91559977  1
  O  O143  1  0.15927735  0.10395999  0.18836022  1
  O  O144  1  0.80587210  0.52514164  0.75689835  1
  O  O145  1  0.80587210  0.23175672  0.47485836  1
  O  O146  1  0.30587210  0.47485836  0.24310165  1
  O  O147  1  0.80587210  0.24310165  0.76824328  1
  O  O148  1  0.30587210  0.76824328  0.52514164  1
  O  O149  1  0.30587210  0.75689835  0.23175672  1
  O  O150  1  0.70031917  0.40570449  0.60779896  1
  O  O151  1  0.70031917  0.20209447  0.59429551  1
  O  O152  1  0.20031917  0.59429551  0.39220104  1
  O  O153  1  0.70031917  0.39220104  0.79790553  1
  O  O154  1  0.20031917  0.79790553  0.40570449  1
  O  O155  1  0.20031917  0.60779896  0.20209447  1
  O  O156  1  0.98087701  0.80612717  0.28539341  1
  O  O157  1  0.98087701  0.47926625  0.19387283  1
  O  O158  1  0.48087701  0.19387283  0.71460659  1
  O  O159  1  0.98087701  0.71460659  0.52073375  1
  O  O160  1  0.48087701  0.52073375  0.80612717  1
  O  O161  1  0.48087701  0.28539341  0.47926625  1
  O  O162  1  0.72349039  0.89360052  0.29852010  1
  O  O163  1  0.72349039  0.40491958  0.10639948  1
  O  O164  1  0.22349039  0.10639948  0.70147990  1
  O  O165  1  0.72349039  0.70147990  0.59508042  1
  O  O166  1  0.22349039  0.59508042  0.89360052  1
  O  O167  1  0.22349039  0.29852010  0.40491958  1
