# generated using pymatgen
data_MgSiO3
_symmetry_space_group_name_H-M   'P 1'
_cell_length_a   10.04867298
_cell_length_b   10.04867262
_cell_length_c   20.06221451
_cell_angle_alpha   109.33855177
_cell_angle_beta   109.37710954
_cell_angle_gamma   109.76878127
_symmetry_Int_Tables_number   1
_chemical_formula_structural   MgSiO3
_chemical_formula_sum   'Mg32 Si32 O96'
_cell_volume   1558.07662803
_cell_formula_units_Z   32
loop_
 _symmetry_equiv_pos_site_id
 _symmetry_equiv_pos_as_xyz
  1  'x, y, z'
loop_
 _atom_site_type_symbol
 _atom_site_label
 _atom_site_symmetry_multiplicity
 _atom_site_fract_x
 _atom_site_fract_y
 _atom_site_fract_z
 _atom_site_occupancy
  Mg  Mg0  1  0.99867519  -0.00050129  0.74790978  1
  Mg  Mg1  1  0.99646639  0.49879718  0.74875401  1
  Mg  Mg2  1  0.12261220  0.87261220  0.62500000  1
  Mg  Mg3  1  0.00367915  0.50285563  0.50209022  1
  Mg  Mg4  1  0.22121651  0.60505236  0.68073682  1
  Mg  Mg5  1  0.10593593  0.24919336  0.69380963  1
  Mg  Mg6  1  0.24301157  0.13187099  0.93302548  1
  Mg  Mg7  1  0.37343708  0.62116204  0.87562288  1
  Mg  Mg8  1  0.00387632  0.50155318  0.25107945  1
  Mg  Mg9  1  0.13052430  0.88052430  0.12500000  1
  Mg  Mg10  1  0.36157410  0.71831667  0.55619037  1
  Mg  Mg11  1  0.24511898  0.62829008  0.18722864  1
  Mg  Mg12  1  0.12270643  0.25282360  0.18655130  1
  Mg  Mg13  1  0.25290810  0.13655899  0.43373257  1
  Mg  Mg14  1  0.62535682  0.26409155  0.94161377  1
  Mg  Mg15  1  0.36991629  0.62219132  0.37437712  1
  Mg  Mg16  1  0.49527875  0.99486032  0.24697598  1
  Mg  Mg17  1  1.00090836  1.00132679  0.00302402  1
  Mg  Mg18  1  0.50128917  0.49895838  0.50124599  1
  Mg  Mg19  1  0.62716125  0.37716125  0.62500000  1
  Mg  Mg20  1  0.37972100  0.74960384  0.06344870  1
  Mg  Mg21  1  0.74357873  0.85974287  0.56926318  1
  Mg  Mg22  1  0.89804525  0.75843659  0.81105748  1
  Mg  Mg23  1  0.76909384  0.38544295  0.81626743  1
  Mg  Mg24  1  0.63632164  0.27593030  0.43894252  1
  Mg  Mg25  1  0.88308790  0.11256672  0.87609084  1
  Mg  Mg26  1  0.49939428  0.50171741  0.99892055  1
  Mg  Mg27  1  0.62947076  0.37947076  0.12500000  1
  Mg  Mg28  1  0.75383281  0.87066171  0.06277136  1
  Mg  Mg29  1  0.88086401  0.74212928  0.30838623  1
  Mg  Mg30  1  0.76582003  0.37696060  0.31697452  1
  Mg  Mg31  1  0.86038504  0.13090621  0.37390916  1
  O  O32  1  0.09833190  0.90455732  0.94200135  1
  O  O33  1  0.11282907  0.91582501  0.81239232  1
  O  O34  1  0.09483820  0.19776292  0.99313671  1
  O  O35  1  0.03369000  0.63286024  0.61533598  1
  O  O36  1  0.32545921  0.81449375  0.96598921  1
  O  O37  1  0.00885302  0.37964667  0.64912374  1
  O  O38  1  0.08904020  0.19438137  0.85976882  1
  O  O39  1  0.12647466  0.40792369  0.80322661  1
  O  O40  1  0.22145672  0.69378304  0.79295239  1
  O  O41  1  0.08439926  0.90993695  0.44005232  1
  O  O42  1  0.30735512  0.53423522  0.95398979  1
  O  O43  1  0.31612618  0.90630736  0.75044863  1
  O  O44  1  0.14223160  0.72747252  0.51804113  1
  O  O45  1  0.10872410  0.92885776  0.31138919  1
  O  O46  1  0.38752234  0.99958049  0.65969872  1
  O  O47  1  0.56514064  0.88271333  0.94379244  1
  O  O48  1  0.21815988  0.51514721  0.56623612  1
  O  O49  1  0.19139026  0.10614933  0.73195887  1
  O  O50  1  0.09711933  0.18195522  0.49542886  1
  O  O51  1  0.41148274  0.28261448  0.89895173  1
  O  O52  1  0.29815879  0.41486519  0.66409016  1
  O  O53  1  0.48492468  0.67469738  0.80389090  1
  O  O54  1  0.39410602  0.40084637  0.79220639  1
  O  O55  1  0.01302615  0.62169061  0.09411555  1
  O  O56  1  0.31643358  0.80969323  0.45779361  1
  O  O57  1  0.47758068  0.80845776  0.69506824  1
  O  O58  1  0.60385356  0.63032865  0.95279686  1
  O  O59  1  0.18018305  0.06812490  0.59030128  1
  O  O60  1  0.02405601  0.40492268  0.15067034  1
  O  O61  1  0.07564378  0.17467049  0.34811569  1
  O  O62  1  0.40322617  0.02195212  0.91452140  1
  O  O63  1  0.12625564  0.39937553  0.29601021  1
  O  O64  1  0.22473493  0.69825984  0.29720314  1
  O  O65  1  0.30147047  0.52002144  0.44677339  1
  O  O66  1  0.27694035  0.87841698  0.23669895  1
  O  O67  1  0.58668486  0.96997846  0.58590984  1
  O  O68  1  0.12205441  0.68976360  0.00692258  1
  O  O69  1  0.80283476  0.91295168  0.89803515  1
  O  O70  1  0.39392559  0.36005839  0.54463753  1
  O  O71  1  0.52983230  0.20429461  0.80994768  1
  O  O72  1  0.59827189  0.59932812  0.71008493  1
  O  O73  1  0.50348574  0.32030380  0.69467339  1
  O  O74  1  0.69515830  0.57083064  0.83743028  1
  O  O75  1  0.58139919  0.71060554  0.60087626  1
  O  O76  1  0.37669853  0.97616875  0.13783317  1
  O  O77  1  0.56691558  0.87714288  0.44610910  1
  O  O78  1  0.18526175  0.51176306  0.05935688  1
  O  O79  1  0.17591845  0.10820925  0.24307742  1
  O  O80  1  0.80859129  0.89315989  0.76461992  1
  O  O81  1  0.80607938  0.48594571  0.93861081  1
  O  O82  1  0.43095702  0.11413895  0.55532661  1
  O  O83  1  0.61395772  0.01321580  0.84683716  1
  O  O84  1  0.40636417  0.28570909  0.40070900  1
  O  O85  1  0.31175981  0.43659421  0.16319048  1
  O  O86  1  0.49512846  0.67755576  0.30620756  1
  O  O87  1  0.38251534  0.39348080  0.28401079  1
  O  O88  1  0.47209362  0.77375980  0.18492395  1
  O  O89  1  0.60787825  0.63555194  0.45704761  1
  O  O90  1  0.20050242  0.10103219  0.11216683  1
  O  O91  1  0.87228304  0.30698612  0.99068871  1
  O  O92  1  0.39597009  0.02029774  0.41256972  1
  O  O93  1  0.69109751  0.10626162  0.75457114  1
  O  O94  1  0.69474282  0.46533640  0.54961579  1
  O  O95  1  0.77078332  0.30465053  0.70536247  1
  O  O96  1  0.86610481  0.59551123  0.70038421  1
  O  O97  1  0.61021325  0.98537884  0.08680952  1
  O  O98  1  0.90218827  0.80301803  0.63466402  1
  O  O99  1  0.98429110  0.60494618  0.84929100  1
  O  O100  1  0.81954147  0.92028339  0.40316284  1
  O  O101  1  0.39488891  0.37667042  0.04567442  1
  O  O102  1  0.52055461  0.21432920  0.30799865  1
  O  O103  1  0.67915827  0.17810204  0.53991507  1
  O  O104  1  0.97843911  0.37941239  0.90188431  1
  O  O105  1  0.62230724  0.60693553  0.21370712  1
  O  O106  1  0.51576146  0.32669350  0.19479030  1
  O  O107  1  0.69290932  0.57418338  0.33547860  1
  O  O108  1  0.60358199  0.72271532  0.09932966  1
  O  O109  1  0.90541010  0.81522892  0.49955137  1
  O  O110  1  0.82560870  0.89090563  0.25931129  1
  O  O111  1  0.79104037  0.48804443  0.43760768  1
  O  O112  1  0.43711291  0.12618087  0.05520970  1
  O  O113  1  0.61688138  0.00676446  0.35196485  1
  O  O114  1  0.88267496  0.08568763  0.68376388  1
  O  O115  1  0.86392006  0.27935146  0.48538008  1
  O  O116  1  0.71148950  0.10856478  0.25686329  1
  O  O117  1  0.69618365  0.47936858  0.05014766  1
  O  O118  1  0.91832129  0.08744421  0.55493176  1
  O  O119  1  0.78532158  0.30354007  0.20432558  1
  O  O120  1  0.87907326  0.59588833  0.19985234  1
  O  O121  1  0.93345951  0.82479505  0.15588445  1
  O  O122  1  0.98471101  0.61357927  0.35104827  1
  O  O123  1  0.67952128  0.19489299  0.03629288  1
  O  O124  1  0.97484374  0.36950257  0.39023118  1
  O  O125  1  0.90501907  0.80354244  0.01330105  1
  O  O126  1  0.89304929  0.06654799  0.19064312  1
  O  O127  1  0.90391190  0.10224572  0.06507605  1
  Si  Si128  1  0.12976908  0.75518498  0.94027389  1
  Si  Si129  1  0.12789403  0.37897843  0.87952415  1
  Si  Si130  1  0.26098822  0.88021503  0.81689808  1
  Si  Si131  1  0.12902335  0.76281142  0.44277431  1
  Si  Si132  1  0.50242707  0.00453774  0.75224229  1
  Si  Si133  1  0.00005317  0.99794249  0.49775771  1
  Si  Si134  1  0.11993013  0.36884574  0.37047585  1
  Si  Si135  1  0.61851922  0.87134333  0.87269784  1
  Si  Si136  1  0.25519781  0.36992192  0.56816404  1
  Si  Si137  1  0.25498775  0.87953151  0.31392244  1
  Si  Si138  1  0.37726280  0.24347473  0.80722569  1
  Si  Si139  1  0.99746279  0.49898090  0.99889751  1
  Si  Si140  1  0.49728041  0.49889507  0.75094316  1
  Si  Si141  1  0.62015720  0.75600378  0.69388401  1
  Si  Si142  1  0.75168663  0.62714287  0.93607756  1
  Si  Si143  1  0.37519599  0.12519599  0.62500000  1
  Si  Si144  1  0.62594765  0.87312353  0.37730216  1
  Si  Si145  1  0.24828484  0.37753572  0.06391906  1
  Si  Si146  1  0.37463719  0.24922129  0.30972611  1
  Si  Si147  1  0.50246759  0.50069782  0.24922309  1
  Si  Si148  1  0.49700875  0.99539409  0.49905684  1
  Si  Si149  1  0.62727305  0.75097964  0.18818950  1
  Si  Si150  1  0.73359385  0.11886973  0.68183596  1
  Si  Si151  1  0.74641886  0.62719206  0.43310192  1
  Si  Si152  1  0.37913824  0.12913824  0.12500000  1
  Si  Si153  1  0.87445424  0.62445424  0.62500000  1
  Si  Si154  1  0.86823576  0.23238918  0.55611599  1
  Si  Si155  1  0.00118587  0.99966776  0.25110249  1
  Si  Si156  1  0.50225164  0.00402142  0.00077691  1
  Si  Si157  1  0.74969760  0.12044671  0.18608094  1
  Si  Si158  1  0.87784316  0.62784316  0.12500000  1
  Si  Si159  1  0.87460065  0.25089406  0.06181050  1
