# generated using pymatgen
data_HoCo5Si3
_symmetry_space_group_name_H-M   'P 1'
_cell_length_a   3.66450255
_cell_length_b   14.67757514
_cell_length_c   14.67757514
_cell_angle_alpha   120.00000151
_cell_angle_beta   90.00000000
_cell_angle_gamma   90.00000000
_symmetry_Int_Tables_number   1
_chemical_formula_structural   HoCo5Si3
_chemical_formula_sum   'Ho6 Co30 Si18'
_cell_volume   683.68220757
_cell_formula_units_Z   6
loop_
 _symmetry_equiv_pos_site_id
 _symmetry_equiv_pos_as_xyz
  1  'x, y, z'
loop_
 _atom_site_type_symbol
 _atom_site_label
 _atom_site_symmetry_multiplicity
 _atom_site_fract_x
 _atom_site_fract_y
 _atom_site_fract_z
 _atom_site_occupancy
  Ho  Ho0  1  0.75000000  0.70594834  0.09978607  1
  Ho  Ho1  1  0.25000000  0.29405166  0.90021393  1
  Ho  Ho2  1  0.75000000  0.39383773  0.29405166  1
  Ho  Ho3  1  0.25000000  0.60616227  0.70594834  1
  Ho  Ho4  1  0.75000000  0.90021393  0.60616227  1
  Ho  Ho5  1  0.25000000  0.09978607  0.39383773  1
  Co  Co6  1  0.75000000  0.90198656  0.02872756  1
  Co  Co7  1  0.25000000  0.09801344  0.97127244  1
  Co  Co8  1  0.75000000  0.12674101  0.09801344  1
  Co  Co9  1  0.25000000  0.87325899  0.90198656  1
  Co  Co10  1  0.75000000  0.97127244  0.87325899  1
  Co  Co11  1  0.25000000  0.02872756  0.12674101  1
  Co  Co12  1  0.75000000  0.58676899  0.85199963  1
  Co  Co13  1  0.25000000  0.41323101  0.14800037  1
  Co  Co14  1  0.75000000  0.26523064  0.41323101  1
  Co  Co15  1  0.25000000  0.73476936  0.58676899  1
  Co  Co16  1  0.75000000  0.14800037  0.73476936  1
  Co  Co17  1  0.25000000  0.85199963  0.26523064  1
  Co  Co18  1  0.75000000  0.95210116  0.21827162  1
  Co  Co19  1  0.25000000  0.04789884  0.78172838  1
  Co  Co20  1  0.75000000  0.26617046  0.04789884  1
  Co  Co21  1  0.25000000  0.73382954  0.95210116  1
  Co  Co22  1  0.75000000  0.78172838  0.73382954  1
  Co  Co23  1  0.25000000  0.21827162  0.26617046  1
  Co  Co24  1  0.75000000  0.77439920  0.34702165  1
  Co  Co25  1  0.25000000  0.22560080  0.65297835  1
  Co  Co26  1  0.75000000  0.57262246  0.22560080  1
  Co  Co27  1  0.25000000  0.42737754  0.77439920  1
  Co  Co28  1  0.75000000  0.65297835  0.42737754  1
  Co  Co29  1  0.25000000  0.34702165  0.57262246  1
  Co  Co30  1  0.75000000  0.45956699  0.53405596  1
  Co  Co31  1  0.25000000  0.54043301  0.46594404  1
  Co  Co32  1  0.75000000  0.07448896  0.54043301  1
  Co  Co33  1  0.25000000  0.92551104  0.45956699  1
  Co  Co34  1  0.75000000  0.46594404  0.92551104  1
  Co  Co35  1  0.25000000  0.53405596  0.07448896  1
  Si  Si36  1  0.75000000  0.93718707  0.36900047  1
  Si  Si37  1  0.25000000  0.06281293  0.63099953  1
  Si  Si38  1  0.75000000  0.43181341  0.06281293  1
  Si  Si39  1  0.25000000  0.56818659  0.93718707  1
  Si  Si40  1  0.75000000  0.63099953  0.56818659  1
  Si  Si41  1  0.25000000  0.36900047  0.43181341  1
  Si  Si42  1  0.75000000  0.44313440  0.68118524  1
  Si  Si43  1  0.25000000  0.55686560  0.31881476  1
  Si  Si44  1  0.75000000  0.23805084  0.55686560  1
  Si  Si45  1  0.25000000  0.76194916  0.44313440  1
  Si  Si46  1  0.75000000  0.31881476  0.76194916  1
  Si  Si47  1  0.25000000  0.68118524  0.23805084  1
  Si  Si48  1  0.75000000  0.75298671  0.87065244  1
  Si  Si49  1  0.25000000  0.24701329  0.12934756  1
  Si  Si50  1  0.75000000  0.11766573  0.24701329  1
  Si  Si51  1  0.25000000  0.88233427  0.75298671  1
  Si  Si52  1  0.75000000  0.12934756  0.88233427  1
  Si  Si53  1  0.25000000  0.87065244  0.11766573  1
