# generated using pymatgen
data_Gd3SiBr3
_symmetry_space_group_name_H-M   'P 1'
_cell_length_a   10.23737990
_cell_length_b   10.23737990
_cell_length_c   10.23737990
_cell_angle_alpha   109.47122063
_cell_angle_beta   109.47122063
_cell_angle_gamma   109.47122063
_symmetry_Int_Tables_number   1
_chemical_formula_structural   Gd3SiBr3
_chemical_formula_sum   'Gd12 Si4 Br12'
_cell_volume   825.93252454
_cell_formula_units_Z   4
loop_
 _symmetry_equiv_pos_site_id
 _symmetry_equiv_pos_as_xyz
  1  'x, y, z'
loop_
 _atom_site_type_symbol
 _atom_site_label
 _atom_site_symmetry_multiplicity
 _atom_site_fract_x
 _atom_site_fract_y
 _atom_site_fract_z
 _atom_site_occupancy
  Gd  Gd0  1  0.76298460  0.51298460  0.52596920  1
  Gd  Gd1  1  0.73701540  0.76298460  0.25000000  1
  Gd  Gd2  1  0.51298460  0.98701540  0.25000000  1
  Gd  Gd3  1  0.51298460  0.52596920  0.76298460  1
  Gd  Gd4  1  0.76298460  0.25000000  0.73701540  1
  Gd  Gd5  1  0.98701540  0.73701540  0.97403080  1
  Gd  Gd6  1  0.73701540  0.97403080  0.98701540  1
  Gd  Gd7  1  0.98701540  0.25000000  0.51298460  1
  Gd  Gd8  1  0.52596920  0.76298460  0.51298460  1
  Gd  Gd9  1  0.25000000  0.51298460  0.98701540  1
  Gd  Gd10  1  0.97403080  0.98701540  0.73701540  1
  Gd  Gd11  1  0.25000000  0.73701540  0.76298460  1
  Si  Si12  1  0.75000000  0.75000000  0.75000000  1
  Si  Si13  1  0.75000000  0.00000000  0.50000000  1
  Si  Si14  1  0.50000000  0.75000000  -0.00000000  1
  Si  Si15  1  0.00000000  0.50000000  0.75000000  1
  Br  Br16  1  0.25471375  0.24528625  0.75000000  1
  Br  Br17  1  0.24528625  0.49528625  0.49057250  1
  Br  Br18  1  0.00471375  0.25471375  0.00942750  1
  Br  Br19  1  0.24528625  0.75000000  0.25471375  1
  Br  Br20  1  0.25471375  0.00942750  0.00471375  1
  Br  Br21  1  0.49528625  0.00471375  0.75000000  1
  Br  Br22  1  0.49528625  0.49057250  0.24528625  1
  Br  Br23  1  0.00471375  0.75000000  0.49528625  1
  Br  Br24  1  0.75000000  0.25471375  0.24528625  1
  Br  Br25  1  0.00942750  0.00471375  0.25471375  1
  Br  Br26  1  0.75000000  0.49528625  0.00471375  1
  Br  Br27  1  0.49057250  0.24528625  0.49528625  1
