# generated using pymatgen
data_Fe2Ni3H4(Se3O10)2
_symmetry_space_group_name_H-M   'P 1'
_cell_length_a   6.53449502
_cell_length_b   8.07049958
_cell_length_c   8.94480026
_cell_angle_alpha   85.33614920
_cell_angle_beta   78.36098118
_cell_angle_gamma   76.49827608
_symmetry_Int_Tables_number   1
_chemical_formula_structural   Fe2Ni3H4(Se3O10)2
_chemical_formula_sum   'Fe2 Ni3 H4 Se6 O20'
_cell_volume   448.96050586
_cell_formula_units_Z   1
loop_
 _symmetry_equiv_pos_site_id
 _symmetry_equiv_pos_as_xyz
  1  'x, y, z'
loop_
 _atom_site_type_symbol
 _atom_site_label
 _atom_site_symmetry_multiplicity
 _atom_site_fract_x
 _atom_site_fract_y
 _atom_site_fract_z
 _atom_site_occupancy
  Fe  Fe0  1  0.13533365  0.39731978  0.11882819  1
  Fe  Fe1  1  0.86466635  0.60268022  0.88117181  1
  Ni  Ni2  1  0.30937809  0.67514605  0.26543776  1
  Ni  Ni3  1  0.69062191  0.32485395  0.73456224  1
  Ni  Ni4  1  0.50000000  0.00000000  -0.00000000  1
  H  H5  1  0.12962509  0.63456255  0.55758048  1
  H  H6  1  0.87037491  0.36543745  0.44241952  1
  H  H7  1  0.31415488  0.46609466  0.53546798  1
  H  H8  1  0.68584512  0.53390534  0.46453202  1
  Se  Se9  1  0.66786207  0.28887246  0.12946802  1
  Se  Se10  1  0.33213793  0.71112754  0.87053198  1
  Se  Se11  1  0.23635322  0.07395869  0.36901792  1
  Se  Se12  1  0.76364678  0.92604131  0.63098208  1
  Se  Se13  1  0.20311649  0.21377042  0.77523234  1
  Se  Se14  1  0.79688351  0.78622958  0.22476766  1
  O  O15  1  0.24794649  0.57019216  0.48219284  1
  O  O16  1  0.75205351  0.42980784  0.51780716  1
  O  O17  1  0.40061768  0.31064692  0.68244410  1
  O  O18  1  0.59938232  0.68935308  0.31755590  1
  O  O19  1  0.23305616  0.20237818  0.96950828  1
  O  O20  1  0.76694384  0.79762182  0.03049172  1
  O  O21  1  0.02294544  0.61957423  0.23279008  1
  O  O22  1  0.97705456  0.38042577  0.76720992  1
  O  O23  1  0.45904627  0.05529695  0.22281486  1
  O  O24  1  0.54095373  0.94470305  0.77718514  1
  O  O25  1  0.05886237  0.24651021  0.29567130  1
  O  O26  1  0.94113763  0.75348979  0.70432870  1
  O  O27  1  0.13325939  0.90522955  0.34819986  1
  O  O28  1  0.86674061  0.09477045  0.65180014  1
  O  O29  1  0.32987780  0.79915446  0.03967296  1
  O  O30  1  0.67012220  0.20084554  0.96032704  1
  O  O31  1  0.83068702  0.43894178  0.07090305  1
  O  O32  1  0.16931298  0.56105822  0.92909695  1
  O  O33  1  0.41563155  0.43068055  0.16347755  1
  O  O34  1  0.58436845  0.56931945  0.83652245  1
