# generated using pymatgen
data_Er4OsBr4
_symmetry_space_group_name_H-M   'P 1'
_cell_length_a   6.53160980
_cell_length_b   8.81980579
_cell_length_c   8.81980579
_cell_angle_alpha   89.36241305
_cell_angle_beta   89.48759063
_cell_angle_gamma   89.48759063
_symmetry_Int_Tables_number   1
_chemical_formula_structural   Er4OsBr4
_chemical_formula_sum   'Er8 Os2 Br8'
_cell_volume   508.01557921
_cell_formula_units_Z   2
loop_
 _symmetry_equiv_pos_site_id
 _symmetry_equiv_pos_as_xyz
  1  'x, y, z'
loop_
 _atom_site_type_symbol
 _atom_site_label
 _atom_site_symmetry_multiplicity
 _atom_site_fract_x
 _atom_site_fract_y
 _atom_site_fract_z
 _atom_site_occupancy
  Er  Er0  1  0.01007777  0.90103225  0.24964309  1
  Er  Er1  1  0.98992223  0.09896775  0.75035691  1
  Er  Er2  1  0.48992223  0.75035691  0.09896775  1
  Er  Er3  1  0.51007777  0.24964309  0.90103225  1
  Er  Er4  1  0.50924544  0.90214628  0.75110390  1
  Er  Er5  1  0.49075456  0.09785372  0.24889610  1
  Er  Er6  1  0.99075456  0.24889610  0.09785372  1
  Er  Er7  1  0.00924544  0.75110390  0.90214628  1
  Os  Os8  1  0.25000000  0.00533146  0.99466854  1
  Os  Os9  1  0.75000000  0.99466854  0.00533146  1
  Br  Br10  1  0.40298882  0.81551116  0.42226635  1
  Br  Br11  1  0.59701118  0.18448884  0.57773365  1
  Br  Br12  1  0.09701118  0.57773365  0.18448884  1
  Br  Br13  1  0.90298882  0.42226635  0.81551116  1
  Br  Br14  1  0.09873556  0.19386980  0.41802285  1
  Br  Br15  1  0.90126444  0.80613020  0.58197715  1
  Br  Br16  1  0.40126444  0.58197715  0.80613020  1
  Br  Br17  1  0.59873556  0.41802285  0.19386980  1
