# generated using pymatgen
data_Er3RuI3
_symmetry_space_group_name_H-M   'P 1'
_cell_length_a   4.18789976
_cell_length_b   8.86004513
_cell_length_c   12.17571485
_cell_angle_alpha   94.61533929
_cell_angle_beta   90.00000000
_cell_angle_gamma   90.00000000
_symmetry_Int_Tables_number   1
_chemical_formula_structural   Er3RuI3
_chemical_formula_sum   'Er6 Ru2 I6'
_cell_volume   450.31471338
_cell_formula_units_Z   2
loop_
 _symmetry_equiv_pos_site_id
 _symmetry_equiv_pos_as_xyz
  1  'x, y, z'
loop_
 _atom_site_type_symbol
 _atom_site_label
 _atom_site_symmetry_multiplicity
 _atom_site_fract_x
 _atom_site_fract_y
 _atom_site_fract_z
 _atom_site_occupancy
  Er  Er0  1  0.75000000  0.27286204  0.60690567  1
  Er  Er1  1  0.25000000  0.72713796  0.39309433  1
  Er  Er2  1  0.75000000  0.88104938  0.62407374  1
  Er  Er3  1  0.25000000  0.11895062  0.37592626  1
  Er  Er4  1  0.75000000  0.88902405  0.18449747  1
  Er  Er5  1  0.25000000  0.11097595  0.81550253  1
  Ru  Ru6  1  0.75000000  0.93295117  0.40523359  1
  Ru  Ru7  1  0.25000000  0.06704883  0.59476641  1
  I  I8  1  0.75000000  0.41568719  0.36579915  1
  I  I9  1  0.25000000  0.58431281  0.63420085  1
  I  I10  1  0.75000000  0.86656040  0.88829670  1
  I  I11  1  0.25000000  0.13343960  0.11170330  1
  I  I12  1  0.75000000  0.36209776  0.87222827  1
  I  I13  1  0.25000000  0.63790224  0.12777173  1
