# generated using pymatgen
data_CsSc3F10
_symmetry_space_group_name_H-M   'P 1'
_cell_length_a   6.94820574
_cell_length_b   7.66739821
_cell_length_c   8.21462383
_cell_angle_alpha   90.00000000
_cell_angle_beta   90.00000000
_cell_angle_gamma   90.00000000
_symmetry_Int_Tables_number   1
_chemical_formula_structural   CsSc3F10
_chemical_formula_sum   'Cs2 Sc6 F20'
_cell_volume   437.63129365
_cell_formula_units_Z   2
loop_
 _symmetry_equiv_pos_site_id
 _symmetry_equiv_pos_as_xyz
  1  'x, y, z'
loop_
 _atom_site_type_symbol
 _atom_site_label
 _atom_site_symmetry_multiplicity
 _atom_site_fract_x
 _atom_site_fract_y
 _atom_site_fract_z
 _atom_site_occupancy
  Cs  Cs0  1  0.99115423  0.50000000  -0.00000000  1
  Cs  Cs1  1  0.00884577  0.50000000  0.50000000  1
  Sc  Sc2  1  -0.00000000  0.00410950  0.25000000  1
  Sc  Sc3  1  -0.00000000  0.99589050  0.75000000  1
  Sc  Sc4  1  0.50000000  0.73761822  0.25000000  1
  Sc  Sc5  1  0.50000000  0.26238178  0.75000000  1
  Sc  Sc6  1  0.50000000  0.27431369  0.25000000  1
  Sc  Sc7  1  0.50000000  0.72568631  0.75000000  1
  F  F8  1  0.32972653  0.50471934  0.24200322  1
  F  F9  1  0.67027347  0.49528066  0.74200322  1
  F  F10  1  0.67027347  0.50471934  0.25799678  1
  F  F11  1  0.32972653  0.49528066  0.75799678  1
  F  F12  1  0.50000000  0.00580800  0.25000000  1
  F  F13  1  0.50000000  0.99419200  0.75000000  1
  F  F14  1  0.20180655  0.18818625  0.73922526  1
  F  F15  1  0.79819345  0.81181375  0.23922526  1
  F  F16  1  0.79819345  0.18818625  0.76077474  1
  F  F17  1  0.20180655  0.81181375  0.26077474  1
  F  F18  1  0.49900972  0.27358627  0.99988053  1
  F  F19  1  0.50099028  0.72641373  0.49988053  1
  F  F20  1  0.50099028  0.27358627  0.50011947  1
  F  F21  1  0.49900972  0.72641373  0.00011947  1
  F  F22  1  0.01315977  -0.00000000  -0.00000000  1
  F  F23  1  0.98684023  -0.00000000  0.50000000  1
  F  F24  1  0.19950734  0.19853080  0.25856960  1
  F  F25  1  0.80049266  0.80146920  0.75856960  1
  F  F26  1  0.80049266  0.19853080  0.24143040  1
  F  F27  1  0.19950734  0.80146920  0.74143040  1
