# generated using pymatgen
data_Er5BiPd2
_symmetry_space_group_name_H-M   'P 1'
_cell_length_a   7.74486814
_cell_length_b   7.74486814
_cell_length_c   8.82074560
_cell_angle_alpha   116.04100719
_cell_angle_beta   116.04100719
_cell_angle_gamma   90.00000000
_symmetry_Int_Tables_number   1
_chemical_formula_structural   Er5BiPd2
_chemical_formula_sum   'Er10 Bi2 Pd4'
_cell_volume   414.76863891
_cell_formula_units_Z   2
loop_
 _symmetry_equiv_pos_site_id
 _symmetry_equiv_pos_as_xyz
  1  'x, y, z'
loop_
 _atom_site_type_symbol
 _atom_site_label
 _atom_site_symmetry_multiplicity
 _atom_site_fract_x
 _atom_site_fract_y
 _atom_site_fract_z
 _atom_site_occupancy
  Er  Er0  1  -0.00000000  0.00000000  -0.00000000  1
  Er  Er1  1  0.50000000  0.50000000  -0.00000000  1
  Er  Er2  1  0.29456044  0.79456044  0.27765948  1
  Er  Er3  1  0.70543956  0.20543956  0.72234052  1
  Er  Er4  1  0.98309903  0.48309903  0.27765948  1
  Er  Er5  1  0.48309903  0.29456044  0.27765948  1
  Er  Er6  1  0.20543956  0.01690097  0.72234052  1
  Er  Er7  1  0.01690097  0.51690097  0.72234052  1
  Er  Er8  1  0.51690097  0.70543956  0.72234052  1
  Er  Er9  1  0.79456044  0.98309903  0.27765948  1
  Bi  Bi10  1  0.25000000  0.25000000  0.50000000  1
  Bi  Bi11  1  0.75000000  0.75000000  0.50000000  1
  Pd  Pd12  1  0.63815605  0.13815605  1.00000000  1
  Pd  Pd13  1  0.36184395  0.86184395  0.00000000  1
  Pd  Pd14  1  0.86184395  0.63815605  0.00000000  1
  Pd  Pd15  1  0.13815605  0.36184395  -0.00000000  1
