# generated using pymatgen
data_Er5Re2C7
_symmetry_space_group_name_H-M   'P 1'
_cell_length_a   3.40124237
_cell_length_b   7.96792168
_cell_length_c   8.26626666
_cell_angle_alpha   118.81310321
_cell_angle_beta   90.00000000
_cell_angle_gamma   90.00000000
_symmetry_Int_Tables_number   1
_chemical_formula_structural   Er5Re2C7
_chemical_formula_sum   'Er5 Re2 C7'
_cell_volume   196.28791117
_cell_formula_units_Z   1
loop_
 _symmetry_equiv_pos_site_id
 _symmetry_equiv_pos_as_xyz
  1  'x, y, z'
loop_
 _atom_site_type_symbol
 _atom_site_label
 _atom_site_symmetry_multiplicity
 _atom_site_fract_x
 _atom_site_fract_y
 _atom_site_fract_z
 _atom_site_occupancy
  Er  Er0  1  -0.00000000  0.50000000  -0.00000000  1
  Er  Er1  1  0.50000000  0.33555108  0.25897110  1
  Er  Er2  1  0.50000000  0.66444892  0.74102890  1
  Er  Er3  1  0.50000000  0.92342002  0.25897110  1
  Er  Er4  1  0.50000000  0.07657998  0.74102890  1
  Re  Re5  1  0.00000000  0.28575556  0.57151113  1
  Re  Re6  1  -0.00000000  0.71424444  0.42848887  1
  C  C7  1  0.50000000  0.37493494  0.74986989  1
  C  C8  1  0.50000000  0.62506506  0.25013011  1
  C  C9  1  -0.00000000  -0.00000000  -0.00000000  1
  C  C10  1  -0.00000000  0.17015857  0.00000000  1
  C  C11  1  -0.00000000  0.82984143  -0.00000000  1
  C  C12  1  -0.00000000  0.50000000  0.50000000  1
  C  C13  1  -0.00000000  -0.00000000  0.50000000  1
