# generated using pymatgen
data_Er5Ni2Sb
_symmetry_space_group_name_H-M   'P 1'
_cell_length_a   7.54217933
_cell_length_b   7.54217933
_cell_length_c   8.55829220
_cell_angle_alpha   116.14444862
_cell_angle_beta   116.14444862
_cell_angle_gamma   90.00000000
_symmetry_Int_Tables_number   1
_chemical_formula_structural   Er5Ni2Sb
_chemical_formula_sum   'Er10 Ni4 Sb2'
_cell_volume   380.75278106
_cell_formula_units_Z   2
loop_
 _symmetry_equiv_pos_site_id
 _symmetry_equiv_pos_as_xyz
  1  'x, y, z'
loop_
 _atom_site_type_symbol
 _atom_site_label
 _atom_site_symmetry_multiplicity
 _atom_site_fract_x
 _atom_site_fract_y
 _atom_site_fract_z
 _atom_site_occupancy
  Er  Er0  1  -0.00000000  -0.00000000  -0.00000000  1
  Er  Er1  1  0.50000000  0.50000000  -0.00000000  1
  Er  Er2  1  0.29617329  0.79617329  0.27421349  1
  Er  Er3  1  0.70382671  0.20382671  0.72578651  1
  Er  Er4  1  0.97804020  0.47804020  0.27421349  1
  Er  Er5  1  0.47804020  0.29617329  0.27421349  1
  Er  Er6  1  0.20382671  0.02195980  0.72578651  1
  Er  Er7  1  0.02195980  0.52195980  0.72578651  1
  Er  Er8  1  0.52195980  0.70382671  0.72578651  1
  Er  Er9  1  0.79617329  0.97804020  0.27421349  1
  Ni  Ni10  1  0.62639328  0.12639328  0.00000000  1
  Ni  Ni11  1  0.37360672  0.87360672  1.00000000  1
  Ni  Ni12  1  0.87360672  0.62639328  -0.00000000  1
  Ni  Ni13  1  0.12639328  0.37360672  -0.00000000  1
  Sb  Sb14  1  0.25000000  0.25000000  0.50000000  1
  Sb  Sb15  1  0.75000000  0.75000000  0.50000000  1
