# generated using pymatgen
data_NiPO4
_symmetry_space_group_name_H-M   'P 1'
_cell_length_a   9.93716173
_cell_length_b   5.75266863
_cell_length_c   4.80505995
_cell_angle_alpha   90.00000000
_cell_angle_beta   90.00000000
_cell_angle_gamma   90.00000000
_symmetry_Int_Tables_number   1
_chemical_formula_structural   NiPO4
_chemical_formula_sum   'Ni4 P4 O16'
_cell_volume   274.68220611
_cell_formula_units_Z   4
loop_
 _symmetry_equiv_pos_site_id
 _symmetry_equiv_pos_as_xyz
  1  'x, y, z'
loop_
 _atom_site_type_symbol
 _atom_site_label
 _atom_site_symmetry_multiplicity
 _atom_site_fract_x
 _atom_site_fract_y
 _atom_site_fract_z
 _atom_site_occupancy
  Ni  Ni0  1  0.22844828  0.75000000  0.45079202  1
  Ni  Ni1  1  0.27155172  0.25000000  0.95079202  1
  Ni  Ni2  1  0.72844828  0.75000000  0.04920798  1
  Ni  Ni3  1  0.77155172  0.25000000  0.54920798  1
  O  O4  1  0.05829725  0.75000000  0.67335455  1
  O  O5  1  0.10987816  0.25000000  0.71092091  1
  O  O6  1  0.16552399  0.04112216  0.24715311  1
  O  O7  1  0.16552399  0.45887784  0.24715311  1
  O  O8  1  0.33447601  0.54112216  0.74715311  1
  O  O9  1  0.33447601  0.95887784  0.74715311  1
  O  O10  1  0.39012184  0.75000000  0.21092091  1
  O  O11  1  0.44170275  0.25000000  0.17335455  1
  O  O12  1  0.55829725  0.75000000  0.82664545  1
  O  O13  1  0.60987816  0.25000000  0.78907909  1
  O  O14  1  0.66552399  0.04112216  0.25284689  1
  O  O15  1  0.66552399  0.45887784  0.25284689  1
  O  O16  1  0.83447601  0.54112216  0.75284689  1
  O  O17  1  0.83447601  0.95887784  0.75284689  1
  O  O18  1  0.89012184  0.75000000  0.28907909  1
  O  O19  1  0.94170275  0.25000000  0.32664545  1
  P  P20  1  0.09273898  0.25000000  0.39476555  1
  P  P21  1  0.40726102  0.75000000  0.89476555  1
  P  P22  1  0.59273898  0.25000000  0.10523445  1
  P  P23  1  0.90726102  0.75000000  0.60523445  1
