# generated using pymatgen
data_Dy2(MoO4)3
_symmetry_space_group_name_H-M   'P 1'
_cell_length_a   10.46201394
_cell_length_b   10.47731638
_cell_length_c   10.72538359
_cell_angle_alpha   90.00000000
_cell_angle_beta   90.00000000
_cell_angle_gamma   90.00000000
_symmetry_Int_Tables_number   1
_chemical_formula_structural   Dy2(MoO4)3
_chemical_formula_sum   'Dy8 Mo12 O48'
_cell_volume   1175.65037375
_cell_formula_units_Z   4
loop_
 _symmetry_equiv_pos_site_id
 _symmetry_equiv_pos_as_xyz
  1  'x, y, z'
loop_
 _atom_site_type_symbol
 _atom_site_label
 _atom_site_symmetry_multiplicity
 _atom_site_fract_x
 _atom_site_fract_y
 _atom_site_fract_z
 _atom_site_occupancy
  Dy  Dy0  1  0.00589991  0.18818122  0.47437839  1
  Dy  Dy1  1  0.99410009  0.81181878  0.47437839  1
  Dy  Dy2  1  0.50589991  0.31181878  0.47437839  1
  Dy  Dy3  1  0.49410009  0.68818122  0.47437839  1
  Dy  Dy4  1  0.31155447  0.00380971  0.00006935  1
  Dy  Dy5  1  0.68844553  0.99619029  0.00006935  1
  Dy  Dy6  1  0.81155447  0.49619029  0.00006935  1
  Dy  Dy7  1  0.18844553  0.50380971  0.00006935  1
  Mo  Mo8  1  0.49695123  0.29351173  0.09455615  1
  Mo  Mo9  1  0.50304877  0.70648827  0.09455615  1
  Mo  Mo10  1  0.99695123  0.20648827  0.09455615  1
  Mo  Mo11  1  0.00304877  0.79351173  0.09455615  1
  Mo  Mo12  1  0.29429759  0.01143563  0.38030584  1
  Mo  Mo13  1  0.70570241  0.98856437  0.38030584  1
  Mo  Mo14  1  0.79429759  0.48856437  0.38030584  1
  Mo  Mo15  1  0.20570241  0.51143563  0.38030584  1
  Mo  Mo16  1  0.25711135  0.25641672  0.73744113  1
  Mo  Mo17  1  0.74288865  0.74358328  0.73744113  1
  Mo  Mo18  1  0.75711135  0.24358328  0.73744113  1
  Mo  Mo19  1  0.24288865  0.75641672  0.73744113  1
  O  O20  1  0.00651034  0.37420777  0.04621491  1
  O  O21  1  0.99348966  0.62579223  0.04621491  1
  O  O22  1  0.50651034  0.12579223  0.04621491  1
  O  O23  1  0.49348966  0.87420777  0.04621491  1
  O  O24  1  0.30720607  0.01113334  0.21513191  1
  O  O25  1  0.69279393  0.98886666  0.21513191  1
  O  O26  1  0.80720607  0.48886666  0.21513191  1
  O  O27  1  0.19279393  0.51113334  0.21513191  1
  O  O28  1  0.18309647  0.37563020  0.83283411  1
  O  O29  1  0.81690353  0.62436980  0.83283411  1
  O  O30  1  0.68309647  0.12436980  0.83283411  1
  O  O31  1  0.31690353  0.87563020  0.83283411  1
  O  O32  1  0.11393741  0.38356680  0.44448738  1
  O  O33  1  0.88606259  0.61643320  0.44448738  1
  O  O34  1  0.61393741  0.11643320  0.44448738  1
  O  O35  1  0.38606259  0.88356680  0.44448738  1
  O  O36  1  0.34574098  0.16510011  0.43189921  1
  O  O37  1  0.65425902  0.83489989  0.43189921  1
  O  O38  1  0.84574098  0.33489989  0.43189921  1
  O  O39  1  0.15425902  0.66510011  0.43189921  1
  O  O40  1  0.37718001  0.32842739  0.64188159  1
  O  O41  1  0.62281999  0.67157261  0.64188159  1
  O  O42  1  0.87718001  0.17157261  0.64188159  1
  O  O43  1  0.12281999  0.82842739  0.64188159  1
  O  O44  1  0.37349648  0.49399669  0.42749207  1
  O  O45  1  0.62650352  0.50600331  0.42749207  1
  O  O46  1  0.87349648  0.00600331  0.42749207  1
  O  O47  1  0.12650352  0.99399669  0.42749207  1
  O  O48  1  0.11866839  0.11539632  0.01865789  1
  O  O49  1  0.88133161  0.88460368  0.01865789  1
  O  O50  1  0.61866839  0.38460368  0.01865789  1
  O  O51  1  0.38133161  0.61539632  0.01865789  1
  O  O52  1  0.14290126  0.18136352  0.63699031  1
  O  O53  1  0.85709874  0.81863648  0.63699031  1
  O  O54  1  0.64290126  0.31863648  0.63699031  1
  O  O55  1  0.35709874  0.68136352  0.63699031  1
  O  O56  1  0.32915644  0.14089991  0.83802172  1
  O  O57  1  0.67084356  0.85910009  0.83802172  1
  O  O58  1  0.82915644  0.35910009  0.83802172  1
  O  O59  1  0.17084356  0.64089991  0.83802172  1
  O  O60  1  0.34018035  0.34705899  0.05528873  1
  O  O61  1  0.65981965  0.65294101  0.05528873  1
  O  O62  1  0.84018035  0.15294101  0.05528873  1
  O  O63  1  0.15981965  0.84705899  0.05528873  1
  O  O64  1  0.02002120  0.19465215  0.25868930  1
  O  O65  1  0.97997880  0.80534785  0.25868930  1
  O  O66  1  0.52002120  0.30534785  0.25868930  1
  O  O67  1  0.47997880  0.69465215  0.25868930  1
