# generated using pymatgen
data_CsNbCl6
_symmetry_space_group_name_H-M   'P 1'
_cell_length_a   6.65046740
_cell_length_b   7.14469015
_cell_length_c   12.85239160
_cell_angle_alpha   100.55458823
_cell_angle_beta   90.00000000
_cell_angle_gamma   117.73696767
_symmetry_Int_Tables_number   1
_chemical_formula_structural   CsNbCl6
_chemical_formula_sum   'Cs2 Nb2 Cl12'
_cell_volume   528.81452851
_cell_formula_units_Z   2
loop_
 _symmetry_equiv_pos_site_id
 _symmetry_equiv_pos_as_xyz
  1  'x, y, z'
loop_
 _atom_site_type_symbol
 _atom_site_label
 _atom_site_symmetry_multiplicity
 _atom_site_fract_x
 _atom_site_fract_y
 _atom_site_fract_z
 _atom_site_occupancy
  Cs  Cs0  1  0.88233125  1.00000000  0.75000000  1
  Cs  Cs1  1  0.11766875  0.00000000  0.25000000  1
  Nb  Nb2  1  0.50000000  0.50000000  0.00000000  1
  Nb  Nb3  1  -0.00000000  0.50000000  0.50000000  1
  Cl  Cl4  1  0.46304196  0.16904173  0.89802398  1
  Cl  Cl5  1  0.53695804  0.83095827  0.10197602  1
  Cl  Cl6  1  0.29400023  0.83095827  0.60197602  1
  Cl  Cl7  1  0.70599977  0.16904173  0.39802398  1
  Cl  Cl8  1  0.37284638  0.56834228  0.84473714  1
  Cl  Cl9  1  0.62715362  0.43165772  0.15526286  1
  Cl  Cl10  1  0.80450411  0.43165772  0.65526286  1
  Cl  Cl11  1  0.19549589  0.56834228  0.34473714  1
  Cl  Cl12  1  0.80080970  0.68657046  0.46105467  1
  Cl  Cl13  1  0.19919030  0.31342954  0.53894533  1
  Cl  Cl14  1  0.11423924  0.31342954  0.03894533  1
  Cl  Cl15  1  0.88576076  0.68657046  0.96105467  1
