# generated using pymatgen
data_LiBi2(PO4)3
_symmetry_space_group_name_H-M   'P 1'
_cell_length_a   9.08675559
_cell_length_b   9.14694352
_cell_length_c   9.08675634
_cell_angle_alpha   62.06312130
_cell_angle_beta   118.23643529
_cell_angle_gamma   117.93688007
_symmetry_Int_Tables_number   1
_chemical_formula_structural   LiBi2(PO4)3
_chemical_formula_sum   'Li2 Bi4 P6 O24'
_cell_volume   557.49460504
_cell_formula_units_Z   2
loop_
 _symmetry_equiv_pos_site_id
 _symmetry_equiv_pos_as_xyz
  1  'x, y, z'
loop_
 _atom_site_type_symbol
 _atom_site_label
 _atom_site_symmetry_multiplicity
 _atom_site_fract_x
 _atom_site_fract_y
 _atom_site_fract_z
 _atom_site_occupancy
  Li  Li0  1  0.11339783  0.25000000  0.11339783  1
  Li  Li1  1  0.88660217  0.75000000  0.88660217  1
  Bi  Bi2  1  0.85218956  0.15047970  0.64712453  1
  Bi  Bi3  1  0.14781044  0.84952030  0.35287547  1
  Bi  Bi4  1  0.35287547  0.65047970  0.14781044  1
  Bi  Bi5  1  0.64712453  0.34952030  0.85218956  1
  P  P6  1  0.04221265  0.56729666  0.75742802  1
  P  P7  1  0.56803798  0.75000000  0.56803798  1
  P  P8  1  0.95778735  0.43270334  0.24257198  1
  P  P9  1  0.43196202  0.25000000  0.43196202  1
  P  P10  1  0.24257198  0.06729666  0.95778735  1
  P  P11  1  0.75742802  0.93270334  0.04221265  1
  O  O12  1  0.23377602  0.60667099  0.88611829  1
  O  O13  1  0.11388171  0.10667099  0.76622398  1
  O  O14  1  0.18762573  0.08675304  0.08474618  1
  O  O15  1  0.98354692  0.37312346  0.77184134  1
  O  O16  1  0.46208831  0.30603461  0.58256694  1
  O  O17  1  0.96697227  0.30662831  0.43073926  1
  O  O18  1  0.77184134  0.12687654  0.98354692  1
  O  O19  1  0.81237427  0.91324696  0.91525382  1
  O  O20  1  0.58672143  0.60103903  0.74939106  1
  O  O21  1  0.03302773  0.69337169  0.56926074  1
  O  O22  1  0.25060894  0.10103903  0.41327857  1
  O  O23  1  0.01645308  0.62687654  0.22815866  1
  O  O24  1  0.58256694  0.19396539  0.46208831  1
  O  O25  1  0.53791169  0.69396539  0.41743306  1
  O  O26  1  0.41743306  0.80603461  0.53791169  1
  O  O27  1  0.08474618  0.41324696  0.18762573  1
  O  O28  1  0.76622398  0.39332901  0.11388171  1
  O  O29  1  0.22815866  0.87312346  0.01645308  1
  O  O30  1  0.56926074  0.80662831  0.03302773  1
  O  O31  1  0.43073926  0.19337169  0.96697227  1
  O  O32  1  0.41327857  0.39896097  0.25060894  1
  O  O33  1  0.88611829  0.89332901  0.23377602  1
  O  O34  1  0.74939106  0.89896097  0.58672143  1
  O  O35  1  0.91525382  0.58675304  0.81237427  1
