# generated using pymatgen
data_Eu2NiRuO6
_symmetry_space_group_name_H-M   'P 1'
_cell_length_a   5.46758631
_cell_length_b   5.69891627
_cell_length_c   7.81508003
_cell_angle_alpha   90.00000000
_cell_angle_beta   89.83595479
_cell_angle_gamma   90.00000000
_symmetry_Int_Tables_number   1
_chemical_formula_structural   Eu2NiRuO6
_chemical_formula_sum   'Eu4 Ni2 Ru2 O12'
_cell_volume   243.51155459
_cell_formula_units_Z   2
loop_
 _symmetry_equiv_pos_site_id
 _symmetry_equiv_pos_as_xyz
  1  'x, y, z'
loop_
 _atom_site_type_symbol
 _atom_site_label
 _atom_site_symmetry_multiplicity
 _atom_site_fract_x
 _atom_site_fract_y
 _atom_site_fract_z
 _atom_site_occupancy
  Eu  Eu0  1  0.01402238  0.44041736  0.25129131  1
  Eu  Eu1  1  0.98597762  0.55958264  0.74870869  1
  Eu  Eu2  1  0.48597762  0.94041736  0.24870869  1
  Eu  Eu3  1  0.51402238  0.05958264  0.75129131  1
  Ni  Ni4  1  -0.00000000  -0.00000000  0.50000000  1
  Ni  Ni5  1  0.50000000  0.50000000  -0.00000000  1
  Ru  Ru6  1  -0.00000000  -0.00000000  -0.00000000  1
  Ru  Ru7  1  0.50000000  0.50000000  0.50000000  1
  O  O8  1  0.90719953  0.02722581  0.24579823  1
  O  O9  1  0.09280047  0.97277419  0.75420177  1
  O  O10  1  0.59280047  0.52722581  0.25420177  1
  O  O11  1  0.40719953  0.47277419  0.74579823  1
  O  O12  1  0.19181653  0.70847688  0.05013016  1
  O  O13  1  0.80818347  0.29152312  0.94986984  1
  O  O14  1  0.30818347  0.20847688  0.44986984  1
  O  O15  1  0.69181653  0.79152312  0.55013016  1
  O  O16  1  0.29639772  0.19536981  0.04565653  1
  O  O17  1  0.70360228  0.80463019  0.95434347  1
  O  O18  1  0.20360228  0.69536981  0.45434347  1
  O  O19  1  0.79639772  0.30463019  0.54565653  1
