# generated using pymatgen
data_Eu2CoRuO6
_symmetry_space_group_name_H-M   'P 1'
_cell_length_a   5.46482761
_cell_length_b   5.78589502
_cell_length_c   7.77623050
_cell_angle_alpha   90.00000000
_cell_angle_beta   89.46213267
_cell_angle_gamma   90.00000000
_symmetry_Int_Tables_number   1
_chemical_formula_structural   Eu2CoRuO6
_chemical_formula_sum   'Eu4 Co2 Ru2 O12'
_cell_volume   245.86516708
_cell_formula_units_Z   2
loop_
 _symmetry_equiv_pos_site_id
 _symmetry_equiv_pos_as_xyz
  1  'x, y, z'
loop_
 _atom_site_type_symbol
 _atom_site_label
 _atom_site_symmetry_multiplicity
 _atom_site_fract_x
 _atom_site_fract_y
 _atom_site_fract_z
 _atom_site_occupancy
  Eu  Eu0  1  0.01737133  0.43255993  0.25108367  1
  Eu  Eu1  1  0.98262867  0.56744007  0.74891633  1
  Eu  Eu2  1  0.48262867  0.93255993  0.24891633  1
  Eu  Eu3  1  0.51737133  0.06744007  0.75108367  1
  Co  Co4  1  -0.00000000  0.00000000  0.50000000  1
  Co  Co5  1  0.50000000  0.50000000  0.00000000  1
  Ru  Ru6  1  -0.00000000  0.00000000  0.00000000  1
  Ru  Ru7  1  0.50000000  0.50000000  0.50000000  1
  O  O8  1  0.18478631  0.70909531  0.05285439  1
  O  O9  1  0.81521369  0.29090469  0.94714561  1
  O  O10  1  0.31521369  0.20909531  0.44714561  1
  O  O11  1  0.68478631  0.79090469  0.55285439  1
  O  O12  1  0.29851810  0.18905011  0.04614490  1
  O  O13  1  0.70148190  0.81094989  0.95385510  1
  O  O14  1  0.20148190  0.68905011  0.45385510  1
  O  O15  1  0.79851810  0.31094989  0.54614490  1
  O  O16  1  0.90309790  0.03021566  0.24637910  1
  O  O17  1  0.09690210  0.96978434  0.75362090  1
  O  O18  1  0.59690210  0.53021566  0.25362090  1
  O  O19  1  0.40309790  0.46978434  0.74637910  1
