# generated using pymatgen
data_Eu2Ni7P4
_symmetry_space_group_name_H-M   'P 1'
_cell_length_a   3.74448620
_cell_length_b   9.26308841
_cell_length_c   10.46930243
_cell_angle_alpha   90.00000000
_cell_angle_beta   90.00000000
_cell_angle_gamma   90.00000000
_symmetry_Int_Tables_number   1
_chemical_formula_structural   Eu2Ni7P4
_chemical_formula_sum   'Eu4 Ni14 P8'
_cell_volume   363.13305980
_cell_formula_units_Z   2
loop_
 _symmetry_equiv_pos_site_id
 _symmetry_equiv_pos_as_xyz
  1  'x, y, z'
loop_
 _atom_site_type_symbol
 _atom_site_label
 _atom_site_symmetry_multiplicity
 _atom_site_fract_x
 _atom_site_fract_y
 _atom_site_fract_z
 _atom_site_occupancy
  Eu  Eu0  1  0.00000000  0.43972525  0.51887836  1
  Eu  Eu1  1  0.50000000  0.56027475  0.01887836  1
  Eu  Eu2  1  0.00000000  0.06294707  0.73672938  1
  Eu  Eu3  1  0.50000000  0.93705293  0.23672938  1
  Ni  Ni4  1  0.00000000  0.77069924  0.40782723  1
  Ni  Ni5  1  0.50000000  0.22930076  0.90782723  1
  Ni  Ni6  1  0.00000000  0.75277278  0.64041054  1
  Ni  Ni7  1  0.50000000  0.24722722  0.14041054  1
  Ni  Ni8  1  -0.00000000  0.81836798  0.99810923  1
  Ni  Ni9  1  0.50000000  0.18163202  0.49810923  1
  Ni  Ni10  1  -0.00000000  0.44053656  0.21741728  1
  Ni  Ni11  1  0.50000000  0.55946344  0.71741728  1
  Ni  Ni12  1  0.00000000  0.40247993  0.81915181  1
  Ni  Ni13  1  0.50000000  0.59752007  0.31915181  1
  Ni  Ni14  1  0.00000000  0.19401237  0.31125469  1
  Ni  Ni15  1  0.50000000  0.80598763  0.81125469  1
  Ni  Ni16  1  0.00000000  0.08439154  0.04241253  1
  Ni  Ni17  1  0.50000000  0.91560846  0.54241253  1
  P  P18  1  0.00000000  0.68722350  0.20427081  1
  P  P19  1  0.50000000  0.31277650  0.70427081  1
  P  P20  1  0.00000000  0.02151778  0.45509100  1
  P  P21  1  0.50000000  0.97848222  0.95509100  1
  P  P22  1  -0.00000000  0.31877235  0.02453648  1
  P  P23  1  0.50000000  0.68122765  0.52453648  1
  P  P24  1  -0.00000000  0.65656319  0.82871065  1
  P  P25  1  0.50000000  0.34343681  0.32871065  1
