# generated using pymatgen
data_ErSbO4
_symmetry_space_group_name_H-M   'P 1'
_cell_length_a   5.36115951
_cell_length_b   7.63402738
_cell_length_c   7.51628834
_cell_angle_alpha   81.33091053
_cell_angle_beta   90.42220810
_cell_angle_gamma   91.83734211
_symmetry_Int_Tables_number   1
_chemical_formula_structural   ErSbO4
_chemical_formula_sum   'Er4 Sb4 O16'
_cell_volume   303.94911371
_cell_formula_units_Z   4
loop_
 _symmetry_equiv_pos_site_id
 _symmetry_equiv_pos_as_xyz
  1  'x, y, z'
loop_
 _atom_site_type_symbol
 _atom_site_label
 _atom_site_symmetry_multiplicity
 _atom_site_fract_x
 _atom_site_fract_y
 _atom_site_fract_z
 _atom_site_occupancy
  Er  Er0  1  0.26165690  0.13684166  0.61750716  1
  Er  Er1  1  0.73834310  0.86315834  0.38249284  1
  Er  Er2  1  0.21416944  0.15798292  0.11148097  1
  Er  Er3  1  0.78583056  0.84201708  0.88851903  1
  Sb  Sb4  1  0.23927486  0.66308968  0.19515115  1
  Sb  Sb5  1  0.76072514  0.33691032  0.80484885  1
  Sb  Sb6  1  0.72737921  0.33563264  0.30749236  1
  Sb  Sb7  1  0.27262079  0.66436736  0.69250764  1
  O  O8  1  0.08954699  0.43220818  0.68769182  1
  O  O9  1  0.91045301  0.56779182  0.31230818  1
  O  O10  1  0.60701460  0.32282838  0.55996520  1
  O  O11  1  0.39298540  0.67717162  0.44003480  1
  O  O12  1  0.87729219  0.33309359  0.06051667  1
  O  O13  1  0.12270781  0.66690641  0.93948333  1
  O  O14  1  0.39823839  0.42875160  0.19822278  1
  O  O15  1  0.60176161  0.57124840  0.80177722  1
  O  O16  1  0.04292534  0.88752430  0.17374763  1
  O  O17  1  0.95707466  0.11247570  0.82625237  1
  O  O18  1  0.51991773  0.10889163  0.31476697  1
  O  O19  1  0.48008227  0.89110837  0.68523303  1
  O  O20  1  0.46089393  0.19392343  0.87936826  1
  O  O21  1  0.53910607  0.80607657  0.12063174  1
  O  O22  1  0.00165422  0.17360225  0.38290452  1
  O  O23  1  0.99834578  0.82639775  0.61709548  1
