# generated using pymatgen
data_CsEr2Cl7
_symmetry_space_group_name_H-M   'P 1'
_cell_length_a   7.02720627
_cell_length_b   14.35449888
_cell_length_c   12.60801341
_cell_angle_alpha   90.00000000
_cell_angle_beta   90.00000000
_cell_angle_gamma   90.00000000
_symmetry_Int_Tables_number   1
_chemical_formula_structural   CsEr2Cl7
_chemical_formula_sum   'Cs4 Er8 Cl28'
_cell_volume   1271.79583800
_cell_formula_units_Z   4
loop_
 _symmetry_equiv_pos_site_id
 _symmetry_equiv_pos_as_xyz
  1  'x, y, z'
loop_
 _atom_site_type_symbol
 _atom_site_label
 _atom_site_symmetry_multiplicity
 _atom_site_fract_x
 _atom_site_fract_y
 _atom_site_fract_z
 _atom_site_occupancy
  Cs  Cs0  1  0.75000000  0.95919389  0.19586565  1
  Cs  Cs1  1  0.25000000  0.04080611  0.80413435  1
  Cs  Cs2  1  0.25000000  0.54080611  0.69586565  1
  Cs  Cs3  1  0.75000000  0.45919389  0.30413435  1
  Er  Er4  1  0.75000000  0.76103475  0.54010012  1
  Er  Er5  1  0.25000000  0.23896525  0.45989988  1
  Er  Er6  1  0.25000000  0.73896525  0.04010012  1
  Er  Er7  1  0.75000000  0.26103475  0.95989988  1
  Er  Er8  1  0.75000000  0.74929877  0.84377530  1
  Er  Er9  1  0.25000000  0.25070123  0.15622470  1
  Er  Er10  1  0.25000000  0.75070123  0.34377530  1
  Er  Er11  1  0.75000000  0.24929877  0.65622470  1
  Cl  Cl12  1  0.98463264  0.81995700  0.69390268  1
  Cl  Cl13  1  0.01536736  0.18004300  0.30609732  1
  Cl  Cl14  1  0.01536736  0.68004300  0.19390268  1
  Cl  Cl15  1  0.48463264  0.18004300  0.30609732  1
  Cl  Cl16  1  0.98463264  0.31995700  0.80609732  1
  Cl  Cl17  1  0.51536736  0.81995700  0.69390268  1
  Cl  Cl18  1  0.51536736  0.31995700  0.80609732  1
  Cl  Cl19  1  0.48463264  0.68004300  0.19390268  1
  Cl  Cl20  1  0.99076122  0.86857460  0.42531995  1
  Cl  Cl21  1  0.00923878  0.13142540  0.57468005  1
  Cl  Cl22  1  0.00923878  0.63142540  0.92531995  1
  Cl  Cl23  1  0.49076122  0.13142540  0.57468005  1
  Cl  Cl24  1  0.99076122  0.36857460  0.07468005  1
  Cl  Cl25  1  0.50923878  0.86857460  0.42531995  1
  Cl  Cl26  1  0.50923878  0.36857460  0.07468005  1
  Cl  Cl27  1  0.49076122  0.63142540  0.92531995  1
  Cl  Cl28  1  0.99012013  0.85844167  0.95957129  1
  Cl  Cl29  1  0.00987987  0.14155833  0.04042871  1
  Cl  Cl30  1  0.00987987  0.64155833  0.45957129  1
  Cl  Cl31  1  0.49012013  0.14155833  0.04042871  1
  Cl  Cl32  1  0.99012013  0.35844167  0.54042871  1
  Cl  Cl33  1  0.50987987  0.85844167  0.95957129  1
  Cl  Cl34  1  0.50987987  0.35844167  0.54042871  1
  Cl  Cl35  1  0.49012013  0.64155833  0.45957129  1
  Cl  Cl36  1  0.75000000  0.61795365  0.68878348  1
  Cl  Cl37  1  0.25000000  0.38204635  0.31121652  1
  Cl  Cl38  1  0.25000000  0.88204635  0.18878348  1
  Cl  Cl39  1  0.75000000  0.11795365  0.81121652  1
