# generated using pymatgen
data_CsY(NbBr3)6
_symmetry_space_group_name_H-M   'P 1'
_cell_length_a   9.97126117
_cell_length_b   9.97126117
_cell_length_c   18.60767081
_cell_angle_alpha   90.00000000
_cell_angle_beta   90.00000000
_cell_angle_gamma   119.99999912
_symmetry_Int_Tables_number   1
_chemical_formula_structural   CsY(NbBr3)6
_chemical_formula_sum   'Cs2 Y2 Nb12 Br36'
_cell_volume   1602.22252397
_cell_formula_units_Z   2
loop_
 _symmetry_equiv_pos_site_id
 _symmetry_equiv_pos_as_xyz
  1  'x, y, z'
loop_
 _atom_site_type_symbol
 _atom_site_label
 _atom_site_symmetry_multiplicity
 _atom_site_fract_x
 _atom_site_fract_y
 _atom_site_fract_z
 _atom_site_occupancy
  Cs  Cs0  1  0.33333300  0.66666700  0.75000000  1
  Cs  Cs1  1  0.66666700  0.33333300  0.25000000  1
  Y  Y2  1  0.66666700  0.33333300  0.75000000  1
  Y  Y3  1  0.33333300  0.66666700  0.25000000  1
  Nb  Nb4  1  0.96170169  0.14892621  0.93529927  1
  Nb  Nb5  1  0.03829831  0.85107379  0.06470073  1
  Nb  Nb6  1  0.18722452  0.03829831  0.93529927  1
  Nb  Nb7  1  0.18722452  0.14892621  0.56470073  1
  Nb  Nb8  1  0.81277548  0.96170169  0.06470073  1
  Nb  Nb9  1  0.81277548  0.85107379  0.43529927  1
  Nb  Nb10  1  0.85107379  0.81277548  0.93529927  1
  Nb  Nb11  1  0.85107379  0.03829831  0.56470073  1
  Nb  Nb12  1  0.14892621  0.18722452  0.06470073  1
  Nb  Nb13  1  0.14892621  0.96170169  0.43529927  1
  Nb  Nb14  1  0.96170169  0.81277548  0.56470073  1
  Nb  Nb15  1  0.03829831  0.18722452  0.43529927  1
  Br  Br16  1  0.91487478  0.36296525  0.83857213  1
  Br  Br17  1  0.08512522  0.63703475  0.16142787  1
  Br  Br18  1  0.44809047  0.08512522  0.83857213  1
  Br  Br19  1  0.44809047  0.36296525  0.66142787  1
  Br  Br20  1  0.55190953  0.91487478  0.16142787  1
  Br  Br21  1  0.55190953  0.63703475  0.33857213  1
  Br  Br22  1  0.63703475  0.55190953  0.83857213  1
  Br  Br23  1  0.63703475  0.08512522  0.66142787  1
  Br  Br24  1  0.36296525  0.44809047  0.16142787  1
  Br  Br25  1  0.36296525  0.91487478  0.33857213  1
  Br  Br26  1  0.91487478  0.55190953  0.66142787  1
  Br  Br27  1  0.08512522  0.44809047  0.33857213  1
  Br  Br28  1  0.76922737  0.95378529  0.84113193  1
  Br  Br29  1  0.23077263  0.04621471  0.15886807  1
  Br  Br30  1  0.18455792  0.23077263  0.84113193  1
  Br  Br31  1  0.18455792  0.95378529  0.65886807  1
  Br  Br32  1  0.81544208  0.76922737  0.15886807  1
  Br  Br33  1  0.81544208  0.04621471  0.34113193  1
  Br  Br34  1  0.04621471  0.81544208  0.84113193  1
  Br  Br35  1  0.04621471  0.23077263  0.65886807  1
  Br  Br36  1  0.95378529  0.18455792  0.15886807  1
  Br  Br37  1  0.95378529  0.76922737  0.34113193  1
  Br  Br38  1  0.76922737  0.81544208  0.65886807  1
  Br  Br39  1  0.23077263  0.18455792  0.34113193  1
  Br  Br40  1  0.58609123  0.72465957  0.99916800  1
  Br  Br41  1  0.41390877  0.27534043  0.00083200  1
  Br  Br42  1  0.13856835  0.41390877  0.99916800  1
  Br  Br43  1  0.13856835  0.72465957  0.50083200  1
  Br  Br44  1  0.86143165  0.58609123  0.00083200  1
  Br  Br45  1  0.86143165  0.27534043  0.49916800  1
  Br  Br46  1  0.27534043  0.86143165  0.99916800  1
  Br  Br47  1  0.27534043  0.41390877  0.50083200  1
  Br  Br48  1  0.72465957  0.13856835  0.00083200  1
  Br  Br49  1  0.72465957  0.58609123  0.49916800  1
  Br  Br50  1  0.58609123  0.86143165  0.50083200  1
  Br  Br51  1  0.41390877  0.13856835  0.49916800  1
