# generated using pymatgen
data_CsSrTa6Cl18
_symmetry_space_group_name_H-M   'P 1'
_cell_length_a   9.54344593
_cell_length_b   9.54344593
_cell_length_c   17.76178481
_cell_angle_alpha   90.00000000
_cell_angle_beta   90.00000000
_cell_angle_gamma   120.00000282
_symmetry_Int_Tables_number   1
_chemical_formula_structural   CsSrTa6Cl18
_chemical_formula_sum   'Cs2 Sr2 Ta12 Cl36'
_cell_volume   1400.96620077
_cell_formula_units_Z   2
loop_
 _symmetry_equiv_pos_site_id
 _symmetry_equiv_pos_as_xyz
  1  'x, y, z'
loop_
 _atom_site_type_symbol
 _atom_site_label
 _atom_site_symmetry_multiplicity
 _atom_site_fract_x
 _atom_site_fract_y
 _atom_site_fract_z
 _atom_site_occupancy
  Cs  Cs0  1  0.33333300  0.66666700  0.75000000  1
  Cs  Cs1  1  0.66666700  0.33333300  0.25000000  1
  Sr  Sr2  1  0.66666700  0.33333300  0.75000000  1
  Sr  Sr3  1  0.33333300  0.66666700  0.25000000  1
  Ta  Ta4  1  0.96368571  0.15704406  0.93251259  1
  Ta  Ta5  1  0.03631429  0.84295594  0.06748741  1
  Ta  Ta6  1  0.19335835  0.03631429  0.93251259  1
  Ta  Ta7  1  0.19335835  0.15704406  0.56748741  1
  Ta  Ta8  1  0.80664165  0.96368571  0.06748741  1
  Ta  Ta9  1  0.80664165  0.84295594  0.43251259  1
  Ta  Ta10  1  0.84295594  0.80664165  0.93251259  1
  Ta  Ta11  1  0.84295594  0.03631429  0.56748741  1
  Ta  Ta12  1  0.15704406  0.19335835  0.06748741  1
  Ta  Ta13  1  0.15704406  0.96368571  0.43251259  1
  Ta  Ta14  1  0.96368571  0.80664165  0.56748741  1
  Ta  Ta15  1  0.03631429  0.19335835  0.43251259  1
  Cl  Cl16  1  0.92867251  0.35856505  0.84608429  1
  Cl  Cl17  1  0.07132749  0.64143495  0.15391571  1
  Cl  Cl18  1  0.42989254  0.07132749  0.84608429  1
  Cl  Cl19  1  0.42989254  0.35856505  0.65391571  1
  Cl  Cl20  1  0.57010746  0.92867251  0.15391571  1
  Cl  Cl21  1  0.57010746  0.64143495  0.34608429  1
  Cl  Cl22  1  0.64143495  0.57010746  0.84608429  1
  Cl  Cl23  1  0.64143495  0.07132749  0.65391571  1
  Cl  Cl24  1  0.35856505  0.42989254  0.15391571  1
  Cl  Cl25  1  0.35856505  0.92867251  0.34608429  1
  Cl  Cl26  1  0.92867251  0.57010746  0.65391571  1
  Cl  Cl27  1  0.07132749  0.42989254  0.34608429  1
  Cl  Cl28  1  0.77360074  0.95793220  0.84251642  1
  Cl  Cl29  1  0.22639926  0.04206780  0.15748358  1
  Cl  Cl30  1  0.18433146  0.22639926  0.84251642  1
  Cl  Cl31  1  0.18433146  0.95793220  0.65748358  1
  Cl  Cl32  1  0.81566854  0.77360074  0.15748358  1
  Cl  Cl33  1  0.81566854  0.04206780  0.34251642  1
  Cl  Cl34  1  0.04206780  0.81566854  0.84251642  1
  Cl  Cl35  1  0.04206780  0.22639926  0.65748358  1
  Cl  Cl36  1  0.95793220  0.18433146  0.15748358  1
  Cl  Cl37  1  0.95793220  0.77360074  0.34251642  1
  Cl  Cl38  1  0.77360074  0.81566854  0.65748358  1
  Cl  Cl39  1  0.22639926  0.18433146  0.34251642  1
  Cl  Cl40  1  0.59099175  0.73034237  0.00046271  1
  Cl  Cl41  1  0.40900825  0.26965763  0.99953729  1
  Cl  Cl42  1  0.13935062  0.40900825  0.00046271  1
  Cl  Cl43  1  0.13935062  0.73034237  0.49953729  1
  Cl  Cl44  1  0.86064938  0.59099175  0.99953729  1
  Cl  Cl45  1  0.86064938  0.26965763  0.50046271  1
  Cl  Cl46  1  0.26965763  0.86064938  0.00046271  1
  Cl  Cl47  1  0.26965763  0.40900825  0.49953729  1
  Cl  Cl48  1  0.73034237  0.13935062  0.99953729  1
  Cl  Cl49  1  0.73034237  0.59099175  0.50046271  1
  Cl  Cl50  1  0.59099175  0.86064938  0.49953729  1
  Cl  Cl51  1  0.40900825  0.13935062  0.50046271  1
