# generated using pymatgen
data_CsLa(TaBr3)6
_symmetry_space_group_name_H-M   'P 1'
_cell_length_a   10.03199656
_cell_length_b   10.03199656
_cell_length_c   18.74309897
_cell_angle_alpha   90.00000000
_cell_angle_beta   90.00000000
_cell_angle_gamma   119.99999830
_symmetry_Int_Tables_number   1
_chemical_formula_structural   CsLa(TaBr3)6
_chemical_formula_sum   'Cs2 La2 Ta12 Br36'
_cell_volume   1633.60399537
_cell_formula_units_Z   2
loop_
 _symmetry_equiv_pos_site_id
 _symmetry_equiv_pos_as_xyz
  1  'x, y, z'
loop_
 _atom_site_type_symbol
 _atom_site_label
 _atom_site_symmetry_multiplicity
 _atom_site_fract_x
 _atom_site_fract_y
 _atom_site_fract_z
 _atom_site_occupancy
  Cs  Cs0  1  0.33333300  0.66666700  0.75000000  1
  Cs  Cs1  1  0.66666700  0.33333300  0.25000000  1
  La  La2  1  0.66666700  0.33333300  0.75000000  1
  La  La3  1  0.33333300  0.66666700  0.25000000  1
  Ta  Ta4  1  0.96367031  0.14705780  0.93658485  1
  Ta  Ta5  1  0.03632969  0.85294220  0.06341515  1
  Ta  Ta6  1  0.18338748  0.03632969  0.93658485  1
  Ta  Ta7  1  0.18338748  0.14705780  0.56341515  1
  Ta  Ta8  1  0.81661252  0.96367031  0.06341515  1
  Ta  Ta9  1  0.81661252  0.85294220  0.43658485  1
  Ta  Ta10  1  0.85294220  0.81661252  0.93658485  1
  Ta  Ta11  1  0.85294220  0.03632969  0.56341515  1
  Ta  Ta12  1  0.14705780  0.18338748  0.06341515  1
  Ta  Ta13  1  0.14705780  0.96367031  0.43658485  1
  Ta  Ta14  1  0.96367031  0.81661252  0.56341515  1
  Ta  Ta15  1  0.03632969  0.18338748  0.43658485  1
  Br  Br16  1  0.92298530  0.36145921  0.84277907  1
  Br  Br17  1  0.07701470  0.63854079  0.15722093  1
  Br  Br18  1  0.43847391  0.07701470  0.84277907  1
  Br  Br19  1  0.43847391  0.36145921  0.65722093  1
  Br  Br20  1  0.56152609  0.92298530  0.15722093  1
  Br  Br21  1  0.56152609  0.63854079  0.34277907  1
  Br  Br22  1  0.63854079  0.56152609  0.84277907  1
  Br  Br23  1  0.63854079  0.07701470  0.65722093  1
  Br  Br24  1  0.36145921  0.43847391  0.15722093  1
  Br  Br25  1  0.36145921  0.92298530  0.34277907  1
  Br  Br26  1  0.92298530  0.56152609  0.65722093  1
  Br  Br27  1  0.07701470  0.43847391  0.34277907  1
  Br  Br28  1  0.77144348  0.95546317  0.84224004  1
  Br  Br29  1  0.22855652  0.04453683  0.15775996  1
  Br  Br30  1  0.18401969  0.22855652  0.84224004  1
  Br  Br31  1  0.18401969  0.95546317  0.65775996  1
  Br  Br32  1  0.81598031  0.77144348  0.15775996  1
  Br  Br33  1  0.81598031  0.04453683  0.34224004  1
  Br  Br34  1  0.04453683  0.81598031  0.84224004  1
  Br  Br35  1  0.04453683  0.22855652  0.65775996  1
  Br  Br36  1  0.95546317  0.18401969  0.15775996  1
  Br  Br37  1  0.95546317  0.77144348  0.34224004  1
  Br  Br38  1  0.77144348  0.81598031  0.65775996  1
  Br  Br39  1  0.22855652  0.18401969  0.34224004  1
  Br  Br40  1  0.58872033  0.72730355  0.99965904  1
  Br  Br41  1  0.41127967  0.27269645  0.00034096  1
  Br  Br42  1  0.13858322  0.41127967  0.99965904  1
  Br  Br43  1  0.13858322  0.72730355  0.50034096  1
  Br  Br44  1  0.86141678  0.58872033  0.00034096  1
  Br  Br45  1  0.86141678  0.27269645  0.49965904  1
  Br  Br46  1  0.27269645  0.86141678  0.99965904  1
  Br  Br47  1  0.27269645  0.41127967  0.50034096  1
  Br  Br48  1  0.72730355  0.13858322  0.00034096  1
  Br  Br49  1  0.72730355  0.58872033  0.49965904  1
  Br  Br50  1  0.58872033  0.86141678  0.50034096  1
  Br  Br51  1  0.41127967  0.13858322  0.49965904  1
