# generated using pymatgen
data_Gd12Co6Pb
_symmetry_space_group_name_H-M   'P 1'
_cell_length_a   8.46870183
_cell_length_b   8.46870183
_cell_length_c   8.46870183
_cell_angle_alpha   109.47122063
_cell_angle_beta   109.47122063
_cell_angle_gamma   109.47122063
_symmetry_Int_Tables_number   1
_chemical_formula_structural   Gd12Co6Pb
_chemical_formula_sum   'Gd12 Co6 Pb1'
_cell_volume   467.55061846
_cell_formula_units_Z   1
loop_
 _symmetry_equiv_pos_site_id
 _symmetry_equiv_pos_as_xyz
  1  'x, y, z'
loop_
 _atom_site_type_symbol
 _atom_site_label
 _atom_site_symmetry_multiplicity
 _atom_site_fract_x
 _atom_site_fract_y
 _atom_site_fract_z
 _atom_site_occupancy
  Gd  Gd0  1  0.80618967  0.69459888  0.50078855  1
  Gd  Gd1  1  0.19381033  0.30540112  0.49921145  1
  Gd  Gd2  1  0.19381033  0.69459888  0.88840921  1
  Gd  Gd3  1  0.80618967  0.30540112  0.11159079  1
  Gd  Gd4  1  0.69459888  0.50078855  0.80618967  1
  Gd  Gd5  1  0.30540112  0.49921145  0.19381033  1
  Gd  Gd6  1  0.69459888  0.88840921  0.19381033  1
  Gd  Gd7  1  0.30540112  0.11159079  0.80618967  1
  Gd  Gd8  1  0.50078855  0.80618967  0.69459888  1
  Gd  Gd9  1  0.49921145  0.19381033  0.30540112  1
  Gd  Gd10  1  0.11159079  0.80618967  0.30540112  1
  Gd  Gd11  1  0.88840921  0.19381033  0.69459888  1
  Co  Co12  1  0.88743107  0.38743107  0.50000000  1
  Co  Co13  1  0.11256893  0.61256893  0.50000000  1
  Co  Co14  1  0.38743107  0.50000000  0.88743107  1
  Co  Co15  1  0.61256893  0.50000000  0.11256893  1
  Co  Co16  1  0.50000000  0.88743107  0.38743107  1
  Co  Co17  1  0.50000000  0.11256893  0.61256893  1
  Pb  Pb18  1  -0.00000000  0.00000000  0.00000000  1
