# generated using pymatgen
data_CsEuTa6Cl18
_symmetry_space_group_name_H-M   'P 1'
_cell_length_a   9.46518656
_cell_length_b   9.46518656
_cell_length_c   17.62161788
_cell_angle_alpha   90.00000000
_cell_angle_beta   90.00000000
_cell_angle_gamma   119.99999901
_symmetry_Int_Tables_number   1
_chemical_formula_structural   CsEuTa6Cl18
_chemical_formula_sum   'Cs2 Eu2 Ta12 Cl36'
_cell_volume   1367.20857030
_cell_formula_units_Z   2
loop_
 _symmetry_equiv_pos_site_id
 _symmetry_equiv_pos_as_xyz
  1  'x, y, z'
loop_
 _atom_site_type_symbol
 _atom_site_label
 _atom_site_symmetry_multiplicity
 _atom_site_fract_x
 _atom_site_fract_y
 _atom_site_fract_z
 _atom_site_occupancy
  Cs  Cs0  1  0.33333300  0.66666700  0.75000000  1
  Cs  Cs1  1  0.66666700  0.33333300  0.25000000  1
  Eu  Eu2  1  0.66666700  0.33333300  0.75000000  1
  Eu  Eu3  1  0.33333300  0.66666700  0.25000000  1
  Ta  Ta4  1  0.96263137  0.15672969  0.93249381  1
  Ta  Ta5  1  0.03736863  0.84327031  0.06750619  1
  Ta  Ta6  1  0.19409832  0.03736863  0.93249381  1
  Ta  Ta7  1  0.19409832  0.15672969  0.56750619  1
  Ta  Ta8  1  0.80590168  0.96263137  0.06750619  1
  Ta  Ta9  1  0.80590168  0.84327031  0.43249381  1
  Ta  Ta10  1  0.84327031  0.80590168  0.93249381  1
  Ta  Ta11  1  0.84327031  0.03736863  0.56750619  1
  Ta  Ta12  1  0.15672969  0.19409832  0.06750619  1
  Ta  Ta13  1  0.15672969  0.96263137  0.43249381  1
  Ta  Ta14  1  0.96263137  0.80590168  0.56750619  1
  Ta  Ta15  1  0.03736863  0.19409832  0.43249381  1
  Cl  Cl16  1  0.92681455  0.35999259  0.84478271  1
  Cl  Cl17  1  0.07318545  0.64000741  0.15521729  1
  Cl  Cl18  1  0.43317804  0.07318545  0.84478271  1
  Cl  Cl19  1  0.43317804  0.35999259  0.65521729  1
  Cl  Cl20  1  0.56682196  0.92681455  0.15521729  1
  Cl  Cl21  1  0.56682196  0.64000741  0.34478271  1
  Cl  Cl22  1  0.64000741  0.56682196  0.84478271  1
  Cl  Cl23  1  0.64000741  0.07318545  0.65521729  1
  Cl  Cl24  1  0.35999259  0.43317804  0.15521729  1
  Cl  Cl25  1  0.35999259  0.92681455  0.34478271  1
  Cl  Cl26  1  0.92681455  0.56682196  0.65521729  1
  Cl  Cl27  1  0.07318545  0.43317804  0.34478271  1
  Cl  Cl28  1  0.77148550  0.95656745  0.84143889  1
  Cl  Cl29  1  0.22851450  0.04343255  0.15856111  1
  Cl  Cl30  1  0.18508195  0.22851450  0.84143889  1
  Cl  Cl31  1  0.18508195  0.95656745  0.65856111  1
  Cl  Cl32  1  0.81491805  0.77148550  0.15856111  1
  Cl  Cl33  1  0.81491805  0.04343255  0.34143889  1
  Cl  Cl34  1  0.04343255  0.81491805  0.84143889  1
  Cl  Cl35  1  0.04343255  0.22851450  0.65856111  1
  Cl  Cl36  1  0.95656745  0.18508195  0.15856111  1
  Cl  Cl37  1  0.95656745  0.77148550  0.34143889  1
  Cl  Cl38  1  0.77148550  0.81491805  0.65856111  1
  Cl  Cl39  1  0.22851450  0.18508195  0.34143889  1
  Cl  Cl40  1  0.58802202  0.72784859  -0.00002225  1
  Cl  Cl41  1  0.41197798  0.27215141  0.00002225  1
  Cl  Cl42  1  0.13982657  0.41197798  -0.00002225  1
  Cl  Cl43  1  0.13982657  0.72784859  0.50002225  1
  Cl  Cl44  1  0.86017343  0.58802202  0.00002225  1
  Cl  Cl45  1  0.86017343  0.27215141  0.49997775  1
  Cl  Cl46  1  0.27215141  0.86017343  -0.00002225  1
  Cl  Cl47  1  0.27215141  0.41197798  0.50002225  1
  Cl  Cl48  1  0.72784859  0.13982657  0.00002225  1
  Cl  Cl49  1  0.72784859  0.58802202  0.49997775  1
  Cl  Cl50  1  0.58802202  0.86017343  0.50002225  1
  Cl  Cl51  1  0.41197798  0.13982657  0.49997775  1
