# generated using pymatgen
data_Er21(In2Rh5)2
_symmetry_space_group_name_H-M   'P 1'
_cell_length_a   11.61992283
_cell_length_b   11.61992283
_cell_length_c   14.91314858
_cell_angle_alpha   112.92877292
_cell_angle_beta   112.92877292
_cell_angle_gamma   90.00000000
_symmetry_Int_Tables_number   1
_chemical_formula_structural   Er21(In2Rh5)2
_chemical_formula_sum   'Er42 In8 Rh20'
_cell_volume   1680.42508154
_cell_formula_units_Z   2
loop_
 _symmetry_equiv_pos_site_id
 _symmetry_equiv_pos_as_xyz
  1  'x, y, z'
loop_
 _atom_site_type_symbol
 _atom_site_label
 _atom_site_symmetry_multiplicity
 _atom_site_fract_x
 _atom_site_fract_y
 _atom_site_fract_z
 _atom_site_occupancy
  Er  Er0  1  0.39467801  0.26932803  0.38268413  1
  Er  Er1  1  0.60532199  0.73067197  0.61731587  1
  Er  Er2  1  0.98800612  0.11335611  0.38268413  1
  Er  Er3  1  0.11335611  0.39467801  0.38268413  1
  Er  Er4  1  0.10532199  0.38664389  0.61731587  1
  Er  Er5  1  0.01199388  0.88664389  0.61731587  1
  Er  Er6  1  0.88664389  0.60532199  0.61731587  1
  Er  Er7  1  0.89467801  0.61335611  0.38268413  1
  Er  Er8  1  0.26932803  0.98800612  0.38268413  1
  Er  Er9  1  0.51199388  0.23067197  0.61731587  1
  Er  Er10  1  0.73067197  0.01199388  0.61731587  1
  Er  Er11  1  0.48800612  0.76932803  0.38268413  1
  Er  Er12  1  0.38664389  0.51199388  0.61731587  1
  Er  Er13  1  0.61335611  0.48800612  0.38268413  1
  Er  Er14  1  0.23067197  0.10532199  0.61731587  1
  Er  Er15  1  0.76932803  0.89467801  0.38268413  1
  Er  Er16  1  0.10223497  0.60223497  0.20446994  1
  Er  Er17  1  0.89776503  0.39776503  0.79553006  1
  Er  Er18  1  0.60223497  0.10223497  0.20446994  1
  Er  Er19  1  0.39776503  0.89776503  0.79553006  1
  Er  Er20  1  0.15052137  0.65052137  -0.00000000  1
  Er  Er21  1  0.84947863  0.34947863  -0.00000000  1
  Er  Er22  1  0.34947863  0.15052137  -0.00000000  1
  Er  Er23  1  0.65052137  0.84947863  -0.00000000  1
  Er  Er24  1  0.14561622  0.27091009  0.13982837  1
  Er  Er25  1  0.85438378  0.72908991  0.86017163  1
  Er  Er26  1  0.99421216  0.86891829  0.13982837  1
  Er  Er27  1  0.86891829  0.14561622  0.13982837  1
  Er  Er28  1  0.35438378  0.63108171  0.86017163  1
  Er  Er29  1  0.00578784  0.13108171  0.86017163  1
  Er  Er30  1  0.13108171  0.85438378  0.86017163  1
  Er  Er31  1  0.64561622  0.36891829  0.13982837  1
  Er  Er32  1  0.27091009  0.99421216  0.13982837  1
  Er  Er33  1  0.50578784  0.22908991  0.86017163  1
  Er  Er34  1  0.72908991  0.00578784  0.86017163  1
  Er  Er35  1  0.49421216  0.77091009  0.13982837  1
  Er  Er36  1  0.63108171  0.50578784  0.86017163  1
  Er  Er37  1  0.36891829  0.49421216  0.13982837  1
  Er  Er38  1  0.22908991  0.35438378  0.86017163  1
  Er  Er39  1  0.77091009  0.64561622  0.13982837  1
  Er  Er40  1  0.25000000  0.75000000  0.50000000  1
  Er  Er41  1  0.75000000  0.25000000  0.50000000  1
  In  In42  1  0.84130369  0.34130369  0.37002178  1
  In  In43  1  0.15869631  0.65869631  0.62997822  1
  In  In44  1  0.52871809  0.02871809  0.37002178  1
  In  In45  1  0.02871809  0.84130369  0.37002178  1
  In  In46  1  0.65869631  0.47128191  0.62997822  1
  In  In47  1  0.47128191  0.97128191  0.62997822  1
  In  In48  1  0.97128191  0.15869631  0.62997822  1
  In  In49  1  0.34130369  0.52871809  0.37002178  1
  Rh  Rh50  1  0.29215890  0.79215890  0.21438683  1
  Rh  Rh51  1  0.70784110  0.20784110  0.78561317  1
  Rh  Rh52  1  0.92222793  0.42222793  0.21438683  1
  Rh  Rh53  1  0.42222793  0.29215890  0.21438683  1
  Rh  Rh54  1  0.20784110  0.07777207  0.78561317  1
  Rh  Rh55  1  0.07777207  0.57777207  0.78561317  1
  Rh  Rh56  1  0.57777207  0.70784110  0.78561317  1
  Rh  Rh57  1  0.79215890  0.92222793  0.21438683  1
  Rh  Rh58  1  0.59741494  0.09741494  -0.00000000  1
  Rh  Rh59  1  0.40258506  0.90258506  -0.00000000  1
  Rh  Rh60  1  0.90258506  0.59741494  -0.00000000  1
  Rh  Rh61  1  0.09741494  0.40258506  -0.00000000  1
  Rh  Rh62  1  -0.00000000  0.00000000  -0.00000000  1
  Rh  Rh63  1  0.50000000  0.50000000  -0.00000000  1
  Rh  Rh64  1  0.13137490  0.13137490  0.26274980  1
  Rh  Rh65  1  0.86862510  0.86862510  0.73725020  1
  Rh  Rh66  1  0.36862510  0.36862510  0.73725020  1
  Rh  Rh67  1  0.63137490  0.63137490  0.26274980  1
  Rh  Rh68  1  0.25000000  0.25000000  0.50000000  1
  Rh  Rh69  1  0.75000000  0.75000000  0.50000000  1
