# generated using pymatgen
data_InH12S3(NO4)3
_symmetry_space_group_name_H-M   'P 1'
_cell_length_a   9.23992386
_cell_length_b   9.26157523
_cell_length_c   15.97936901
_cell_angle_alpha   90.00000000
_cell_angle_beta   90.00000000
_cell_angle_gamma   108.76993974
_symmetry_Int_Tables_number   1
_chemical_formula_structural   InH12S3(NO4)3
_chemical_formula_sum   'In4 H48 S12 N12 O48'
_cell_volume   1294.73079533
_cell_formula_units_Z   4
loop_
 _symmetry_equiv_pos_site_id
 _symmetry_equiv_pos_as_xyz
  1  'x, y, z'
loop_
 _atom_site_type_symbol
 _atom_site_label
 _atom_site_symmetry_multiplicity
 _atom_site_fract_x
 _atom_site_fract_y
 _atom_site_fract_z
 _atom_site_occupancy
  In  In0  1  0.71499886  0.72470511  0.74880127  1
  In  In1  1  0.28500114  0.27529489  0.25119873  1
  In  In2  1  0.28500114  0.77529489  0.24880127  1
  In  In3  1  0.71499886  0.22470511  0.75119873  1
  H  H4  1  0.90406649  0.30317898  0.49774336  1
  H  H5  1  0.09593351  0.69682102  0.50225664  1
  H  H6  1  0.09593351  0.19682102  0.99774336  1
  H  H7  1  0.90406649  0.80317898  0.00225664  1
  H  H8  1  0.43491976  0.63310702  0.96069323  1
  H  H9  1  0.56508024  0.36689298  0.03930677  1
  H  H10  1  0.56508024  0.86689298  0.46069323  1
  H  H11  1  0.43491976  0.13310702  0.53930677  1
  H  H12  1  0.91535499  0.12285922  0.49273164  1
  H  H13  1  0.08464501  0.87714078  0.50726836  1
  H  H14  1  0.08464501  0.37714078  0.99273164  1
  H  H15  1  0.91535499  0.62285922  0.00726836  1
  H  H16  1  0.70964822  0.80825283  0.42987707  1
  H  H17  1  0.29035178  0.19174717  0.57012293  1
  H  H18  1  0.29035178  0.69174717  0.92987707  1
  H  H19  1  0.70964822  0.30825283  0.07012293  1
  H  H20  1  0.23574208  0.89719571  0.79496791  1
  H  H21  1  0.76425792  0.10280429  0.20503209  1
  H  H22  1  0.76425792  0.60280429  0.29496791  1
  H  H23  1  0.23574208  0.39719571  0.70503209  1
  H  H24  1  0.20216972  0.82558628  0.57242463  1
  H  H25  1  0.79783028  0.17441372  0.42757537  1
  H  H26  1  0.79783028  0.67441372  0.07242463  1
  H  H27  1  0.20216972  0.32558628  0.92757537  1
  H  H28  1  0.24332869  0.98162517  0.89076565  1
  H  H29  1  0.75667131  0.01837483  0.10923435  1
  H  H30  1  0.75667131  0.51837483  0.39076565  1
  H  H31  1  0.24332869  0.48162517  0.60923435  1
  H  H32  1  0.99029938  0.24948403  0.41551040  1
  H  H33  1  0.00970062  0.75051597  0.58448960  1
  H  H34  1  0.00970062  0.25051597  0.91551040  1
  H  H35  1  0.99029938  0.74948403  0.08448960  1
  H  H36  1  0.91577858  0.55724341  0.33195760  1
  H  H37  1  0.08422142  0.44275659  0.66804240  1
  H  H38  1  0.08422142  0.94275659  0.83195760  1
  H  H39  1  0.91577858  0.05724341  0.16804240  1
  H  H40  1  0.75561201  0.91652269  0.19662132  1
  H  H41  1  0.24438799  0.08347731  0.80337868  1
  H  H42  1  0.24438799  0.58347731  0.69662132  1
  H  H43  1  0.75561201  0.41652269  0.30337868  1
  H  H44  1  0.44668550  0.81631996  0.97902451  1
  H  H45  1  0.55331450  0.18368004  0.02097549  1
  H  H46  1  0.55331450  0.68368004  0.47902451  1
  H  H47  1  0.44668550  0.31631996  0.52097549  1
  H  H48  1  0.68147096  0.82740154  0.53194788  1
  H  H49  1  0.31852904  0.17259846  0.46805212  1
  H  H50  1  0.31852904  0.67259846  0.03194788  1
  H  H51  1  0.68147096  0.32740154  0.96805212  1
  S  S52  1  0.75446159  0.97344901  0.90797892  1
  S  S53  1  0.24553841  0.02655099  0.09202108  1
  S  S54  1  0.24553841  0.52655099  0.40797892  1
  S  S55  1  0.75446159  0.47344901  0.59202108  1
  S  S56  1  0.94611216  0.54118571  0.84803642  1
  S  S57  1  0.05388784  0.45881429  0.15196358  1
  S  S58  1  0.05388784  0.95881429  0.34803642  1
  S  S59  1  0.94611216  0.04118571  0.65196358  1
  S  S60  1  0.45835614  0.89387001  0.67245826  1
  S  S61  1  0.54164386  0.10612999  0.32754174  1
  S  S62  1  0.54164386  0.60612999  0.17245826  1
  S  S63  1  0.45835614  0.39387001  0.82754174  1
  N  N64  1  0.20211328  0.97529167  0.83027556  1
  N  N65  1  0.79788672  0.02470833  0.16972444  1
  N  N66  1  0.79788672  0.52470833  0.33027556  1
  N  N67  1  0.20211328  0.47529167  0.66972444  1
  N  N68  1  0.62666824  0.79443330  0.47529183  1
  N  N69  1  0.37333176  0.20556670  0.52470817  1
  N  N70  1  0.37333176  0.70556670  0.97529183  1
  N  N71  1  0.62666824  0.29443330  0.02470817  1
  N  N72  1  0.90214975  0.21316785  0.45785528  1
  N  N73  1  0.09785025  0.78683215  0.54214472  1
  N  N74  1  0.09785025  0.28683215  0.95785528  1
  N  N75  1  0.90214975  0.71316785  0.04214472  1
  O  O76  1  0.65474699  0.84391036  0.85491271  1
  O  O77  1  0.34525301  0.15608964  0.14508729  1
  O  O78  1  0.34525301  0.65608964  0.35491271  1
  O  O79  1  0.65474699  0.34391036  0.64508729  1
  O  O80  1  0.77994247  0.62355758  0.63738141  1
  O  O81  1  0.22005753  0.37644242  0.36261859  1
  O  O82  1  0.22005753  0.87644242  0.13738141  1
  O  O83  1  0.77994247  0.12355758  0.86261859  1
  O  O84  1  0.67188761  0.97573245  0.98681289  1
  O  O85  1  0.32811239  0.02426755  0.01318711  1
  O  O86  1  0.32811239  0.52426755  0.48681289  1
  O  O87  1  0.67188761  0.47573245  0.51318711  1
  O  O88  1  0.31504515  0.79371706  0.71020982  1
  O  O89  1  0.68495485  0.20628294  0.28979018  1
  O  O90  1  0.68495485  0.70628294  0.21020982  1
  O  O91  1  0.31504515  0.29371706  0.78979018  1
  O  O92  1  0.57462245  0.81133584  0.66624783  1
  O  O93  1  0.42537755  0.18866416  0.33375217  1
  O  O94  1  0.42537755  0.68866416  0.16624783  1
  O  O95  1  0.57462245  0.31133584  0.83375217  1
  O  O96  1  0.88360977  0.96825390  0.57177919  1
  O  O97  1  0.11639023  0.03174610  0.42822081  1
  O  O98  1  0.11639023  0.53174610  0.07177919  1
  O  O99  1  0.88360977  0.46825390  0.92822081  1
  O  O100  1  0.87104045  0.65930533  0.82790529  1
  O  O101  1  0.12895955  0.34069467  0.17209471  1
  O  O102  1  0.12895955  0.84069467  0.32790529  1
  O  O103  1  0.87104045  0.15930533  0.67209471  1
  O  O104  1  0.43296167  0.94082586  0.58722322  1
  O  O105  1  0.56703833  0.05917414  0.41277678  1
  O  O106  1  0.56703833  0.55917414  0.08722322  1
  O  O107  1  0.43296167  0.44082586  0.91277678  1
  O  O108  1  0.90513452  0.95595368  0.92238677  1
  O  O109  1  0.09486548  0.04404632  0.07761323  1
  O  O110  1  0.09486548  0.54404632  0.42238677  1
  O  O111  1  0.90513452  0.45595368  0.57761323  1
  O  O112  1  0.91219265  0.92321745  0.72128747  1
  O  O113  1  0.08780735  0.07678255  0.27871253  1
  O  O114  1  0.08780735  0.57678255  0.22128747  1
  O  O115  1  0.91219265  0.42321745  0.77871253  1
  O  O116  1  0.51596761  0.53029831  0.77055388  1
  O  O117  1  0.48403239  0.46970169  0.22944612  1
  O  O118  1  0.48403239  0.96970169  0.27055388  1
  O  O119  1  0.51596761  0.03029831  0.72944612  1
  O  O120  1  0.88783975  0.88462247  0.35162613  1
  O  O121  1  0.11216025  0.11537753  0.64837387  1
  O  O122  1  0.11216025  0.61537753  0.85162613  1
  O  O123  1  0.88783975  0.38462247  0.14837387  1
