# generated using pymatgen
data_MnPO4
_symmetry_space_group_name_H-M   'P 1'
_cell_length_a   8.63602084
_cell_length_b   5.44114548
_cell_length_c   8.47293143
_cell_angle_alpha   90.00000000
_cell_angle_beta   104.36698429
_cell_angle_gamma   90.00000000
_symmetry_Int_Tables_number   1
_chemical_formula_structural   MnPO4
_chemical_formula_sum   'Mn4 P4 O16'
_cell_volume   385.69037746
_cell_formula_units_Z   4
loop_
 _symmetry_equiv_pos_site_id
 _symmetry_equiv_pos_as_xyz
  1  'x, y, z'
loop_
 _atom_site_type_symbol
 _atom_site_label
 _atom_site_symmetry_multiplicity
 _atom_site_fract_x
 _atom_site_fract_y
 _atom_site_fract_z
 _atom_site_occupancy
  O  O0  1  0.51466676  0.59694661  0.28855517  1
  O  O1  1  0.89018944  0.72455940  0.07268664  1
  O  O2  1  0.99449224  0.24461775  0.86546956  1
  O  O3  1  0.83618153  0.25661169  0.57174894  1
  O  O4  1  0.01466676  0.40305239  0.28855517  1
  O  O5  1  0.20428617  0.63954613  0.80346182  1
  O  O6  1  0.27466389  0.07042874  0.75025152  1
  O  O7  1  0.17997531  0.73226061  0.21296383  1
  O  O8  1  0.33618153  0.74338931  0.57174994  1
  O  O9  1  0.67997531  0.26773839  0.21296183  1
  O  O10  1  0.39018944  0.27543960  0.07268664  1
  O  O11  1  0.46954018  0.15121038  0.36659000  1
  O  O12  1  0.96953918  0.84878962  0.36659000  1
  O  O13  1  0.70428617  0.36045287  0.80346182  1
  O  O14  1  0.77466289  0.92957026  0.75025152  1
  O  O15  1  0.49449224  0.75538325  0.86546956  1
  P  P16  1  0.01004790  0.67757339  0.23695526  1
  P  P17  1  0.32763081  0.80066641  0.74702319  1
  P  P18  1  0.51004890  0.32242761  0.23695626  1
  P  P19  1  0.82763081  0.19933259  0.74702219  1
  Mn  Mn20  1  0.87650871  0.18076181  0.36227804  1
  Mn  Mn21  1  0.71350405  0.69040324  0.88833302  1
  Mn  Mn22  1  0.37650871  0.81923719  0.36227904  1
  Mn  Mn23  1  0.21350405  0.30959576  0.88833302  1
