# generated using pymatgen
data_Cs3DyCl6
_symmetry_space_group_name_H-M   'P 1'
_cell_length_a   8.32522091
_cell_length_b   13.40056668
_cell_length_c   14.27281006
_cell_angle_alpha   99.24188638
_cell_angle_beta   106.95653775
_cell_angle_gamma   90.00000000
_symmetry_Int_Tables_number   1
_chemical_formula_structural   Cs3DyCl6
_chemical_formula_sum   'Cs12 Dy4 Cl24'
_cell_volume   1501.46684148
_cell_formula_units_Z   4
loop_
 _symmetry_equiv_pos_site_id
 _symmetry_equiv_pos_as_xyz
  1  'x, y, z'
loop_
 _atom_site_type_symbol
 _atom_site_label
 _atom_site_symmetry_multiplicity
 _atom_site_fract_x
 _atom_site_fract_y
 _atom_site_fract_z
 _atom_site_occupancy
  Cs  Cs0  1  0.69591605  0.06746508  0.90016988  1
  Cs  Cs1  1  0.30408395  0.93253492  0.09983012  1
  Cs  Cs2  1  0.79574618  0.43253492  0.09983012  1
  Cs  Cs3  1  0.20425382  0.56746508  0.90016988  1
  Cs  Cs4  1  0.53335193  0.35556828  0.69271623  1
  Cs  Cs5  1  0.46664807  0.64443172  0.30728377  1
  Cs  Cs6  1  0.84063570  0.14443172  0.30728377  1
  Cs  Cs7  1  0.15936430  0.85556828  0.69271623  1
  Cs  Cs8  1  0.34933297  0.29976090  0.32413947  1
  Cs  Cs9  1  0.65066703  0.70023910  0.67586053  1
  Cs  Cs10  1  0.02519349  0.20023910  0.67586053  1
  Cs  Cs11  1  0.97480651  0.79976090  0.32413947  1
  Dy  Dy12  1  0.21731686  0.25000000  1.00000000  1
  Dy  Dy13  1  0.78268314  0.75000000  0.00000000  1
  Dy  Dy14  1  0.50000000  0.00000000  0.50000000  1
  Dy  Dy15  1  0.00000000  0.50000000  0.50000000  1
  Cl  Cl16  1  0.38141164  0.07920957  0.64886223  1
  Cl  Cl17  1  0.61858836  0.92079043  0.35113777  1
  Cl  Cl18  1  0.73254941  0.42079043  0.35113777  1
  Cl  Cl19  1  0.26745059  0.57920957  0.64886223  1
  Cl  Cl20  1  0.49577123  0.18247824  0.11262624  1
  Cl  Cl21  1  0.50422877  0.81752176  0.88737376  1
  Cl  Cl22  1  0.38314499  0.31752176  0.88737376  1
  Cl  Cl23  1  0.61685501  0.68247824  0.11262624  1
  Cl  Cl24  1  0.22704063  0.03419711  0.35917891  1
  Cl  Cl25  1  0.77295937  0.96580289  0.64082109  1
  Cl  Cl26  1  0.86786172  0.46580289  0.64082109  1
  Cl  Cl27  1  0.13213828  0.53419711  0.35917891  1
  Cl  Cl28  1  0.07481393  0.69486549  0.11218487  1
  Cl  Cl29  1  0.92518607  0.30513451  0.88781513  1
  Cl  Cl30  1  0.96262906  0.80513451  0.88781513  1
  Cl  Cl31  1  0.03737094  0.19486549  0.11218487  1
  Cl  Cl32  1  0.28050748  0.43019715  0.11270622  1
  Cl  Cl33  1  0.71949252  0.56980285  0.88729378  1
  Cl  Cl34  1  0.16780126  0.06980285  0.88729378  1
  Cl  Cl35  1  0.83219874  0.93019715  0.11270622  1
  Cl  Cl36  1  0.63498527  0.18052818  0.49950285  1
  Cl  Cl37  1  0.36501473  0.81947182  0.50049715  1
  Cl  Cl38  1  0.13548243  0.31947182  0.50049715  1
  Cl  Cl39  1  0.86451757  0.68052818  0.49950285  1
