# generated using pymatgen
data_CsH3(SO4)2
_symmetry_space_group_name_H-M   'P 1'
_cell_length_a   7.89424005
_cell_length_b   8.33132792
_cell_length_c   13.00069434
_cell_angle_alpha   90.00000000
_cell_angle_beta   90.00000000
_cell_angle_gamma   90.34672818
_symmetry_Int_Tables_number   1
_chemical_formula_structural   CsH3(SO4)2
_chemical_formula_sum   'Cs4 H12 S8 O32'
_cell_volume   855.03354329
_cell_formula_units_Z   4
loop_
 _symmetry_equiv_pos_site_id
 _symmetry_equiv_pos_as_xyz
  1  'x, y, z'
loop_
 _atom_site_type_symbol
 _atom_site_label
 _atom_site_symmetry_multiplicity
 _atom_site_fract_x
 _atom_site_fract_y
 _atom_site_fract_z
 _atom_site_occupancy
  Cs  Cs0  1  0.78422963  0.83615796  0.56807280  1
  Cs  Cs1  1  0.21577037  0.16384204  0.43192720  1
  Cs  Cs2  1  0.21577037  0.66384204  0.06807280  1
  Cs  Cs3  1  0.78422963  0.33615796  0.93192720  1
  H  H4  1  0.49239214  0.77052929  0.84107157  1
  H  H5  1  0.50760786  0.22947071  0.15892843  1
  H  H6  1  0.50760786  0.72947071  0.34107157  1
  H  H7  1  0.49239214  0.27052929  0.65892843  1
  H  H8  1  0.86948327  0.88728058  0.25310123  1
  H  H9  1  0.13051673  0.11271942  0.74689877  1
  H  H10  1  0.13051673  0.61271942  0.75310123  1
  H  H11  1  0.86948327  0.38728058  0.24689877  1
  H  H12  1  0.66980885  0.37711902  0.45314599  1
  H  H13  1  0.33019115  0.62288098  0.54685401  1
  H  H14  1  0.33019115  0.12288098  0.95314599  1
  H  H15  1  0.66980885  0.87711902  0.04685401  1
  S  S16  1  0.75254876  0.82907711  0.89281819  1
  S  S17  1  0.24745124  0.17092289  0.10718181  1
  S  S18  1  0.24745124  0.67092289  0.39281819  1
  S  S19  1  0.75254876  0.32907711  0.60718181  1
  S  S20  1  0.26191986  0.82703286  0.70029217  1
  S  S21  1  0.73808014  0.17296714  0.29970783  1
  S  S22  1  0.73808014  0.67296714  0.20029217  1
  S  S23  1  0.26191986  0.32703286  0.79970783  1
  O  O24  1  0.69897915  0.94420246  0.98331396  1
  O  O25  1  0.30102085  0.05579754  0.01668604  1
  O  O26  1  0.30102085  0.55579754  0.48331396  1
  O  O27  1  0.69897915  0.44420246  0.51668604  1
  O  O28  1  0.77888597  0.93376669  0.80628721  1
  O  O29  1  0.22111403  0.06623331  0.19371279  1
  O  O30  1  0.22111403  0.56623331  0.30628721  1
  O  O31  1  0.77888597  0.43376669  0.69371279  1
  O  O32  1  0.18429492  0.97654651  0.66407632  1
  O  O33  1  0.81570508  0.02345349  0.33592368  1
  O  O34  1  0.81570508  0.52345349  0.16407632  1
  O  O35  1  0.18429492  0.47654651  0.83592368  1
  O  O36  1  0.38405096  0.75968099  0.62652303  1
  O  O37  1  0.61594904  0.24031901  0.37347697  1
  O  O38  1  0.61594904  0.74031901  0.12652303  1
  O  O39  1  0.38405096  0.25968099  0.87347697  1
  O  O40  1  0.88709241  0.72443668  0.92617243  1
  O  O41  1  0.11290759  0.27556332  0.07382757  1
  O  O42  1  0.11290759  0.77556332  0.42617243  1
  O  O43  1  0.88709241  0.22443668  0.57382757  1
  O  O44  1  0.89403214  0.79211840  0.20648437  1
  O  O45  1  0.10596786  0.20788160  0.79351563  1
  O  O46  1  0.10596786  0.70788160  0.70648437  1
  O  O47  1  0.89403214  0.29211840  0.29351563  1
  O  O48  1  0.33485147  0.84311759  0.80413254  1
  O  O49  1  0.66514853  0.15688241  0.19586746  1
  O  O50  1  0.66514853  0.65688241  0.30413254  1
  O  O51  1  0.33485147  0.34311759  0.69586746  1
  O  O52  1  0.59690294  0.71535648  0.87559195  1
  O  O53  1  0.40309706  0.28464352  0.12440805  1
  O  O54  1  0.40309706  0.78464352  0.37559195  1
  O  O55  1  0.59690294  0.21535648  0.62440805  1
