# generated using pymatgen
data_CsZr6CCl15
_symmetry_space_group_name_H-M   'P 1'
_cell_length_a   9.94011860
_cell_length_b   14.24295468
_cell_length_c   18.91456393
_cell_angle_alpha   90.00000000
_cell_angle_beta   90.00000000
_cell_angle_gamma   90.00000000
_symmetry_Int_Tables_number   1
_chemical_formula_structural   CsZr6CCl15
_chemical_formula_sum   'Cs4 Zr24 C4 Cl60'
_cell_volume   2677.86076261
_cell_formula_units_Z   4
loop_
 _symmetry_equiv_pos_site_id
 _symmetry_equiv_pos_as_xyz
  1  'x, y, z'
loop_
 _atom_site_type_symbol
 _atom_site_label
 _atom_site_symmetry_multiplicity
 _atom_site_fract_x
 _atom_site_fract_y
 _atom_site_fract_z
 _atom_site_occupancy
  Cs  Cs0  1  0.17084131  0.75253091  0.75000000  1
  Cs  Cs1  1  0.82915869  0.24746909  0.25000000  1
  Cs  Cs2  1  0.17084131  0.24746909  0.75000000  1
  Cs  Cs3  1  0.82915869  0.75253091  0.25000000  1
  Zr  Zr4  1  0.88451972  0.50000000  0.75000000  1
  Zr  Zr5  1  0.11548028  0.50000000  0.25000000  1
  Zr  Zr6  1  0.92034667  0.00000000  0.38766080  1
  Zr  Zr7  1  0.07965333  0.00000000  0.61233920  1
  Zr  Zr8  1  0.92034667  0.00000000  0.11233920  1
  Zr  Zr9  1  0.07965333  0.00000000  0.88766080  1
  Zr  Zr10  1  0.65833069  0.61473689  0.83663786  1
  Zr  Zr11  1  0.34166931  0.38526311  0.16336214  1
  Zr  Zr12  1  0.65833069  0.38526311  0.66336214  1
  Zr  Zr13  1  0.34166931  0.61473689  0.16336214  1
  Zr  Zr14  1  0.34166931  0.61473689  0.33663786  1
  Zr  Zr15  1  0.65833069  0.38526311  0.83663786  1
  Zr  Zr16  1  0.34166931  0.38526311  0.33663786  1
  Zr  Zr17  1  0.65833069  0.61473689  0.66336214  1
  Zr  Zr18  1  0.42972822  0.50000000  0.75000000  1
  Zr  Zr19  1  0.57027178  0.50000000  0.25000000  1
  Zr  Zr20  1  0.84478687  0.88557199  0.97041454  1
  Zr  Zr21  1  0.15521313  0.11442801  0.02958546  1
  Zr  Zr22  1  0.84478687  0.11442801  0.52958546  1
  Zr  Zr23  1  0.15521313  0.88557199  0.02958546  1
  Zr  Zr24  1  0.15521313  0.88557199  0.47041454  1
  Zr  Zr25  1  0.84478687  0.11442801  0.97041454  1
  Zr  Zr26  1  0.15521313  0.11442801  0.47041454  1
  Zr  Zr27  1  0.84478687  0.88557199  0.52958546  1
  C  C28  1  0.00000000  0.00000000  0.00000000  1
  C  C29  1  0.00000000  0.00000000  0.50000000  1
  C  C30  1  0.65679220  0.50000000  0.75000000  1
  C  C31  1  0.34320780  0.50000000  0.25000000  1
  Cl  Cl32  1  0.18136080  0.00000000  0.75000000  1
  Cl  Cl33  1  0.81863920  0.00000000  0.25000000  1
  Cl  Cl34  1  0.15781772  0.50000000  0.75000000  1
  Cl  Cl35  1  0.84218228  0.50000000  0.25000000  1
  Cl  Cl36  1  0.65834345  0.50000000  0.93984516  1
  Cl  Cl37  1  0.34165655  0.50000000  0.06015484  1
  Cl  Cl38  1  0.65834345  0.50000000  0.56015484  1
  Cl  Cl39  1  0.34165655  0.50000000  0.43984516  1
  Cl  Cl40  1  0.00000000  0.74869400  0.00000000  1
  Cl  Cl41  1  0.00000000  0.25130600  0.00000000  1
  Cl  Cl42  1  0.00000000  0.25130600  0.50000000  1
  Cl  Cl43  1  0.00000000  0.74869400  0.50000000  1
  Cl  Cl44  1  0.64997630  0.75202510  0.75000000  1
  Cl  Cl45  1  0.35002370  0.24797490  0.25000000  1
  Cl  Cl46  1  0.64997630  0.24797490  0.75000000  1
  Cl  Cl47  1  0.35002370  0.75202510  0.25000000  1
  Cl  Cl48  1  0.66246709  0.75070360  0.93659314  1
  Cl  Cl49  1  0.33753291  0.24929640  0.06340686  1
  Cl  Cl50  1  0.66246709  0.24929640  0.56340686  1
  Cl  Cl51  1  0.33753291  0.75070360  0.06340686  1
  Cl  Cl52  1  0.33753291  0.75070360  0.43659314  1
  Cl  Cl53  1  0.66246709  0.24929640  0.93659314  1
  Cl  Cl54  1  0.33753291  0.24929640  0.43659314  1
  Cl  Cl55  1  0.66246709  0.75070360  0.56340686  1
  Cl  Cl56  1  0.91679690  0.87677673  0.84177735  1
  Cl  Cl57  1  0.08320310  0.12322327  0.15822265  1
  Cl  Cl58  1  0.91679690  0.12322327  0.65822265  1
  Cl  Cl59  1  0.08320310  0.87677673  0.15822265  1
  Cl  Cl60  1  0.08320310  0.87677673  0.34177735  1
  Cl  Cl61  1  0.91679690  0.12322327  0.84177735  1
  Cl  Cl62  1  0.08320310  0.12322327  0.34177735  1
  Cl  Cl63  1  0.91679690  0.87677673  0.65822265  1
  Cl  Cl64  1  0.91370483  0.62418981  0.84526304  1
  Cl  Cl65  1  0.08629517  0.37581019  0.15473696  1
  Cl  Cl66  1  0.91370483  0.37581019  0.65473696  1
  Cl  Cl67  1  0.08629517  0.62418981  0.15473696  1
  Cl  Cl68  1  0.08629517  0.62418981  0.34526304  1
  Cl  Cl69  1  0.91370483  0.37581019  0.84526304  1
  Cl  Cl70  1  0.08629517  0.37581019  0.34526304  1
  Cl  Cl71  1  0.91370483  0.62418981  0.65473696  1
  Cl  Cl72  1  0.65986424  0.00000000  0.93468386  1
  Cl  Cl73  1  0.34013576  0.00000000  0.06531614  1
  Cl  Cl74  1  0.65986424  0.00000000  0.56531614  1
  Cl  Cl75  1  0.34013576  0.00000000  0.43468386  1
  Cl  Cl76  1  0.40213645  0.62369840  0.84725609  1
  Cl  Cl77  1  0.59786355  0.37630160  0.15274391  1
  Cl  Cl78  1  0.40213645  0.37630160  0.65274391  1
  Cl  Cl79  1  0.59786355  0.62369840  0.15274391  1
  Cl  Cl80  1  0.59786355  0.62369840  0.34725609  1
  Cl  Cl81  1  0.40213645  0.37630160  0.84725609  1
  Cl  Cl82  1  0.59786355  0.37630160  0.34725609  1
  Cl  Cl83  1  0.40213645  0.62369840  0.65274391  1
  Cl  Cl84  1  0.73874121  0.87480170  0.40646191  1
  Cl  Cl85  1  0.26125879  0.12519830  0.59353809  1
  Cl  Cl86  1  0.73874121  0.12519830  0.09353809  1
  Cl  Cl87  1  0.26125879  0.87480170  0.59353809  1
  Cl  Cl88  1  0.26125879  0.87480170  0.90646191  1
  Cl  Cl89  1  0.73874121  0.12519830  0.40646191  1
  Cl  Cl90  1  0.26125879  0.12519830  0.90646191  1
  Cl  Cl91  1  0.73874121  0.87480170  0.09353809  1
