# generated using pymatgen
data_CsHf6CCl15
_symmetry_space_group_name_H-M   'P 1'
_cell_length_a   9.86399882
_cell_length_b   14.12539340
_cell_length_c   18.74675740
_cell_angle_alpha   90.00000000
_cell_angle_beta   90.00000000
_cell_angle_gamma   90.00000000
_symmetry_Int_Tables_number   1
_chemical_formula_structural   CsHf6CCl15
_chemical_formula_sum   'Cs4 Hf24 C4 Cl60'
_cell_volume   2612.03939606
_cell_formula_units_Z   4
loop_
 _symmetry_equiv_pos_site_id
 _symmetry_equiv_pos_as_xyz
  1  'x, y, z'
loop_
 _atom_site_type_symbol
 _atom_site_label
 _atom_site_symmetry_multiplicity
 _atom_site_fract_x
 _atom_site_fract_y
 _atom_site_fract_z
 _atom_site_occupancy
  Cs  Cs0  1  0.17130758  0.75232385  0.75000000  1
  Cs  Cs1  1  0.82869242  0.24767615  0.25000000  1
  Cs  Cs2  1  0.17130758  0.24767615  0.75000000  1
  Cs  Cs3  1  0.82869242  0.75232385  0.25000000  1
  Hf  Hf4  1  0.88258218  0.50000000  0.75000000  1
  Hf  Hf5  1  0.11741782  0.50000000  0.25000000  1
  Hf  Hf6  1  0.92118543  -0.00000000  0.38877316  1
  Hf  Hf7  1  0.07881457  -0.00000000  0.61122684  1
  Hf  Hf8  1  0.92118543  -0.00000000  0.11122684  1
  Hf  Hf9  1  0.07881457  -0.00000000  0.88877316  1
  Hf  Hf10  1  0.65890940  0.61342877  0.83557528  1
  Hf  Hf11  1  0.34109060  0.38657123  0.16442472  1
  Hf  Hf12  1  0.65890940  0.38657123  0.66442472  1
  Hf  Hf13  1  0.34109060  0.61342877  0.16442472  1
  Hf  Hf14  1  0.34109060  0.61342877  0.33557528  1
  Hf  Hf15  1  0.65890940  0.38657123  0.83557528  1
  Hf  Hf16  1  0.34109060  0.38657123  0.33557528  1
  Hf  Hf17  1  0.65890940  0.61342877  0.66442472  1
  Hf  Hf18  1  0.43232820  0.50000000  0.75000000  1
  Hf  Hf19  1  0.56767180  0.50000000  0.25000000  1
  Hf  Hf20  1  0.84681247  0.88686466  0.97060588  1
  Hf  Hf21  1  0.15318753  0.11313534  0.02939412  1
  Hf  Hf22  1  0.84681247  0.11313534  0.52939412  1
  Hf  Hf23  1  0.15318753  0.88686466  0.02939412  1
  Hf  Hf24  1  0.15318753  0.88686466  0.47060588  1
  Hf  Hf25  1  0.84681247  0.11313534  0.97060588  1
  Hf  Hf26  1  0.15318753  0.11313534  0.47060588  1
  Hf  Hf27  1  0.84681247  0.88686466  0.52939412  1
  C  C28  1  0.00000000  -0.00000000  0.00000000  1
  C  C29  1  0.00000000  -0.00000000  0.50000000  1
  C  C30  1  0.65694169  0.50000000  0.75000000  1
  C  C31  1  0.34305831  0.50000000  0.25000000  1
  Cl  Cl32  1  0.17862119  -0.00000000  0.75000000  1
  Cl  Cl33  1  0.82137881  -0.00000000  0.25000000  1
  Cl  Cl34  1  0.15836747  0.50000000  0.75000000  1
  Cl  Cl35  1  0.84163253  0.50000000  0.25000000  1
  Cl  Cl36  1  0.65877529  0.50000000  0.93862568  1
  Cl  Cl37  1  0.34122471  0.50000000  0.06137432  1
  Cl  Cl38  1  0.65877529  0.50000000  0.56137432  1
  Cl  Cl39  1  0.34122471  0.50000000  0.43862568  1
  Cl  Cl40  1  0.00000000  0.75028061  -0.00000000  1
  Cl  Cl41  1  0.00000000  0.24971939  -0.00000000  1
  Cl  Cl42  1  0.00000000  0.24971939  0.50000000  1
  Cl  Cl43  1  0.00000000  0.75028061  0.50000000  1
  Cl  Cl44  1  0.65038925  0.75041391  0.75000000  1
  Cl  Cl45  1  0.34961075  0.24958609  0.25000000  1
  Cl  Cl46  1  0.65038925  0.24958609  0.75000000  1
  Cl  Cl47  1  0.34961075  0.75041391  0.25000000  1
  Cl  Cl48  1  0.66582953  0.75068573  0.93537502  1
  Cl  Cl49  1  0.33417047  0.24931427  0.06462498  1
  Cl  Cl50  1  0.66582953  0.24931427  0.56462498  1
  Cl  Cl51  1  0.33417047  0.75068573  0.06462498  1
  Cl  Cl52  1  0.33417047  0.75068573  0.43537502  1
  Cl  Cl53  1  0.66582953  0.24931427  0.93537502  1
  Cl  Cl54  1  0.33417047  0.24931427  0.43537502  1
  Cl  Cl55  1  0.66582953  0.75068573  0.56462498  1
  Cl  Cl56  1  0.91700230  0.87791479  0.84262510  1
  Cl  Cl57  1  0.08299770  0.12208521  0.15737490  1
  Cl  Cl58  1  0.91700230  0.12208521  0.65737490  1
  Cl  Cl59  1  0.08299770  0.87791479  0.15737490  1
  Cl  Cl60  1  0.08299770  0.87791479  0.34262510  1
  Cl  Cl61  1  0.91700230  0.12208521  0.84262510  1
  Cl  Cl62  1  0.08299770  0.12208521  0.34262510  1
  Cl  Cl63  1  0.91700230  0.87791479  0.65737490  1
  Cl  Cl64  1  0.91233677  0.62300718  0.84483136  1
  Cl  Cl65  1  0.08766323  0.37699282  0.15516864  1
  Cl  Cl66  1  0.91233677  0.37699282  0.65516864  1
  Cl  Cl67  1  0.08766323  0.62300718  0.15516864  1
  Cl  Cl68  1  0.08766323  0.62300718  0.34483136  1
  Cl  Cl69  1  0.91233677  0.37699282  0.84483136  1
  Cl  Cl70  1  0.08766323  0.37699282  0.34483136  1
  Cl  Cl71  1  0.91233677  0.62300718  0.65516864  1
  Cl  Cl72  1  0.66228477  -0.00000000  0.93508365  1
  Cl  Cl73  1  0.33771523  -0.00000000  0.06491635  1
  Cl  Cl74  1  0.66228477  -0.00000000  0.56491635  1
  Cl  Cl75  1  0.33771523  -0.00000000  0.43508365  1
  Cl  Cl76  1  0.40464882  0.62243648  0.84705466  1
  Cl  Cl77  1  0.59535118  0.37756352  0.15294534  1
  Cl  Cl78  1  0.40464882  0.37756352  0.65294534  1
  Cl  Cl79  1  0.59535118  0.62243648  0.15294534  1
  Cl  Cl80  1  0.59535118  0.62243648  0.34705466  1
  Cl  Cl81  1  0.40464882  0.37756352  0.84705466  1
  Cl  Cl82  1  0.59535118  0.37756352  0.34705466  1
  Cl  Cl83  1  0.40464882  0.62243648  0.65294534  1
  Cl  Cl84  1  0.74019067  0.87612025  0.40739386  1
  Cl  Cl85  1  0.25980933  0.12387975  0.59260614  1
  Cl  Cl86  1  0.74019067  0.12387975  0.09260614  1
  Cl  Cl87  1  0.25980933  0.87612025  0.59260614  1
  Cl  Cl88  1  0.25980933  0.87612025  0.90739386  1
  Cl  Cl89  1  0.74019067  0.12387975  0.40739386  1
  Cl  Cl90  1  0.25980933  0.12387975  0.90739386  1
  Cl  Cl91  1  0.74019067  0.87612025  0.09260614  1
