# generated using pymatgen
data_Ca3AsI3
_symmetry_space_group_name_H-M   'P 1'
_cell_length_a   10.85193809
_cell_length_b   10.85193809
_cell_length_c   10.85193809
_cell_angle_alpha   109.47122063
_cell_angle_beta   109.47122063
_cell_angle_gamma   109.47122063
_symmetry_Int_Tables_number   1
_chemical_formula_structural   Ca3AsI3
_chemical_formula_sum   'Ca12 As4 I12'
_cell_volume   983.78462774
_cell_formula_units_Z   4
loop_
 _symmetry_equiv_pos_site_id
 _symmetry_equiv_pos_as_xyz
  1  'x, y, z'
loop_
 _atom_site_type_symbol
 _atom_site_label
 _atom_site_symmetry_multiplicity
 _atom_site_fract_x
 _atom_site_fract_y
 _atom_site_fract_z
 _atom_site_occupancy
  Ca  Ca0  1  0.76514485  0.51514485  0.53028970  1
  Ca  Ca1  1  0.73485515  0.76514485  0.25000000  1
  Ca  Ca2  1  0.51514485  0.98485515  0.25000000  1
  Ca  Ca3  1  0.51514485  0.53028970  0.76514485  1
  Ca  Ca4  1  0.76514485  0.25000000  0.73485515  1
  Ca  Ca5  1  0.98485515  0.73485515  0.96971030  1
  Ca  Ca6  1  0.73485515  0.96971030  0.98485515  1
  Ca  Ca7  1  0.98485515  0.25000000  0.51514485  1
  Ca  Ca8  1  0.53028970  0.76514485  0.51514485  1
  Ca  Ca9  1  0.25000000  0.51514485  0.98485515  1
  Ca  Ca10  1  0.96971030  0.98485515  0.73485515  1
  Ca  Ca11  1  0.25000000  0.73485515  0.76514485  1
  As  As12  1  0.75000000  0.75000000  0.75000000  1
  As  As13  1  0.75000000  -0.00000000  0.50000000  1
  As  As14  1  0.50000000  0.75000000  -0.00000000  1
  As  As15  1  -0.00000000  0.50000000  0.75000000  1
  I  I16  1  0.25314868  0.24685132  0.75000000  1
  I  I17  1  0.24685132  0.49685132  0.49370263  1
  I  I18  1  0.00314868  0.25314868  0.00629737  1
  I  I19  1  0.24685132  0.75000000  0.25314868  1
  I  I20  1  0.25314868  0.00629737  0.00314868  1
  I  I21  1  0.49685132  0.00314868  0.75000000  1
  I  I22  1  0.49685132  0.49370263  0.24685132  1
  I  I23  1  0.00314868  0.75000000  0.49685132  1
  I  I24  1  0.75000000  0.25314868  0.24685132  1
  I  I25  1  0.00629737  0.00314868  0.25314868  1
  I  I26  1  0.75000000  0.49685132  0.00314868  1
  I  I27  1  0.49370263  0.24685132  0.49685132  1
