# generated using pymatgen
data_CeGaIr
_symmetry_space_group_name_H-M   'P 1'
_cell_length_a   4.36772416
_cell_length_b   6.87620569
_cell_length_c   7.88808178
_cell_angle_alpha   90.00000000
_cell_angle_beta   90.00000000
_cell_angle_gamma   90.00000000
_symmetry_Int_Tables_number   1
_chemical_formula_structural   CeGaIr
_chemical_formula_sum   'Ce4 Ga4 Ir4'
_cell_volume   236.90567649
_cell_formula_units_Z   4
loop_
 _symmetry_equiv_pos_site_id
 _symmetry_equiv_pos_as_xyz
  1  'x, y, z'
loop_
 _atom_site_type_symbol
 _atom_site_label
 _atom_site_symmetry_multiplicity
 _atom_site_fract_x
 _atom_site_fract_y
 _atom_site_fract_z
 _atom_site_occupancy
  Ce  Ce0  1  0.75000000  0.96965746  0.31172457  1
  Ce  Ce1  1  0.25000000  0.03034254  0.68827543  1
  Ce  Ce2  1  0.25000000  0.53034254  0.81172457  1
  Ce  Ce3  1  0.75000000  0.46965746  0.18827543  1
  Ga  Ga4  1  0.75000000  0.84984989  0.93143370  1
  Ga  Ga5  1  0.25000000  0.15015011  0.06856630  1
  Ga  Ga6  1  0.25000000  0.65015011  0.43143370  1
  Ga  Ga7  1  0.75000000  0.34984989  0.56856630  1
  Ir  Ir8  1  0.75000000  0.73918287  0.61046994  1
  Ir  Ir9  1  0.25000000  0.26081713  0.38953006  1
  Ir  Ir10  1  0.25000000  0.76081713  0.11046994  1
  Ir  Ir11  1  0.75000000  0.23918287  0.88953006  1
