# generated using pymatgen
data_BaZr(AsO4)2
_symmetry_space_group_name_H-M   'P 1'
_cell_length_a   5.22870873
_cell_length_b   5.22870873
_cell_length_c   8.10755125
_cell_angle_alpha   87.79994442
_cell_angle_beta   87.79994442
_cell_angle_gamma   65.75053038
_symmetry_Int_Tables_number   1
_chemical_formula_structural   BaZr(AsO4)2
_chemical_formula_sum   'Ba1 Zr1 As2 O8'
_cell_volume   201.88672461
_cell_formula_units_Z   1
loop_
 _symmetry_equiv_pos_site_id
 _symmetry_equiv_pos_as_xyz
  1  'x, y, z'
loop_
 _atom_site_type_symbol
 _atom_site_label
 _atom_site_symmetry_multiplicity
 _atom_site_fract_x
 _atom_site_fract_y
 _atom_site_fract_z
 _atom_site_occupancy
  Ba  Ba0  1  0.00000000  0.00000000  0.50000000  1
  Zr  Zr1  1  0.00000000  0.00000000  -0.00000000  1
  As  As2  1  0.36495050  0.36495050  0.78334241  1
  As  As3  1  0.63504950  0.63504950  0.21665759  1
  O  O4  1  0.29949304  0.29949304  0.59083542  1
  O  O5  1  0.70050696  0.70050696  0.40916458  1
  O  O6  1  0.72594828  0.22852305  0.80625369  1
  O  O7  1  0.27405172  0.77147695  0.19374631  1
  O  O8  1  0.77147695  0.27405172  0.19374631  1
  O  O9  1  0.22852305  0.72594828  0.80625369  1
  O  O10  1  0.23233349  0.23233349  0.94503123  1
  O  O11  1  0.76766651  0.76766651  0.05496877  1
