# generated using pymatgen
data_Cs2LaBr5
_symmetry_space_group_name_H-M   'P 1'
_cell_length_a   9.19122100
_cell_length_b   9.69649486
_cell_length_c   14.89783750
_cell_angle_alpha   90.00000000
_cell_angle_beta   90.00000000
_cell_angle_gamma   90.00000000
_symmetry_Int_Tables_number   1
_chemical_formula_structural   Cs2LaBr5
_chemical_formula_sum   'Cs8 La4 Br20'
_cell_volume   1327.73441735
_cell_formula_units_Z   4
loop_
 _symmetry_equiv_pos_site_id
 _symmetry_equiv_pos_as_xyz
  1  'x, y, z'
loop_
 _atom_site_type_symbol
 _atom_site_label
 _atom_site_symmetry_multiplicity
 _atom_site_fract_x
 _atom_site_fract_y
 _atom_site_fract_z
 _atom_site_occupancy
  Cs  Cs0  1  0.55418095  0.49397196  0.67224858  1
  Cs  Cs1  1  0.44581905  0.50602804  0.32775142  1
  Cs  Cs2  1  0.05418095  0.50602804  0.82775142  1
  Cs  Cs3  1  0.44581905  0.99397196  0.32775142  1
  Cs  Cs4  1  0.94581905  0.49397196  0.17224858  1
  Cs  Cs5  1  0.55418095  0.00602804  0.67224858  1
  Cs  Cs6  1  0.94581905  0.00602804  0.17224858  1
  Cs  Cs7  1  0.05418095  0.99397196  0.82775142  1
  La  La8  1  0.56818892  0.75000000  0.99647453  1
  La  La9  1  0.43181108  0.25000000  0.00352547  1
  La  La10  1  0.06818892  0.25000000  0.50352547  1
  La  La11  1  0.93181108  0.75000000  0.49647453  1
  Br  Br12  1  0.38598989  0.75000000  0.83123388  1
  Br  Br13  1  0.61401011  0.25000000  0.16876612  1
  Br  Br14  1  0.88598989  0.25000000  0.66876612  1
  Br  Br15  1  0.11401011  0.75000000  0.33123388  1
  Br  Br16  1  0.65728285  0.45849872  0.92913180  1
  Br  Br17  1  0.34271715  0.54150128  0.07086820  1
  Br  Br18  1  0.15728285  0.54150128  0.57086820  1
  Br  Br19  1  0.34271715  0.95849872  0.07086820  1
  Br  Br20  1  0.84271715  0.45849872  0.42913180  1
  Br  Br21  1  0.65728285  0.04150128  0.92913180  1
  Br  Br22  1  0.84271715  0.04150128  0.42913180  1
  Br  Br23  1  0.15728285  0.95849872  0.57086820  1
  Br  Br24  1  0.89738164  0.75000000  0.98810065  1
  Br  Br25  1  0.10261836  0.25000000  0.01189935  1
  Br  Br26  1  0.39738164  0.25000000  0.51189935  1
  Br  Br27  1  0.60261836  0.75000000  0.48810065  1
  Br  Br28  1  0.84807807  0.75000000  0.69185394  1
  Br  Br29  1  0.15192193  0.25000000  0.30814606  1
  Br  Br30  1  0.34807807  0.25000000  0.80814606  1
  Br  Br31  1  0.65192193  0.75000000  0.19185394  1
