# generated using pymatgen
data_Ca4NdB3O10
_symmetry_space_group_name_H-M   'P 1'
_cell_length_a   3.63080136
_cell_length_b   8.18636786
_cell_length_c   9.06719553
_cell_angle_alpha   63.16467175
_cell_angle_beta   84.83933077
_cell_angle_gamma   78.50663635
_symmetry_Int_Tables_number   1
_chemical_formula_structural   Ca4NdB3O10
_chemical_formula_sum   'Ca4 Nd1 B3 O10'
_cell_volume   235.65913322
_cell_formula_units_Z   1
loop_
 _symmetry_equiv_pos_site_id
 _symmetry_equiv_pos_as_xyz
  1  'x, y, z'
loop_
 _atom_site_type_symbol
 _atom_site_label
 _atom_site_symmetry_multiplicity
 _atom_site_fract_x
 _atom_site_fract_y
 _atom_site_fract_z
 _atom_site_occupancy
  Ca  Ca0  1  0.72281630  0.67547790  0.77334553  1
  Ca  Ca1  1  0.72281630  0.44882343  0.22665447  1
  Ca  Ca2  1  0.05077616  0.12063582  0.63660983  1
  Ca  Ca3  1  0.05077616  0.75724565  0.36339017  1
  Nd  Nd4  1  0.39264244  0.20442587  1.00000000  1
  B  B5  1  0.09652870  0.82554876  1.00000000  1
  B  B6  1  0.47647107  0.05734137  0.39008397  1
  B  B7  1  0.47647107  0.44742534  0.60991603  1
  O  O8  1  0.47547531  0.96861610  0.28966790  1
  O  O9  1  0.47547531  0.25828401  0.71033210  1
  O  O10  1  0.81153174  0.38111618  1.00000000  1
  O  O11  1  0.14399630  0.81515660  0.85054265  1
  O  O12  1  0.14399630  0.66569926  0.14945735  1
  O  O13  1  0.00072943  0.99855009  0.00000000  1
  O  O14  1  0.66968539  0.96655254  0.53836803  1
  O  O15  1  0.66968539  0.50492056  0.46163197  1
  O  O16  1  0.28051333  0.23765735  0.34236582  1
  O  O17  1  0.28051333  0.58002317  0.65763418  1
