# generated using pymatgen
data_CeMgIn3Rh
_symmetry_space_group_name_H-M   'P 1'
_cell_length_a   4.44574982
_cell_length_b   8.30320458
_cell_length_c   7.37128572
_cell_angle_alpha   90.00000000
_cell_angle_beta   90.00000000
_cell_angle_gamma   90.00000000
_symmetry_Int_Tables_number   1
_chemical_formula_structural   CeMgIn3Rh
_chemical_formula_sum   'Ce2 Mg2 In6 Rh2'
_cell_volume   272.10342190
_cell_formula_units_Z   2
loop_
 _symmetry_equiv_pos_site_id
 _symmetry_equiv_pos_as_xyz
  1  'x, y, z'
loop_
 _atom_site_type_symbol
 _atom_site_label
 _atom_site_symmetry_multiplicity
 _atom_site_fract_x
 _atom_site_fract_y
 _atom_site_fract_z
 _atom_site_occupancy
  Ce  Ce0  1  -0.00000000  0.75000000  0.59960913  1
  Ce  Ce1  1  0.00000000  0.25000000  0.40039087  1
  Mg  Mg2  1  0.00000000  -0.00000000  0.00000000  1
  Mg  Mg3  1  0.00000000  0.50000000  0.00000000  1
  In  In4  1  0.50000000  0.44618327  0.69369646  1
  In  In5  1  0.50000000  0.55381673  0.30630354  1
  In  In6  1  0.50000000  0.05381673  0.69369646  1
  In  In7  1  0.50000000  0.94618327  0.30630354  1
  In  In8  1  0.50000000  0.75000000  0.94247605  1
  In  In9  1  0.50000000  0.25000000  0.05752395  1
  Rh  Rh10  1  -0.00000000  0.75000000  0.22320237  1
  Rh  Rh11  1  -0.00000000  0.25000000  0.77679763  1
