# generated using pymatgen
data_Cs2Ti4O9
_symmetry_space_group_name_H-M   'P 1'
_cell_length_a   3.85612157
_cell_length_b   10.31632920
_cell_length_c   12.24768888
_cell_angle_alpha   105.90493757
_cell_angle_beta   90.00000000
_cell_angle_gamma   100.77158110
_symmetry_Int_Tables_number   1
_chemical_formula_structural   Cs2Ti4O9
_chemical_formula_sum   'Cs4 Ti8 O18'
_cell_volume   459.64031443
_cell_formula_units_Z   2
loop_
 _symmetry_equiv_pos_site_id
 _symmetry_equiv_pos_as_xyz
  1  'x, y, z'
loop_
 _atom_site_type_symbol
 _atom_site_label
 _atom_site_symmetry_multiplicity
 _atom_site_fract_x
 _atom_site_fract_y
 _atom_site_fract_z
 _atom_site_occupancy
  Cs  Cs0  1  0.58608810  0.17217620  0.58667361  1
  Cs  Cs1  1  0.41391190  0.82782380  0.41332639  1
  Cs  Cs2  1  0.51695003  0.03390006  0.83911353  1
  Cs  Cs3  1  0.48304997  0.96609994  0.16088647  1
  Ti  Ti4  1  0.75305552  0.50611105  0.33433558  1
  Ti  Ti5  1  0.24694448  0.49388895  0.66566442  1
  Ti  Ti6  1  0.20747989  0.41495977  0.89888386  1
  Ti  Ti7  1  0.79252011  0.58504023  0.10111614  1
  Ti  Ti8  1  0.83021018  0.66042037  0.87367427  1
  Ti  Ti9  1  0.16978982  0.33957963  0.12632573  1
  Ti  Ti10  1  0.86690819  0.73381637  0.63835209  1
  Ti  Ti11  1  0.13309181  0.26618363  0.36164791  1
  O  O12  1  0.76651903  0.53303807  0.69979694  1
  O  O13  1  0.23348097  0.46696193  0.30020306  1
  O  O14  1  0.82841391  0.65682783  0.25313963  1
  O  O15  1  0.17158609  0.34317217  0.74686037  1
  O  O16  1  0.13381197  0.26762393  0.96511420  1
  O  O17  1  0.86618803  0.73237607  0.03488580  1
  O  O18  1  0.30435059  0.60870117  0.85862754  1
  O  O19  1  0.69564941  0.39129883  0.14137246  1
  O  O20  1  0.94899937  0.89799875  0.62150285  1
  O  O21  1  0.05100063  0.10200125  0.37849715  1
  O  O22  1  0.81119022  0.62238045  0.47210773  1
  O  O23  1  0.18880978  0.37761955  0.52789227  1
  O  O24  1  0.73137762  0.46275524  0.92205945  1
  O  O25  1  0.26862238  0.53724476  0.07794055  1
  O  O26  1  0.65870907  0.31741815  0.35850343  1
  O  O27  1  0.34129093  0.68258185  0.64149657  1
  O  O28  1  0.90159096  0.80318192  0.81554276  1
  O  O29  1  0.09840904  0.19681808  0.18445724  1
