# generated using pymatgen
data_Ba6Pr2Ga4O15
_symmetry_space_group_name_H-M   'P 1'
_cell_length_a   6.12313887
_cell_length_b   8.18290138
_cell_length_c   18.90739076
_cell_angle_alpha   91.02542001
_cell_angle_beta   90.00000000
_cell_angle_gamma   90.00000000
_symmetry_Int_Tables_number   1
_chemical_formula_structural   Ba6Pr2Ga4O15
_chemical_formula_sum   'Ba12 Pr4 Ga8 O30'
_cell_volume   947.20388333
_cell_formula_units_Z   2
loop_
 _symmetry_equiv_pos_site_id
 _symmetry_equiv_pos_as_xyz
  1  'x, y, z'
loop_
 _atom_site_type_symbol
 _atom_site_label
 _atom_site_symmetry_multiplicity
 _atom_site_fract_x
 _atom_site_fract_y
 _atom_site_fract_z
 _atom_site_occupancy
  Ba  Ba0  1  0.75597526  0.50008922  0.41999371  1
  Ba  Ba1  1  0.24402474  0.49991078  0.58000629  1
  Ba  Ba2  1  0.75597526  0.49991078  0.08000629  1
  Ba  Ba3  1  0.24402474  0.50008922  0.91999371  1
  Ba  Ba4  1  0.73961162  0.96532561  0.40748673  1
  Ba  Ba5  1  0.26038838  0.03467439  0.59251327  1
  Ba  Ba6  1  0.73961162  0.03467439  0.09251327  1
  Ba  Ba7  1  0.26038838  0.96532561  0.90748673  1
  Ba  Ba8  1  0.72691217  0.00000000  0.75000000  1
  Ba  Ba9  1  0.27308783  0.00000000  0.25000000  1
  Ba  Ba10  1  0.66332238  0.50000000  0.75000000  1
  Ba  Ba11  1  0.33667762  0.50000000  0.25000000  1
  Pr  Pr12  1  0.74660489  0.75421038  0.59030023  1
  Pr  Pr13  1  0.25339511  0.24578962  0.40969977  1
  Pr  Pr14  1  0.74660489  0.24578962  0.90969977  1
  Pr  Pr15  1  0.25339511  0.75421038  0.09030023  1
  Ga  Ga16  1  0.75293827  0.75365316  0.93865101  1
  Ga  Ga17  1  0.24706173  0.24634684  0.06134899  1
  Ga  Ga18  1  0.75293827  0.24634684  0.56134899  1
  Ga  Ga19  1  0.24706173  0.75365316  0.43865101  1
  Ga  Ga20  1  0.77842559  0.77160440  0.23655956  1
  Ga  Ga21  1  0.22157441  0.22839560  0.76344044  1
  Ga  Ga22  1  0.77842559  0.22839560  0.26344044  1
  Ga  Ga23  1  0.22157441  0.77160440  0.73655956  1
  O  O24  1  0.21021900  0.00000000  0.75000000  1
  O  O25  1  0.78978100  0.00000000  0.25000000  1
  O  O26  1  0.49665655  0.76595742  0.49673906  1
  O  O27  1  0.50334345  0.23404258  0.50326094  1
  O  O28  1  0.49665655  0.23404258  0.00326094  1
  O  O29  1  0.50334345  0.76595742  0.99673906  1
  O  O30  1  0.76251393  0.94851374  0.88796010  1
  O  O31  1  0.23748607  0.05148626  0.11203990  1
  O  O32  1  0.76251393  0.05148626  0.61203990  1
  O  O33  1  0.23748607  0.94851374  0.38796010  1
  O  O34  1  0.00237834  0.76300726  0.49963916  1
  O  O35  1  0.99762166  0.23699274  0.50036084  1
  O  O36  1  0.00237834  0.23699274  0.00036084  1
  O  O37  1  0.99762166  0.76300726  0.99963916  1
  O  O38  1  0.32472730  0.69418534  0.82037268  1
  O  O39  1  0.67527270  0.30581466  0.17962732  1
  O  O40  1  0.32472730  0.30581466  0.67962732  1
  O  O41  1  0.67527270  0.69418534  0.32037268  1
  O  O42  1  0.43475656  0.74434008  0.66527120  1
  O  O43  1  0.56524344  0.25565992  0.33472880  1
  O  O44  1  0.43475656  0.25565992  0.83472880  1
  O  O45  1  0.56524344  0.74434008  0.16527120  1
  O  O46  1  0.94983815  0.72550652  0.69812313  1
  O  O47  1  0.05016185  0.27449348  0.30187687  1
  O  O48  1  0.94983815  0.27449348  0.80187687  1
  O  O49  1  0.05016185  0.72550652  0.19812313  1
  O  O50  1  0.75890367  0.53750914  0.90457336  1
  O  O51  1  0.24109633  0.46249086  0.09542664  1
  O  O52  1  0.75890367  0.46249086  0.59542664  1
  O  O53  1  0.24109633  0.53750914  0.40457336  1
