# generated using pymatgen
data_As3Pb5O12F
_symmetry_space_group_name_H-M   'P 1'
_cell_length_a   7.60669852
_cell_length_b   10.30365990
_cell_length_c   10.30365991
_cell_angle_alpha   120.00000177
_cell_angle_beta   90.00000000
_cell_angle_gamma   90.00000000
_symmetry_Int_Tables_number   1
_chemical_formula_structural   As3Pb5O12F
_chemical_formula_sum   'As6 Pb10 O24 F2'
_cell_volume   699.37460537
_cell_formula_units_Z   2
loop_
 _symmetry_equiv_pos_site_id
 _symmetry_equiv_pos_as_xyz
  1  'x, y, z'
loop_
 _atom_site_type_symbol
 _atom_site_label
 _atom_site_symmetry_multiplicity
 _atom_site_fract_x
 _atom_site_fract_y
 _atom_site_fract_z
 _atom_site_occupancy
  As  As0  1  0.75000000  0.60168786  0.62926960  1
  As  As1  1  0.25000000  0.39831214  0.37073040  1
  As  As2  1  0.75000000  0.02758173  0.39831214  1
  As  As3  1  0.25000000  0.97241827  0.60168786  1
  As  As4  1  0.75000000  0.37073040  0.97241827  1
  As  As5  1  0.25000000  0.62926960  0.02758173  1
  Pb  Pb6  1  0.99727079  0.66666700  0.33333300  1
  Pb  Pb7  1  0.00272921  0.33333300  0.66666700  1
  Pb  Pb8  1  0.49727079  0.33333300  0.66666700  1
  Pb  Pb9  1  0.50272921  0.66666700  0.33333300  1
  Pb  Pb10  1  0.75000000  0.75406202  0.99748566  1
  Pb  Pb11  1  0.25000000  0.24593798  0.00251434  1
  Pb  Pb12  1  0.75000000  0.24342364  0.24593798  1
  Pb  Pb13  1  0.25000000  0.75657636  0.75406202  1
  Pb  Pb14  1  0.75000000  0.00251434  0.75657636  1
  Pb  Pb15  1  0.25000000  0.99748566  0.24342364  1
  O  O16  1  0.75000000  0.83609737  0.32610593  1
  O  O17  1  0.25000000  0.16390263  0.67389407  1
  O  O18  1  0.75000000  0.49000856  0.16390263  1
  O  O19  1  0.25000000  0.50999144  0.83609737  1
  O  O20  1  0.75000000  0.67389407  0.50999144  1
  O  O21  1  0.25000000  0.32610593  0.49000856  1
  O  O22  1  0.75000000  0.40649312  0.52840242  1
  O  O23  1  0.25000000  0.59350688  0.47159758  1
  O  O24  1  0.75000000  0.12190930  0.59350688  1
  O  O25  1  0.25000000  0.87809070  0.40649312  1
  O  O26  1  0.75000000  0.47159758  0.87809070  1
  O  O27  1  0.25000000  0.52840242  0.12190930  1
  O  O28  1  0.93002262  0.65780450  0.74772496  1
  O  O29  1  0.06997738  0.34219550  0.25227504  1
  O  O30  1  0.93002262  0.08992046  0.34219550  1
  O  O31  1  0.43002262  0.34219550  0.25227504  1
  O  O32  1  0.06997738  0.91007954  0.65780450  1
  O  O33  1  0.56997738  0.65780450  0.74772496  1
  O  O34  1  0.93002262  0.25227504  0.91007954  1
  O  O35  1  0.43002262  0.91007954  0.65780450  1
  O  O36  1  0.06997738  0.74772496  0.08992046  1
  O  O37  1  0.56997738  0.08992046  0.34219550  1
  O  O38  1  0.43002262  0.74772496  0.08992046  1
  O  O39  1  0.56997738  0.25227504  0.91007954  1
  F  F40  1  0.75000000  0.00000000  -0.00000000  1
  F  F41  1  0.25000000  0.00000000  -0.00000000  1
