# generated using pymatgen
data_Ba6Lu2Ga4O15
_symmetry_space_group_name_H-M   'P 1'
_cell_length_a   5.97601914
_cell_length_b   7.99899170
_cell_length_c   18.48124753
_cell_angle_alpha   91.37979753
_cell_angle_beta   90.00000000
_cell_angle_gamma   90.00000000
_symmetry_Int_Tables_number   1
_chemical_formula_structural   Ba6Lu2Ga4O15
_chemical_formula_sum   'Ba12 Lu4 Ga8 O30'
_cell_volume   883.18679017
_cell_formula_units_Z   2
loop_
 _symmetry_equiv_pos_site_id
 _symmetry_equiv_pos_as_xyz
  1  'x, y, z'
loop_
 _atom_site_type_symbol
 _atom_site_label
 _atom_site_symmetry_multiplicity
 _atom_site_fract_x
 _atom_site_fract_y
 _atom_site_fract_z
 _atom_site_occupancy
  Ba  Ba0  1  0.75580632  0.49764361  0.42173893  1
  Ba  Ba1  1  0.24419368  0.50235639  0.57826107  1
  Ba  Ba2  1  0.75580632  0.50235639  0.07826107  1
  Ba  Ba3  1  0.24419368  0.49764361  0.92173893  1
  Ba  Ba4  1  0.74665001  0.97353876  0.41113043  1
  Ba  Ba5  1  0.25334999  0.02646124  0.58886957  1
  Ba  Ba6  1  0.74665001  0.02646124  0.08886957  1
  Ba  Ba7  1  0.25334999  0.97353876  0.91113043  1
  Ba  Ba8  1  0.71783303  0.00000000  0.75000000  1
  Ba  Ba9  1  0.28216697  0.00000000  0.25000000  1
  Ba  Ba10  1  0.67113512  0.50000000  0.75000000  1
  Ba  Ba11  1  0.32886488  0.50000000  0.25000000  1
  Lu  Lu12  1  0.74167217  0.75237355  0.58981134  1
  Lu  Lu13  1  0.25832783  0.24762645  0.41018866  1
  Lu  Lu14  1  0.74167217  0.24762645  0.91018866  1
  Lu  Lu15  1  0.25832783  0.75237355  0.08981134  1
  Ga  Ga16  1  0.75464572  0.75292627  0.94205718  1
  Ga  Ga17  1  0.24535428  0.24707373  0.05794282  1
  Ga  Ga18  1  0.75464572  0.24707373  0.55794282  1
  Ga  Ga19  1  0.24535428  0.75292627  0.44205718  1
  Ga  Ga20  1  0.77600724  0.77007039  0.23297868  1
  Ga  Ga21  1  0.22399276  0.22992961  0.76702132  1
  Ga  Ga22  1  0.77600724  0.22992961  0.26702132  1
  Ga  Ga23  1  0.22399276  0.77007039  0.73297868  1
  O  O24  1  0.20970931  0.00000000  0.75000000  1
  O  O25  1  0.79029069  0.00000000  0.25000000  1
  O  O26  1  0.49527480  0.76352130  0.50403147  1
  O  O27  1  0.50472520  0.23647870  0.49596853  1
  O  O28  1  0.49527480  0.23647870  0.99596853  1
  O  O29  1  0.50472520  0.76352130  0.00403147  1
  O  O30  1  0.75755911  0.95762620  0.89444100  1
  O  O31  1  0.24244089  0.04237380  0.10555900  1
  O  O32  1  0.75755911  0.04237380  0.60555900  1
  O  O33  1  0.24244089  0.95762620  0.39444100  1
  O  O34  1  0.99199537  0.76236167  0.50441124  1
  O  O35  1  0.00800463  0.23763833  0.49558876  1
  O  O36  1  0.99199537  0.23763833  0.99558876  1
  O  O37  1  0.00800463  0.76236167  0.00441124  1
  O  O38  1  0.32095661  0.68716865  0.81788536  1
  O  O39  1  0.67904339  0.31283135  0.18211464  1
  O  O40  1  0.32095661  0.31283135  0.68211464  1
  O  O41  1  0.67904339  0.68716865  0.31788536  1
  O  O42  1  0.45583680  0.74932345  0.66416134  1
  O  O43  1  0.54416320  0.25067655  0.33583866  1
  O  O44  1  0.45583680  0.25067655  0.83583866  1
  O  O45  1  0.54416320  0.74932345  0.16416134  1
  O  O46  1  0.95264862  0.73130791  0.68755497  1
  O  O47  1  0.04735138  0.26869209  0.31244503  1
  O  O48  1  0.95264862  0.26869209  0.81244503  1
  O  O49  1  0.04735138  0.73130791  0.18755497  1
  O  O50  1  0.75572224  0.53073485  0.90740551  1
  O  O51  1  0.24427776  0.46926515  0.09259449  1
  O  O52  1  0.75572224  0.46926515  0.59259449  1
  O  O53  1  0.24427776  0.53073485  0.40740551  1
