# generated using pymatgen
data_BaFe2Si2O7
_symmetry_space_group_name_H-M   'P 1'
_cell_length_a   7.20992274
_cell_length_b   7.60720750
_cell_length_c   14.01606071
_cell_angle_alpha   90.00000000
_cell_angle_beta   90.00000000
_cell_angle_gamma   118.26298266
_symmetry_Int_Tables_number   1
_chemical_formula_structural   BaFe2Si2O7
_chemical_formula_sum   'Ba4 Fe8 Si8 O28'
_cell_volume   677.09716731
_cell_formula_units_Z   4
loop_
 _symmetry_equiv_pos_site_id
 _symmetry_equiv_pos_as_xyz
  1  'x, y, z'
loop_
 _atom_site_type_symbol
 _atom_site_label
 _atom_site_symmetry_multiplicity
 _atom_site_fract_x
 _atom_site_fract_y
 _atom_site_fract_z
 _atom_site_occupancy
  Ba  Ba0  1  0.20597084  0.51063184  0.35671387  1
  Ba  Ba1  1  0.79402916  0.48936816  0.64328613  1
  Ba  Ba2  1  0.29402916  0.48936816  0.85671387  1
  Ba  Ba3  1  0.70597084  0.51063184  0.14328613  1
  Fe  Fe4  1  0.78829888  0.03778879  0.50166041  1
  Fe  Fe5  1  0.21170112  0.96221121  0.49833959  1
  Fe  Fe6  1  0.71170112  0.96221121  0.00166041  1
  Fe  Fe7  1  0.28829888  0.03778879  0.99833959  1
  Fe  Fe8  1  0.19370853  0.00211112  0.25596535  1
  Fe  Fe9  1  0.80629147  0.99788888  0.74403465  1
  Fe  Fe10  1  0.30629147  0.99788888  0.75596535  1
  Fe  Fe11  1  0.69370853  0.00211112  0.24403465  1
  Si  Si12  1  0.20168446  0.27672871  0.60927662  1
  Si  Si13  1  0.79831554  0.72327129  0.39072338  1
  Si  Si14  1  0.29831554  0.72327129  0.10927662  1
  Si  Si15  1  0.70168446  0.27672871  0.89072338  1
  Si  Si16  1  0.11350243  0.27653906  0.11662957  1
  Si  Si17  1  0.88649757  0.72346094  0.88337043  1
  Si  Si18  1  0.38649757  0.72346094  0.61662957  1
  Si  Si19  1  0.61350243  0.27653906  0.38337043  1
  O  O20  1  0.22596838  0.27457477  0.01640775  1
  O  O21  1  0.77403162  0.72542523  0.98359225  1
  O  O22  1  0.27403162  0.72542523  0.51640775  1
  O  O23  1  0.72596838  0.27457477  0.48359225  1
  O  O24  1  0.30110465  0.12430840  0.62837231  1
  O  O25  1  0.69889535  0.87569160  0.37162769  1
  O  O26  1  0.19889535  0.87569160  0.12837231  1
  O  O27  1  0.80110465  0.12430840  0.87162769  1
  O  O28  1  0.25129206  0.27302116  0.20970504  1
  O  O29  1  0.74870794  0.72697884  0.79029496  1
  O  O30  1  0.24870794  0.72697884  0.70970504  1
  O  O31  1  0.75129206  0.27302116  0.29029496  1
  O  O32  1  0.10782876  0.22741034  0.50012800  1
  O  O33  1  0.89217124  0.77258966  0.49987200  1
  O  O34  1  0.39217124  0.77258966  0.00012800  1
  O  O35  1  0.60782876  0.22741034  -0.00012800  1
  O  O36  1  0.02528589  0.25738811  0.68823343  1
  O  O37  1  0.97471411  0.74261189  0.31176657  1
  O  O38  1  0.47471411  0.74261189  0.18823343  1
  O  O39  1  0.52528589  0.25738811  0.81176657  1
  O  O40  1  0.09827179  0.49123911  0.12146254  1
  O  O41  1  0.90172821  0.50876089  0.87853746  1
  O  O42  1  0.40172821  0.50876089  0.62146254  1
  O  O43  1  0.59827179  0.49123911  0.37853746  1
  O  O44  1  0.37213833  0.09172680  0.37638940  1
  O  O45  1  0.62786167  0.90827320  0.62361060  1
  O  O46  1  0.12786167  0.90827320  0.87638940  1
  O  O47  1  0.87213833  0.09172680  0.12361060  1
