# generated using pymatgen
data_BaNaCrF6
_symmetry_space_group_name_H-M   'P 1'
_cell_length_a   5.65119345
_cell_length_b   19.43098690
_cell_length_c   10.09572160
_cell_angle_alpha   90.00000000
_cell_angle_beta   90.00000000
_cell_angle_gamma   90.00000000
_symmetry_Int_Tables_number   1
_chemical_formula_structural   BaNaCrF6
_chemical_formula_sum   'Ba8 Na8 Cr8 F48'
_cell_volume   1108.59368187
_cell_formula_units_Z   8
loop_
 _symmetry_equiv_pos_site_id
 _symmetry_equiv_pos_as_xyz
  1  'x, y, z'
loop_
 _atom_site_type_symbol
 _atom_site_label
 _atom_site_symmetry_multiplicity
 _atom_site_fract_x
 _atom_site_fract_y
 _atom_site_fract_z
 _atom_site_occupancy
  Ba  Ba0  1  0.24285100  0.88657684  0.63351385  1
  Ba  Ba1  1  0.75714900  0.11342316  0.13351385  1
  Ba  Ba2  1  0.25714900  0.38657684  0.63351385  1
  Ba  Ba3  1  0.74285100  0.61342316  0.13351385  1
  Ba  Ba4  1  0.74243202  0.86405630  0.99847853  1
  Ba  Ba5  1  0.25756798  0.13594370  0.49847853  1
  Ba  Ba6  1  0.75756798  0.36405630  0.99847853  1
  Ba  Ba7  1  0.24243202  0.63594370  0.49847853  1
  Na  Na8  1  0.74155012  0.93563434  0.36401592  1
  Na  Na9  1  0.25844988  0.06436566  0.86401592  1
  Na  Na10  1  0.75844988  0.43563434  0.36401592  1
  Na  Na11  1  0.24155012  0.56436566  0.86401592  1
  Na  Na12  1  0.74002355  0.68670361  0.76909248  1
  Na  Na13  1  0.25997645  0.31329639  0.26909248  1
  Na  Na14  1  0.75997645  0.18670361  0.76909248  1
  Na  Na15  1  0.24002355  0.81329639  0.26909248  1
  Cr  Cr16  1  0.73688176  0.50575304  0.73853127  1
  Cr  Cr17  1  0.26311824  0.49424696  0.23853127  1
  Cr  Cr18  1  0.76311824  0.00575304  0.73853127  1
  Cr  Cr19  1  0.23688176  0.99424696  0.23853127  1
  Cr  Cr20  1  0.74729318  0.75456533  0.39404443  1
  Cr  Cr21  1  0.25270682  0.24543467  0.89404443  1
  Cr  Cr22  1  0.75270682  0.25456533  0.39404443  1
  Cr  Cr23  1  0.24729318  0.74543467  0.89404443  1
  F  F24  1  0.97829555  0.94098237  0.82512360  1
  F  F25  1  0.02170445  0.05901763  0.32512360  1
  F  F26  1  0.52170445  0.44098237  0.82512360  1
  F  F27  1  0.47829555  0.55901763  0.32512360  1
  F  F28  1  0.67072755  0.57029401  0.88296320  1
  F  F29  1  0.32927245  0.42970599  0.38296320  1
  F  F30  1  0.82927245  0.07029401  0.88296320  1
  F  F31  1  0.17072755  0.92970599  0.38296320  1
  F  F32  1  0.50162469  0.96395394  0.83674314  1
  F  F33  1  0.49837531  0.03604606  0.33674314  1
  F  F34  1  0.99837531  0.46395394  0.83674314  1
  F  F35  1  0.00162469  0.53604606  0.33674314  1
  F  F36  1  0.52092292  0.82026191  0.46190738  1
  F  F37  1  0.47907708  0.17973809  0.96190738  1
  F  F38  1  0.97907708  0.32026191  0.46190738  1
  F  F39  1  0.02092292  0.67973809  0.96190738  1
  F  F40  1  0.47071481  0.80826621  0.80843223  1
  F  F41  1  0.52928519  0.19173379  0.30843223  1
  F  F42  1  0.02928519  0.30826621  0.80843223  1
  F  F43  1  0.97071481  0.69173379  0.30843223  1
  F  F44  1  0.69848991  0.68892876  0.53765345  1
  F  F45  1  0.30151009  0.31107124  0.03765345  1
  F  F46  1  0.80151009  0.18892876  0.53765345  1
  F  F47  1  0.19848991  0.81107124  0.03765345  1
  F  F48  1  0.95365229  0.57429537  0.67108517  1
  F  F49  1  0.04634771  0.42570463  0.17108517  1
  F  F50  1  0.54634771  0.07429537  0.67108517  1
  F  F51  1  0.45365229  0.92570463  0.17108517  1
  F  F52  1  0.98934216  0.78919180  0.79731305  1
  F  F53  1  0.01065784  0.21080820  0.29731305  1
  F  F54  1  0.51065784  0.28919180  0.79731305  1
  F  F55  1  0.48934216  0.71080820  0.29731305  1
  F  F56  1  0.45698289  0.53881180  0.64633403  1
  F  F57  1  0.54301711  0.46118820  0.14633403  1
  F  F58  1  0.04301711  0.03881180  0.64633403  1
  F  F59  1  0.95698289  0.96118820  0.14633403  1
  F  F60  1  0.80188287  0.81935116  0.24875368  1
  F  F61  1  0.19811713  0.18064884  0.74875368  1
  F  F62  1  0.69811713  0.31935116  0.24875368  1
  F  F63  1  0.30188287  0.68064884  0.74875368  1
  F  F64  1  0.70380264  0.94025935  0.59557075  1
  F  F65  1  0.29619736  0.05974065  0.09557075  1
  F  F66  1  0.79619736  0.44025935  0.59557075  1
  F  F67  1  0.20380264  0.55974065  0.09557075  1
  F  F68  1  0.52097709  0.70771359  0.98484385  1
  F  F69  1  0.47902291  0.29228641  0.48484385  1
  F  F70  1  0.97902291  0.20771359  0.98484385  1
  F  F71  1  0.02097709  0.79228641  0.48484385  1
