# generated using pymatgen
data_Sc3Re2Si3
_symmetry_space_group_name_H-M   'P 1'
_cell_length_a   5.27939207
_cell_length_b   10.08384119
_cell_length_c   11.08265951
_cell_angle_alpha   80.81643435
_cell_angle_beta   76.22070622
_cell_angle_gamma   74.82459772
_symmetry_Int_Tables_number   1
_chemical_formula_structural   Sc3Re2Si3
_chemical_formula_sum   'Sc12 Re8 Si12'
_cell_volume   550.05627597
_cell_formula_units_Z   4
loop_
 _symmetry_equiv_pos_site_id
 _symmetry_equiv_pos_as_xyz
  1  'x, y, z'
loop_
 _atom_site_type_symbol
 _atom_site_label
 _atom_site_symmetry_multiplicity
 _atom_site_fract_x
 _atom_site_fract_y
 _atom_site_fract_z
 _atom_site_occupancy
  Re  Re0  1  0.67923479  0.89067255  0.17294235  1
  Re  Re1  1  0.74284969  0.10932745  0.82705765  1
  Re  Re2  1  0.46556747  0.39066207  0.67296644  1
  Re  Re3  1  0.52919598  0.60933793  0.32703356  1
  Re  Re4  1  0.19261028  0.49756459  0.99504397  1
  Re  Re5  1  0.68521885  0.50243541  0.00495603  1
  Re  Re6  1  0.52302046  0.99756796  0.49505028  1
  Re  Re7  1  0.01563871  0.00243204  0.50494972  1
  Sc  Sc8  1  0.04270870  0.03855908  0.22746800  1
  Sc  Sc9  1  0.30873577  0.96144092  0.77253200  1
  Sc  Sc10  1  0.16572174  0.46148864  0.27251931  1
  Sc  Sc11  1  0.89972969  0.53851136  0.72748069  1
  Sc  Sc12  1  0.67636350  0.28054914  0.39607382  1
  Sc  Sc13  1  0.35298646  0.71945086  0.60392618  1
  Sc  Sc14  1  0.91667137  0.74996247  0.39197260  1
  Sc  Sc15  1  0.05860644  0.25003753  0.60802740  1
  Sc  Sc16  1  0.53196889  0.21940970  0.10399793  1
  Sc  Sc17  1  0.85537652  0.78059030  0.89600207  1
  Sc  Sc18  1  0.29175610  0.75004410  0.10794750  1
  Sc  Sc19  1  0.14974771  0.24995590  0.89205250  1
  Si  Si20  1  0.96327740  1.00000000  1.00000000  1
  Si  Si21  1  0.45268049  0.00000000  0.00000000  1
  Si  Si22  1  0.75573213  0.50000000  0.50000000  1
  Si  Si23  1  0.24520640  0.50000000  0.50000000  1
  Si  Si24  1  0.37121320  0.85186494  0.36559145  1
  Si  Si25  1  0.58866959  0.14813506  0.63440855  1
  Si  Si26  1  0.25005066  0.18483368  0.36628021  1
  Si  Si27  1  0.80116455  0.81516632  0.63371979  1
  Si  Si28  1  0.83714335  0.64816946  0.13436795  1
  Si  Si29  1  0.61968076  0.35183054  0.86563205  1
  Si  Si30  1  0.95811304  0.31524912  0.13379716  1
  Si  Si31  1  0.40715932  0.68475088  0.86620284  1
