# generated using pymatgen
data_Ba3Na3(CO3)5
_symmetry_space_group_name_H-M   'P 1'
_cell_length_a   6.89122568
_cell_length_b   11.04460835
_cell_length_c   11.04460835
_cell_angle_alpha   119.99999825
_cell_angle_beta   90.00000000
_cell_angle_gamma   90.00000000
_symmetry_Int_Tables_number   1
_chemical_formula_structural   Ba3Na3(CO3)5
_chemical_formula_sum   'Ba6 Na6 C10 O30'
_cell_volume   727.99391989
_cell_formula_units_Z   2
loop_
 _symmetry_equiv_pos_site_id
 _symmetry_equiv_pos_as_xyz
  1  'x, y, z'
loop_
 _atom_site_type_symbol
 _atom_site_label
 _atom_site_symmetry_multiplicity
 _atom_site_fract_x
 _atom_site_fract_y
 _atom_site_fract_z
 _atom_site_occupancy
  Ba  Ba0  1  0.83026031  0.84150215  0.68300431  1
  Ba  Ba1  1  0.83026031  0.84150215  0.15849785  1
  Ba  Ba2  1  0.33026031  0.15849785  0.31699569  1
  Ba  Ba3  1  0.83026031  0.31699569  0.15849785  1
  Ba  Ba4  1  0.33026031  0.15849785  0.84150215  1
  Ba  Ba5  1  0.33026031  0.68300431  0.84150215  1
  Na  Na6  1  0.51467216  0.52497988  0.04995976  1
  Na  Na7  1  0.51467216  0.52497988  0.47502012  1
  Na  Na8  1  0.01467216  0.47502012  0.95004024  1
  Na  Na9  1  0.51467216  0.95004024  0.47502012  1
  Na  Na10  1  0.01467216  0.47502012  0.52497988  1
  Na  Na11  1  0.01467216  0.04995976  0.52497988  1
  C  C12  1  0.79548745  0.20549466  0.41098932  1
  C  C13  1  0.79548745  0.20549466  0.79450534  1
  C  C14  1  0.29548745  0.79450534  0.58901068  1
  C  C15  1  0.79548745  0.58901068  0.79450534  1
  C  C16  1  0.29548745  0.79450534  0.20549466  1
  C  C17  1  0.29548745  0.41098932  0.20549466  1
  C  C18  1  0.83734426  0.66666700  0.33333300  1
  C  C19  1  0.33734426  0.33333300  0.66666700  1
  C  C20  1  0.00338649  -0.00000000  -0.00000000  1
  C  C21  1  0.50338649  -0.00000000  -0.00000000  1
  O  O22  1  0.70692889  0.61227791  0.70388718  1
  O  O23  1  0.70692889  0.09160926  0.38772209  1
  O  O24  1  0.20692889  0.38772209  0.29611282  1
  O  O25  1  0.70692889  0.09160926  0.70388718  1
  O  O26  1  0.70692889  0.29611282  0.90839074  1
  O  O27  1  0.20692889  0.90839074  0.61227791  1
  O  O28  1  0.70692889  0.29611282  0.38772209  1
  O  O29  1  0.20692889  0.90839074  0.29611282  1
  O  O30  1  0.20692889  0.70388718  0.09160926  1
  O  O31  1  0.20692889  0.70388718  0.61227791  1
  O  O32  1  0.70692889  0.61227791  0.90839074  1
  O  O33  1  0.20692889  0.38772209  0.09160926  1
  O  O34  1  0.97135734  0.22850563  0.45701126  1
  O  O35  1  0.97135734  0.22850563  0.77149437  1
  O  O36  1  0.47135734  0.77149437  0.54298874  1
  O  O37  1  0.97135734  0.54298874  0.77149437  1
  O  O38  1  0.47135734  0.77149437  0.22850563  1
  O  O39  1  0.47135734  0.45701126  0.22850563  1
  O  O40  1  0.83743484  0.59879199  0.19758399  1
  O  O41  1  0.83743484  0.59879199  0.40120801  1
  O  O42  1  0.33743484  0.40120801  0.80241601  1
  O  O43  1  0.83743484  0.80241601  0.40120801  1
  O  O44  1  0.33743484  0.40120801  0.59879199  1
  O  O45  1  0.33743484  0.19758399  0.59879199  1
  O  O46  1  0.00068653  0.06784895  0.13569790  1
  O  O47  1  0.00068653  0.06784895  0.93215105  1
  O  O48  1  0.50068653  0.93215105  0.86430210  1
  O  O49  1  0.00068653  0.86430210  0.93215105  1
  O  O50  1  0.50068653  0.93215105  0.06784895  1
  O  O51  1  0.50068653  0.13569790  0.06784895  1
