# generated using pymatgen
data_CsYbCoSe3
_symmetry_space_group_name_H-M   'P 1'
_cell_length_a   4.08254491
_cell_length_b   8.42532771
_cell_length_c   11.26206072
_cell_angle_alpha   90.00000000
_cell_angle_beta   90.00000000
_cell_angle_gamma   104.02103526
_symmetry_Int_Tables_number   1
_chemical_formula_structural   CsYbCoSe3
_chemical_formula_sum   'Cs2 Yb2 Co2 Se6'
_cell_volume   375.83737922
_cell_formula_units_Z   2
loop_
 _symmetry_equiv_pos_site_id
 _symmetry_equiv_pos_as_xyz
  1  'x, y, z'
loop_
 _atom_site_type_symbol
 _atom_site_label
 _atom_site_symmetry_multiplicity
 _atom_site_fract_x
 _atom_site_fract_y
 _atom_site_fract_z
 _atom_site_occupancy
  Yb  Yb0  1  0.00000000  0.00000000  0.00000000  1
  Yb  Yb1  1  0.00000000  0.00000000  0.50000000  1
  Cs  Cs2  1  0.73705532  0.47411064  0.75000000  1
  Cs  Cs3  1  0.26294468  0.52588936  0.25000000  1
  Co  Co4  1  0.45975473  0.91950946  0.75000000  1
  Co  Co5  1  0.54024527  0.08049054  0.25000000  1
  Se  Se6  1  0.04552592  0.09105184  0.75000000  1
  Se  Se7  1  0.95447408  0.90894816  0.25000000  1
  Se  Se8  1  0.38260123  0.76520247  0.92300898  1
  Se  Se9  1  0.61739877  0.23479753  0.07699102  1
  Se  Se10  1  0.61739877  0.23479753  0.42300898  1
  Se  Se11  1  0.38260123  0.76520247  0.57699102  1
