# generated using pymatgen
data_Al3FeSiBO9
_symmetry_space_group_name_H-M   'P 1'
_cell_length_a   5.83352695
_cell_length_b   11.23762698
_cell_length_c   10.46132272
_cell_angle_alpha   90.00000000
_cell_angle_beta   90.00000000
_cell_angle_gamma   90.00000000
_symmetry_Int_Tables_number   1
_chemical_formula_structural   Al3FeSiBO9
_chemical_formula_sum   'Al12 Fe4 Si4 B4 O36'
_cell_volume   685.79200926
_cell_formula_units_Z   4
loop_
 _symmetry_equiv_pos_site_id
 _symmetry_equiv_pos_as_xyz
  1  'x, y, z'
loop_
 _atom_site_type_symbol
 _atom_site_label
 _atom_site_symmetry_multiplicity
 _atom_site_fract_x
 _atom_site_fract_y
 _atom_site_fract_z
 _atom_site_occupancy
  Al  Al0  1  0.75000000  0.94799286  0.72672998  1
  Al  Al1  1  0.25000000  0.05200714  0.27327002  1
  Al  Al2  1  0.25000000  0.55200714  0.22672998  1
  Al  Al3  1  0.75000000  0.44799286  0.77327002  1
  Al  Al4  1  0.00000000  0.00000000  0.50000000  1
  Al  Al5  1  0.00000000  0.50000000  -0.00000000  1
  Al  Al6  1  0.50000000  0.00000000  0.50000000  1
  Al  Al7  1  0.50000000  0.50000000  0.00000000  1
  Al  Al8  1  0.00000000  0.00000000  -0.00000000  1
  Al  Al9  1  0.00000000  0.50000000  0.50000000  1
  Al  Al10  1  0.50000000  0.00000000  0.00000000  1
  Al  Al11  1  0.50000000  0.50000000  0.50000000  1
  Fe  Fe12  1  0.75000000  0.71867456  0.59359229  1
  Fe  Fe13  1  0.25000000  0.28132544  0.40640771  1
  Fe  Fe14  1  0.25000000  0.78132544  0.09359229  1
  Fe  Fe15  1  0.75000000  0.21867456  0.90640771  1
  Si  Si16  1  0.75000000  0.76367601  0.93496012  1
  Si  Si17  1  0.25000000  0.23632399  0.06503988  1
  Si  Si18  1  0.25000000  0.73632399  0.43496012  1
  Si  Si19  1  0.75000000  0.26367601  0.56503988  1
  B  B20  1  0.75000000  0.99993173  0.25101300  1
  B  B21  1  0.25000000  0.00006827  0.74898700  1
  B  B22  1  0.25000000  0.50006827  0.75101300  1
  B  B23  1  0.75000000  0.49993173  0.24898700  1
  O  O24  1  0.95418013  0.99904707  0.31903901  1
  O  O25  1  0.04581987  0.00095293  0.68096099  1
  O  O26  1  0.04581987  0.50095293  0.81903901  1
  O  O27  1  0.45418013  0.00095293  0.68096099  1
  O  O28  1  0.95418013  0.49904707  0.18096099  1
  O  O29  1  0.54581987  0.99904707  0.31903901  1
  O  O30  1  0.54581987  0.49904707  0.18096099  1
  O  O31  1  0.45418013  0.50095293  0.81903901  1
  O  O32  1  0.97549712  0.83046046  0.99393025  1
  O  O33  1  0.02450288  0.16953954  0.00606975  1
  O  O34  1  0.02450288  0.66953954  0.49393025  1
  O  O35  1  0.47549712  0.16953954  0.00606975  1
  O  O36  1  0.97549712  0.33046046  0.50606975  1
  O  O37  1  0.52450288  0.83046046  0.99393025  1
  O  O38  1  0.52450288  0.33046046  0.50606975  1
  O  O39  1  0.47549712  0.66953954  0.49393025  1
  O  O40  1  0.75000000  0.90416416  0.54716199  1
  O  O41  1  0.25000000  0.09583584  0.45283801  1
  O  O42  1  0.25000000  0.59583584  0.04716199  1
  O  O43  1  0.75000000  0.40416416  0.95283801  1
  O  O44  1  0.75000000  0.79165762  0.77809602  1
  O  O45  1  0.25000000  0.20834238  0.22190398  1
  O  O46  1  0.25000000  0.70834238  0.27809602  1
  O  O47  1  0.75000000  0.29165762  0.72190398  1
  O  O48  1  0.75000000  0.62177755  0.97409242  1
  O  O49  1  0.25000000  0.37822245  0.02590758  1
  O  O50  1  0.25000000  0.87822245  0.47409242  1
  O  O51  1  0.75000000  0.12177755  0.52590758  1
  O  O52  1  0.75000000  0.51920020  0.61749774  1
  O  O53  1  0.25000000  0.48079980  0.38250226  1
  O  O54  1  0.25000000  0.98079980  0.11749774  1
  O  O55  1  0.75000000  0.01920020  0.88250226  1
  O  O56  1  0.75000000  0.50422643  0.37841174  1
  O  O57  1  0.25000000  0.49577357  0.62158826  1
  O  O58  1  0.25000000  0.99577357  0.87841174  1
  O  O59  1  0.75000000  0.00422643  0.12158826  1
