# generated using pymatgen
data_AsRuSe
_symmetry_space_group_name_H-M   'P 1'
_cell_length_a   6.13379565
_cell_length_b   6.15087111
_cell_length_c   6.22407653
_cell_angle_alpha   112.57241672
_cell_angle_beta   90.00000000
_cell_angle_gamma   90.00000000
_symmetry_Int_Tables_number   1
_chemical_formula_structural   AsRuSe
_chemical_formula_sum   'As4 Ru4 Se4'
_cell_volume   216.83452222
_cell_formula_units_Z   4
loop_
 _symmetry_equiv_pos_site_id
 _symmetry_equiv_pos_as_xyz
  1  'x, y, z'
loop_
 _atom_site_type_symbol
 _atom_site_label
 _atom_site_symmetry_multiplicity
 _atom_site_fract_x
 _atom_site_fract_y
 _atom_site_fract_z
 _atom_site_occupancy
  As  As0  1  0.36775250  0.64435620  0.87904891  1
  As  As1  1  0.63224750  0.35564380  0.12095109  1
  As  As2  1  0.86775250  0.35564380  0.62095109  1
  As  As3  1  0.13224750  0.64435620  0.37904891  1
  Ru  Ru4  1  0.00274239  0.77518589  0.79402136  1
  Ru  Ru5  1  0.99725761  0.22481411  0.20597864  1
  Ru  Ru6  1  0.50274239  0.22481411  0.70597864  1
  Ru  Ru7  1  0.49725761  0.77518589  0.29402136  1
  Se  Se8  1  0.62901676  0.84003396  0.68626088  1
  Se  Se9  1  0.37098324  0.15996604  0.31373912  1
  Se  Se10  1  0.12901676  0.15996604  0.81373912  1
  Se  Se11  1  0.87098324  0.84003396  0.18626088  1
