# generated using pymatgen
data_Ce5Ge2Ir
_symmetry_space_group_name_H-M   'P 1'
_cell_length_a   7.99110328
_cell_length_b   8.70317875
_cell_length_c   11.88413478
_cell_angle_alpha   90.00000000
_cell_angle_beta   90.00000000
_cell_angle_gamma   90.00000000
_symmetry_Int_Tables_number   1
_chemical_formula_structural   Ce5Ge2Ir
_chemical_formula_sum   'Ce20 Ge8 Ir4'
_cell_volume   826.51780872
_cell_formula_units_Z   4
loop_
 _symmetry_equiv_pos_site_id
 _symmetry_equiv_pos_as_xyz
  1  'x, y, z'
loop_
 _atom_site_type_symbol
 _atom_site_label
 _atom_site_symmetry_multiplicity
 _atom_site_fract_x
 _atom_site_fract_y
 _atom_site_fract_z
 _atom_site_occupancy
  Ce  Ce0  1  0.67166329  0.75000000  0.71737948  1
  Ce  Ce1  1  0.32833671  0.25000000  0.28262052  1
  Ce  Ce2  1  0.17166329  0.25000000  0.78262052  1
  Ce  Ce3  1  0.82833671  0.75000000  0.21737948  1
  Ce  Ce4  1  0.14980621  0.75000000  0.79453777  1
  Ce  Ce5  1  0.85019379  0.25000000  0.20546223  1
  Ce  Ce6  1  0.64980621  0.25000000  0.70546223  1
  Ce  Ce7  1  0.35019379  0.75000000  0.29453777  1
  Ce  Ce8  1  0.53724771  0.75000000  -0.00047437  1
  Ce  Ce9  1  0.46275229  0.25000000  0.00047437  1
  Ce  Ce10  1  0.03724771  0.25000000  0.50047437  1
  Ce  Ce11  1  0.96275229  0.75000000  0.49952563  1
  Ce  Ce12  1  0.80863191  0.45838065  0.92491603  1
  Ce  Ce13  1  0.19136809  0.54161935  0.07508397  1
  Ce  Ce14  1  0.30863191  0.54161935  0.57508397  1
  Ce  Ce15  1  0.19136809  0.95838065  0.07508397  1
  Ce  Ce16  1  0.69136809  0.45838065  0.42491603  1
  Ce  Ce17  1  0.80863191  0.04161935  0.92491603  1
  Ce  Ce18  1  0.69136809  0.04161935  0.42491603  1
  Ce  Ce19  1  0.30863191  0.95838065  0.57508397  1
  Ge  Ge20  1  0.94143924  0.00568968  0.67261619  1
  Ge  Ge21  1  0.05856076  0.99431032  0.32738381  1
  Ge  Ge22  1  0.44143924  0.99431032  0.82738381  1
  Ge  Ge23  1  0.05856076  0.50568968  0.32738381  1
  Ge  Ge24  1  0.55856076  0.00568968  0.17261619  1
  Ge  Ge25  1  0.94143924  0.49431032  0.67261619  1
  Ge  Ge26  1  0.55856076  0.49431032  0.17261619  1
  Ge  Ge27  1  0.44143924  0.50568968  0.82738381  1
  Ir  Ir28  1  0.92334238  0.75000000  0.98309709  1
  Ir  Ir29  1  0.07665762  0.25000000  0.01690291  1
  Ir  Ir30  1  0.42334238  0.25000000  0.51690291  1
  Ir  Ir31  1  0.57665762  0.75000000  0.48309709  1
