# generated using pymatgen
data_Ba6Gd2Al4O15
_symmetry_space_group_name_H-M   'P 1'
_cell_length_a   5.99818682
_cell_length_b   7.98704479
_cell_length_c   18.60767154
_cell_angle_alpha   91.47109050
_cell_angle_beta   90.00000000
_cell_angle_gamma   90.00000000
_symmetry_Int_Tables_number   1
_chemical_formula_structural   Ba6Gd2Al4O15
_chemical_formula_sum   'Ba12 Gd4 Al8 O30'
_cell_volume   891.15854376
_cell_formula_units_Z   2
loop_
 _symmetry_equiv_pos_site_id
 _symmetry_equiv_pos_as_xyz
  1  'x, y, z'
loop_
 _atom_site_type_symbol
 _atom_site_label
 _atom_site_symmetry_multiplicity
 _atom_site_fract_x
 _atom_site_fract_y
 _atom_site_fract_z
 _atom_site_occupancy
  Ba  Ba0  1  0.75738265  0.50163881  0.41761487  1
  Ba  Ba1  1  0.24261735  0.49836119  0.58238513  1
  Ba  Ba2  1  0.75738265  0.49836119  0.08238513  1
  Ba  Ba3  1  0.24261735  0.50163881  0.91761487  1
  Ba  Ba4  1  0.74468249  0.96910741  0.40991942  1
  Ba  Ba5  1  0.25531751  0.03089259  0.59008058  1
  Ba  Ba6  1  0.74468249  0.03089259  0.09008058  1
  Ba  Ba7  1  0.25531751  0.96910741  0.90991942  1
  Ba  Ba8  1  0.72409762  0.00000000  0.75000000  1
  Ba  Ba9  1  0.27590238  0.00000000  0.25000000  1
  Ba  Ba10  1  0.66990829  0.50000000  0.75000000  1
  Ba  Ba11  1  0.33009171  0.50000000  0.25000000  1
  Gd  Gd12  1  0.74599809  0.75221259  0.59000421  1
  Gd  Gd13  1  0.25400191  0.24778741  0.40999579  1
  Gd  Gd14  1  0.74599809  0.24778741  0.90999579  1
  Gd  Gd15  1  0.25400191  0.75221259  0.09000421  1
  Al  Al16  1  0.75151664  0.75262017  0.94316276  1
  Al  Al17  1  0.24848336  0.24737983  0.05683724  1
  Al  Al18  1  0.75151664  0.24737983  0.55683724  1
  Al  Al19  1  0.24848336  0.75262017  0.44316276  1
  Al  Al20  1  0.77268121  0.77979230  0.23330035  1
  Al  Al21  1  0.22731879  0.22020770  0.76669965  1
  Al  Al22  1  0.77268121  0.22020770  0.26669965  1
  Al  Al23  1  0.22731879  0.77979230  0.73330035  1
  O  O24  1  0.21054499  0.00000000  0.75000000  1
  O  O25  1  0.78945501  0.00000000  0.25000000  1
  O  O26  1  0.49260689  0.76393893  0.49909920  1
  O  O27  1  0.50739311  0.23606107  0.50090080  1
  O  O28  1  0.49260689  0.23606107  0.00090080  1
  O  O29  1  0.50739311  0.76393893  0.99909920  1
  O  O30  1  0.75936035  0.94249536  0.89294580  1
  O  O31  1  0.24063965  0.05750464  0.10705420  1
  O  O32  1  0.75936035  0.05750464  0.60705420  1
  O  O33  1  0.24063965  0.94249536  0.39294580  1
  O  O34  1  0.00858474  0.76206848  0.50203164  1
  O  O35  1  0.99141526  0.23793152  0.49796836  1
  O  O36  1  0.00858474  0.23793152  0.99796836  1
  O  O37  1  0.99141526  0.76206848  0.00203164  1
  O  O38  1  0.31378304  0.69372356  0.81411220  1
  O  O39  1  0.68621696  0.30627644  0.18588780  1
  O  O40  1  0.31378304  0.30627644  0.68588780  1
  O  O41  1  0.68621696  0.69372356  0.31411220  1
  O  O42  1  0.44507623  0.75192730  0.66751847  1
  O  O43  1  0.55492377  0.24807270  0.33248153  1
  O  O44  1  0.44507623  0.24807270  0.83248153  1
  O  O45  1  0.55492377  0.75192730  0.16751847  1
  O  O46  1  0.96845516  0.73022994  0.69141914  1
  O  O47  1  0.03154484  0.26977006  0.30858086  1
  O  O48  1  0.96845516  0.26977006  0.80858086  1
  O  O49  1  0.03154484  0.73022994  0.19141914  1
  O  O50  1  0.75444651  0.54169238  0.90676085  1
  O  O51  1  0.24555349  0.45830762  0.09323915  1
  O  O52  1  0.75444651  0.45830762  0.59323915  1
  O  O53  1  0.24555349  0.54169238  0.40676085  1
