# generated using pymatgen
data_Ag2SnHgS4
_symmetry_space_group_name_H-M   'P 1'
_cell_length_a   6.88365569
_cell_length_b   7.25487047
_cell_length_c   8.22703771
_cell_angle_alpha   90.00000000
_cell_angle_beta   90.00000000
_cell_angle_gamma   90.00000000
_symmetry_Int_Tables_number   1
_chemical_formula_structural   Ag2SnHgS4
_chemical_formula_sum   'Ag4 Sn2 Hg2 S8'
_cell_volume   410.85851327
_cell_formula_units_Z   2
loop_
 _symmetry_equiv_pos_site_id
 _symmetry_equiv_pos_as_xyz
  1  'x, y, z'
loop_
 _atom_site_type_symbol
 _atom_site_label
 _atom_site_symmetry_multiplicity
 _atom_site_fract_x
 _atom_site_fract_y
 _atom_site_fract_z
 _atom_site_occupancy
  Ag  Ag0  1  0.51512712  0.82700521  0.75310895  1
  Ag  Ag1  1  0.01512712  0.17299479  0.74689105  1
  Ag  Ag2  1  0.01512712  0.17299479  0.25310895  1
  Ag  Ag3  1  0.51512712  0.82700521  0.24689105  1
  Sn  Sn4  1  0.99835505  0.66866422  0.00000000  1
  Sn  Sn5  1  0.49835505  0.33133578  0.50000000  1
  Hg  Hg6  1  0.51205214  0.35030867  0.00000000  1
  Hg  Hg7  1  0.01205214  0.64969133  0.50000000  1
  S  S8  1  0.88642672  0.34884436  0.00000000  1
  S  S9  1  0.38642672  0.65115564  0.50000000  1
  S  S10  1  0.88542104  0.83499145  0.75817652  1
  S  S11  1  0.38542104  0.16500855  0.74182348  1
  S  S12  1  0.38542104  0.16500855  0.25817652  1
  S  S13  1  0.88542104  0.83499145  0.24182348  1
  S  S14  1  0.35456976  0.67453939  0.00000000  1
  S  S15  1  0.85456976  0.32546061  0.50000000  1
