# generated using pymatgen
data_Ba3Dy(BO3)3
_symmetry_space_group_name_H-M   'P 1'
_cell_length_a   9.52147821
_cell_length_b   9.52147821
_cell_length_c   17.94875578
_cell_angle_alpha   90.00000000
_cell_angle_beta   90.00000000
_cell_angle_gamma   119.99999449
_symmetry_Int_Tables_number   1
_chemical_formula_structural   Ba3Dy(BO3)3
_chemical_formula_sum   'Ba18 Dy6 B18 O54'
_cell_volume   1409.20365079
_cell_formula_units_Z   6
loop_
 _symmetry_equiv_pos_site_id
 _symmetry_equiv_pos_as_xyz
  1  'x, y, z'
loop_
 _atom_site_type_symbol
 _atom_site_label
 _atom_site_symmetry_multiplicity
 _atom_site_fract_x
 _atom_site_fract_y
 _atom_site_fract_z
 _atom_site_occupancy
  Ba  Ba0  1  -0.00000000  -0.00000000  0.71917933  1
  Ba  Ba1  1  -0.00000000  -0.00000000  0.21917933  1
  Ba  Ba2  1  0.34624845  0.34624845  0.63031926  1
  Ba  Ba3  1  1.00000000  0.65375155  0.63031926  1
  Ba  Ba4  1  0.65375155  0.65375155  0.13031926  1
  Ba  Ba5  1  0.00000000  0.34624845  0.13031926  1
  Ba  Ba6  1  0.65375155  1.00000000  0.63031926  1
  Ba  Ba7  1  0.34624845  0.00000000  0.13031926  1
  Ba  Ba8  1  0.31975147  0.31975147  0.86966975  1
  Ba  Ba9  1  1.00000000  0.68024853  0.86966975  1
  Ba  Ba10  1  0.68024853  0.68024853  0.36966975  1
  Ba  Ba11  1  0.00000000  0.31975147  0.36966975  1
  Ba  Ba12  1  0.68024853  1.00000000  0.86966975  1
  Ba  Ba13  1  0.31975147  0.00000000  0.36966975  1
  Ba  Ba14  1  0.66666700  0.33333300  0.77350286  1
  Ba  Ba15  1  0.33333300  0.66666700  0.27350286  1
  Ba  Ba16  1  0.66666700  0.33333300  0.27350286  1
  Ba  Ba17  1  0.33333300  0.66666700  0.77350286  1
  Dy  Dy18  1  -0.00000000  -0.00000000  0.00324153  1
  Dy  Dy19  1  -0.00000000  -0.00000000  0.50324153  1
  Dy  Dy20  1  0.66666700  0.33333300  0.99786883  1
  Dy  Dy21  1  0.33333300  0.66666700  0.49786883  1
  Dy  Dy22  1  0.66666700  0.33333300  0.49786883  1
  Dy  Dy23  1  0.33333300  0.66666700  0.99786883  1
  B  B24  1  0.66695457  0.66695457  0.74893441  1
  B  B25  1  0.00000000  0.33304543  0.74893441  1
  B  B26  1  0.33304543  0.33304543  0.24893441  1
  B  B27  1  1.00000000  0.66695457  0.24893441  1
  B  B28  1  0.33304543  0.00000000  0.74893441  1
  B  B29  1  0.66695457  1.00000000  0.24893441  1
  B  B30  1  0.67286720  0.67286720  0.57562614  1
  B  B31  1  0.00000000  0.32713280  0.57562614  1
  B  B32  1  0.32713280  0.32713280  0.07562614  1
  B  B33  1  1.00000000  0.67286720  0.07562614  1
  B  B34  1  0.32713280  0.00000000  0.57562614  1
  B  B35  1  0.67286720  1.00000000  0.07562614  1
  B  B36  1  0.66119383  0.66119383  0.92139262  1
  B  B37  1  0.00000000  0.33880617  0.92139262  1
  B  B38  1  0.33880617  0.33880617  0.42139262  1
  B  B39  1  1.00000000  0.66119383  0.42139262  1
  B  B40  1  0.33880617  0.00000000  0.92139262  1
  B  B41  1  0.66119383  1.00000000  0.42139262  1
  O  O42  1  0.85339528  0.18660877  0.74952437  1
  O  O43  1  0.33321349  0.14660472  0.74952437  1
  O  O44  1  0.14660472  0.81339123  0.24952437  1
  O  O45  1  0.33321349  0.18660877  0.24952437  1
  O  O46  1  0.81339123  0.66678651  0.74952437  1
  O  O47  1  0.66678651  0.85339528  0.24952437  1
  O  O48  1  0.81339123  0.14660472  0.24952437  1
  O  O49  1  0.66678651  0.81339123  0.74952437  1
  O  O50  1  0.18660877  0.33321349  0.24952437  1
  O  O51  1  0.18660877  0.85339528  0.74952437  1
  O  O52  1  0.85339528  0.66678651  0.24952437  1
  O  O53  1  0.14660472  0.33321349  0.74952437  1
  O  O54  1  0.80673228  0.80673228  0.93056230  1
  O  O55  1  1.00000000  0.19326772  0.93056230  1
  O  O56  1  0.19326772  0.19326772  0.43056230  1
  O  O57  1  0.00000000  0.80673228  0.43056230  1
  O  O58  1  0.19326772  1.00000000  0.93056230  1
  O  O59  1  0.80673228  0.00000000  0.43056230  1
  O  O60  1  0.52017859  0.52017859  0.74845133  1
  O  O61  1  0.00000000  0.47982141  0.74845133  1
  O  O62  1  0.47982141  0.47982141  0.24845133  1
  O  O63  1  1.00000000  0.52017859  0.24845133  1
  O  O64  1  0.47982141  0.00000000  0.74845133  1
  O  O65  1  0.52017859  1.00000000  0.24845133  1
  O  O66  1  0.85356477  0.33759189  0.91672032  1
  O  O67  1  0.48402712  0.14643523  0.91672032  1
  O  O68  1  0.14643523  0.66240811  0.41672032  1
  O  O69  1  0.48402712  0.33759189  0.41672032  1
  O  O70  1  0.66240811  0.51597288  0.91672032  1
  O  O71  1  0.51597288  0.85356477  0.41672032  1
  O  O72  1  0.66240811  0.14643523  0.41672032  1
  O  O73  1  0.51597288  0.66240811  0.91672032  1
  O  O74  1  0.33759189  0.48402712  0.41672032  1
  O  O75  1  0.33759189  0.85356477  0.91672032  1
  O  O76  1  0.85356477  0.51597288  0.41672032  1
  O  O77  1  0.14643523  0.48402712  0.91672032  1
  O  O78  1  0.81804060  0.81804060  0.58441721  1
  O  O79  1  1.00000000  0.18195940  0.58441721  1
  O  O80  1  0.18195940  0.18195940  0.08441721  1
  O  O81  1  0.00000000  0.81804060  0.08441721  1
  O  O82  1  0.18195940  1.00000000  0.58441721  1
  O  O83  1  0.81804060  0.00000000  0.08441721  1
  O  O84  1  0.85415982  0.32690492  0.57127476  1
  O  O85  1  0.47274510  0.14584018  0.57127476  1
  O  O86  1  0.14584018  0.67309508  0.07127476  1
  O  O87  1  0.47274510  0.32690492  0.07127476  1
  O  O88  1  0.67309508  0.52725490  0.57127476  1
  O  O89  1  0.52725490  0.85415982  0.07127476  1
  O  O90  1  0.67309508  0.14584018  0.07127476  1
  O  O91  1  0.52725490  0.67309508  0.57127476  1
  O  O92  1  0.32690492  0.47274510  0.07127476  1
  O  O93  1  0.32690492  0.85415982  0.57127476  1
  O  O94  1  0.85415982  0.52725490  0.07127476  1
  O  O95  1  0.14584018  0.47274510  0.57127476  1
