# generated using pymatgen
data_Ba2CaMnV2F14
_symmetry_space_group_name_H-M   'P 1'
_cell_length_a   5.47549023
_cell_length_b   7.51605002
_cell_length_c   15.29559968
_cell_angle_alpha   91.44795891
_cell_angle_beta   90.00000000
_cell_angle_gamma   111.36162927
_symmetry_Int_Tables_number   1
_chemical_formula_structural   Ba2CaMnV2F14
_chemical_formula_sum   'Ba4 Ca2 Mn2 V4 F28'
_cell_volume   586.01514787
_cell_formula_units_Z   2
loop_
 _symmetry_equiv_pos_site_id
 _symmetry_equiv_pos_as_xyz
  1  'x, y, z'
loop_
 _atom_site_type_symbol
 _atom_site_label
 _atom_site_symmetry_multiplicity
 _atom_site_fract_x
 _atom_site_fract_y
 _atom_site_fract_z
 _atom_site_occupancy
  Ba  Ba0  1  0.64531128  0.37907220  0.62270616  1
  Ba  Ba1  1  0.35468872  0.62092780  0.37729384  1
  Ba  Ba2  1  0.26623908  0.62092780  0.87729384  1
  Ba  Ba3  1  0.73376092  0.37907220  0.12270616  1
  Ca  Ca4  1  0.95153905  0.00000000  0.75000000  1
  Ca  Ca5  1  0.04846095  0.00000000  0.25000000  1
  Mn  Mn6  1  0.00000000  0.00000000  0.00000000  1
  Mn  Mn7  1  0.00000000  0.00000000  0.50000000  1
  V  V8  1  0.62281726  0.24159150  0.87648479  1
  V  V9  1  0.37718274  0.75840850  0.12351521  1
  V  V10  1  0.38122576  0.75840850  0.62351521  1
  V  V11  1  0.61877424  0.24159150  0.37648479  1
  F  F12  1  0.40621500  0.17060261  0.98392935  1
  F  F13  1  0.59378500  0.82939739  0.01607065  1
  F  F14  1  0.23561240  0.82939739  0.51607065  1
  F  F15  1  0.76438760  0.17060261  0.48392935  1
  F  F16  1  0.69237492  0.50519181  0.91003598  1
  F  F17  1  0.30762508  0.49480819  0.08996402  1
  F  F18  1  0.18718311  0.49480819  0.58996402  1
  F  F19  1  0.81281689  0.50519181  0.41003598  1
  F  F20  1  0.66804224  0.73954401  0.54691984  1
  F  F21  1  0.33195776  0.26045599  0.45308016  1
  F  F22  1  0.92849823  0.26045599  0.95308016  1
  F  F23  1  0.07150177  0.73954401  0.04691984  1
  F  F24  1  0.55038248  0.67449538  0.72300147  1
  F  F25  1  0.44961752  0.32550462  0.27699853  1
  F  F26  1  0.87588709  0.32550462  0.77699853  1
  F  F27  1  0.12411291  0.67449538  0.22300147  1
  F  F28  1  0.84908784  0.88601550  0.37741213  1
  F  F29  1  0.15091216  0.11398450  0.62258787  1
  F  F30  1  0.96307235  0.11398450  0.12258787  1
  F  F31  1  0.03692765  0.88601550  0.87741213  1
  F  F32  1  0.34277853  0.24808251  0.79724131  1
  F  F33  1  0.65722147  0.75191749  0.20275869  1
  F  F34  1  0.09469602  0.75191749  0.70275869  1
  F  F35  1  0.90530398  0.24808251  0.29724131  1
  F  F36  1  0.59338967  0.98177973  0.84362196  1
  F  F37  1  0.40661033  0.01822027  0.15637804  1
  F  F38  1  0.61160994  0.01822027  0.65637804  1
  F  F39  1  0.38839006  0.98177973  0.34362196  1
