# generated using pymatgen
data_RbErS2O9
_symmetry_space_group_name_H-M   'P 1'
_cell_length_a   8.55736876
_cell_length_b   10.59367872
_cell_length_c   10.15393396
_cell_angle_alpha   120.17599027
_cell_angle_beta   90.00000000
_cell_angle_gamma   90.00000000
_symmetry_Int_Tables_number   1
_chemical_formula_structural   RbErS2O9
_chemical_formula_sum   'Rb4 Er4 S8 O36'
_cell_volume   795.75449552
_cell_formula_units_Z   4
loop_
 _symmetry_equiv_pos_site_id
 _symmetry_equiv_pos_as_xyz
  1  'x, y, z'
loop_
 _atom_site_type_symbol
 _atom_site_label
 _atom_site_symmetry_multiplicity
 _atom_site_fract_x
 _atom_site_fract_y
 _atom_site_fract_z
 _atom_site_occupancy
  Rb  Rb0  1  0.33178523  0.68261941  0.96416099  1
  Rb  Rb1  1  0.66821477  0.31738059  0.03583901  1
  Rb  Rb2  1  0.83178523  0.81738059  0.53583901  1
  Rb  Rb3  1  0.16821477  0.18261941  0.46416099  1
  Er  Er4  1  0.36896331  0.96817606  0.71790128  1
  Er  Er5  1  0.63103669  0.03182394  0.28209872  1
  Er  Er6  1  0.86896331  0.53182394  0.78209872  1
  Er  Er7  1  0.13103669  0.46817606  0.21790128  1
  S  S8  1  0.13191141  0.31602969  0.87598875  1
  S  S9  1  0.86808859  0.68397031  0.12401125  1
  S  S10  1  0.63191141  0.18397031  0.62401125  1
  S  S11  1  0.36808859  0.81602969  0.37598875  1
  S  S12  1  0.19666110  0.60881475  0.59814434  1
  S  S13  1  0.80333890  0.39118525  0.40185566  1
  S  S14  1  0.69666110  0.89118525  0.90185566  1
  S  S15  1  0.30333890  0.10881475  0.09814434  1
  O  O16  1  0.79092467  0.02643816  0.97068098  1
  O  O17  1  0.20907533  0.97356184  0.02931902  1
  O  O18  1  0.29092467  0.47356184  0.52931902  1
  O  O19  1  0.70907533  0.52643816  0.47068098  1
  O  O20  1  0.20569415  0.17631042  0.76365831  1
  O  O21  1  0.79430585  0.82368958  0.23634169  1
  O  O22  1  0.70569415  0.32368958  0.73634169  1
  O  O23  1  0.29430585  0.67631042  0.26365831  1
  O  O24  1  0.30057591  0.74038399  0.68000799  1
  O  O25  1  0.69942409  0.25961601  0.31999201  1
  O  O26  1  0.80057591  0.75961601  0.81999201  1
  O  O27  1  0.19942409  0.24038399  0.18000799  1
  O  O28  1  0.39168421  0.12011532  0.97792059  1
  O  O29  1  0.60831579  0.87988468  0.02207941  1
  O  O30  1  0.89168421  0.37988468  0.52207941  1
  O  O31  1  0.10831579  0.62011532  0.47792059  1
  O  O32  1  0.11621681  0.93927580  0.77817150  1
  O  O33  1  0.88378319  0.06072420  0.22182850  1
  O  O34  1  0.61621681  0.56072420  0.72182850  1
  O  O35  1  0.38378319  0.43927580  0.27817150  1
  O  O36  1  0.25154576  0.41988041  0.98632418  1
  O  O37  1  0.74845424  0.58011959  0.01367582  1
  O  O38  1  0.75154576  0.08011959  0.51367582  1
  O  O39  1  0.24845424  0.91988041  0.48632418  1
  O  O40  1  0.01314348  0.29976005  0.97333565  1
  O  O41  1  0.98685652  0.70023995  0.02666435  1
  O  O42  1  0.51314348  0.20023995  0.52666435  1
  O  O43  1  0.48685652  0.79976005  0.47333565  1
  O  O44  1  0.06001929  0.38093893  0.78937953  1
  O  O45  1  0.93998071  0.61906107  0.21062047  1
  O  O46  1  0.56001929  0.11906107  0.71062047  1
  O  O47  1  0.43998071  0.88093893  0.28937953  1
  O  O48  1  0.58953998  0.88833245  0.78566093  1
  O  O49  1  0.41046002  0.11166755  0.21433907  1
  O  O50  1  0.08953998  0.61166755  0.71433907  1
  O  O51  1  0.91046002  0.38833245  0.28566093  1
