# generated using pymatgen
data_Zr(AlFe)6
_symmetry_space_group_name_H-M   'P 1'
_cell_length_a   4.95457225
_cell_length_b   6.48837657
_cell_length_c   6.48837657
_cell_angle_alpha   99.08950682
_cell_angle_beta   112.44544738
_cell_angle_gamma   67.55455262
_symmetry_Int_Tables_number   1
_chemical_formula_structural   Zr(AlFe)6
_chemical_formula_sum   'Zr1 Al6 Fe6'
_cell_volume   178.15857349
_cell_formula_units_Z   1
loop_
 _symmetry_equiv_pos_site_id
 _symmetry_equiv_pos_as_xyz
  1  'x, y, z'
loop_
 _atom_site_type_symbol
 _atom_site_label
 _atom_site_symmetry_multiplicity
 _atom_site_fract_x
 _atom_site_fract_y
 _atom_site_fract_z
 _atom_site_occupancy
  Zr  Zr0  1  -0.00000000  0.00000000  0.00000000  1
  Al  Al1  1  0.65632429  0.34367571  0.65632429  1
  Al  Al2  1  0.34367571  0.65632429  0.34367571  1
  Al  Al3  1  -0.00000000  0.33489794  0.33489794  1
  Al  Al4  1  0.00000000  0.66510206  0.66510206  1
  Al  Al5  1  0.68562938  0.81437062  0.18562938  1
  Al  Al6  1  0.31437062  0.18562938  0.81437062  1
  Fe  Fe7  1  0.50000000  0.00000000  0.50000000  1
  Fe  Fe8  1  -0.00000000  0.00000000  0.50000000  1
  Fe  Fe9  1  0.50000000  0.50000000  0.00000000  1
  Fe  Fe10  1  -0.00000000  0.50000000  0.00000000  1
  Fe  Fe11  1  0.50000000  0.76047349  0.76047349  1
  Fe  Fe12  1  0.50000000  0.23952651  0.23952651  1
