# generated using pymatgen
data_Zn15B6Rh17
_symmetry_space_group_name_H-M   'P 1'
_cell_length_a   2.88557464
_cell_length_b   11.21102160
_cell_length_c   14.99290765
_cell_angle_alpha   90.00000000
_cell_angle_beta   90.00000000
_cell_angle_gamma   90.00000000
_symmetry_Int_Tables_number   1
_chemical_formula_structural   Zn15B6Rh17
_chemical_formula_sum   'Zn15 B6 Rh17'
_cell_volume   485.02415504
_cell_formula_units_Z   1
loop_
 _symmetry_equiv_pos_site_id
 _symmetry_equiv_pos_as_xyz
  1  'x, y, z'
loop_
 _atom_site_type_symbol
 _atom_site_label
 _atom_site_symmetry_multiplicity
 _atom_site_fract_x
 _atom_site_fract_y
 _atom_site_fract_z
 _atom_site_occupancy
  Zn  Zn0  1  0.50000000  0.75000000  0.34757859  1
  Zn  Zn1  1  0.50000000  0.25000000  0.65341665  1
  Zn  Zn2  1  0.50000000  0.63565752  0.00284909  1
  Zn  Zn3  1  0.50000000  0.36668830  0.99229840  1
  Zn  Zn4  1  0.50000000  0.86434248  0.00284909  1
  Zn  Zn5  1  0.50000000  0.13331170  0.99229840  1
  Zn  Zn6  1  0.50000000  0.62467743  0.76957745  1
  Zn  Zn7  1  0.50000000  0.38011813  0.23567330  1
  Zn  Zn8  1  0.50000000  0.87532257  0.76957745  1
  Zn  Zn9  1  0.50000000  0.11988187  0.23567330  1
  Zn  Zn10  1  0.50000000  0.54768957  0.60134994  1
  Zn  Zn11  1  0.50000000  0.45294624  0.39968261  1
  Zn  Zn12  1  0.50000000  0.95231043  0.60134994  1
  Zn  Zn13  1  0.50000000  0.04705376  0.39968261  1
  Zn  Zn14  1  -0.00000000  0.25000000  0.11889499  1
  B  B15  1  0.50000000  0.75000000  0.52991227  1
  B  B16  1  0.50000000  0.25000000  0.47045926  1
  B  B17  1  0.50000000  0.39389990  0.82072361  1
  B  B18  1  0.50000000  0.60512992  0.17883732  1
  B  B19  1  0.50000000  0.10610010  0.82072361  1
  B  B20  1  0.50000000  0.89487008  0.17883732  1
  Rh  Rh21  1  0.00000000  0.49968634  0.89202864  1
  Rh  Rh22  1  0.00000000  0.49222208  0.10698345  1
  Rh  Rh23  1  -0.00000000  0.00031366  0.89202864  1
  Rh  Rh24  1  -0.00000000  0.00777792  0.10698345  1
  Rh  Rh25  1  0.00000000  0.75000000  0.64133864  1
  Rh  Rh26  1  -0.00000000  0.25000000  0.35664169  1
  Rh  Rh27  1  -0.00000000  0.42582945  0.71757029  1
  Rh  Rh28  1  -0.00000000  0.57619226  0.28187034  1
  Rh  Rh29  1  0.00000000  0.07417055  0.71757029  1
  Rh  Rh30  1  0.00000000  0.92380774  0.28187034  1
  Rh  Rh31  1  0.00000000  0.75000000  0.13877326  1
  Rh  Rh32  1  -0.00000000  0.25000000  0.86254506  1
  Rh  Rh33  1  -0.00000000  0.37160492  0.52976945  1
  Rh  Rh34  1  0.00000000  0.62818878  0.46989336  1
  Rh  Rh35  1  0.00000000  0.12839508  0.52976945  1
  Rh  Rh36  1  0.00000000  0.87181122  0.46989336  1
  Rh  Rh37  1  0.00000000  0.75000000  0.88222509  1
