# generated using pymatgen
data_ZrTi3As2
_symmetry_space_group_name_H-M   'P 1'
_cell_length_a   3.74051240
_cell_length_b   3.74051240
_cell_length_c   7.77394102
_cell_angle_alpha   76.07921047
_cell_angle_beta   76.07921047
_cell_angle_gamma   90.00000000
_symmetry_Int_Tables_number   1
_chemical_formula_structural   ZrTi3As2
_chemical_formula_sum   'Zr1 Ti3 As2'
_cell_volume   102.27961383
_cell_formula_units_Z   1
loop_
 _symmetry_equiv_pos_site_id
 _symmetry_equiv_pos_as_xyz
  1  'x, y, z'
loop_
 _atom_site_type_symbol
 _atom_site_label
 _atom_site_symmetry_multiplicity
 _atom_site_fract_x
 _atom_site_fract_y
 _atom_site_fract_z
 _atom_site_occupancy
  Zr  Zr0  1  0.31890399  0.31890399  0.36219202  1
  Ti  Ti1  1  0.50199142  0.00199142  0.99601717  1
  Ti  Ti2  1  0.00199142  0.50199142  0.99601717  1
  Ti  Ti3  1  0.67688181  0.67688181  0.64623637  1
  As  As4  1  0.13252530  0.13252530  0.73494940  1
  As  As5  1  0.86770606  0.86770606  0.26458787  1
