# generated using pymatgen
data_Zn53Co7
_symmetry_space_group_name_H-M   'P 1'
_cell_length_a   7.71853534
_cell_length_b   11.25148241
_cell_length_c   11.26504301
_cell_angle_alpha   60.18954566
_cell_angle_beta   90.00000000
_cell_angle_gamma   90.00000000
_symmetry_Int_Tables_number   1
_chemical_formula_structural   Zn53Co7
_chemical_formula_sum   'Zn53 Co7'
_cell_volume   848.85685666
_cell_formula_units_Z   1
loop_
 _symmetry_equiv_pos_site_id
 _symmetry_equiv_pos_as_xyz
  1  'x, y, z'
loop_
 _atom_site_type_symbol
 _atom_site_label
 _atom_site_symmetry_multiplicity
 _atom_site_fract_x
 _atom_site_fract_y
 _atom_site_fract_z
 _atom_site_occupancy
  Zn  Zn0  1  0.57253551  0.88884771  0.48258368  1
  Zn  Zn1  1  0.23835757  0.62880575  0.88875140  1
  Zn  Zn2  1  0.90525836  0.48381261  0.62762717  1
  Zn  Zn3  1  0.57253551  0.11115229  0.51741632  1
  Zn  Zn4  1  0.23835757  0.37119425  0.11124860  1
  Zn  Zn5  1  0.90525836  0.51618739  0.37237283  1
  Zn  Zn6  1  0.30444830  0.48346105  0.62508544  1
  Zn  Zn7  1  0.97108185  0.89087363  0.48475083  1
  Zn  Zn8  1  0.63787966  0.62537923  0.89158881  1
  Zn  Zn9  1  0.30444830  0.51653895  0.37491456  1
  Zn  Zn10  1  0.97108185  0.10912637  0.51524917  1
  Zn  Zn11  1  0.63787966  0.37462077  0.10841119  1
  Zn  Zn12  1  0.77354157  0.73223236  0.42351910  1
  Zn  Zn13  1  0.44018050  0.84346176  0.73150221  1
  Zn  Zn14  1  0.10715413  0.42377596  0.84419257  1
  Zn  Zn15  1  0.77354157  0.26776764  0.57648090  1
  Zn  Zn16  1  0.44018050  0.15653824  0.26849779  1
  Zn  Zn17  1  0.10715413  0.57622404  0.15580743  1
  Zn  Zn18  1  0.27946737  0.78307555  0.18908449  1
  Zn  Zn19  1  0.94121737  0.02884612  0.77839974  1
  Zn  Zn20  1  0.60487431  0.18998477  0.02678511  1
  Zn  Zn21  1  0.27946737  0.21692445  0.81091551  1
  Zn  Zn22  1  0.94121737  0.97115388  0.22160026  1
  Zn  Zn23  1  0.60487431  0.81001523  0.97321489  1
  Zn  Zn24  1  0.59738239  0.61620470  0.66131454  1
  Zn  Zn25  1  0.26330366  0.72234096  0.61631921  1
  Zn  Zn26  1  0.93060916  0.66108253  0.72283147  1
  Zn  Zn27  1  0.59738239  0.38379530  0.33868546  1
  Zn  Zn28  1  0.26330366  0.27765904  0.38368079  1
  Zn  Zn29  1  0.93060916  0.33891747  0.27716853  1
  Zn  Zn30  1  0.60048771  0.50000000  0.50000000  1
  Zn  Zn31  1  0.26675670  0.00000000  0.50000000  1
  Zn  Zn32  1  0.93381490  0.50000000  -0.00000000  1
  Zn  Zn33  1  0.10308842  0.68664227  0.42657902  1
  Zn  Zn34  1  0.76941060  0.88655822  0.68677583  1
  Zn  Zn35  1  0.43620660  0.42767637  0.88634449  1
  Zn  Zn36  1  0.10308842  0.31335773  0.57342098  1
  Zn  Zn37  1  0.76941060  0.11344178  0.31322417  1
  Zn  Zn38  1  0.43620660  0.57232363  0.11365551  1
  Zn  Zn39  1  0.59606306  0.68734310  0.24323385  1
  Zn  Zn40  1  0.26336441  0.06930577  0.68758161  1
  Zn  Zn41  1  0.92985615  0.24377712  0.06933515  1
  Zn  Zn42  1  0.59606306  0.31265690  0.75676615  1
  Zn  Zn43  1  0.26336441  0.93069423  0.31241839  1
  Zn  Zn44  1  0.92985615  0.75622288  0.93066485  1
  Zn  Zn45  1  0.10105821  0.00000000  -0.00000000  1
  Zn  Zn46  1  0.75888579  0.00000000  -0.00000000  1
  Zn  Zn47  1  0.58104650  0.93263108  0.22582434  1
  Zn  Zn48  1  0.25610142  0.84139358  0.93221921  1
  Zn  Zn49  1  0.91920631  0.23050894  0.83692493  1
  Zn  Zn50  1  0.58104650  0.06736892  0.77417566  1
  Zn  Zn51  1  0.25610142  0.15860642  0.06778079  1
  Zn  Zn52  1  0.91920631  0.76949106  0.16307507  1
  Co  Co53  1  0.43429189  0.71588406  0.42450281  1
  Co  Co54  1  0.10123390  0.86027908  0.71615382  1
  Co  Co55  1  0.76710383  0.42427794  0.85991877  1
  Co  Co56  1  0.43429189  0.28411594  0.57549719  1
  Co  Co57  1  0.10123390  0.13972092  0.28384618  1
  Co  Co58  1  0.76710383  0.57572206  0.14008123  1
  Co  Co59  1  0.43016110  0.00000000  -0.00000000  1
