# generated using pymatgen
data_ZnGa11Co4
_symmetry_space_group_name_H-M   'P 1'
_cell_length_a   6.24122924
_cell_length_b   6.30515444
_cell_length_c   6.41064597
_cell_angle_alpha   90.00000000
_cell_angle_beta   90.00000000
_cell_angle_gamma   90.36825984
_symmetry_Int_Tables_number   1
_chemical_formula_structural   ZnGa11Co4
_chemical_formula_sum   'Zn1 Ga11 Co4'
_cell_volume   252.26597962
_cell_formula_units_Z   1
loop_
 _symmetry_equiv_pos_site_id
 _symmetry_equiv_pos_as_xyz
  1  'x, y, z'
loop_
 _atom_site_type_symbol
 _atom_site_label
 _atom_site_symmetry_multiplicity
 _atom_site_fract_x
 _atom_site_fract_y
 _atom_site_fract_z
 _atom_site_occupancy
  Zn  Zn0  1  0.50000000  -0.00000000  0.00000000  1
  Ga  Ga1  1  0.34867076  0.65751928  0.23869225  1
  Ga  Ga2  1  0.65132924  0.34248072  0.23869225  1
  Ga  Ga3  1  0.15545527  0.15189977  0.74428466  1
  Ga  Ga4  1  0.84454473  0.84810023  0.74428466  1
  Ga  Ga5  1  0.65132924  0.34248072  0.76130775  1
  Ga  Ga6  1  0.34867076  0.65751928  0.76130775  1
  Ga  Ga7  1  0.84454473  0.84810023  0.25571534  1
  Ga  Ga8  1  0.15545527  0.15189977  0.25571534  1
  Ga  Ga9  1  -0.00000000  0.50000000  0.50000000  1
  Ga  Ga10  1  -0.00000000  0.50000000  -0.00000000  1
  Ga  Ga11  1  0.50000000  -0.00000000  0.50000000  1
  Co  Co12  1  0.15479232  0.84410458  0.50000000  1
  Co  Co13  1  0.84520768  0.15589542  0.50000000  1
  Co  Co14  1  0.34255279  0.35186628  -0.00000000  1
  Co  Co15  1  0.65744721  0.64813372  -0.00000000  1
