# generated using pymatgen
data_YThFe14B
_symmetry_space_group_name_H-M   'P 1'
_cell_length_a   8.76467336
_cell_length_b   8.76467336
_cell_length_c   11.97602639
_cell_angle_alpha   90.00000000
_cell_angle_beta   90.00000000
_cell_angle_gamma   90.00000000
_symmetry_Int_Tables_number   1
_chemical_formula_structural   YThFe14B
_chemical_formula_sum   'Y4 Th4 Fe56 B4'
_cell_volume   919.99234858
_cell_formula_units_Z   4
loop_
 _symmetry_equiv_pos_site_id
 _symmetry_equiv_pos_as_xyz
  1  'x, y, z'
loop_
 _atom_site_type_symbol
 _atom_site_label
 _atom_site_symmetry_multiplicity
 _atom_site_fract_x
 _atom_site_fract_y
 _atom_site_fract_z
 _atom_site_occupancy
  Y  Y0  1  0.22936879  0.77063121  0.50000000  1
  Y  Y1  1  0.77063121  0.22936879  0.50000000  1
  Y  Y2  1  0.27063121  0.27063121  0.00000000  1
  Y  Y3  1  0.72936879  0.72936879  0.00000000  1
  Th  Th4  1  0.64377900  0.64377900  0.50000000  1
  Th  Th5  1  0.35622100  0.35622100  0.50000000  1
  Th  Th6  1  0.85622100  0.14377900  0.00000000  1
  Th  Th7  1  0.14377900  0.85622100  0.00000000  1
  Fe  Fe8  1  0.93423958  0.72454658  0.37292978  1
  Fe  Fe9  1  0.06576042  0.27545342  0.37292978  1
  Fe  Fe10  1  0.56576042  0.22454658  0.87292978  1
  Fe  Fe11  1  0.43423958  0.77545342  0.87292978  1
  Fe  Fe12  1  0.06576042  0.27545342  0.62707022  1
  Fe  Fe13  1  0.93423958  0.72454658  0.62707022  1
  Fe  Fe14  1  0.43423958  0.77545342  0.12707022  1
  Fe  Fe15  1  0.56576042  0.22454658  0.12707022  1
  Fe  Fe16  1  0.72454658  0.93423958  0.37292978  1
  Fe  Fe17  1  0.27545342  0.06576042  0.37292978  1
  Fe  Fe18  1  0.22454658  0.56576042  0.87292978  1
  Fe  Fe19  1  0.77545342  0.43423958  0.87292978  1
  Fe  Fe20  1  0.27545342  0.06576042  0.62707022  1
  Fe  Fe21  1  0.72454658  0.93423958  0.62707022  1
  Fe  Fe22  1  0.77545342  0.43423958  0.12707022  1
  Fe  Fe23  1  0.22454658  0.56576042  0.12707022  1
  Fe  Fe24  1  0.14049302  0.53763938  0.32492354  1
  Fe  Fe25  1  0.85950698  0.46236062  0.32492354  1
  Fe  Fe26  1  0.35950698  0.03763938  0.82492354  1
  Fe  Fe27  1  0.64049302  0.96236062  0.82492354  1
  Fe  Fe28  1  0.85950698  0.46236062  0.67507646  1
  Fe  Fe29  1  0.14049302  0.53763938  0.67507646  1
  Fe  Fe30  1  0.64049302  0.96236062  0.17507646  1
  Fe  Fe31  1  0.35950698  0.03763938  0.17507646  1
  Fe  Fe32  1  0.53763938  0.14049302  0.32492354  1
  Fe  Fe33  1  0.46236062  0.85950698  0.32492354  1
  Fe  Fe34  1  0.03763938  0.35950698  0.82492354  1
  Fe  Fe35  1  0.96236062  0.64049302  0.82492354  1
  Fe  Fe36  1  0.46236062  0.85950698  0.67507646  1
  Fe  Fe37  1  0.53763938  0.14049302  0.67507646  1
  Fe  Fe38  1  0.96236062  0.64049302  0.17507646  1
  Fe  Fe39  1  0.03763938  0.35950698  0.17507646  1
  Fe  Fe40  1  0.18284459  0.81715541  0.25522622  1
  Fe  Fe41  1  0.81715541  0.18284459  0.25522622  1
  Fe  Fe42  1  0.31715541  0.31715541  0.75522622  1
  Fe  Fe43  1  0.68284459  0.68284459  0.75522622  1
  Fe  Fe44  1  0.81715541  0.18284459  0.74477378  1
  Fe  Fe45  1  0.18284459  0.81715541  0.74477378  1
  Fe  Fe46  1  0.68284459  0.68284459  0.24477378  1
  Fe  Fe47  1  0.31715541  0.31715541  0.24477378  1
  Fe  Fe48  1  0.40212101  0.59787899  0.29771104  1
  Fe  Fe49  1  0.59787899  0.40212101  0.29771104  1
  Fe  Fe50  1  0.09787899  0.09787899  0.79771104  1
  Fe  Fe51  1  0.90212101  0.90212101  0.79771104  1
  Fe  Fe52  1  0.59787899  0.40212101  0.70228896  1
  Fe  Fe53  1  0.40212101  0.59787899  0.70228896  1
  Fe  Fe54  1  0.90212101  0.90212101  0.20228896  1
  Fe  Fe55  1  0.09787899  0.09787899  0.20228896  1
  Fe  Fe56  1  0.50000000  0.50000000  0.11477222  1
  Fe  Fe57  1  0.00000000  -0.00000000  0.61477222  1
  Fe  Fe58  1  0.50000000  0.50000000  0.88522778  1
  Fe  Fe59  1  0.00000000  -0.00000000  0.38522778  1
  Fe  Fe60  1  0.00000000  0.50000000  0.50000000  1
  Fe  Fe61  1  0.50000000  -0.00000000  0.00000000  1
  Fe  Fe62  1  0.50000000  -0.00000000  0.50000000  1
  Fe  Fe63  1  0.00000000  0.50000000  0.00000000  1
  B  B64  1  0.87679046  0.87679046  0.50000000  1
  B  B65  1  0.12320954  0.12320954  0.50000000  1
  B  B66  1  0.62320954  0.37679046  0.00000000  1
  B  B67  1  0.37679046  0.62320954  0.00000000  1
