# generated using pymatgen
data_Y2Mn(GeO3)4
_symmetry_space_group_name_H-M   'P 1'
_cell_length_a   5.03094011
_cell_length_b   10.03577900
_cell_length_c   10.03577900
_cell_angle_alpha   90.60472683
_cell_angle_beta   90.00000000
_cell_angle_gamma   90.00000000
_symmetry_Int_Tables_number   1
_chemical_formula_structural   Y2Mn(GeO3)4
_chemical_formula_sum   'Y4 Mn2 Ge8 O24'
_cell_volume   506.67226965
_cell_formula_units_Z   2
loop_
 _symmetry_equiv_pos_site_id
 _symmetry_equiv_pos_as_xyz
  1  'x, y, z'
loop_
 _atom_site_type_symbol
 _atom_site_label
 _atom_site_symmetry_multiplicity
 _atom_site_fract_x
 _atom_site_fract_y
 _atom_site_fract_z
 _atom_site_occupancy
  Y  Y0  1  0.50000000  0.00000000  0.50000000  1
  Y  Y1  1  0.50000000  0.50000000  0.00000000  1
  Y  Y2  1  0.50000000  0.75000000  0.75000000  1
  Y  Y3  1  0.50000000  0.25000000  0.25000000  1
  Mn  Mn4  1  0.50000000  0.50000000  0.50000000  1
  Mn  Mn5  1  0.50000000  0.00000000  0.00000000  1
  Ge  Ge6  1  0.99560346  0.74634339  0.47803625  1
  Ge  Ge7  1  0.00439654  0.25365661  0.52196375  1
  Ge  Ge8  1  0.00439654  0.24634339  0.97803625  1
  Ge  Ge9  1  0.99560346  0.75365661  0.02196375  1
  Ge  Ge10  1  0.00439654  0.47803625  0.74634339  1
  Ge  Ge11  1  0.99560346  0.52196375  0.25365661  1
  Ge  Ge12  1  0.99560346  0.97803625  0.24634339  1
  Ge  Ge13  1  0.00439654  0.02196375  0.75365661  1
  O  O14  1  0.26050421  0.56296226  0.66825504  1
  O  O15  1  0.25196691  0.06300516  0.32945068  1
  O  O16  1  0.25196691  0.43699484  0.17054932  1
  O  O17  1  0.26050421  0.93703774  0.83174496  1
  O  O18  1  0.73949579  0.43703774  0.33174496  1
  O  O19  1  0.74803309  0.93699484  0.67054932  1
  O  O20  1  0.74803309  0.56300516  0.82945068  1
  O  O21  1  0.73949579  0.06296226  0.16825504  1
  O  O22  1  0.73949579  0.66825504  0.56296226  1
  O  O23  1  0.74803309  0.32945068  0.06300516  1
  O  O24  1  0.74803309  0.17054932  0.43699484  1
  O  O25  1  0.73949579  0.83174496  0.93703774  1
  O  O26  1  0.26050421  0.33174496  0.43703774  1
  O  O27  1  0.25196691  0.67054932  0.93699484  1
  O  O28  1  0.25196691  0.82945068  0.56300516  1
  O  O29  1  0.26050421  0.16825504  0.06296226  1
  O  O30  1  0.83055310  0.36929047  0.63070953  1
  O  O31  1  0.83201440  0.87193627  0.37193627  1
  O  O32  1  0.83201440  0.62806373  0.12806373  1
  O  O33  1  0.83055310  0.13070953  0.86929047  1
  O  O34  1  0.16944690  0.63070953  0.36929047  1
  O  O35  1  0.16798560  0.12806373  0.62806373  1
  O  O36  1  0.16798560  0.37193627  0.87193627  1
  O  O37  1  0.16944690  0.86929047  0.13070953  1
