# generated using pymatgen
data_Y6Mn(SiS7)2
_symmetry_space_group_name_H-M   'P 1'
_cell_length_a   5.61053110
_cell_length_b   9.93763433
_cell_length_c   9.93745230
_cell_angle_alpha   120.00323890
_cell_angle_beta   89.99989024
_cell_angle_gamma   90.00023525
_symmetry_Int_Tables_number   1
_chemical_formula_structural   Y6Mn(SiS7)2
_chemical_formula_sum   'Y6 Mn1 Si2 S14'
_cell_volume   479.82016962
_cell_formula_units_Z   1
loop_
 _symmetry_equiv_pos_site_id
 _symmetry_equiv_pos_as_xyz
  1  'x, y, z'
loop_
 _atom_site_type_symbol
 _atom_site_label
 _atom_site_symmetry_multiplicity
 _atom_site_fract_x
 _atom_site_fract_y
 _atom_site_fract_z
 _atom_site_occupancy
  Y  Y0  1  0.24988610  0.23346145  0.35604946  1
  Y  Y1  1  0.24990070  0.64396405  0.87744191  1
  Y  Y2  1  0.24988453  0.12257151  0.76650130  1
  Y  Y3  1  0.74961220  0.76657457  0.64461687  1
  Y  Y4  1  0.74963426  0.35536985  0.12193100  1
  Y  Y5  1  0.74960646  0.87804744  0.23345755  1
  Mn  Mn6  1  0.48786747  0.00002389  0.00001614  1
  Si  Si7  1  0.83299087  0.33336965  0.66667316  1
  Si  Si8  1  0.33438976  0.66662877  0.33332688  1
  S  S9  1  0.46109187  0.33338490  0.66667601  1
  S  S10  1  0.96239659  0.66660826  0.33332062  1
  S  S11  1  0.72976384  0.16207591  0.24751302  1
  S  S12  1  0.72976230  0.75247982  0.91457467  1
  S  S13  1  0.72976054  0.08543522  0.83790639  1
  S  S14  1  0.24491718  0.83623882  0.75272846  1
  S  S15  1  0.24491774  0.24727161  0.08349014  1
  S  S16  1  0.24493429  0.91649883  0.16378051  1
  S  S17  1  0.98510180  0.10828945  0.51956130  1
  S  S18  1  0.98519069  0.48054696  0.58865066  1
  S  S19  1  0.98516111  0.41135022  0.89179837  1
  S  S20  1  0.48635889  0.89165654  0.48032996  1
  S  S21  1  0.48645536  0.51955790  0.41141140  1
  S  S22  1  0.48641546  0.58859438  0.10824422  1
