# generated using pymatgen
data_UTaC2
_symmetry_space_group_name_H-M   'P 1'
_cell_length_a   3.26019102
_cell_length_b   3.26019102
_cell_length_c   5.92664961
_cell_angle_alpha   105.96469752
_cell_angle_beta   74.03530248
_cell_angle_gamma   120.00000000
_symmetry_Int_Tables_number   1
_chemical_formula_structural   UTaC2
_chemical_formula_sum   'U1 Ta1 C2'
_cell_volume   51.72947876
_cell_formula_units_Z   1
loop_
 _symmetry_equiv_pos_site_id
 _symmetry_equiv_pos_as_xyz
  1  'x, y, z'
loop_
 _atom_site_type_symbol
 _atom_site_label
 _atom_site_symmetry_multiplicity
 _atom_site_fract_x
 _atom_site_fract_y
 _atom_site_fract_z
 _atom_site_occupancy
  U  U0  1  0.75000000  0.25000000  0.75000000  1
  Ta  Ta1  1  0.25000000  0.75000000  0.25000000  1
  C  C2  1  0.99173252  0.00826748  0.02480244  1
  C  C3  1  0.50826748  0.49173252  0.47519756  1
