# generated using pymatgen
data_VCrSbO6
_symmetry_space_group_name_H-M   'P 1'
_cell_length_a   4.62133139
_cell_length_b   4.62133139
_cell_length_c   9.25582542
_cell_angle_alpha   90.00000000
_cell_angle_beta   90.00000000
_cell_angle_gamma   90.00000000
_symmetry_Int_Tables_number   1
_chemical_formula_structural   VCrSbO6
_chemical_formula_sum   'V2 Cr2 Sb2 O12'
_cell_volume   197.67392207
_cell_formula_units_Z   2
loop_
 _symmetry_equiv_pos_site_id
 _symmetry_equiv_pos_as_xyz
  1  'x, y, z'
loop_
 _atom_site_type_symbol
 _atom_site_label
 _atom_site_symmetry_multiplicity
 _atom_site_fract_x
 _atom_site_fract_y
 _atom_site_fract_z
 _atom_site_occupancy
  V  V0  1  0.50000000  0.50000000  0.50031159  1
  V  V1  1  -0.00000000  0.00000000  0.00031159  1
  Cr  Cr2  1  0.50000000  0.50000000  0.16736477  1
  Cr  Cr3  1  -0.00000000  -0.00000000  0.66736477  1
  Sb  Sb4  1  0.50000000  0.50000000  0.83346792  1
  Sb  Sb5  1  -0.00000000  -0.00000000  0.33346792  1
  O  O6  1  0.19253942  0.80746058  0.16385893  1
  O  O7  1  0.20010458  0.79989542  0.49923444  1
  O  O8  1  0.19201857  0.80798143  0.83633449  1
  O  O9  1  0.80746058  0.19253942  0.16385893  1
  O  O10  1  0.79989542  0.20010458  0.49923444  1
  O  O11  1  0.80798143  0.19201857  0.83633449  1
  O  O12  1  0.29989542  0.29989542  0.99923444  1
  O  O13  1  0.30798143  0.30798143  0.33633449  1
  O  O14  1  0.30746058  0.30746058  0.66385893  1
  O  O15  1  0.70010458  0.70010458  0.99923444  1
  O  O16  1  0.69201857  0.69201857  0.33633449  1
  O  O17  1  0.69253942  0.69253942  0.66385893  1
