# generated using pymatgen
data_YH18(BrO6)3
_symmetry_space_group_name_H-M   'P 1'
_cell_length_a   6.85028026
_cell_length_b   11.89042746
_cell_length_c   11.89042746
_cell_angle_alpha   119.97165369
_cell_angle_beta   90.00000000
_cell_angle_gamma   90.00000000
_symmetry_Int_Tables_number   1
_chemical_formula_structural   YH18(BrO6)3
_chemical_formula_sum   'Y2 H36 Br6 O36'
_cell_volume   838.99212863
_cell_formula_units_Z   2
loop_
 _symmetry_equiv_pos_site_id
 _symmetry_equiv_pos_as_xyz
  1  'x, y, z'
loop_
 _atom_site_type_symbol
 _atom_site_label
 _atom_site_symmetry_multiplicity
 _atom_site_fract_x
 _atom_site_fract_y
 _atom_site_fract_z
 _atom_site_occupancy
  Y  Y0  1  0.75434122  0.66664662  0.33335338  1
  Y  Y1  1  0.25434122  0.33335338  0.66664662  1
  H  H2  1  0.43604844  0.50077613  0.13356123  1
  H  H3  1  0.43600420  0.63276978  0.49922716  1
  H  H4  1  0.43600201  0.86643609  0.36718512  1
  H  H5  1  0.43600201  0.63281488  0.13356391  1
  H  H6  1  0.43604844  0.86643877  0.49922387  1
  H  H7  1  0.43600420  0.50077284  0.36723022  1
  H  H8  1  0.56377547  0.50007945  0.86718100  1
  H  H9  1  0.56382405  0.36711101  0.49990657  1
  H  H10  1  0.56382557  0.13281715  0.63293741  1
  H  H11  1  0.56382557  0.36706259  0.86718285  1
  H  H12  1  0.56377547  0.13281900  0.49992055  1
  H  H13  1  0.56382405  0.50009343  0.63288899  1
  H  H14  1  0.93604844  0.49922387  0.86643877  1
  H  H15  1  0.93600420  0.36723022  0.50077284  1
  H  H16  1  0.93600201  0.13356391  0.63281488  1
  H  H17  1  0.93600201  0.36718512  0.86643609  1
  H  H18  1  0.93604844  0.13356123  0.50077613  1
  H  H19  1  0.93600420  0.49922716  0.63276978  1
  H  H20  1  0.06377547  0.49992055  0.13281900  1
  H  H21  1  0.06382405  0.63288899  0.50009343  1
  H  H22  1  0.06382557  0.86718285  0.36706259  1
  H  H23  1  0.06382557  0.63293741  0.13281715  1
  H  H24  1  0.06377547  0.86718100  0.50007945  1
  H  H25  1  0.06382405  0.49990657  0.36711101  1
  H  H26  1  0.73888639  0.88030737  0.62498079  1
  H  H27  1  0.73886634  0.74466134  0.11965023  1
  H  H28  1  0.73889646  0.37499953  0.25542708  1
  H  H29  1  0.73889646  0.74457292  0.62500047  1
  H  H30  1  0.73888639  0.37501921  0.11969263  1
  H  H31  1  0.73886634  0.88034977  0.25533866  1
  H  H32  1  0.23888639  0.11969263  0.37501921  1
  H  H33  1  0.23886634  0.25533866  0.88034977  1
  H  H34  1  0.23889646  0.62500047  0.74457292  1
  H  H35  1  0.23889646  0.25542708  0.37499953  1
  H  H36  1  0.23888639  0.62498079  0.88030737  1
  H  H37  1  0.23886634  0.11965023  0.74466134  1
  Br  Br38  1  0.24548679  0.86561975  0.73128027  1
  Br  Br39  1  0.24549874  0.86564545  0.13435455  1
  Br  Br40  1  0.24548679  0.26871973  0.13438025  1
  Br  Br41  1  0.74548679  0.13438025  0.26871973  1
  Br  Br42  1  0.74549874  0.13435455  0.86564545  1
  Br  Br43  1  0.74548679  0.73128027  0.86561975  1
  O  O44  1  0.24855316  0.70113615  0.62946951  1
  O  O45  1  0.24858847  0.92826136  0.29880959  1
  O  O46  1  0.24855440  0.37056541  0.07172608  1
  O  O47  1  0.24855440  0.92827392  0.62943459  1
  O  O48  1  0.24855316  0.37053049  0.29886385  1
  O  O49  1  0.24858847  0.70119041  0.07173864  1
  O  O50  1  0.74855316  0.29886385  0.37053049  1
  O  O51  1  0.74858847  0.07173864  0.70119041  1
  O  O52  1  0.74855440  0.62943459  0.92827392  1
  O  O53  1  0.74855440  0.07172608  0.37056541  1
  O  O54  1  0.74855316  0.62946951  0.70113615  1
  O  O55  1  0.74858847  0.29880959  0.92826136  1
  O  O56  1  0.51292413  0.58079680  0.16158831  1
  O  O57  1  0.51292492  0.58076517  0.41923483  1
  O  O58  1  0.51292413  0.83841169  0.41920320  1
  O  O59  1  0.48892200  0.41938478  0.83874953  1
  O  O60  1  0.48892479  0.41940357  0.58059643  1
  O  O61  1  0.48892200  0.16125047  0.58061522  1
  O  O62  1  0.01292413  0.41920320  0.83841169  1
  O  O63  1  0.01292492  0.41923483  0.58076517  1
  O  O64  1  0.01292413  0.16158831  0.58079680  1
  O  O65  1  0.98892200  0.58061522  0.16125047  1
  O  O66  1  0.98892479  0.58059643  0.41940357  1
  O  O67  1  0.98892200  0.83874953  0.41938478  1
  O  O68  1  0.76766809  0.78663131  0.57370024  1
  O  O69  1  0.76768355  0.78685720  0.21314280  1
  O  O70  1  0.76766809  0.42629976  0.21336869  1
  O  O71  1  0.26766809  0.21336869  0.42629976  1
  O  O72  1  0.26768355  0.21314280  0.78685720  1
  O  O73  1  0.26766809  0.57370024  0.78663131  1
  O  O74  1  0.46298099  0.90109293  0.80231675  1
  O  O75  1  0.46301286  0.90118594  0.09881406  1
  O  O76  1  0.46298099  0.19768325  0.09890707  1
  O  O77  1  0.96298099  0.09890707  0.19768325  1
  O  O78  1  0.96301286  0.09881406  0.90118594  1
  O  O79  1  0.96298099  0.80231675  0.90109293  1
