# generated using pymatgen
data_BaCO3
_symmetry_space_group_name_H-M   'P 1'
_cell_length_a   5.51293823
_cell_length_b   5.51293815
_cell_length_c   5.69080157
_cell_angle_alpha   90.00000000
_cell_angle_beta   90.00000000
_cell_angle_gamma   119.99994181
_symmetry_Int_Tables_number   1
_chemical_formula_structural   BaCO3
_chemical_formula_sum   'Ba2 C2 O6'
_cell_volume   149.78577673
_cell_formula_units_Z   2
loop_
 _symmetry_equiv_pos_site_id
 _symmetry_equiv_pos_as_xyz
  1  'x, y, z'
loop_
 _atom_site_type_symbol
 _atom_site_label
 _atom_site_symmetry_multiplicity
 _atom_site_fract_x
 _atom_site_fract_y
 _atom_site_fract_z
 _atom_site_occupancy
  O  O0  1  0.72637083  0.86318530  0.25000000  1
  O  O1  1  0.13681518  0.86318509  0.25000000  1
  O  O2  1  0.86318482  0.13681500  0.75000000  1
  C  C3  1  0.00000022  0.99999979  0.25000000  1
  Ba  Ba4  1  0.66666679  0.33333324  0.25000000  1
  O  O5  1  0.86318523  0.72637079  0.75000000  1
  O  O6  1  0.27362923  0.13681474  0.75000000  1
  Ba  Ba7  1  0.33333319  0.66666659  0.75000000  1
  C  C8  1  0.99999973  0.00000025  0.75000000  1
  O  O9  1  0.13681478  0.27362921  0.25000000  1
