# generated using pymatgen
data_YTm3(SnPd2)4
_symmetry_space_group_name_H-M   'P 1'
_cell_length_a   4.79816495
_cell_length_b   4.79816495
_cell_length_c   15.78993035
_cell_angle_alpha   81.26077601
_cell_angle_beta   98.73922399
_cell_angle_gamma   120.00000000
_symmetry_Int_Tables_number   1
_chemical_formula_structural   YTm3(SnPd2)4
_chemical_formula_sum   'Y1 Tm3 Sn4 Pd8'
_cell_volume   309.93625128
_cell_formula_units_Z   1
loop_
 _symmetry_equiv_pos_site_id
 _symmetry_equiv_pos_as_xyz
  1  'x, y, z'
loop_
 _atom_site_type_symbol
 _atom_site_label
 _atom_site_symmetry_multiplicity
 _atom_site_fract_x
 _atom_site_fract_y
 _atom_site_fract_z
 _atom_site_occupancy
  Y  Y0  1  0.37500000  0.62500000  0.12500000  1
  Tm  Tm1  1  0.12500690  0.87499310  0.37502071  1
  Tm  Tm2  1  0.87500000  0.12500000  0.62500000  1
  Tm  Tm3  1  0.62499310  0.37500690  0.87497929  1
  Sn  Sn4  1  0.24999663  0.75000337  0.74998988  1
  Sn  Sn5  1  0.50000337  0.49999663  0.50001012  1
  Sn  Sn6  1  0.99989328  0.00010672  0.99967985  1
  Sn  Sn7  1  0.75010672  0.24989328  0.25032015  1
  Pd  Pd8  1  0.93748268  0.06251732  0.81244804  1
  Pd  Pd9  1  0.18752458  0.81247542  0.56257373  1
  Pd  Pd10  1  0.68700919  0.31299081  0.06102758  1
  Pd  Pd11  1  0.43803256  0.56196744  0.31409768  1
  Pd  Pd12  1  0.31196744  0.68803256  0.93590232  1
  Pd  Pd13  1  0.56247542  0.43752458  0.68742627  1
  Pd  Pd14  1  0.06299081  0.93700919  0.18897242  1
  Pd  Pd15  1  0.81251732  0.18748268  0.43755196  1
