# generated using pymatgen
data_Y6Ga17Pd5
_symmetry_space_group_name_H-M   'P 1'
_cell_length_a   4.33782051
_cell_length_b   8.17225471
_cell_length_c   15.76643636
_cell_angle_alpha   75.81528581
_cell_angle_beta   90.00000000
_cell_angle_gamma   105.39068120
_symmetry_Int_Tables_number   1
_chemical_formula_structural   Y6Ga17Pd5
_chemical_formula_sum   'Y6 Ga17 Pd5'
_cell_volume   521.17717065
_cell_formula_units_Z   1
loop_
 _symmetry_equiv_pos_site_id
 _symmetry_equiv_pos_as_xyz
  1  'x, y, z'
loop_
 _atom_site_type_symbol
 _atom_site_label
 _atom_site_symmetry_multiplicity
 _atom_site_fract_x
 _atom_site_fract_y
 _atom_site_fract_z
 _atom_site_occupancy
  Y  Y0  1  0.25021606  0.50043212  0.25095939  1
  Y  Y1  1  0.74978394  0.49956788  0.74904061  1
  Y  Y2  1  0.40257836  0.80515672  0.40261462  1
  Y  Y3  1  0.89912484  0.79824969  0.89941769  1
  Y  Y4  1  0.10087516  0.20175031  0.10058231  1
  Y  Y5  1  0.59742164  0.19484328  0.59738538  1
  Ga  Ga6  1  0.17169784  0.34339568  0.45872319  1
  Ga  Ga7  1  0.67796040  0.35592081  0.95974508  1
  Ga  Ga8  1  0.32203960  0.64407919  0.04025492  1
  Ga  Ga9  1  0.82830216  0.65660432  0.54127681  1
  Ga  Ga10  1  0.45963087  0.91926175  0.17762997  1
  Ga  Ga11  1  0.95848257  0.91696513  0.67224947  1
  Ga  Ga12  1  0.04151743  0.08303487  0.32775053  1
  Ga  Ga13  1  0.54036913  0.08073825  0.82237003  1
  Ga  Ga14  1  0.73927803  0.47855606  0.10528528  1
  Ga  Ga15  1  0.23642986  0.47285972  0.60388768  1
  Ga  Ga16  1  0.76357014  0.52714028  0.39611232  1
  Ga  Ga17  1  0.26072197  0.52144394  0.89471472  1
  Ga  Ga18  1  0.60572504  0.21145009  0.23694557  1
  Ga  Ga19  1  0.10340122  0.20680245  0.73858957  1
  Ga  Ga20  1  0.89659878  0.79319755  0.26141043  1
  Ga  Ga21  1  0.39427496  0.78854991  0.76305443  1
  Ga  Ga22  1  0.50000000  -0.00000000  -0.00000000  1
  Pd  Pd23  1  0.90829516  0.81659033  0.09142325  1
  Pd  Pd24  1  0.39997897  0.79995793  0.60015621  1
  Pd  Pd25  1  0.60002103  0.20004207  0.39984379  1
  Pd  Pd26  1  0.09170484  0.18340967  0.90857675  1
  Pd  Pd27  1  -0.00000000  -0.00000000  0.50000000  1
