# generated using pymatgen
data_U4Be51B
_symmetry_space_group_name_H-M   'P 1'
_cell_length_a   7.16978300
_cell_length_b   7.16978300
_cell_length_c   12.42251527
_cell_angle_alpha   73.22702506
_cell_angle_beta   90.00000000
_cell_angle_gamma   119.99999993
_symmetry_Int_Tables_number   1
_chemical_formula_structural   U4Be51B
_chemical_formula_sum   'U4 Be51 B1'
_cell_volume   521.42731594
_cell_formula_units_Z   1
loop_
 _symmetry_equiv_pos_site_id
 _symmetry_equiv_pos_as_xyz
  1  'x, y, z'
loop_
 _atom_site_type_symbol
 _atom_site_label
 _atom_site_symmetry_multiplicity
 _atom_site_fract_x
 _atom_site_fract_y
 _atom_site_fract_z
 _atom_site_occupancy
  U  U0  1  0.87524675  0.75049349  0.37425976  1
  U  U1  1  0.37469239  0.74938478  0.87592283  1
  U  U2  1  0.62475325  0.24950651  0.12574024  1
  U  U3  1  0.12530761  0.25061522  0.62407717  1
  Be  Be4  1  0.33323280  0.44055575  0.10699057  1
  Be  Be5  1  0.83555745  0.43980409  0.60432061  1
  Be  Be6  1  0.16676720  0.55944425  0.39300943  1
  Be  Be7  1  0.66444255  0.56019591  0.89567939  1
  Be  Be8  1  0.99376437  0.21435780  0.22042088  1
  Be  Be9  1  0.48875958  0.20839457  0.71967099  1
  Be  Be10  1  0.50623563  0.78564220  0.27957912  1
  Be  Be11  1  0.01124042  0.79160543  0.78032901  1
  Be  Be12  1  0.70723996  0.06140098  0.35384528  1
  Be  Be13  1  0.20596151  0.05966091  0.85457787  1
  Be  Be14  1  0.79276004  0.93859902  0.14615472  1
  Be  Be15  1  0.29403849  0.94033909  0.64542213  1
  Be  Be16  1  0.67745048  0.70757204  0.03039785  1
  Be  Be17  1  0.17865228  0.70909634  0.53008783  1
  Be  Be18  1  0.82254952  0.29242796  0.46960215  1
  Be  Be19  1  0.32134772  0.29090366  0.96991217  1
  Be  Be20  1  0.04754632  0.21431352  0.39300943  1
  Be  Be21  1  0.54412469  0.20856724  0.89567939  1
  Be  Be22  1  0.45245368  0.78568648  0.10699057  1
  Be  Be23  1  0.95587531  0.79143276  0.60432061  1
  Be  Be24  1  0.93477868  0.44101431  0.27957912  1
  Be  Be25  1  0.42806556  0.43930598  0.78032901  1
  Be  Be26  1  0.56522132  0.55898569  0.22042088  1
  Be  Be27  1  0.07193444  0.56069402  0.71967099  1
  Be  Be28  1  0.91524626  0.70800630  0.14615472  1
  Be  Be29  1  0.41423878  0.70827727  0.64542213  1
  Be  Be30  1  0.58475374  0.29199370  0.35384528  1
  Be  Be31  1  0.08576122  0.29172273  0.85457787  1
  Be  Be32  1  0.23796989  0.06051942  0.46960215  1
  Be  Be33  1  0.73918417  0.06053189  0.96991217  1
  Be  Be34  1  0.26203011  0.93948058  0.03039785  1
  Be  Be35  1  0.76081583  0.93946811  0.53008783  1
  Be  Be36  1  0.22059343  0.78581475  0.22042088  1
  Be  Be37  1  0.71963499  0.79156943  0.71967099  1
  Be  Be38  1  0.27940657  0.21418525  0.27957912  1
  Be  Be39  1  0.78036501  0.20843057  0.78032901  1
  Be  Be40  1  0.10732295  0.55977663  0.10699057  1
  Be  Be41  1  0.60424663  0.56012194  0.60432061  1
  Be  Be42  1  0.39267705  0.44022337  0.39300943  1
  Be  Be43  1  0.89575337  0.43987806  0.89567939  1
  Be  Be44  1  0.03012156  0.29215167  0.03039785  1
  Be  Be45  1  0.53044406  0.29125989  0.53008783  1
  Be  Be46  1  0.46987844  0.70784833  0.46960215  1
  Be  Be47  1  0.96955594  0.70874011  0.96991217  1
  Be  Be48  1  0.35416103  0.93891477  0.35384528  1
  Be  Be49  1  0.85369940  0.93946061  0.85457787  1
  Be  Be50  1  0.14583897  0.06108523  0.14615472  1
  Be  Be51  1  0.64630060  0.06053939  0.64542213  1
  Be  Be52  1  0.75000000  0.50000000  0.75000000  1
  Be  Be53  1  0.99979850  0.99959700  0.00060451  1
  Be  Be54  1  0.50020150  0.00040300  0.49939549  1
  B  B55  1  0.25000000  0.50000000  0.25000000  1
