# generated using pymatgen
data_U2Cu3Si4Ni
_symmetry_space_group_name_H-M   'P 1'
_cell_length_a   3.94927287
_cell_length_b   3.94889750
_cell_length_c   9.90106119
_cell_angle_alpha   89.99929256
_cell_angle_beta   90.00116848
_cell_angle_gamma   89.93832197
_symmetry_Int_Tables_number   1
_chemical_formula_structural   U2Cu3Si4Ni
_chemical_formula_sum   'U2 Cu3 Si4 Ni1'
_cell_volume   154.40967047
_cell_formula_units_Z   1
loop_
 _symmetry_equiv_pos_site_id
 _symmetry_equiv_pos_as_xyz
  1  'x, y, z'
loop_
 _atom_site_type_symbol
 _atom_site_label
 _atom_site_symmetry_multiplicity
 _atom_site_fract_x
 _atom_site_fract_y
 _atom_site_fract_z
 _atom_site_occupancy
  U  U0  1  0.00000740  -0.00000397  0.00407372  1
  U  U1  1  0.49999650  0.49999109  0.49591825  1
  Cu  Cu2  1  0.49998673  0.00002033  0.74999972  1
  Cu  Cu3  1  0.50000137  0.99999448  0.24999951  1
  Cu  Cu4  1  0.99999061  0.50000767  0.75000683  1
  Si  Si5  1  0.50000742  0.50000291  0.12340299  1
  Si  Si6  1  0.99999330  0.00000112  0.61278002  1
  Si  Si7  1  0.99999780  -0.00000897  0.37658614  1
  Si  Si8  1  0.49999966  0.50000811  0.88723704  1
  Ni  Ni9  1  0.00001921  0.49998723  0.24999577  1
