# generated using pymatgen
data_Ti4Mn5V3
_symmetry_space_group_name_H-M   'P 1'
_cell_length_a   4.85319425
_cell_length_b   4.86523867
_cell_length_c   7.89180644
_cell_angle_alpha   90.00000000
_cell_angle_beta   90.00000000
_cell_angle_gamma   60.04234337
_symmetry_Int_Tables_number   1
_chemical_formula_structural   Ti4Mn5V3
_chemical_formula_sum   'Ti4 Mn5 V3'
_cell_volume   161.44478745
_cell_formula_units_Z   1
loop_
 _symmetry_equiv_pos_site_id
 _symmetry_equiv_pos_as_xyz
  1  'x, y, z'
loop_
 _atom_site_type_symbol
 _atom_site_label
 _atom_site_symmetry_multiplicity
 _atom_site_fract_x
 _atom_site_fract_y
 _atom_site_fract_z
 _atom_site_occupancy
  Ti  Ti0  1  0.33374367  0.33256379  0.56065314  1
  Ti  Ti1  1  0.66607756  0.66780069  0.43390203  1
  Ti  Ti2  1  0.66607756  0.66780069  0.06609797  1
  Ti  Ti3  1  0.33374367  0.33256379  0.93934686  1
  Mn  Mn4  1  0.34086602  0.83290798  0.75000000  1
  Mn  Mn5  1  0.82617282  0.83293436  0.75000000  1
  Mn  Mn6  1  0.17212279  0.65580248  0.25000000  1
  Mn  Mn7  1  0.65253853  0.17410814  0.25000000  1
  Mn  Mn8  1  0.17338134  0.17411437  0.25000000  1
  V  V9  1  0.00366039  0.99265910  0.49377837  1
  V  V10  1  0.00366039  0.99265910  0.00622163  1
  V  V11  1  0.82795527  0.34408549  0.75000000  1
