# generated using pymatgen
data_Tm2Si9B36C
_symmetry_space_group_name_H-M   'P 1'
_cell_length_a   8.02959130
_cell_length_b   7.99483856
_cell_length_c   8.02953894
_cell_angle_alpha   78.04090673
_cell_angle_beta   78.01307905
_cell_angle_gamma   78.04089651
_symmetry_Int_Tables_number   1
_chemical_formula_structural   Tm2Si9B36C
_chemical_formula_sum   'Tm2 Si9 B36 C1'
_cell_volume   485.96177860
_cell_formula_units_Z   1
loop_
 _symmetry_equiv_pos_site_id
 _symmetry_equiv_pos_as_xyz
  1  'x, y, z'
loop_
 _atom_site_type_symbol
 _atom_site_label
 _atom_site_symmetry_multiplicity
 _atom_site_fract_x
 _atom_site_fract_y
 _atom_site_fract_z
 _atom_site_occupancy
  Tm  Tm0  1  0.00016607  0.50033109  0.50025195  1
  Tm  Tm1  1  0.50025963  0.50033055  0.00016856  1
  Si  Si2  1  0.26619644  0.25468317  0.65569935  1
  Si  Si3  1  0.26258105  0.66143630  0.26258179  1
  Si  Si4  1  0.65571061  0.25468001  0.26618710  1
  Si  Si5  1  0.73385101  0.74514291  0.34557517  1
  Si  Si6  1  0.73713459  0.34025602  0.73712926  1
  Si  Si7  1  0.34556252  0.74514285  0.73386331  1
  Si  Si8  1  0.42831770  0.42700012  0.42830911  1
  Si  Si9  1  0.57025583  0.57193006  0.57026580  1
  Si  Si10  1  0.04463446  0.04274531  0.04463512  1
  B  B11  1  0.37408194  0.01912960  0.20135659  1
  B  B12  1  0.01877221  0.19714298  0.37463485  1
  B  B13  1  0.19804453  0.37407975  0.01779805  1
  B  B14  1  0.01779680  0.37407667  0.19804520  1
  B  B15  1  0.37463355  0.19714446  0.01876813  1
  B  B16  1  0.20135458  0.01912726  0.37408168  1
  B  B17  1  0.62817933  0.97767533  0.79580401  1
  B  B18  1  0.97822825  0.79944914  0.62798874  1
  B  B19  1  0.79867425  0.62828303  0.97919907  1
  B  B20  1  0.97920103  0.62828305  0.79867248  1
  B  B21  1  0.62799236  0.79944809  0.97823088  1
  B  B22  1  0.79580705  0.97767623  0.62817904  1
  B  B23  1  0.29652173  0.00583179  0.00602598  1
  B  B24  1  0.00602680  0.00583350  0.29651845  1
  B  B25  1  0.00561208  0.29508128  0.00560407  1
  B  B26  1  0.72314337  0.98233848  0.98200996  1
  B  B27  1  0.98201040  0.98233965  0.72314026  1
  B  B28  1  0.98225733  0.72509009  0.98226455  1
  B  B29  1  0.42091551  0.82346192  0.10718170  1
  B  B30  1  0.82010673  0.10657314  0.41988936  1
  B  B31  1  0.10901807  0.41882187  0.81929492  1
  B  B32  1  0.81930331  0.41881229  0.10900943  1
  B  B33  1  0.41989187  0.10657095  0.82010104  1
  B  B34  1  0.10717964  0.82346115  0.42091669  1
  B  B35  1  0.58747624  0.17200401  0.89176306  1
  B  B36  1  0.17528996  0.89242320  0.58842054  1
  B  B37  1  0.88989267  0.58931235  0.17646915  1
  B  B38  1  0.17646305  0.58931676  0.88990033  1
  B  B39  1  0.58841772  0.89242559  0.17529605  1
  B  B40  1  0.89176614  0.17200653  0.58747466  1
  B  B41  1  0.44568975  0.87416908  0.87399687  1
  B  B42  1  0.87399695  0.87417007  0.44568926  1
  B  B43  1  0.87430339  0.44482541  0.87429479  1
  B  B44  1  0.56265950  0.12219557  0.12227915  1
  B  B45  1  0.12227771  0.12219461  0.56266187  1
  B  B46  1  0.12185209  0.56374240  0.12186226  1
  C  C47  1  0.93221519  0.93353731  0.93222038  1
