# generated using pymatgen
data_U4SiNi7
_symmetry_space_group_name_H-M   'P 1'
_cell_length_a   5.07496931
_cell_length_b   5.07427929
_cell_length_c   7.85478267
_cell_angle_alpha   90.00000000
_cell_angle_beta   89.98928418
_cell_angle_gamma   60.00449768
_symmetry_Int_Tables_number   1
_chemical_formula_structural   U4SiNi7
_chemical_formula_sum   'U4 Si1 Ni7'
_cell_volume   175.18312269
_cell_formula_units_Z   1
loop_
 _symmetry_equiv_pos_site_id
 _symmetry_equiv_pos_as_xyz
  1  'x, y, z'
loop_
 _atom_site_type_symbol
 _atom_site_label
 _atom_site_symmetry_multiplicity
 _atom_site_fract_x
 _atom_site_fract_y
 _atom_site_fract_z
 _atom_site_occupancy
  U  U0  1  0.33346722  0.33326639  0.08169948  1
  U  U1  1  0.66653278  0.66673361  0.91830052  1
  U  U2  1  0.66667209  0.66666395  0.56282883  1
  U  U3  1  0.33332791  0.33333605  0.43717117  1
  Si  Si4  1  0.00000000  -0.00000000  0.00000000  1
  Ni  Ni5  1  0.16776491  0.66446866  0.75369025  1
  Ni  Ni6  1  0.66442468  0.16778766  0.75369419  1
  Ni  Ni7  1  0.16776491  0.16776643  0.75369025  1
  Ni  Ni8  1  0.83223509  0.33553134  0.24630975  1
  Ni  Ni9  1  0.33557532  0.83221234  0.24630581  1
  Ni  Ni10  1  0.83223509  0.83223357  0.24630975  1
  Ni  Ni11  1  0.00000000  -0.00000000  0.50000000  1
