# generated using pymatgen
data_V2SiPb5O12
_symmetry_space_group_name_H-M   'P 1'
_cell_length_a   7.46158132
_cell_length_b   10.17016210
_cell_length_c   10.27380730
_cell_angle_alpha   59.85030166
_cell_angle_beta   90.00000000
_cell_angle_gamma   90.00000000
_symmetry_Int_Tables_number   1
_chemical_formula_structural   V2SiPb5O12
_chemical_formula_sum   'V4 Si2 Pb10 O24'
_cell_volume   674.16112346
_cell_formula_units_Z   2
loop_
 _symmetry_equiv_pos_site_id
 _symmetry_equiv_pos_as_xyz
  1  'x, y, z'
loop_
 _atom_site_type_symbol
 _atom_site_label
 _atom_site_symmetry_multiplicity
 _atom_site_fract_x
 _atom_site_fract_y
 _atom_site_fract_z
 _atom_site_occupancy
  V  V0  1  0.75000000  0.62136492  0.98356562  1
  V  V1  1  0.25000000  0.60523639  0.37483396  1
  V  V2  1  0.25000000  0.01657747  0.60565122  1
  V  V3  1  0.25000000  0.37859241  0.01581965  1
  Si  Si4  1  0.75000000  0.39461158  0.62305510  1
  Si  Si5  1  0.75000000  0.98153438  0.39991265  1
  Pb  Pb6  1  0.75000000  0.25725318  0.97309365  1
  Pb  Pb7  1  0.75000000  0.76431881  0.26708986  1
  Pb  Pb8  1  0.75000000  0.00222131  0.73855416  1
  Pb  Pb9  1  0.25000000  0.74753283  0.00263220  1
  Pb  Pb10  1  0.25000000  0.26250276  0.74738669  1
  Pb  Pb11  1  0.25000000  0.99828741  0.25689937  1
  Pb  Pb12  1  0.50234625  0.66732526  0.65564424  1
  Pb  Pb13  1  0.98231055  0.32273625  0.34297625  1
  Pb  Pb14  1  0.51768945  0.32273625  0.34297625  1
  Pb  Pb15  1  0.99765375  0.66732526  0.65564424  1
  O  O16  1  0.57355060  0.34682256  0.73642280  1
  O  O17  1  0.57339708  0.91374074  0.35344483  1
  O  O18  1  0.56543319  0.74071048  0.91716691  1
  O  O19  1  0.06695954  0.66021390  0.25613689  1
  O  O20  1  0.06550214  0.08550170  0.65489527  1
  O  O21  1  0.06663746  0.25867439  0.08183864  1
  O  O22  1  0.43304046  0.66021390  0.25613689  1
  O  O23  1  0.43449786  0.08550170  0.65489527  1
  O  O24  1  0.43336254  0.25867439  0.08183864  1
  O  O25  1  0.92644940  0.34682256  0.73642280  1
  O  O26  1  0.92660292  0.91374074  0.35344483  1
  O  O27  1  0.93456681  0.74071048  0.91716691  1
  O  O28  1  0.75000000  0.30854445  0.52199474  1
  O  O29  1  0.75000000  0.16848546  0.32162481  1
  O  O30  1  0.75000000  0.50655633  0.18007009  1
  O  O31  1  0.25000000  0.69832498  0.48113041  1
  O  O32  1  0.25000000  0.81817660  0.69761045  1
  O  O33  1  0.25000000  0.48100605  0.81713638  1
  O  O34  1  0.75000000  0.58394442  0.51611033  1
  O  O35  1  0.75000000  0.90079153  0.58702782  1
  O  O36  1  0.75000000  0.51081473  0.89414595  1
  O  O37  1  0.25000000  0.40574607  0.49181542  1
  O  O38  1  0.25000000  0.10124246  0.40709748  1
  O  O39  1  0.25000000  0.49488292  0.09869031  1
