# generated using pymatgen
data_CuGeO3
_symmetry_space_group_name_H-M   'P 1'
_cell_length_a   4.92689780
_cell_length_b   6.30641893
_cell_length_c   6.85573575
_cell_angle_alpha   90.00000000
_cell_angle_beta   90.00000000
_cell_angle_gamma   93.62409826
_symmetry_Int_Tables_number   1
_chemical_formula_structural   CuGeO3
_chemical_formula_sum   'Cu4 Ge4 O12'
_cell_volume   212.58914315
_cell_formula_units_Z   4
loop_
 _symmetry_equiv_pos_site_id
 _symmetry_equiv_pos_as_xyz
  1  'x, y, z'
loop_
 _atom_site_type_symbol
 _atom_site_label
 _atom_site_symmetry_multiplicity
 _atom_site_fract_x
 _atom_site_fract_y
 _atom_site_fract_z
 _atom_site_occupancy
  Cu  Cu0  1  0.00000000  0.00000000  0.00000000  1
  Cu  Cu1  1  0.00000000  0.50000000  0.50000000  1
  Cu  Cu2  1  0.00000000  0.00000000  0.50000000  1
  Cu  Cu3  1  0.00000000  0.50000000  0.00000000  1
  Ge  Ge4  1  0.49416987  0.25313180  0.20197916  1
  Ge  Ge5  1  0.49416987  0.75313180  0.29802084  1
  Ge  Ge6  1  0.50583013  0.24686820  0.70197916  1
  Ge  Ge7  1  0.50583013  0.74686820  0.79802084  1
  O  O8  1  0.85326026  0.74644218  0.88103841  1
  O  O9  1  0.67009575  0.99890240  0.19625339  1
  O  O10  1  0.32990425  0.00109760  0.80374661  1
  O  O11  1  0.14673974  0.75355782  0.38103841  1
  O  O12  1  0.65619671  0.31786760  0.95584247  1
  O  O13  1  0.85326026  0.24644218  0.61896159  1
  O  O14  1  0.32990425  0.50109760  0.69625339  1
  O  O15  1  0.65619671  0.81786760  0.54415753  1
  O  O16  1  0.34380329  0.18213240  0.45584247  1
  O  O17  1  0.34380329  0.68213240  0.04415753  1
  O  O18  1  0.14673974  0.25355782  0.11896159  1
  O  O19  1  0.67009575  0.49890240  0.30374661  1
