# generated using pymatgen
data_TbDy3Al8
_symmetry_space_group_name_H-M   'P 1'
_cell_length_a   5.56600144
_cell_length_b   5.56600143
_cell_length_c   9.64104957
_cell_angle_alpha   73.22216032
_cell_angle_beta   90.00000000
_cell_angle_gamma   119.99999996
_symmetry_Int_Tables_number   1
_chemical_formula_structural   TbDy3Al8
_chemical_formula_sum   'Tb1 Dy3 Al8'
_cell_volume   243.87533334
_cell_formula_units_Z   1
loop_
 _symmetry_equiv_pos_site_id
 _symmetry_equiv_pos_as_xyz
  1  'x, y, z'
loop_
 _atom_site_type_symbol
 _atom_site_label
 _atom_site_symmetry_multiplicity
 _atom_site_fract_x
 _atom_site_fract_y
 _atom_site_fract_z
 _atom_site_occupancy
  Tb  Tb0  1  0.31250729  0.12501457  0.06247814  1
  Dy  Dy1  1  0.81260566  0.12521131  0.56218303  1
  Dy  Dy2  1  0.18752848  0.87505697  0.43741455  1
  Dy  Dy3  1  0.68735103  0.87470206  0.93794690  1
  Al  Al4  1  0.00004424  0.50008848  0.99986728  1
  Al  Al5  1  0.50003954  0.50007907  0.49988139  1
  Al  Al6  1  0.74981371  0.99962742  0.25016950  1
  Al  Al7  1  0.24993240  0.99986479  0.74990673  1
  Al  Al8  1  0.74981371  0.50001679  0.25016950  1
  Al  Al9  1  0.24993240  0.50016087  0.74990673  1
  Al  Al10  1  0.25020308  0.50001679  0.25016950  1
  Al  Al11  1  0.75022847  0.50016087  0.74990673  1
