# generated using pymatgen
data_SiO2
_symmetry_space_group_name_H-M   'P 1'
_cell_length_a   10.31189668
_cell_length_b   12.72961385
_cell_length_c   14.16308836
_cell_angle_alpha   90.00000000
_cell_angle_beta   90.00000000
_cell_angle_gamma   90.00000000
_symmetry_Int_Tables_number   1
_chemical_formula_structural   SiO2
_chemical_formula_sum   'Si32 O64'
_cell_volume   1859.13851131
_cell_formula_units_Z   32
loop_
 _symmetry_equiv_pos_site_id
 _symmetry_equiv_pos_as_xyz
  1  'x, y, z'
loop_
 _atom_site_type_symbol
 _atom_site_label
 _atom_site_symmetry_multiplicity
 _atom_site_fract_x
 _atom_site_fract_y
 _atom_site_fract_z
 _atom_site_occupancy
  Si  Si0  1  0.00000000  0.66273754  0.50000000  1
  Si  Si1  1  0.00000000  0.50000000  0.63646669  1
  Si  Si2  1  0.50000000  0.16238631  0.50000000  1
  Si  Si3  1  0.38662299  0.29890780  0.81628355  1
  Si  Si4  1  0.61337701  0.29890780  0.18371645  1
  Si  Si5  1  0.00000000  0.16107583  0.00000000  1
  Si  Si6  1  0.61052314  0.79833449  0.31613955  1
  Si  Si7  1  0.50000000  0.50000000  0.86244017  1
  Si  Si8  1  0.00000000  0.33726246  0.50000000  1
  Si  Si9  1  0.11359820  0.29929715  0.31617071  1
  Si  Si10  1  0.00000000  0.00000000  0.86216524  1
  Si  Si11  1  0.50000000  0.66150069  0.00000000  1
  Si  Si12  1  0.38662299  0.70109220  0.18371645  1
  Si  Si13  1  0.61337701  0.70109220  0.81628355  1
  Si  Si14  1  0.50000000  0.00000000  0.36332065  1
  Si  Si15  1  0.38947686  0.20166551  0.31613955  1
  Si  Si16  1  0.50000000  0.00000000  0.63667935  1
  Si  Si17  1  0.61052314  0.20166551  0.68386045  1
  Si  Si18  1  0.11359820  0.70070285  0.68382929  1
  Si  Si19  1  0.38947686  0.79833449  0.68386045  1
  Si  Si20  1  0.00000000  0.83892417  0.00000000  1
  Si  Si21  1  0.50000000  0.50000000  0.13755983  1
  Si  Si22  1  0.88640180  0.29929715  0.68382929  1
  Si  Si23  1  0.11032463  0.20208025  0.81626511  1
  Si  Si24  1  0.00000000  0.50000000  0.36353331  1
  Si  Si25  1  0.88967537  0.79791975  0.81626511  1
  Si  Si26  1  0.88640180  0.70070285  0.31617071  1
  Si  Si27  1  0.50000000  0.83761369  0.50000000  1
  Si  Si28  1  0.88967537  0.20208025  0.18373489  1
  Si  Si29  1  0.00000000  0.00000000  0.13783476  1
  Si  Si30  1  0.11032463  0.79791975  0.18373489  1
  Si  Si31  1  0.50000000  0.33849931  0.00000000  1
  O  O32  1  0.41711868  0.41641378  0.07143482  1
  O  O33  1  0.25238460  0.74796724  0.71699305  1
  O  O34  1  0.00302654  0.74943210  0.75123585  1
  O  O35  1  0.39621755  0.07239401  0.30405753  1
  O  O36  1  0.89577993  0.42834712  0.69589313  1
  O  O37  1  0.08306561  0.08325018  0.07144054  1
  O  O38  1  0.50281166  0.24807934  0.24986373  1
  O  O39  1  0.39621755  0.92760599  0.69594247  1
  O  O40  1  0.89737059  0.07301861  0.19745781  1
  O  O41  1  0.60305584  0.57226864  0.80262916  1
  O  O42  1  0.40894285  0.26890401  0.92901605  1
  O  O43  1  0.24758385  0.25211888  0.78323213  1
  O  O44  1  0.89577993  0.57165288  0.30410687  1
  O  O45  1  0.59105715  0.73109599  0.92901605  1
  O  O46  1  0.41071295  0.23276403  0.42866070  1
  O  O47  1  0.10422007  0.42834712  0.30410687  1
  O  O48  1  0.75241615  0.74788112  0.78323213  1
  O  O49  1  0.09042339  0.73232625  0.57146858  1
  O  O50  1  0.60305584  0.42773136  0.19737084  1
  O  O51  1  0.10262941  0.07301861  0.80254219  1
  O  O52  1  0.25238460  0.25203276  0.28300695  1
  O  O53  1  0.41071295  0.76723597  0.57133930  1
  O  O54  1  0.58300036  0.91601708  0.57096954  1
  O  O55  1  0.91693439  0.08325018  0.92855946  1
  O  O56  1  0.90957661  0.73232625  0.42853142  1
  O  O57  1  0.74761540  0.74796724  0.28300695  1
  O  O58  1  0.91000627  0.23145454  0.07082520  1
  O  O59  1  0.59105715  0.26890401  0.07098395  1
  O  O60  1  0.10262941  0.92698139  0.19745781  1
  O  O61  1  0.08281684  0.41570808  0.57100180  1
  O  O62  1  0.58928705  0.23276403  0.57133930  1
  O  O63  1  0.74761540  0.25203276  0.71699305  1
  O  O64  1  0.91718316  0.41570808  0.42899820  1
  O  O65  1  0.91693439  0.91674982  0.07144054  1
  O  O66  1  0.58288132  0.58358622  0.07143482  1
  O  O67  1  0.60378245  0.92760599  0.30405753  1
  O  O68  1  0.90957661  0.26767375  0.57146858  1
  O  O69  1  0.41699964  0.08398292  0.57096954  1
  O  O70  1  0.41711868  0.58358622  0.92856518  1
  O  O71  1  0.89737059  0.92698139  0.80254219  1
  O  O72  1  0.39694416  0.57226864  0.19737084  1
  O  O73  1  0.58300036  0.08398292  0.42903046  1
  O  O74  1  0.91718316  0.58429192  0.57100180  1
  O  O75  1  0.99697346  0.25056790  0.75123585  1
  O  O76  1  0.40894285  0.73109599  0.07098395  1
  O  O77  1  0.08281684  0.58429192  0.42899820  1
  O  O78  1  0.75241615  0.25211888  0.21676787  1
  O  O79  1  0.41699964  0.91601708  0.42903046  1
  O  O80  1  0.08306561  0.91674982  0.92855946  1
  O  O81  1  0.49718834  0.24807934  0.75013627  1
  O  O82  1  0.58288132  0.41641378  0.92856518  1
  O  O83  1  0.39694416  0.42773136  0.80262916  1
  O  O84  1  0.08999373  0.23145454  0.92917480  1
  O  O85  1  0.60378245  0.07239401  0.69594247  1
  O  O86  1  0.09042339  0.26767375  0.42853142  1
  O  O87  1  0.50281166  0.75192066  0.75013627  1
  O  O88  1  0.00302654  0.25056790  0.24876415  1
  O  O89  1  0.10422007  0.57165288  0.69589313  1
  O  O90  1  0.08999373  0.76854546  0.07082520  1
  O  O91  1  0.49718834  0.75192066  0.24986373  1
  O  O92  1  0.58928705  0.76723597  0.42866070  1
  O  O93  1  0.91000627  0.76854546  0.92917480  1
  O  O94  1  0.24758385  0.74788112  0.21676787  1
  O  O95  1  0.99697346  0.74943210  0.24876415  1
