# generated using pymatgen
data_U3Te5(PbO4)8
_symmetry_space_group_name_H-M   'P 1'
_cell_length_a   5.87617794
_cell_length_b   15.59621860
_cell_length_c   7.93769668
_cell_angle_alpha   89.95309480
_cell_angle_beta   90.38174166
_cell_angle_gamma   89.62194960
_symmetry_Int_Tables_number   1
_chemical_formula_structural   U3Te5(PbO4)8
_chemical_formula_sum   'U3 Te5 Pb8 O32'
_cell_volume   727.42713334
_cell_formula_units_Z   1
loop_
 _symmetry_equiv_pos_site_id
 _symmetry_equiv_pos_as_xyz
  1  'x, y, z'
loop_
 _atom_site_type_symbol
 _atom_site_label
 _atom_site_symmetry_multiplicity
 _atom_site_fract_x
 _atom_site_fract_y
 _atom_site_fract_z
 _atom_site_occupancy
  U  U0  1  0.99916377  0.25080513  0.50066174  1
  U  U1  1  0.00083623  0.74919487  0.49933826  1
  U  U2  1  -0.00000000  0.00000000  -0.00000000  1
  Te  Te3  1  -0.00000000  0.00000000  0.50000000  1
  Te  Te4  1  -0.00000000  0.50000000  0.50000000  1
  Te  Te5  1  0.99628030  0.25370471  0.00135269  1
  Te  Te6  1  0.00371970  0.74629529  0.99864731  1
  Te  Te7  1  -0.00000000  0.50000000  -0.00000000  1
  Pb  Pb8  1  0.49041544  0.16627402  0.18750873  1
  Pb  Pb9  1  0.48497330  0.65689142  0.18455918  1
  Pb  Pb10  1  0.50855772  0.41866265  0.29270827  1
  Pb  Pb11  1  0.50852912  0.91526468  0.31287795  1
  Pb  Pb12  1  0.51502670  0.34310858  0.81544082  1
  Pb  Pb13  1  0.50958456  0.83372598  0.81249127  1
  Pb  Pb14  1  0.49147088  0.08473532  0.68712205  1
  Pb  Pb15  1  0.49144228  0.58133735  0.70729173  1
  O  O16  1  0.87317733  0.13559846  0.00426299  1
  O  O17  1  0.87800151  0.62443129  0.00155830  1
  O  O18  1  0.12955314  0.38390400  0.49595369  1
  O  O19  1  0.13246778  0.88372118  0.49587062  1
  O  O20  1  0.12199849  0.37556871  0.99844170  1
  O  O21  1  0.12682267  0.86440154  0.99573701  1
  O  O22  1  0.86753222  0.11627882  0.50412938  1
  O  O23  1  0.87044686  0.61609600  0.50404631  1
  O  O24  1  0.89339326  0.48710884  0.25048514  1
  O  O25  1  0.88937561  0.98594083  0.26580049  1
  O  O26  1  0.11023149  0.23869611  0.23362602  1
  O  O27  1  0.11323339  0.73300039  0.23217477  1
  O  O28  1  0.11062439  0.01405917  0.73419951  1
  O  O29  1  0.10660674  0.51289116  0.74951486  1
  O  O30  1  0.88676661  0.26699961  0.76782523  1
  O  O31  1  0.88976851  0.76130389  0.76637398  1
  O  O32  1  0.70528155  0.28348148  0.43275479  1
  O  O33  1  0.70533006  0.78390994  0.43438735  1
  O  O34  1  0.29504494  0.03415455  0.06502488  1
  O  O35  1  0.29667492  0.53015926  0.06441137  1
  O  O36  1  0.29466994  0.21609006  0.56561265  1
  O  O37  1  0.29471845  0.71651852  0.56724521  1
  O  O38  1  0.70332508  0.46984074  0.93558863  1
  O  O39  1  0.70495506  0.96584545  0.93497512  1
  O  O40  1  0.29521725  0.21651994  0.93463261  1
  O  O41  1  0.30116181  0.70683451  0.92989983  1
  O  O42  1  0.70356930  0.45885101  0.55630850  1
  O  O43  1  0.70384955  0.95850894  0.56775163  1
  O  O44  1  0.69883819  0.29316549  0.07010017  1
  O  O45  1  0.70478275  0.78348006  0.06536739  1
  O  O46  1  0.29615045  0.04149106  0.43224837  1
  O  O47  1  0.29643070  0.54114899  0.44369150  1
