# generated using pymatgen
data_Tb6Mg(GeS7)2
_symmetry_space_group_name_H-M   'P 1'
_cell_length_a   5.82090871
_cell_length_b   9.88434027
_cell_length_c   9.88434739
_cell_angle_alpha   120.00054167
_cell_angle_beta   89.99985144
_cell_angle_gamma   90.00011398
_symmetry_Int_Tables_number   1
_chemical_formula_structural   Tb6Mg(GeS7)2
_chemical_formula_sum   'Tb6 Mg1 Ge2 S14'
_cell_volume   492.50964205
_cell_formula_units_Z   1
loop_
 _symmetry_equiv_pos_site_id
 _symmetry_equiv_pos_as_xyz
  1  'x, y, z'
loop_
 _atom_site_type_symbol
 _atom_site_label
 _atom_site_symmetry_multiplicity
 _atom_site_fract_x
 _atom_site_fract_y
 _atom_site_fract_z
 _atom_site_occupancy
  Tb  Tb0  1  0.73938862  0.13603283  0.35939256  1
  Tb  Tb1  1  0.73939897  0.64062574  0.77664655  1
  Tb  Tb2  1  0.73938779  0.22336651  0.86397403  1
  Tb  Tb3  1  0.23428573  0.86444578  0.64214218  1
  Tb  Tb4  1  0.23428875  0.35784338  0.22230098  1
  Tb  Tb5  1  0.23428474  0.77769370  0.13554931  1
  Mg  Mg6  1  0.52206057  -0.00000101  -0.00000079  1
  Ge  Ge7  1  0.15955843  0.33334573  0.66667365  1
  Ge  Ge8  1  0.65454304  0.66664303  0.33332114  1
  S  S9  1  0.53781768  0.33335009  0.66667659  1
  S  S10  1  0.03367994  0.66665185  0.33332571  1
  S  S11  1  0.77134729  0.25182560  0.15494554  1
  S  S12  1  0.77135772  0.84506344  0.09688690  1
  S  S13  1  0.77135181  0.90311971  0.74816973  1
  S  S14  1  0.29044349  0.74793579  0.84688664  1
  S  S15  1  0.29044056  0.15311490  0.90103787  1
  S  S16  1  0.29043914  0.09895327  0.25207747  1
  S  S17  1  0.99931332  0.48086825  0.90253237  1
  S  S18  1  0.99931922  0.09748243  0.57833420  1
  S  S19  1  0.99930989  0.42167031  0.51914426  1
  S  S20  1  0.49472232  0.51972085  0.09766673  1
  S  S21  1  0.49473906  0.90230710  0.42204619  1
  S  S22  1  0.49472194  0.57794073  0.48027018  1
