# generated using pymatgen
data_Th2Mn22C3
_symmetry_space_group_name_H-M   'P 1'
_cell_length_a   6.51981081
_cell_length_b   7.82349349
_cell_length_c   7.83707199
_cell_angle_alpha   99.40170362
_cell_angle_beta   114.71093512
_cell_angle_gamma   65.50605404
_symmetry_Int_Tables_number   1
_chemical_formula_structural   Th2Mn22C3
_chemical_formula_sum   'Th2 Mn22 C3'
_cell_volume   330.43994280
_cell_formula_units_Z   1
loop_
 _symmetry_equiv_pos_site_id
 _symmetry_equiv_pos_as_xyz
  1  'x, y, z'
loop_
 _atom_site_type_symbol
 _atom_site_label
 _atom_site_symmetry_multiplicity
 _atom_site_fract_x
 _atom_site_fract_y
 _atom_site_fract_z
 _atom_site_occupancy
  Th  Th0  1  0.37518789  0.74773420  0.24773420  1
  Th  Th1  1  0.62481211  0.25226580  0.75226580  1
  Mn  Mn2  1  0.00000000  0.50000000  -0.00000000  1
  Mn  Mn3  1  0.00000000  0.50000000  0.50000000  1
  Mn  Mn4  1  0.50000000  0.00000000  -0.00000000  1
  Mn  Mn5  1  0.00000000  0.00000000  0.50000000  1
  Mn  Mn6  1  0.12824257  0.25077874  0.75077874  1
  Mn  Mn7  1  0.87175743  0.74922126  0.24922126  1
  Mn  Mn8  1  0.17572948  0.17749240  0.41729974  1
  Mn  Mn9  1  0.43592214  0.91729974  0.67749240  1
  Mn  Mn10  1  0.85286017  0.82447390  0.91993491  1
  Mn  Mn11  1  0.25739916  0.41993491  0.32447390  1
  Mn  Mn12  1  0.18203172  0.57867748  0.82600202  1
  Mn  Mn13  1  0.43470717  0.32600202  0.07867748  1
  Mn  Mn14  1  0.84995510  0.08678598  0.17295135  1
  Mn  Mn15  1  0.26378973  0.67295135  0.58678598  1
  Mn  Mn16  1  0.82427052  0.82250760  0.58270026  1
  Mn  Mn17  1  0.56407786  0.08270026  0.32250760  1
  Mn  Mn18  1  0.14713983  0.17552610  0.08006509  1
  Mn  Mn19  1  0.74260084  0.58006509  0.67552610  1
  Mn  Mn20  1  0.81796828  0.42132252  0.17399798  1
  Mn  Mn21  1  0.56529283  0.67399798  0.92132252  1
  Mn  Mn22  1  0.15004490  0.91321402  0.82704865  1
  Mn  Mn23  1  0.73621027  0.32704865  0.41321402  1
  C  C24  1  0.50000000  0.50000000  0.50000000  1
  C  C25  1  0.00000000  0.00000000  -0.00000000  1
  C  C26  1  0.50000000  0.00000000  0.50000000  1
