# generated using pymatgen
data_Th2Si3Au
_symmetry_space_group_name_H-M   'P 1'
_cell_length_a   4.24699884
_cell_length_b   4.25468607
_cell_length_c   7.72034491
_cell_angle_alpha   74.00519132
_cell_angle_beta   74.03486294
_cell_angle_gamma   90.00000000
_symmetry_Int_Tables_number   1
_chemical_formula_structural   Th2Si3Au
_chemical_formula_sum   'Th2 Si3 Au1'
_cell_volume   128.49651909
_cell_formula_units_Z   1
loop_
 _symmetry_equiv_pos_site_id
 _symmetry_equiv_pos_as_xyz
  1  'x, y, z'
loop_
 _atom_site_type_symbol
 _atom_site_label
 _atom_site_symmetry_multiplicity
 _atom_site_fract_x
 _atom_site_fract_y
 _atom_site_fract_z
 _atom_site_occupancy
  Th  Th0  1  0.74111450  0.24111450  0.51777100  1
  Th  Th1  1  0.00706510  0.00706510  0.98586980  1
  Si  Si2  1  0.41960079  0.41960079  0.16079842  1
  Si  Si3  1  0.16234951  0.66234951  0.67530098  1
  Si  Si4  1  0.58557572  0.58557572  0.82884855  1
  Au  Au5  1  0.33429438  0.83429438  0.33141124  1
