# generated using pymatgen
data_Tb10B9C10
_symmetry_space_group_name_H-M   'P 1'
_cell_length_a   8.00669074
_cell_length_b   8.15369820
_cell_length_c   23.82932868
_cell_angle_alpha   90.00000000
_cell_angle_beta   90.00000000
_cell_angle_gamma   91.48678627
_symmetry_Int_Tables_number   1
_chemical_formula_structural   Tb10B9C10
_chemical_formula_sum   'Tb40 B36 C40'
_cell_volume   1555.15348384
_cell_formula_units_Z   4
loop_
 _symmetry_equiv_pos_site_id
 _symmetry_equiv_pos_as_xyz
  1  'x, y, z'
loop_
 _atom_site_type_symbol
 _atom_site_label
 _atom_site_symmetry_multiplicity
 _atom_site_fract_x
 _atom_site_fract_y
 _atom_site_fract_z
 _atom_site_occupancy
  Tb  Tb0  1  0.40072847  0.44231288  0.56153561  1
  Tb  Tb1  1  0.09927153  0.05768712  0.06153561  1
  Tb  Tb2  1  0.59927153  0.55768712  0.43846439  1
  Tb  Tb3  1  0.90072847  0.94231288  0.93846439  1
  Tb  Tb4  1  0.79889192  0.64848915  0.58116162  1
  Tb  Tb5  1  0.70110808  0.85151085  0.08116162  1
  Tb  Tb6  1  0.20110808  0.35151085  0.41883838  1
  Tb  Tb7  1  0.29889192  0.14848915  0.91883838  1
  Tb  Tb8  1  0.89401420  0.36547034  0.69973527  1
  Tb  Tb9  1  0.60598580  0.13452966  0.19973527  1
  Tb  Tb10  1  0.10598580  0.63452966  0.30026473  1
  Tb  Tb11  1  0.39401420  0.86547034  0.80026473  1
  Tb  Tb12  1  0.80342504  0.14112218  0.43773964  1
  Tb  Tb13  1  0.69657496  0.35887782  0.93773964  1
  Tb  Tb14  1  0.19657496  0.85887782  0.56226036  1
  Tb  Tb15  1  0.30342504  0.64112218  0.06226036  1
  Tb  Tb16  1  0.58814998  0.05483129  0.56518859  1
  Tb  Tb17  1  0.91185002  0.44516871  0.06518859  1
  Tb  Tb18  1  0.41185002  0.94516871  0.43481141  1
  Tb  Tb19  1  0.08814998  0.55483129  0.93481141  1
  Tb  Tb20  1  0.58908513  0.24841182  0.79795014  1
  Tb  Tb21  1  0.91091487  0.25158818  0.29795014  1
  Tb  Tb22  1  0.41091487  0.75158818  0.20204986  1
  Tb  Tb23  1  0.08908513  0.74841182  0.70204986  1
  Tb  Tb24  1  0.00829970  0.24555475  0.56177721  1
  Tb  Tb25  1  0.49170030  0.25444525  0.06177721  1
  Tb  Tb26  1  0.99170030  0.75444525  0.43822279  1
  Tb  Tb27  1  0.50829970  0.74555475  0.93822279  1
  Tb  Tb28  1  0.70556985  0.93887711  0.70035835  1
  Tb  Tb29  1  0.79443015  0.56112289  0.20035835  1
  Tb  Tb30  1  0.29443015  0.06112289  0.29964165  1
  Tb  Tb31  1  0.20556985  0.43887711  0.79964165  1
  Tb  Tb32  1  0.50882954  0.55874495  0.69993222  1
  Tb  Tb33  1  0.99117046  0.94125505  0.19993222  1
  Tb  Tb34  1  0.49117046  0.44125505  0.30006778  1
  Tb  Tb35  1  0.00882954  0.05874495  0.80006778  1
  Tb  Tb36  1  0.29818303  0.15255027  0.68688647  1
  Tb  Tb37  1  0.20181697  0.34744973  0.18688647  1
  Tb  Tb38  1  0.70181697  0.84744973  0.31311353  1
  Tb  Tb39  1  0.79818303  0.65255027  0.81311353  1
  B  B40  1  0.02908994  0.98927335  0.35888917  1
  B  B41  1  0.47091006  0.51072665  0.85888917  1
  B  B42  1  0.97091006  0.01072665  0.64111083  1
  B  B43  1  0.52908994  0.48927335  0.14111083  1
  B  B44  1  0.56731979  0.17675462  0.35884763  1
  B  B45  1  0.93268021  0.32324538  0.85884763  1
  B  B46  1  0.43268021  0.82324538  0.64115237  1
  B  B47  1  0.06731979  0.67675462  0.14115237  1
  B  B48  1  0.83985264  0.51404155  0.36124866  1
  B  B49  1  0.66014736  0.98595845  0.86124866  1
  B  B50  1  0.16014736  0.48595845  0.63875134  1
  B  B51  1  0.33985264  0.01404155  0.13875134  1
  B  B52  1  0.70927057  0.35496889  0.51996709  1
  B  B53  1  0.79072943  0.14503111  0.01996709  1
  B  B54  1  0.29072943  0.64503111  0.48003291  1
  B  B55  1  0.20927057  0.85496889  0.98003291  1
  B  B56  1  0.62953545  0.29782248  0.63867112  1
  B  B57  1  0.87046455  0.20217752  0.13867112  1
  B  B58  1  0.37046455  0.70217752  0.36132888  1
  B  B59  1  0.12953545  0.79782248  0.86132888  1
  B  B60  1  0.90216454  0.44916614  0.48135486  1
  B  B61  1  0.59783546  0.05083386  0.98135486  1
  B  B62  1  0.09783546  0.55083386  0.51864514  1
  B  B63  1  0.40216454  0.94916614  0.01864514  1
  B  B64  1  0.49923706  0.24927326  0.47676318  1
  B  B65  1  0.00076294  0.25072674  0.97676318  1
  B  B66  1  0.50076294  0.75072674  0.52323682  1
  B  B67  1  0.99923706  0.74927326  0.02323682  1
  B  B68  1  0.69841898  0.84996689  0.48568965  1
  B  B69  1  0.80158102  0.65003311  0.98568965  1
  B  B70  1  0.30158102  0.15003311  0.51431035  1
  B  B71  1  0.19841898  0.34996689  0.01431035  1
  B  B72  1  0.12149279  0.06488581  0.47475789  1
  B  B73  1  0.37850721  0.43511419  0.97475789  1
  B  B74  1  0.87850721  0.93511419  0.52524211  1
  B  B75  1  0.62149279  0.56488581  0.02524211  1
  C  C76  1  0.70396018  0.84629445  0.42085796  1
  C  C77  1  0.79603982  0.65370555  0.92085796  1
  C  C78  1  0.29603982  0.15370555  0.57914204  1
  C  C79  1  0.20396018  0.34629445  0.07914204  1
  C  C80  1  0.51109924  0.24525547  0.41193413  1
  C  C81  1  0.98890076  0.25474453  0.91193413  1
  C  C82  1  0.48890076  0.75474453  0.58806587  1
  C  C83  1  0.01109924  0.74525547  0.08806587  1
  C  C84  1  0.79938267  0.65246890  0.69971297  1
  C  C85  1  0.70061733  0.84753110  0.19971297  1
  C  C86  1  0.20061733  0.34753110  0.30028703  1
  C  C87  1  0.29938267  0.15246890  0.80028703  1
  C  C88  1  0.00119468  0.94632614  0.30059629  1
  C  C89  1  0.49880532  0.55367386  0.80059629  1
  C  C90  1  0.99880532  0.05367386  0.69940371  1
  C  C91  1  0.50119468  0.44632614  0.19940371  1
  C  C92  1  0.70196937  0.34536213  0.58484940  1
  C  C93  1  0.79803063  0.15463787  0.08484940  1
  C  C94  1  0.29803063  0.65463787  0.41515060  1
  C  C95  1  0.20196937  0.84536213  0.91515060  1
  C  C96  1  0.60393960  0.14748206  0.30032807  1
  C  C97  1  0.89606040  0.35251794  0.80032807  1
  C  C98  1  0.39606040  0.85251794  0.69967193  1
  C  C99  1  0.10393960  0.64748206  0.19967193  1
  C  C100  1  0.59899286  0.25190276  0.69662141  1
  C  C101  1  0.90100714  0.24809724  0.19662141  1
  C  C102  1  0.40100714  0.74809724  0.30337859  1
  C  C103  1  0.09899286  0.75190276  0.80337859  1
  C  C104  1  0.80034489  0.54451908  0.30291120  1
  C  C105  1  0.69965511  0.95548092  0.80291120  1
  C  C106  1  0.19965511  0.45548092  0.69708880  1
  C  C107  1  0.30034489  0.04451908  0.19708880  1
  C  C108  1  0.89304355  0.45722182  0.41628969  1
  C  C109  1  0.60695645  0.04277818  0.91628969  1
  C  C110  1  0.10695645  0.54277818  0.58371031  1
  C  C111  1  0.39304355  0.95722182  0.08371031  1
  C  C112  1  0.10498185  0.04444513  0.41118646  1
  C  C113  1  0.39501815  0.45555487  0.91118646  1
  C  C114  1  0.89501815  0.95555487  0.58881354  1
  C  C115  1  0.60498185  0.54444513  0.08881354  1
