# generated using pymatgen
data_YSeF
_symmetry_space_group_name_H-M   'P 1'
_cell_length_a   5.73927331
_cell_length_b   5.80800764
_cell_length_c   7.71967792
_cell_angle_alpha   90.00000000
_cell_angle_beta   90.00000000
_cell_angle_gamma   90.00000000
_symmetry_Int_Tables_number   1
_chemical_formula_structural   YSeF
_chemical_formula_sum   'Y4 Se4 F4'
_cell_volume   257.32576162
_cell_formula_units_Z   4
loop_
 _symmetry_equiv_pos_site_id
 _symmetry_equiv_pos_as_xyz
  1  'x, y, z'
loop_
 _atom_site_type_symbol
 _atom_site_label
 _atom_site_symmetry_multiplicity
 _atom_site_fract_x
 _atom_site_fract_y
 _atom_site_fract_z
 _atom_site_occupancy
  Y  Y0  1  0.25000000  0.87230156  0.81765324  1
  Y  Y1  1  0.75000000  0.37230156  0.68234676  1
  Y  Y2  1  0.75000000  0.12769844  0.18234676  1
  Y  Y3  1  0.25000000  0.62769844  0.31765324  1
  Se  Se4  1  0.75000000  0.61862604  0.33000948  1
  Se  Se5  1  0.25000000  0.11862604  0.16999052  1
  Se  Se6  1  0.75000000  0.88137396  0.83000948  1
  Se  Se7  1  0.25000000  0.38137396  0.66999052  1
  F  F8  1  0.25000000  0.86678443  0.53613750  1
  F  F9  1  0.25000000  0.63321557  0.03613750  1
  F  F10  1  0.75000000  0.13321557  0.46386250  1
  F  F11  1  0.75000000  0.36678443  0.96386250  1
