# generated using pymatgen
data_Ta2(SiMo)3
_symmetry_space_group_name_H-M   'P 1'
_cell_length_a   5.04131692
_cell_length_b   7.37326311
_cell_length_c   7.37326311
_cell_angle_alpha   97.27096841
_cell_angle_beta   109.99052312
_cell_angle_gamma   70.00947688
_symmetry_Int_Tables_number   1
_chemical_formula_structural   Ta2(SiMo)3
_chemical_formula_sum   'Ta4 Si6 Mo6'
_cell_volume   242.02555546
_cell_formula_units_Z   2
loop_
 _symmetry_equiv_pos_site_id
 _symmetry_equiv_pos_as_xyz
  1  'x, y, z'
loop_
 _atom_site_type_symbol
 _atom_site_label
 _atom_site_symmetry_multiplicity
 _atom_site_fract_x
 _atom_site_fract_y
 _atom_site_fract_z
 _atom_site_occupancy
  Ta  Ta0  1  0.42111871  0.85244501  0.69468243  1
  Ta  Ta1  1  0.57888129  0.14755499  0.30531757  1
  Ta  Ta2  1  0.92111871  0.30531757  0.14755499  1
  Ta  Ta3  1  0.07888129  0.69468243  0.85244501  1
  Si  Si4  1  0.25000000  -0.00000000  -0.00000000  1
  Si  Si5  1  0.75000000  -0.00000000  -0.00000000  1
  Si  Si6  1  0.33471249  0.50153914  0.17096412  1
  Si  Si7  1  0.66528751  0.49846086  0.82903588  1
  Si  Si8  1  0.83471249  0.82903588  0.49846086  1
  Si  Si9  1  0.16528751  0.17096412  0.50153914  1
  Mo  Mo10  1  0.71894461  0.70530657  0.14319579  1
  Mo  Mo11  1  0.28105539  0.29469343  0.85680421  1
  Mo  Mo12  1  0.78105539  0.14319579  0.70530657  1
  Mo  Mo13  1  0.21894461  0.85680421  0.29469343  1
  Mo  Mo14  1  0.25000000  0.50000000  0.50000000  1
  Mo  Mo15  1  0.75000000  0.50000000  0.50000000  1
