# generated using pymatgen
data_SrNdZnRuO6
_symmetry_space_group_name_H-M   'P 1'
_cell_length_a   5.60131625
_cell_length_b   5.73412794
_cell_length_c   7.91683334
_cell_angle_alpha   90.00000000
_cell_angle_beta   90.03221767
_cell_angle_gamma   90.00000000
_symmetry_Int_Tables_number   1
_chemical_formula_structural   SrNdZnRuO6
_chemical_formula_sum   'Sr2 Nd2 Zn2 Ru2 O12'
_cell_volume   254.27806997
_cell_formula_units_Z   2
loop_
 _symmetry_equiv_pos_site_id
 _symmetry_equiv_pos_as_xyz
  1  'x, y, z'
loop_
 _atom_site_type_symbol
 _atom_site_label
 _atom_site_symmetry_multiplicity
 _atom_site_fract_x
 _atom_site_fract_y
 _atom_site_fract_z
 _atom_site_occupancy
  Sr  Sr0  1  0.50680445  0.96023695  0.74929008  1
  Sr  Sr1  1  0.00680445  0.53976305  0.24929008  1
  Nd  Nd2  1  0.48450551  0.05855376  0.24831200  1
  Nd  Nd3  1  0.98450551  0.44144624  0.74831200  1
  Zn  Zn4  1  0.49865586  0.51045060  0.99812779  1
  Zn  Zn5  1  0.99865586  0.98954940  0.49812779  1
  Ru  Ru6  1  0.49924810  0.50247408  0.50069564  1
  Ru  Ru7  1  -0.00075190  0.99752592  0.00069564  1
  O  O8  1  0.31281835  0.79111470  0.45187009  1
  O  O9  1  0.81281835  0.70888530  0.95187009  1
  O  O10  1  0.70890724  0.22716003  0.54396564  1
  O  O11  1  0.20890724  0.27283997  0.04396564  1
  O  O12  1  0.79072601  0.69292361  0.54790388  1
  O  O13  1  0.29072601  0.80707639  0.04790388  1
  O  O14  1  0.22526375  0.28982031  0.46018200  1
  O  O15  1  0.72526375  0.21017969  0.96018200  1
  O  O16  1  0.40252442  0.51714202  0.74212344  1
  O  O17  1  0.90252442  0.98285798  0.24212344  1
  O  O18  1  0.57054630  0.47197373  0.25752944  1
  O  O19  1  0.07054630  0.02802627  0.75752944  1
