# generated using pymatgen
data_Ta2Co3Ge
_symmetry_space_group_name_H-M   'P 1'
_cell_length_a   4.89218973
_cell_length_b   4.89128626
_cell_length_c   7.65475268
_cell_angle_alpha   90.00000000
_cell_angle_beta   90.00000000
_cell_angle_gamma   60.00610146
_symmetry_Int_Tables_number   1
_chemical_formula_structural   Ta2Co3Ge
_chemical_formula_sum   'Ta4 Co6 Ge2'
_cell_volume   158.64079060
_cell_formula_units_Z   2
loop_
 _symmetry_equiv_pos_site_id
 _symmetry_equiv_pos_as_xyz
  1  'x, y, z'
loop_
 _atom_site_type_symbol
 _atom_site_label
 _atom_site_symmetry_multiplicity
 _atom_site_fract_x
 _atom_site_fract_y
 _atom_site_fract_z
 _atom_site_occupancy
  Ta  Ta0  1  0.33332480  0.33333760  0.55999377  1
  Ta  Ta1  1  0.66667520  0.66666240  0.44000623  1
  Ta  Ta2  1  0.66667520  0.66666240  0.05999377  1
  Ta  Ta3  1  0.33332480  0.33333760  0.94000623  1
  Co  Co4  1  0.82817731  0.34366538  0.75000000  1
  Co  Co5  1  0.34372771  0.82813615  0.75000000  1
  Co  Co6  1  0.82817731  0.82815731  0.75000000  1
  Co  Co7  1  0.17182269  0.65633462  0.25000000  1
  Co  Co8  1  0.65627229  0.17186385  0.25000000  1
  Co  Co9  1  0.17182269  0.17184269  0.25000000  1
  Ge  Ge10  1  -0.00000000  -0.00000000  0.50000000  1
  Ge  Ge11  1  -0.00000000  -0.00000000  0.00000000  1
