# generated using pymatgen
data_SrSmAl3O7
_symmetry_space_group_name_H-M   'P 1'
_cell_length_a   5.21431357
_cell_length_b   7.89166866
_cell_length_c   7.89166866
_cell_angle_alpha   90.59595100
_cell_angle_beta   90.00000000
_cell_angle_gamma   90.00000000
_symmetry_Int_Tables_number   1
_chemical_formula_structural   SrSmAl3O7
_chemical_formula_sum   'Sr2 Sm2 Al6 O14'
_cell_volume   324.72171877
_cell_formula_units_Z   2
loop_
 _symmetry_equiv_pos_site_id
 _symmetry_equiv_pos_as_xyz
  1  'x, y, z'
loop_
 _atom_site_type_symbol
 _atom_site_label
 _atom_site_symmetry_multiplicity
 _atom_site_fract_x
 _atom_site_fract_y
 _atom_site_fract_z
 _atom_site_occupancy
  Sr  Sr0  1  0.50977862  0.33801051  0.16198949  1
  Sr  Sr1  1  0.50977862  0.66198949  0.83801051  1
  Sm  Sm2  1  0.48548519  0.16150101  0.66150101  1
  Sm  Sm3  1  0.48548519  0.83849899  0.33849899  1
  Al  Al4  1  0.00391551  0.50000000  0.50000000  1
  Al  Al5  1  0.00391551  -0.00000000  0.00000000  1
  Al  Al6  1  0.95910512  0.13986958  0.36013042  1
  Al  Al7  1  0.03933990  0.35339085  0.85339085  1
  Al  Al8  1  0.95910512  0.86013042  0.63986958  1
  Al  Al9  1  0.03933990  0.64660915  0.14660915  1
  O  O10  1  0.29523693  0.12764961  0.37235039  1
  O  O11  1  0.70553641  0.34412107  0.84412107  1
  O  O12  1  0.29523693  0.87235039  0.62764961  1
  O  O13  1  0.70553641  0.65587893  0.15587893  1
  O  O14  1  0.81142194  0.33360452  0.41910363  1
  O  O15  1  0.19913380  0.15936618  0.90534929  1
  O  O16  1  0.81142194  0.66639548  0.58089637  1
  O  O17  1  0.19913380  0.84063382  0.09465071  1
  O  O18  1  0.19913380  0.59465071  0.34063382  1
  O  O19  1  0.81142194  0.91910363  0.83360452  1
  O  O20  1  0.19913380  0.40534929  0.65936618  1
  O  O21  1  0.81142194  0.08089637  0.16639548  1
  O  O22  1  0.16103983  0.50000000  0.00000000  1
  O  O23  1  0.79994183  -0.00000000  0.50000000  1
