# generated using pymatgen
data_SrSm3Mn4O12
_symmetry_space_group_name_H-M   'P 1'
_cell_length_a   5.46675350
_cell_length_b   5.65238183
_cell_length_c   7.75984723
_cell_angle_alpha   90.01962584
_cell_angle_beta   90.03555635
_cell_angle_gamma   90.30364276
_symmetry_Int_Tables_number   1
_chemical_formula_structural   SrSm3Mn4O12
_chemical_formula_sum   'Sr1 Sm3 Mn4 O12'
_cell_volume   239.77723446
_cell_formula_units_Z   1
loop_
 _symmetry_equiv_pos_site_id
 _symmetry_equiv_pos_as_xyz
  1  'x, y, z'
loop_
 _atom_site_type_symbol
 _atom_site_label
 _atom_site_symmetry_multiplicity
 _atom_site_fract_x
 _atom_site_fract_y
 _atom_site_fract_z
 _atom_site_occupancy
  Sr  Sr0  1  0.50793861  0.54040535  0.24908250  1
  Sm  Sm1  1  0.01270021  0.94588296  0.75027974  1
  Sm  Sm2  1  0.48584700  0.44112090  0.74846688  1
  Sm  Sm3  1  0.98474748  0.05591406  0.25089762  1
  Mn  Mn4  1  0.50259317  0.99734617  0.99957501  1
  Mn  Mn5  1  0.99796129  0.50092914  0.99998177  1
  Mn  Mn6  1  0.99678432  0.50136005  0.50068981  1
  Mn  Mn7  1  0.50150028  0.99702612  0.49952516  1
  O  O8  1  0.21817459  0.20272821  0.55018441  1
  O  O9  1  0.71731163  0.28898047  0.46744029  1
  O  O10  1  0.79546837  0.81024829  0.46069480  1
  O  O11  1  0.28453809  0.70537069  0.55304215  1
  O  O12  1  0.79863260  0.80588713  0.04131847  1
  O  O13  1  0.29004899  0.71047281  0.94543278  1
  O  O14  1  0.22007152  0.20796755  0.94727777  1
  O  O15  1  0.71846294  0.27991831  0.03626445  1
  O  O16  1  0.40666259  0.98850577  0.24682353  1
  O  O17  1  0.90616690  0.52947464  0.75327804  1
  O  O18  1  0.58995681  0.02086400  0.75236173  1
  O  O19  1  0.06443261  0.46959737  0.24738310  1
