# generated using pymatgen
data_Sr3LiBiO6
_symmetry_space_group_name_H-M   'P 1'
_cell_length_a   6.99199921
_cell_length_b   6.99199891
_cell_length_c   6.99068375
_cell_angle_alpha   92.31495939
_cell_angle_beta   92.31496426
_cell_angle_gamma   92.51346049
_symmetry_Int_Tables_number   1
_chemical_formula_structural   Sr3LiBiO6
_chemical_formula_sum   'Sr6 Li2 Bi2 O12'
_cell_volume   340.84899110
_cell_formula_units_Z   2
loop_
 _symmetry_equiv_pos_site_id
 _symmetry_equiv_pos_as_xyz
  1  'x, y, z'
loop_
 _atom_site_type_symbol
 _atom_site_label
 _atom_site_symmetry_multiplicity
 _atom_site_fract_x
 _atom_site_fract_y
 _atom_site_fract_z
 _atom_site_occupancy
  Sr  Sr0  1  0.89686976  0.24823158  0.60325417  1
  Sr  Sr1  1  0.25028184  0.59943291  0.90034369  1
  Sr  Sr2  1  0.59907646  0.90098714  0.25143136  1
  Sr  Sr3  1  0.74823158  0.39686976  0.10325417  1
  Sr  Sr4  1  0.40098714  0.09907646  0.75143136  1
  Sr  Sr5  1  0.09943291  0.75028184  0.40034369  1
  Li  Li6  1  0.22804273  0.24995013  0.27208911  1
  Li  Li7  1  0.74995013  0.72804273  0.77208911  1
  Bi  Bi8  1  0.50029615  0.50066137  0.49904422  1
  Bi  Bi9  1  0.00066137  0.00029615  0.99904422  1
  O  O10  1  0.20796045  0.41675164  0.54502809  1
  O  O11  1  0.42163695  0.55167576  0.20846775  1
  O  O12  1  0.54888537  0.20819231  0.42356561  1
  O  O13  1  0.91675164  0.70796045  0.04502809  1
  O  O14  1  0.70819231  0.04888537  0.92356561  1
  O  O15  1  0.05167576  0.92163695  0.70846775  1
  O  O16  1  0.79264642  0.57657891  0.45101799  1
  O  O17  1  0.58214291  0.45533116  0.79213047  1
  O  O18  1  0.44799155  0.79057651  0.57942754  1
  O  O19  1  0.07657891  0.29264642  0.95101799  1
  O  O20  1  0.29057651  0.94799155  0.07942754  1
  O  O21  1  0.95533116  0.08214291  0.29213047  1
