# generated using pymatgen
data_SrAg3Pd2
_symmetry_space_group_name_H-M   'P 1'
_cell_length_a   4.64150601
_cell_length_b   5.60258547
_cell_length_c   5.60630133
_cell_angle_alpha   119.97807375
_cell_angle_beta   90.00000000
_cell_angle_gamma   90.00000000
_symmetry_Int_Tables_number   1
_chemical_formula_structural   SrAg3Pd2
_chemical_formula_sum   'Sr1 Ag3 Pd2'
_cell_volume   126.28459872
_cell_formula_units_Z   1
loop_
 _symmetry_equiv_pos_site_id
 _symmetry_equiv_pos_as_xyz
  1  'x, y, z'
loop_
 _atom_site_type_symbol
 _atom_site_label
 _atom_site_symmetry_multiplicity
 _atom_site_fract_x
 _atom_site_fract_y
 _atom_site_fract_z
 _atom_site_occupancy
  Sr  Sr0  1  0.00000000  0.99997991  -0.00000000  1
  Ag  Ag1  1  0.50000000  0.49999829  0.00000000  1
  Ag  Ag2  1  0.50000000  0.49998076  0.50000845  1
  Ag  Ag3  1  0.50000000  0.99997230  0.49999155  1
  Pd  Pd4  1  -0.00000000  0.33335898  0.66674923  1
  Pd  Pd5  1  -0.00000000  0.66660975  0.33325077  1
