# generated using pymatgen
data_Sr4TaFeO8
_symmetry_space_group_name_H-M   'P 1'
_cell_length_a   5.64382619
_cell_length_b   5.64112432
_cell_length_c   6.98165982
_cell_angle_alpha   90.00000000
_cell_angle_beta   66.15965752
_cell_angle_gamma   90.00000000
_symmetry_Int_Tables_number   1
_chemical_formula_structural   Sr4TaFeO8
_chemical_formula_sum   'Sr4 Ta1 Fe1 O8'
_cell_volume   203.31290117
_cell_formula_units_Z   1
loop_
 _symmetry_equiv_pos_site_id
 _symmetry_equiv_pos_as_xyz
  1  'x, y, z'
loop_
 _atom_site_type_symbol
 _atom_site_label
 _atom_site_symmetry_multiplicity
 _atom_site_fract_x
 _atom_site_fract_y
 _atom_site_fract_z
 _atom_site_occupancy
  Sr  Sr0  1  0.35198728  0.00000000  0.29602543  1
  Sr  Sr1  1  0.85415844  0.50000000  0.29168313  1
  Sr  Sr2  1  0.14584156  0.50000000  0.70831687  1
  Sr  Sr3  1  0.64801272  -0.00000000  0.70397457  1
  Ta  Ta4  1  0.50000000  0.50000000  -0.00000000  1
  Fe  Fe5  1  -0.00000000  -0.00000000  -0.00000000  1
  O  O6  1  0.25213710  0.25313743  -0.00000000  1
  O  O7  1  0.74786290  0.74686257  -0.00000000  1
  O  O8  1  0.74786290  0.25313743  -0.00000000  1
  O  O9  1  0.25213710  0.74686257  -0.00000000  1
  O  O10  1  0.16195162  -0.00000000  0.67609677  1
  O  O11  1  0.66013595  0.50000000  0.67972809  1
  O  O12  1  0.33986405  0.50000000  0.32027191  1
  O  O13  1  0.83804838  0.00000000  0.32390323  1
