# generated using pymatgen
data_SrCaZn2
_symmetry_space_group_name_H-M   'P 1'
_cell_length_a   4.46050065
_cell_length_b   6.27311940
_cell_length_c   8.43513281
_cell_angle_alpha   90.00000000
_cell_angle_beta   90.00000000
_cell_angle_gamma   90.00000000
_symmetry_Int_Tables_number   1
_chemical_formula_structural   SrCaZn2
_chemical_formula_sum   'Sr2 Ca2 Zn4'
_cell_volume   236.02558661
_cell_formula_units_Z   2
loop_
 _symmetry_equiv_pos_site_id
 _symmetry_equiv_pos_as_xyz
  1  'x, y, z'
loop_
 _atom_site_type_symbol
 _atom_site_label
 _atom_site_symmetry_multiplicity
 _atom_site_fract_x
 _atom_site_fract_y
 _atom_site_fract_z
 _atom_site_occupancy
  Sr  Sr0  1  0.75000000  0.61528292  0.32372247  1
  Sr  Sr1  1  0.75000000  0.88471708  0.82372247  1
  Ca  Ca2  1  0.25000000  0.37982220  0.68055665  1
  Ca  Ca3  1  0.25000000  0.12017780  0.18055665  1
  Zn  Zn4  1  0.25000000  0.90493250  0.52589595  1
  Zn  Zn5  1  0.25000000  0.59506750  0.02589595  1
  Zn  Zn6  1  0.75000000  0.11489526  0.46982493  1
  Zn  Zn7  1  0.75000000  0.38510474  0.96982493  1
