# generated using pymatgen
data_SrLaFeCoO6
_symmetry_space_group_name_H-M   'P 1'
_cell_length_a   5.47734401
_cell_length_b   5.47734352
_cell_length_c   5.47873644
_cell_angle_alpha   60.00840987
_cell_angle_beta   89.99999966
_cell_angle_gamma   60.00000296
_symmetry_Int_Tables_number   1
_chemical_formula_structural   SrLaFeCoO6
_chemical_formula_sum   'Sr1 La1 Fe1 Co1 O6'
_cell_volume   116.24134402
_cell_formula_units_Z   1
loop_
 _symmetry_equiv_pos_site_id
 _symmetry_equiv_pos_as_xyz
  1  'x, y, z'
loop_
 _atom_site_type_symbol
 _atom_site_label
 _atom_site_symmetry_multiplicity
 _atom_site_fract_x
 _atom_site_fract_y
 _atom_site_fract_z
 _atom_site_occupancy
  Sr  Sr0  1  0.74994724  0.50010553  0.24984171  1
  La  La1  1  0.25016838  0.49966324  0.75050514  1
  Fe  Fe2  1  0.50003162  0.99993676  0.50009487  1
  Co  Co3  1  -0.00013963  0.00027925  -0.00041888  1
  O  O4  1  0.24476083  0.00009867  0.75504183  1
  O  O5  1  0.75497970  0.00003487  0.24495055  1
  O  O6  1  0.75514050  0.00009867  0.75504183  1
  O  O7  1  0.24498543  0.00003487  0.24495055  1
  O  O8  1  0.75514050  0.48971900  0.75504183  1
  O  O9  1  0.24498543  0.51002915  0.24495055  1
