# generated using pymatgen
data_SrLaMnNbO6
_symmetry_space_group_name_H-M   'P 1'
_cell_length_a   5.73233122
_cell_length_b   5.85580767
_cell_length_c   8.15511268
_cell_angle_alpha   90.00000000
_cell_angle_beta   89.98787242
_cell_angle_gamma   90.00000000
_symmetry_Int_Tables_number   1
_chemical_formula_structural   SrLaMnNbO6
_chemical_formula_sum   'Sr2 La2 Mn2 Nb2 O12'
_cell_volume   273.74616078
_cell_formula_units_Z   2
loop_
 _symmetry_equiv_pos_site_id
 _symmetry_equiv_pos_as_xyz
  1  'x, y, z'
loop_
 _atom_site_type_symbol
 _atom_site_label
 _atom_site_symmetry_multiplicity
 _atom_site_fract_x
 _atom_site_fract_y
 _atom_site_fract_z
 _atom_site_occupancy
  Sr  Sr0  1  0.49193320  0.53979324  0.25102144  1
  Sr  Sr1  1  0.99193320  0.96020676  0.75102144  1
  La  La2  1  0.51075953  0.45024081  0.75358916  1
  La  La3  1  0.01075953  0.04975919  0.25358916  1
  Mn  Mn4  1  0.00095850  0.50620635  0.50174694  1
  Mn  Mn5  1  0.50095850  0.99379365  0.00174694  1
  Nb  Nb6  1  0.00060586  0.50105664  0.00074490  1
  Nb  Nb7  1  0.50060586  0.99894336  0.50074490  1
  O  O8  1  0.29879005  0.27468238  0.45188385  1
  O  O9  1  0.79879005  0.22531762  0.95188385  1
  O  O10  1  0.68173047  0.70773028  0.55169470  1
  O  O11  1  0.18173047  0.79226972  0.05169470  1
  O  O12  1  0.21087733  0.81009773  0.44959293  1
  O  O13  1  0.71087733  0.68990227  0.94959293  1
  O  O14  1  0.77892563  0.20056527  0.53965370  1
  O  O15  1  0.27892563  0.29943473  0.03965370  1
  O  O16  1  0.42301111  0.03386088  0.73933818  1
  O  O17  1  0.92301111  0.46613912  0.23933818  1
  O  O18  1  0.60240833  0.97317933  0.26073420  1
  O  O19  1  0.10240833  0.52682067  0.76073420  1
