# generated using pymatgen
data_LiB(CO2)4
_symmetry_space_group_name_H-M   'P 1'
_cell_length_a   6.53195607
_cell_length_b   7.66581367
_cell_length_c   13.46607937
_cell_angle_alpha   90.00000000
_cell_angle_beta   90.00000000
_cell_angle_gamma   90.00000000
_symmetry_Int_Tables_number   1
_chemical_formula_structural   LiB(CO2)4
_chemical_formula_sum   'Li4 B4 C16 O32'
_cell_volume   674.28373530
_cell_formula_units_Z   4
loop_
 _symmetry_equiv_pos_site_id
 _symmetry_equiv_pos_as_xyz
  1  'x, y, z'
loop_
 _atom_site_type_symbol
 _atom_site_label
 _atom_site_symmetry_multiplicity
 _atom_site_fract_x
 _atom_site_fract_y
 _atom_site_fract_z
 _atom_site_occupancy
  Li  Li0  1  0.97237660  0.75000000  0.81812403  1
  Li  Li1  1  0.02762340  0.25000000  0.18187597  1
  Li  Li2  1  0.52762340  0.25000000  0.31812403  1
  Li  Li3  1  0.47237660  0.75000000  0.68187597  1
  B  B4  1  0.09659750  0.25000000  0.54201559  1
  B  B5  1  0.40340250  0.75000000  0.04201559  1
  B  B6  1  0.90340250  0.75000000  0.45798441  1
  B  B7  1  0.59659750  0.25000000  0.95798441  1
  C  C8  1  0.41925668  0.25000000  0.10541582  1
  C  C9  1  0.14578242  0.64868707  0.14385066  1
  C  C10  1  0.64578242  0.85131293  0.35614934  1
  C  C11  1  0.85421758  0.35131293  0.85614934  1
  C  C12  1  0.85421758  0.14868707  0.85614934  1
  C  C13  1  0.14578242  0.85131293  0.14385066  1
  C  C14  1  0.73164878  0.75000000  0.98134838  1
  C  C15  1  0.64578242  0.64868707  0.35614934  1
  C  C16  1  0.76835122  0.25000000  0.48134838  1
  C  C17  1  0.58074332  0.75000000  0.89458418  1
  C  C18  1  0.26835122  0.25000000  0.01865162  1
  C  C19  1  0.23164878  0.75000000  0.51865162  1
  C  C20  1  0.91925668  0.25000000  0.39458418  1
  C  C21  1  0.35421758  0.35131293  0.64385066  1
  C  C22  1  0.08074332  0.75000000  0.60541582  1
  C  C23  1  0.35421758  0.14868707  0.64385066  1
  O  O24  1  0.10716025  0.25000000  0.42971843  1
  O  O25  1  0.70086662  0.40240598  0.91578827  1
  O  O26  1  0.91797437  0.75000000  0.97087857  1
  O  O27  1  0.29913338  0.90240598  0.08421173  1
  O  O28  1  0.96956436  0.44880182  0.81204838  1
  O  O29  1  0.53043564  0.94880182  0.31204838  1
  O  O30  1  0.60716025  0.25000000  0.07028157  1
  O  O31  1  0.13456220  0.75000000  0.69289256  1
  O  O32  1  0.63456220  0.75000000  0.80710744  1
  O  O33  1  0.62698959  0.75000000  0.06501211  1
  O  O34  1  0.89283975  0.75000000  0.57028157  1
  O  O35  1  0.46956436  0.05119818  0.68795162  1
  O  O36  1  0.79913338  0.90240598  0.41578827  1
  O  O37  1  0.12698959  0.75000000  0.43498789  1
  O  O38  1  0.08202563  0.25000000  0.02912143  1
  O  O39  1  0.39283975  0.75000000  0.92971843  1
  O  O40  1  0.70086662  0.09759402  0.91578827  1
  O  O41  1  0.03043564  0.94880182  0.18795162  1
  O  O42  1  0.20086662  0.09759402  0.58421173  1
  O  O43  1  0.36543780  0.25000000  0.19289256  1
  O  O44  1  0.03043564  0.55119818  0.18795162  1
  O  O45  1  0.37301041  0.25000000  0.93498789  1
  O  O46  1  0.87301041  0.25000000  0.56501211  1
  O  O47  1  0.29913338  0.59759402  0.08421173  1
  O  O48  1  0.46956436  0.44880182  0.68795162  1
  O  O49  1  0.41797437  0.75000000  0.52912143  1
  O  O50  1  0.53043564  0.55119818  0.31204838  1
  O  O51  1  0.58202563  0.25000000  0.47087857  1
  O  O52  1  0.86543780  0.25000000  0.30710744  1
  O  O53  1  0.20086662  0.40240598  0.58421173  1
  O  O54  1  0.79913338  0.59759402  0.41578827  1
  O  O55  1  0.96956436  0.05119818  0.81204838  1
