# generated using pymatgen
data_Sr3LaMn2O8
_symmetry_space_group_name_H-M   'P 1'
_cell_length_a   5.54781973
_cell_length_b   5.55880713
_cell_length_c   6.79642498
_cell_angle_alpha   90.00000000
_cell_angle_beta   65.91179738
_cell_angle_gamma   90.00000000
_symmetry_Int_Tables_number   1
_chemical_formula_structural   Sr3LaMn2O8
_chemical_formula_sum   'Sr3 La1 Mn2 O8'
_cell_volume   191.34466401
_cell_formula_units_Z   1
loop_
 _symmetry_equiv_pos_site_id
 _symmetry_equiv_pos_as_xyz
  1  'x, y, z'
loop_
 _atom_site_type_symbol
 _atom_site_label
 _atom_site_symmetry_multiplicity
 _atom_site_fract_x
 _atom_site_fract_y
 _atom_site_fract_z
 _atom_site_occupancy
  Sr  Sr0  1  0.35686970  -0.00000000  0.28626060  1
  Sr  Sr1  1  0.64125975  0.00000000  0.71748049  1
  Sr  Sr2  1  0.14345376  0.50000000  0.71309248  1
  La  La3  1  0.86076816  0.50000000  0.27846368  1
  Mn  Mn4  1  0.50072464  0.50000000  0.99855072  1
  Mn  Mn5  1  0.00170216  0.00000000  0.99659567  1
  O  O6  1  0.15825443  0.00000000  0.68349113  1
  O  O7  1  0.66764395  0.50000000  0.66471210  1
  O  O8  1  0.34056157  0.50000000  0.31887686  1
  O  O9  1  0.83998098  0.00000000  0.32003804  1
  O  O10  1  0.74852398  0.74268133  0.00560956  1
  O  O11  1  0.24586646  0.25731867  0.00560956  1
  O  O12  1  0.74852398  0.25731867  0.00560956  1
  O  O13  1  0.24586646  0.74268133  0.00560956  1
