# generated using pymatgen
data_Sr3LaMnCrO8
_symmetry_space_group_name_H-M   'P 1'
_cell_length_a   5.51212949
_cell_length_b   5.49592621
_cell_length_c   6.84579827
_cell_angle_alpha   90.00000000
_cell_angle_beta   66.25967247
_cell_angle_gamma   90.00000000
_symmetry_Int_Tables_number   1
_chemical_formula_structural   Sr3LaMnCrO8
_chemical_formula_sum   'Sr3 La1 Mn1 Cr1 O8'
_cell_volume   189.83905485
_cell_formula_units_Z   1
loop_
 _symmetry_equiv_pos_site_id
 _symmetry_equiv_pos_as_xyz
  1  'x, y, z'
loop_
 _atom_site_type_symbol
 _atom_site_label
 _atom_site_symmetry_multiplicity
 _atom_site_fract_x
 _atom_site_fract_y
 _atom_site_fract_z
 _atom_site_occupancy
  Sr  Sr0  1  0.85583835  0.50000000  0.28832330  1
  Sr  Sr1  1  0.35772935  -0.00000000  0.28454131  1
  Sr  Sr2  1  0.64359418  -0.00000000  0.71281165  1
  La  La3  1  0.14121237  0.50000000  0.71757526  1
  Mn  Mn4  1  0.99764981  -0.00000000  0.00470038  1
  Cr  Cr5  1  0.49721707  0.50000000  0.00556586  1
  O  O6  1  0.15978239  -0.00000000  0.68043521  1
  O  O7  1  0.66101533  0.50000000  0.67796935  1
  O  O8  1  0.33031338  0.50000000  0.33937324  1
  O  O9  1  0.84314991  0.00000000  0.31370018  1
  O  O10  1  0.24385186  0.24851238  0.99375107  1
  O  O11  1  0.76239707  0.75148762  0.99375107  1
  O  O12  1  0.24385186  0.75148762  0.99375107  1
  O  O13  1  0.76239707  0.24851238  0.99375107  1
