# generated using pymatgen
data_Sr2Nd(FeO3)3
_symmetry_space_group_name_H-M   'P 1'
_cell_length_a   5.53971856
_cell_length_b   13.49056479
_cell_length_c   5.53971856
_cell_angle_alpha   89.98127706
_cell_angle_beta   119.54755306
_cell_angle_gamma   90.01872294
_symmetry_Int_Tables_number   1
_chemical_formula_structural   Sr2Nd(FeO3)3
_chemical_formula_sum   'Sr4 Nd2 Fe6 O18'
_cell_volume   360.16221782
_cell_formula_units_Z   2
loop_
 _symmetry_equiv_pos_site_id
 _symmetry_equiv_pos_as_xyz
  1  'x, y, z'
loop_
 _atom_site_type_symbol
 _atom_site_label
 _atom_site_symmetry_multiplicity
 _atom_site_fract_x
 _atom_site_fract_y
 _atom_site_fract_z
 _atom_site_occupancy
  Sr  Sr0  1  0.16392427  0.41661447  0.83085597  1
  Sr  Sr1  1  0.49752297  0.75005253  0.49725727  1
  Sr  Sr2  1  0.16914403  0.91661447  0.83607573  1
  Sr  Sr3  1  0.50274273  0.25005253  0.50247703  1
  Nd  Nd4  1  0.83303796  0.08333300  0.16637196  1
  Nd  Nd5  1  0.83362804  0.58333300  0.16696204  1
  Fe  Fe6  1  0.16722843  0.16747187  0.83387502  1
  Fe  Fe7  1  0.49943857  0.49919513  0.49945798  1
  Fe  Fe8  1  0.83333300  0.83333300  0.16666700  1
  Fe  Fe9  1  0.83333300  0.33333300  0.16666700  1
  Fe  Fe10  1  0.16612498  0.66747187  0.83277157  1
  Fe  Fe11  1  0.50054202  0.99919513  0.50056143  1
  O  O12  1  0.95191613  0.74477907  0.96114000  1
  O  O13  1  0.27520829  0.08333300  0.60854229  1
  O  O14  1  0.62780700  0.42188793  0.28524913  1
  O  O15  1  0.03886000  0.24477907  0.04808387  1
  O  O16  1  0.39145771  0.58333300  0.72479171  1
  O  O17  1  0.71475087  0.92188793  0.37219300  1
  O  O18  1  0.84720842  0.57733819  0.63231969  1
  O  O19  1  0.17829408  0.91260786  0.31872150  1
  O  O20  1  0.52613194  0.23913560  0.99331165  1
  O  O21  1  0.29898569  0.58932781  0.18054242  1
  O  O22  1  0.65997865  0.92753140  0.85946494  1
  O  O23  1  0.98538850  0.25405914  0.51162708  1
  O  O24  1  0.68127850  0.41260786  0.82170592  1
  O  O25  1  0.00668835  0.73913560  0.47386806  1
  O  O26  1  0.36768031  0.07733819  0.15279158  1
  O  O27  1  0.14053506  0.42753140  0.34002135  1
  O  O28  1  0.48837292  0.75405914  0.01461150  1
  O  O29  1  0.81945758  0.08932781  0.70101431  1
