# generated using pymatgen
data_H14C5(NO)2
_symmetry_space_group_name_H-M   'P 1'
_cell_length_a   7.63347636
_cell_length_b   9.44212533
_cell_length_c   11.22976519
_cell_angle_alpha   90.00000000
_cell_angle_beta   93.94193835
_cell_angle_gamma   90.00000000
_symmetry_Int_Tables_number   1
_chemical_formula_structural   H14C5(NO)2
_chemical_formula_sum   'H56 C20 N8 O8'
_cell_volume   807.48440135
_cell_formula_units_Z   4
loop_
 _symmetry_equiv_pos_site_id
 _symmetry_equiv_pos_as_xyz
  1  'x, y, z'
loop_
 _atom_site_type_symbol
 _atom_site_label
 _atom_site_symmetry_multiplicity
 _atom_site_fract_x
 _atom_site_fract_y
 _atom_site_fract_z
 _atom_site_occupancy
  H  H0  1  0.04267281  0.28688627  0.94571531  1
  H  H1  1  0.18921237  0.26932258  0.82892377  1
  H  H2  1  0.34943138  0.88180917  0.32660402  1
  H  H3  1  0.10481978  0.54888095  0.35470966  1
  H  H4  1  0.36842876  0.40199263  0.45127801  1
  H  H5  1  0.81078763  0.73067742  0.17107623  1
  H  H6  1  0.54175472  0.65068747  0.40305640  1
  H  H7  1  0.57234898  0.84944505  0.53323882  1
  H  H8  1  0.45824528  0.34931253  0.59694360  1
  H  H9  1  0.65056862  0.38180917  0.17339598  1
  H  H10  1  0.54175472  0.84931253  0.90305640  1
  H  H11  1  0.14624181  0.05926652  0.39150867  1
  H  H12  1  0.20699345  0.68990982  0.44247690  1
  H  H13  1  0.10481978  0.95111905  0.85470966  1
  H  H14  1  0.59182564  0.33920016  0.32034025  1
  H  H15  1  0.42765102  0.34944505  0.96676118  1
  H  H16  1  0.28649073  0.36951815  0.08038904  1
  H  H17  1  0.14624181  0.44073348  0.89150867  1
  H  H18  1  0.18833802  0.60767143  0.70409839  1
  H  H19  1  0.97578151  0.22712204  0.15959003  1
  H  H20  1  0.81166198  0.39232857  0.29590161  1
  H  H21  1  0.22848367  0.38580376  0.57154974  1
  H  H22  1  0.63157124  0.90199263  0.04872199  1
  H  H23  1  0.04267281  0.21311373  0.44571531  1
  H  H24  1  0.79300655  0.31009018  0.55752310  1
  H  H25  1  0.71350927  0.86951815  0.41961096  1
  H  H26  1  0.81166198  0.10767143  0.79590161  1
  H  H27  1  0.85375819  0.55926652  0.10849133  1
  H  H28  1  0.18921237  0.23067742  0.32892377  1
  H  H29  1  0.65056862  0.11819083  0.67339598  1
  H  H30  1  0.77151633  0.88580376  0.92845026  1
  H  H31  1  0.89518022  0.04888095  0.14529034  1
  H  H32  1  0.79300655  0.18990982  0.05752310  1
  H  H33  1  0.77151633  0.61419624  0.42845026  1
  H  H34  1  0.45824528  0.15068747  0.09694360  1
  H  H35  1  0.95732719  0.78688627  0.55428469  1
  H  H36  1  0.42765102  0.15055495  0.46676118  1
  H  H37  1  0.40817436  0.83920016  0.17965975  1
  H  H38  1  0.97578151  0.27287796  0.65959003  1
  H  H39  1  0.81078763  0.76932258  0.67107623  1
  H  H40  1  0.34943138  0.61819083  0.82660402  1
  H  H41  1  0.85375819  0.94073348  0.60849133  1
  H  H42  1  0.89518022  0.45111905  0.64529034  1
  H  H43  1  0.59182564  0.16079984  0.82034025  1
  H  H44  1  0.57234898  0.65055495  0.03323882  1
  H  H45  1  0.40817436  0.66079984  0.67965975  1
  H  H46  1  0.63157124  0.59800737  0.54872199  1
  H  H47  1  0.28649073  0.13048185  0.58038904  1
  H  H48  1  0.95732719  0.71311373  0.05428469  1
  H  H49  1  0.02421849  0.72712204  0.34040997  1
  H  H50  1  0.20699345  0.81009018  0.94247690  1
  H  H51  1  0.02421849  0.77287796  0.84040997  1
  H  H52  1  0.71350927  0.63048185  0.91961096  1
  H  H53  1  0.18833802  0.89232857  0.20409839  1
  H  H54  1  0.22848367  0.11419624  0.07154974  1
  H  H55  1  0.36842876  0.09800737  0.95127801  1
  C  C56  1  0.70838629  0.08223110  0.32472996  1
  C  C57  1  0.70838629  0.41776890  0.82472996  1
  C  C58  1  0.65567604  0.84194530  0.96785033  1
  C  C59  1  0.30398214  0.66777883  0.74137693  1
  C  C60  1  0.16322430  0.32763637  0.91038291  1
  C  C61  1  0.16322430  0.17236363  0.41038291  1
  C  C62  1  0.29161371  0.91776890  0.67527004  1
  C  C63  1  0.14300639  0.83940448  0.85487236  1
  C  C64  1  0.65567604  0.65805470  0.46785033  1
  C  C65  1  0.69601786  0.16777883  0.75862307  1
  C  C66  1  0.83677570  0.82763637  0.58961709  1
  C  C67  1  0.14300639  0.66059552  0.35487236  1
  C  C68  1  0.30398214  0.83222117  0.24137693  1
  C  C69  1  0.29161371  0.58223110  0.17527004  1
  C  C70  1  0.69601786  0.33222117  0.25862307  1
  C  C71  1  0.85699361  0.33940448  0.64512764  1
  C  C72  1  0.83677570  0.67236363  0.08961709  1
  C  C73  1  0.34432396  0.34194530  0.53214967  1
  C  C74  1  0.34432396  0.15805470  0.03214967  1
  C  C75  1  0.85699361  0.16059552  0.14512764  1
  N  N76  1  0.26085165  0.81525551  0.76079189  1
  N  N77  1  0.31237545  0.19144552  0.50064418  1
  N  N78  1  0.73914835  0.31525551  0.73920811  1
  N  N79  1  0.26085165  0.68474449  0.26079189  1
  N  N80  1  0.68762455  0.80855448  0.49935582  1
  N  N81  1  0.68762455  0.69144552  0.99935582  1
  N  N82  1  0.31237545  0.30855448  0.00064418  1
  N  N83  1  0.73914835  0.18474449  0.23920811  1
  O  O84  1  0.76320590  0.95548687  0.30667274  1
  O  O85  1  0.76320590  0.54451313  0.80667274  1
  O  O86  1  0.23679410  0.45548687  0.19332726  1
  O  O87  1  0.62723544  0.38037743  0.91544592  1
  O  O88  1  0.62723544  0.11962257  0.41544592  1
  O  O89  1  0.37276456  0.88037743  0.58455408  1
  O  O90  1  0.37276456  0.61962257  0.08455408  1
  O  O91  1  0.23679410  0.04451313  0.69332726  1
