# generated using pymatgen
data_Sr4LaTi5O15
_symmetry_space_group_name_H-M   'P 1'
_cell_length_a   5.59001304
_cell_length_b   6.84162602
_cell_length_c   8.83356526
_cell_angle_alpha   104.95385424
_cell_angle_beta   71.55419428
_cell_angle_gamma   90.00000000
_symmetry_Int_Tables_number   1
_chemical_formula_structural   Sr4LaTi5O15
_chemical_formula_sum   'Sr4 La1 Ti5 O15'
_cell_volume   308.39629763
_cell_formula_units_Z   1
loop_
 _symmetry_equiv_pos_site_id
 _symmetry_equiv_pos_as_xyz
  1  'x, y, z'
loop_
 _atom_site_type_symbol
 _atom_site_label
 _atom_site_symmetry_multiplicity
 _atom_site_fract_x
 _atom_site_fract_y
 _atom_site_fract_z
 _atom_site_occupancy
  Sr  Sr0  1  0.39954218  0.40022234  0.20091565  1
  Sr  Sr1  1  0.79965276  0.79986867  0.40069449  1
  Sr  Sr2  1  0.20034724  0.20013133  0.59930551  1
  Sr  Sr3  1  0.60045782  0.59977766  0.79908435  1
  La  La4  1  -0.00000000  -0.00000000  0.00000000  1
  Ti  Ti5  1  0.79931184  0.30178914  0.40137632  1
  Ti  Ti6  1  0.20068816  0.69821086  0.59862368  1
  Ti  Ti7  1  0.60092989  0.09968310  0.79814022  1
  Ti  Ti8  1  -0.00000000  0.50000000  0.00000000  1
  Ti  Ti9  1  0.39907011  0.90031690  0.20185978  1
  O  O10  1  0.60635551  0.09848372  0.29468022  1
  O  O11  1  -0.00000000  0.50000000  0.50000000  1
  O  O12  1  0.39364449  0.90151628  0.70531978  1
  O  O13  1  0.80279877  0.29539847  0.90176733  1
  O  O14  1  0.19720123  0.70460153  0.09823267  1
  O  O15  1  0.70010039  0.19922308  0.59979921  1
  O  O16  1  0.09831473  0.60585586  0.80337055  1
  O  O17  1  0.50000000  -0.00000000  0.00000000  1
  O  O18  1  0.90168527  0.39414414  0.19662945  1
  O  O19  1  0.29989961  0.80077692  0.40020079  1
  O  O20  1  0.50000000  0.50000000  0.50000000  1
  O  O21  1  0.90103572  0.90151628  0.70531978  1
  O  O22  1  0.29543391  0.29539847  0.90176733  1
  O  O23  1  0.70456609  0.70460153  0.09823267  1
  O  O24  1  0.09896428  0.09848372  0.29468022  1
