# generated using pymatgen
data_Sr3PrMn2O8
_symmetry_space_group_name_H-M   'P 1'
_cell_length_a   5.53958101
_cell_length_b   5.54880787
_cell_length_c   6.78519385
_cell_angle_alpha   90.00000000
_cell_angle_beta   65.90750034
_cell_angle_gamma   90.00000000
_symmetry_Int_Tables_number   1
_chemical_formula_structural   Sr3PrMn2O8
_chemical_formula_sum   'Sr3 Pr1 Mn2 O8'
_cell_volume   190.39528256
_cell_formula_units_Z   1
loop_
 _symmetry_equiv_pos_site_id
 _symmetry_equiv_pos_as_xyz
  1  'x, y, z'
loop_
 _atom_site_type_symbol
 _atom_site_label
 _atom_site_symmetry_multiplicity
 _atom_site_fract_x
 _atom_site_fract_y
 _atom_site_fract_z
 _atom_site_occupancy
  Sr  Sr0  1  0.35650778  -0.00000000  0.28698444  1
  Sr  Sr1  1  0.64184207  0.00000000  0.71631587  1
  Sr  Sr2  1  0.14385892  0.50000000  0.71228216  1
  Pr  Pr3  1  0.86202126  0.50000000  0.27595749  1
  Mn  Mn4  1  0.50100957  0.50000000  0.99798086  1
  Mn  Mn5  1  0.00194412  0.00000000  0.99611177  1
  O  O6  1  0.15828639  -0.00000000  0.68342721  1
  O  O7  1  0.66833214  0.50000000  0.66333572  1
  O  O8  1  0.34062459  0.50000000  0.31875081  1
  O  O9  1  0.83983685  -0.00000000  0.32032631  1
  O  O10  1  0.24380665  0.25788185  0.00713184  1
  O  O11  1  0.74906150  0.74211815  0.00713184  1
  O  O12  1  0.24380665  0.74211815  0.00713184  1
  O  O13  1  0.74906150  0.25788185  0.00713184  1
