# generated using pymatgen
data_Sr2Pr(FeO3)3
_symmetry_space_group_name_H-M   'P 1'
_cell_length_a   5.53706569
_cell_length_b   5.53706569
_cell_length_c   13.57005032
_cell_angle_alpha   90.54291555
_cell_angle_beta   89.45708445
_cell_angle_gamma   120.07142222
_symmetry_Int_Tables_number   1
_chemical_formula_structural   Sr2Pr(FeO3)3
_chemical_formula_sum   'Sr4 Pr2 Fe6 O18'
_cell_volume   360.02482924
_cell_formula_units_Z   2
loop_
 _symmetry_equiv_pos_site_id
 _symmetry_equiv_pos_as_xyz
  1  'x, y, z'
loop_
 _atom_site_type_symbol
 _atom_site_label
 _atom_site_symmetry_multiplicity
 _atom_site_fract_x
 _atom_site_fract_y
 _atom_site_fract_z
 _atom_site_occupancy
  Sr  Sr0  1  0.49908948  0.50091052  0.25064048  1
  Sr  Sr1  1  0.83188020  0.16811980  0.58390797  1
  Sr  Sr2  1  0.83424452  0.16575548  0.08269352  1
  Sr  Sr3  1  0.50145280  0.49854720  0.74942503  1
  Pr  Pr4  1  0.17423235  0.82576765  0.91714231  1
  Pr  Pr5  1  0.15910065  0.84089935  0.41619069  1
  Fe  Fe6  1  0.83317835  0.16682165  0.33268585  1
  Fe  Fe7  1  0.16666700  0.83333300  0.66666700  1
  Fe  Fe8  1  0.50015465  0.49984535  0.00064715  1
  Fe  Fe9  1  0.16666700  0.83333300  0.16666700  1
  Fe  Fe10  1  0.49996416  0.50003584  0.50115179  1
  Fe  Fe11  1  0.83336884  0.16663116  0.83218121  1
  O  O12  1  0.99095608  0.52321884  0.26245401  1
  O  O13  1  0.31737683  0.17599184  0.58782606  1
  O  O14  1  0.64136990  0.84871637  0.92320196  1
  O  O15  1  0.85655184  0.65762308  0.07087899  1
  O  O16  1  0.18204937  0.30803690  0.41013104  1
  O  O17  1  0.50932584  0.98404283  0.74550794  1
  O  O18  1  0.47678116  0.00904392  0.26245401  1
  O  O19  1  0.82400816  0.68262317  0.58782606  1
  O  O20  1  0.15128363  0.35863010  0.92320196  1
  O  O21  1  0.34237692  0.14344816  0.07087899  1
  O  O22  1  0.69196310  0.81795063  0.41013104  1
  O  O23  1  0.01595717  0.49067416  0.74550794  1
  O  O24  1  0.34571488  0.65428512  0.09531741  1
  O  O25  1  0.68104470  0.31895530  0.42988153  1
  O  O26  1  0.01855654  0.98144346  0.76993076  1
  O  O27  1  0.98761812  0.01238188  0.23801559  1
  O  O28  1  0.31477646  0.68522354  0.56340224  1
  O  O29  1  0.65228930  0.34771070  0.90345247  1
