# generated using pymatgen
data_Sr2SnS5
_symmetry_space_group_name_H-M   'P 1'
_cell_length_a   4.10740521
_cell_length_b   11.87012053
_cell_length_c   15.89418116
_cell_angle_alpha   90.00000000
_cell_angle_beta   90.00000000
_cell_angle_gamma   90.00000000
_symmetry_Int_Tables_number   1
_chemical_formula_structural   Sr2SnS5
_chemical_formula_sum   'Sr8 Sn4 S20'
_cell_volume   774.92707920
_cell_formula_units_Z   4
loop_
 _symmetry_equiv_pos_site_id
 _symmetry_equiv_pos_as_xyz
  1  'x, y, z'
loop_
 _atom_site_type_symbol
 _atom_site_label
 _atom_site_symmetry_multiplicity
 _atom_site_fract_x
 _atom_site_fract_y
 _atom_site_fract_z
 _atom_site_occupancy
  Sr  Sr0  1  0.97443745  0.74745898  0.42830596  1
  Sr  Sr1  1  0.97443745  0.25254102  0.57169404  1
  Sr  Sr2  1  0.02556255  0.24745898  0.07169404  1
  Sr  Sr3  1  0.02556255  0.75254102  0.92830596  1
  Sr  Sr4  1  0.00758697  0.87644417  0.17863018  1
  Sr  Sr5  1  0.00758697  0.12355583  0.82136982  1
  Sr  Sr6  1  0.99241303  0.37644417  0.32136982  1
  Sr  Sr7  1  0.99241303  0.62355583  0.67863018  1
  Sn  Sn8  1  0.53563844  0.06324241  0.37014360  1
  Sn  Sn9  1  0.53563844  0.93675759  0.62985640  1
  Sn  Sn10  1  0.46436156  0.56324241  0.12985640  1
  Sn  Sn11  1  0.46436156  0.43675759  0.87014360  1
  S  S12  1  0.49083958  0.54953646  0.39613334  1
  S  S13  1  0.49083958  0.45046354  0.60386666  1
  S  S14  1  0.50916042  0.04953646  0.10386666  1
  S  S15  1  0.50916042  0.95046354  0.89613334  1
  S  S16  1  0.11486781  0.50000000  -0.00000000  1
  S  S17  1  0.88513219  -0.00000000  0.50000000  1
  S  S18  1  0.47897580  0.86508164  0.32199902  1
  S  S19  1  0.47897580  0.13491836  0.67800098  1
  S  S20  1  0.52102420  0.36508164  0.17800098  1
  S  S21  1  0.52102420  0.63491836  0.82199902  1
  S  S22  1  0.00444897  0.61264383  0.22566093  1
  S  S23  1  0.00444897  0.38735617  0.77433907  1
  S  S24  1  0.99555103  0.11264383  0.27433907  1
  S  S25  1  0.99555103  0.88735617  0.72566093  1
  S  S26  1  0.46707372  0.25139679  0.43228988  1
  S  S27  1  0.46707372  0.74860321  0.56771012  1
  S  S28  1  0.53292628  0.75139679  0.06771012  1
  S  S29  1  0.53292628  0.24860321  0.93228988  1
  S  S30  1  0.76819287  0.50000000  0.50000000  1
  S  S31  1  0.23180713  -0.00000000  0.00000000  1
