# generated using pymatgen
data_Sr4CuIr2O9
_symmetry_space_group_name_H-M   'P 1'
_cell_length_a   8.07284144
_cell_length_b   9.88121235
_cell_length_c   9.80417462
_cell_angle_alpha   119.94741993
_cell_angle_beta   89.96911361
_cell_angle_gamma   90.15636173
_symmetry_Int_Tables_number   1
_chemical_formula_structural   Sr4CuIr2O9
_chemical_formula_sum   'Sr12 Cu3 Ir6 O27'
_cell_volume   677.65144794
_cell_formula_units_Z   3
loop_
 _symmetry_equiv_pos_site_id
 _symmetry_equiv_pos_as_xyz
  1  'x, y, z'
loop_
 _atom_site_type_symbol
 _atom_site_label
 _atom_site_symmetry_multiplicity
 _atom_site_fract_x
 _atom_site_fract_y
 _atom_site_fract_z
 _atom_site_occupancy
  Sr  Sr0  1  0.25448162  0.66685217  0.97294710  1
  Sr  Sr1  1  0.25247451  0.02296188  0.69321942  1
  Sr  Sr2  1  0.25249755  0.32411801  0.33547466  1
  Sr  Sr3  1  0.75196631  0.33901974  0.31217429  1
  Sr  Sr4  1  0.74472796  0.69280923  0.02201458  1
  Sr  Sr5  1  0.74406008  0.98687658  0.67083405  1
  Sr  Sr6  1  0.00098529  0.67816543  0.67412597  1
  Sr  Sr7  1  0.99949944  0.32275242  0.00090863  1
  Sr  Sr8  1  0.99943990  0.00516537  0.32962379  1
  Sr  Sr9  1  0.49703471  0.65297464  0.64632206  1
  Sr  Sr10  1  0.50051576  0.35881029  0.99981545  1
  Sr  Sr11  1  0.50354654  0.00719093  0.36561921  1
  Cu  Cu12  1  0.49998779  0.06181295  0.06183643  1
  Cu  Cu13  1  0.73420868  0.38912157  0.66322697  1
  Cu  Cu14  1  0.26609744  0.72641141  0.33664810  1
  Ir  Ir15  1  0.07880007  0.32968839  0.66858499  1
  Ir  Ir16  1  0.92108246  0.66459413  0.33099942  1
  Ir  Ir17  1  0.15573360  0.99712675  0.99876592  1
  Ir  Ir18  1  0.84415017  0.99578783  0.99813092  1
  Ir  Ir19  1  0.39065809  0.33114711  0.66868936  1
  Ir  Ir20  1  0.60926706  0.66428006  0.33081906  1
  O  O21  1  0.30899010  0.16448545  0.00922112  1
  O  O22  1  0.31187616  0.00162216  0.16106080  1
  O  O23  1  0.28848246  0.83195526  0.82622920  1
  O  O24  1  0.70991810  0.82651933  0.83150293  1
  O  O25  1  0.69124453  0.15810749  0.99866894  1
  O  O26  1  0.68866532  0.00757879  0.16461034  1
  O  O27  1  0.23694332  0.15204550  0.50894970  1
  O  O28  1  0.23678395  0.49217519  0.64593133  1
  O  O29  1  0.23625430  0.35181642  0.84961692  1
  O  O30  1  0.76398532  0.84935126  0.35299489  1
  O  O31  1  0.76293055  0.64475529  0.49001452  1
  O  O32  1  0.76329392  0.50497913  0.15062041  1
  O  O33  1  0.05069246  0.49040881  0.31164372  1
  O  O34  1  0.07736030  0.68853110  0.18678145  1
  O  O35  1  0.07824469  0.81163451  0.49338899  1
  O  O36  1  0.92361683  0.49732218  0.81306975  1
  O  O37  1  0.94676858  0.17619070  0.68877833  1
  O  O38  1  0.92213182  0.31416452  0.50537897  1
  O  O39  1  0.47378931  0.48779050  0.31380960  1
  O  O40  1  0.45550485  0.68670344  0.17990800  1
  O  O41  1  0.45595727  0.81878366  0.49930814  1
  O  O42  1  0.54343595  0.50488662  0.82012386  1
  O  O43  1  0.52535128  0.17185260  0.68794273  1
  O  O44  1  0.54646286  0.31881109  0.50212802  1
  O  O45  1  0.00107432  0.16481983  0.16983359  1
  O  O46  1  0.00040860  0.83016654  0.99758477  1
  O  O47  1  0.99861781  0.99247574  0.83021858  1
