# generated using pymatgen
data_Sr9Fe(PO4)7
_symmetry_space_group_name_H-M   'P 1'
_cell_length_a   9.09304249
_cell_length_b   9.09304249
_cell_length_c   17.62106703
_cell_angle_alpha   78.77720615
_cell_angle_beta   80.46821577
_cell_angle_gamma   107.57443119
_symmetry_Int_Tables_number   1
_chemical_formula_structural   Sr9Fe(PO4)7
_chemical_formula_sum   'Sr18 Fe2 P14 O56'
_cell_volume   1322.60996728
_cell_formula_units_Z   2
loop_
 _symmetry_equiv_pos_site_id
 _symmetry_equiv_pos_as_xyz
  1  'x, y, z'
loop_
 _atom_site_type_symbol
 _atom_site_label
 _atom_site_symmetry_multiplicity
 _atom_site_fract_x
 _atom_site_fract_y
 _atom_site_fract_z
 _atom_site_occupancy
  Sr  Sr0  1  0.16263170  0.91266238  0.36544196  1
  Sr  Sr1  1  0.27679455  0.02364066  0.13526206  1
  Sr  Sr2  1  0.84109728  0.08794339  0.63526206  1
  Sr  Sr3  1  0.72189566  0.97192635  0.86544196  1
  Sr  Sr4  1  0.28658311  0.30660738  0.41260745  1
  Sr  Sr5  1  0.72142467  0.19774866  0.08735104  1
  Sr  Sr6  1  0.71490030  0.69122429  0.58735104  1
  Sr  Sr7  1  0.28078517  0.80080944  0.91260745  1
  Sr  Sr8  1  0.16182307  0.41142852  0.86023778  1
  Sr  Sr9  1  0.27019466  0.51828102  0.64021240  1
  Sr  Sr10  1  0.84150658  0.58959294  0.14021240  1
  Sr  Sr11  1  0.72833369  0.47793915  0.36023778  1
  Sr  Sr12  1  0.96091770  0.24456435  0.25154392  1
  Sr  Sr13  1  0.49662653  0.71413369  0.25045512  1
  Sr  Sr14  1  0.03541118  0.75291834  0.75045512  1
  Sr  Sr15  1  0.50389173  0.28753838  0.75154392  1
  Sr  Sr16  1  0.49503749  0.99149720  0.51651774  1
  Sr  Sr17  1  0.49198506  0.48844477  0.01651774  1
  Fe  Fe18  1  0.00103830  0.49970241  0.49974184  1
  Fe  Fe19  1  0.00055575  0.99921986  0.99974184  1
  P  P20  1  0.40683555  0.16250732  0.94278481  1
  P  P21  1  0.10490323  0.84978123  0.55755173  1
  P  P22  1  0.59266704  0.83754505  0.05755173  1
  P  P23  1  0.89470786  0.15037964  0.44278481  1
  P  P24  1  0.10655336  0.08919834  0.79572070  1
  P  P25  1  0.88494992  0.40192641  0.70438420  1
  P  P26  1  0.89368940  0.91066588  0.20438420  1
  P  P27  1  0.11508096  0.59772593  0.29572070  1
  P  P28  1  0.40723041  0.66721235  0.44746310  1
  P  P29  1  0.11349195  0.35424585  0.05277005  1
  P  P30  1  0.59298410  0.33373800  0.55277005  1
  P  P31  1  0.88532455  0.64530649  0.94746310  1
  P  P32  1  0.47418705  0.72576648  0.74897788  1
  P  P33  1  0.52525564  0.27683507  0.24897788  1
  O  O34  1  0.21214963  0.00499370  0.49420750  1
  O  O35  1  0.49714462  0.20459627  0.00719871  1
  O  O36  1  0.78820502  0.99565667  0.50719871  1
  O  O37  1  0.50079881  0.79364287  0.99420750  1
  O  O38  1  0.47537500  0.24475933  0.17165369  1
  O  O39  1  0.41174747  0.14858600  0.32390871  1
  O  O40  1  0.52750529  0.76434383  0.82390871  1
  O  O41  1  0.58358699  0.85297131  0.67165369  1
  O  O42  1  0.23797976  0.53221755  0.49076430  1
  O  O43  1  0.02283504  0.22835931  0.00972555  1
  O  O44  1  0.76191514  0.46743941  0.50972555  1
  O  O45  1  0.97701816  0.77125594  0.99076430  1
  O  O46  1  0.51006276  0.91218468  0.11567641  1
  O  O47  1  0.02717134  0.12434157  0.38521526  1
  O  O48  1  0.49044317  0.08761340  0.88521526  1
  O  O49  1  0.97213891  0.87426084  0.61567641  1
  O  O50  1  0.50121041  0.40900908  0.60612814  1
  O  O51  1  0.01461594  0.60616325  0.89468333  1
  O  O52  1  0.49915342  0.59070073  0.39468333  1
  O  O53  1  0.98486278  0.39266145  0.10612814  1
  O  O54  1  0.98695531  0.53651704  0.25057623  1
  O  O55  1  0.78727328  0.73752142  0.24943650  1
  O  O56  1  0.01304208  0.46329022  0.74943650  1
  O  O57  1  0.21290674  0.26246846  0.75057623  1
  O  O58  1  0.70358550  0.28961649  0.23521743  1
  O  O59  1  0.52631295  0.44115876  0.26398057  1
  O  O60  1  0.29486067  0.70970647  0.76398057  1
  O  O61  1  0.47516609  0.56119707  0.73521743  1
  O  O62  1  0.02093369  0.09683549  0.88084598  1
  O  O63  1  0.97779103  0.40140714  0.61923841  1
  O  O64  1  0.97935445  0.90297056  0.11923841  1
  O  O65  1  0.02231853  0.59822032  0.38084598  1
  O  O66  1  0.22692396  0.50310782  0.98610242  1
  O  O67  1  0.48822689  0.71085149  0.51519740  1
  O  O68  1  0.77395111  0.49657571  0.01519740  1
  O  O69  1  0.51078976  0.28697362  0.48610242  1
  O  O70  1  0.79216291  0.01782142  0.19539934  1
  O  O71  1  0.21347847  0.48751265  0.30455158  1
  O  O72  1  0.20793577  0.98196994  0.80455158  1
  O  O73  1  0.78677924  0.51243775  0.69539934  1
  O  O74  1  0.61180559  0.68582600  0.10576540  1
  O  O75  1  0.79308648  0.21921783  0.39468992  1
  O  O76  1  0.38609225  0.31222360  0.89468992  1
  O  O77  1  0.20840860  0.78242900  0.60576540  1
  O  O78  1  0.97362863  0.01942059  0.75433866  1
  O  O79  1  0.77352638  0.22773043  0.74550430  1
  O  O80  1  0.02676527  0.98096931  0.24550430  1
  O  O81  1  0.22624074  0.77203271  0.25433866  1
  O  O82  1  0.61133130  0.18510696  0.60307627  1
  O  O83  1  0.78855247  0.71479738  0.89734407  1
  O  O84  1  0.38785855  0.81410347  0.39734407  1
  O  O85  1  0.21181677  0.28559243  0.10307627  1
  O  O86  1  0.23835397  0.02934207  0.98855673  1
  O  O87  1  0.01853816  0.72677622  0.51209341  1
  O  O88  1  0.76113037  0.96936843  0.01209341  1
  O  O89  1  0.98210120  0.27308930  0.48855673  1
