# generated using pymatgen
data_Sr2MnRuO6
_symmetry_space_group_name_H-M   'P 1'
_cell_length_a   5.48774565
_cell_length_b   5.48774565
_cell_length_c   5.71561560
_cell_angle_alpha   61.31028608
_cell_angle_beta   61.31028619
_cell_angle_gamma   90.00000000
_symmetry_Int_Tables_number   1
_chemical_formula_structural   Sr2MnRuO6
_chemical_formula_sum   'Sr2 Mn1 Ru1 O6'
_cell_volume   126.37898024
_cell_formula_units_Z   1
loop_
 _symmetry_equiv_pos_site_id
 _symmetry_equiv_pos_as_xyz
  1  'x, y, z'
loop_
 _atom_site_type_symbol
 _atom_site_label
 _atom_site_symmetry_multiplicity
 _atom_site_fract_x
 _atom_site_fract_y
 _atom_site_fract_z
 _atom_site_occupancy
  Sr  Sr0  1  0.75000000  0.25000000  0.50000000  1
  Sr  Sr1  1  0.25000000  0.75000000  0.50000000  1
  Mn  Mn2  1  -0.00000000  -0.00000000  -0.00000000  1
  Ru  Ru3  1  0.50000000  0.50000000  -0.00000000  1
  O  O4  1  0.70570333  0.79881348  -0.00000000  1
  O  O5  1  0.29429667  0.20118652  -0.00000000  1
  O  O6  1  0.79881348  0.29429667  -0.00000000  1
  O  O7  1  0.20118652  0.70570333  -0.00000000  1
  O  O8  1  0.26596303  0.26596303  0.46807394  1
  O  O9  1  0.73403697  0.73403697  0.53192606  1
