# generated using pymatgen
data_Sr9In(PO4)7
_symmetry_space_group_name_H-M   'P 1'
_cell_length_a   9.12805520
_cell_length_b   9.12805520
_cell_length_c   17.73489412
_cell_angle_alpha   78.72956596
_cell_angle_beta   80.50547972
_cell_angle_gamma   107.44510347
_symmetry_Int_Tables_number   1
_chemical_formula_structural   Sr9In(PO4)7
_chemical_formula_sum   'Sr18 In2 P14 O56'
_cell_volume   1342.50028084
_cell_formula_units_Z   2
loop_
 _symmetry_equiv_pos_site_id
 _symmetry_equiv_pos_as_xyz
  1  'x, y, z'
loop_
 _atom_site_type_symbol
 _atom_site_label
 _atom_site_symmetry_multiplicity
 _atom_site_fract_x
 _atom_site_fract_y
 _atom_site_fract_z
 _atom_site_occupancy
  Sr  Sr0  1  0.49490773  0.20769770  0.74694243  1
  Sr  Sr1  1  0.95981875  0.74565627  0.75033113  1
  Sr  Sr2  1  0.50401260  0.78985013  0.25033113  1
  Sr  Sr3  1  0.04535987  0.25814984  0.24694243  1
  Sr  Sr4  1  0.27164820  0.01891936  0.13976675  1
  Sr  Sr5  1  0.15464428  0.91041374  0.35978366  1
  Sr  Sr6  1  0.72980260  0.98557206  0.85978366  1
  Sr  Sr7  1  0.84131389  0.08858505  0.63976675  1
  Sr  Sr8  1  0.71744013  0.69958505  0.58761959  1
  Sr  Sr9  1  0.28602577  0.80740929  0.91249086  1
  Sr  Sr10  1  0.28009985  0.30148337  0.41249086  1
  Sr  Sr11  1  0.71279536  0.19494028  0.08761959  1
  Sr  Sr12  1  0.27986710  0.53012833  0.63489543  1
  Sr  Sr13  1  0.16153195  0.41484540  0.86413090  1
  Sr  Sr14  1  0.72102369  0.47433715  0.36413090  1
  Sr  Sr15  1  0.83497624  0.58523747  0.13489543  1
  Sr  Sr16  1  0.50706466  0.00982111  0.48530554  1
  Sr  Sr17  1  0.50487334  0.50762980  0.98530554  1
  In  In18  1  0.99947467  0.50068787  0.50022868  1
  In  In19  1  0.99908345  0.00029665  0.00022868  1
  P  P20  1  0.88434927  0.89826987  0.20606725  1
  P  P21  1  0.10398171  0.59058714  0.29376111  1
  P  P22  1  0.11565175  0.10225718  0.79376111  1
  P  P23  1  0.89566289  0.40958349  0.70606725  1
  P  P24  1  0.10583135  0.35561478  0.05682815  1
  P  P25  1  0.41337652  0.66335733  0.44220484  1
  P  P26  1  0.89443783  0.64441864  0.94220484  1
  P  P27  1  0.58755707  0.33734050  0.55682815  1
  P  P28  1  0.11398585  0.86048155  0.55145547  1
  P  P29  1  0.41184539  0.16537231  0.94777386  1
  P  P30  1  0.88685383  0.14038075  0.44777386  1
  P  P31  1  0.58806298  0.83455868  0.05145547  1
  P  P32  1  0.47409199  0.22123637  0.25189581  1
  P  P33  1  0.52686782  0.77401220  0.75189581  1
  O  O34  1  0.78899484  0.21520281  0.40007584  1
  O  O35  1  0.61678835  0.69082320  0.09916020  1
  O  O36  1  0.21001660  0.78405145  0.59916020  1
  O  O37  1  0.38472135  0.31092932  0.90007584  1
  O  O38  1  0.79315964  0.71781700  0.89525180  1
  O  O39  1  0.61674695  0.19168629  0.60389304  1
  O  O40  1  0.20442067  0.27936001  0.10389304  1
  O  O41  1  0.38693121  0.81158856  0.39525180  1
  O  O42  1  0.42050245  0.64730035  0.82906092  1
  O  O43  1  0.47142009  0.73461414  0.67791254  1
  O  O44  1  0.58747332  0.35066737  0.17791254  1
  O  O45  1  0.52363872  0.25043663  0.32906092  1
  O  O46  1  0.02568778  0.62050965  0.88353892  1
  O  O47  1  0.50296781  0.40936018  0.61508325  1
  O  O48  1  0.97555657  0.38194894  0.11508325  1
  O  O49  1  0.49595143  0.59077330  0.38353892  1
  O  O50  1  0.49454019  0.21327637  0.01358661  1
  O  O51  1  0.22631334  0.00843689  0.48472913  1
  O  O52  1  0.50683398  0.78895753  0.98472913  1
  O  O53  1  0.77313702  0.99187319  0.51358661  1
  O  O54  1  0.50483491  0.71119666  0.50461458  1
  O  O55  1  0.21589861  0.50858619  0.99364366  1
  O  O56  1  0.49777016  0.29045773  0.49364366  1
  O  O57  1  0.78418876  0.49055051  0.00461458  1
  O  O58  1  0.52480043  0.93786147  0.76547345  1
  O  O59  1  0.70594187  0.79137498  0.73576381  1
  O  O60  1  0.47286121  0.05829432  0.23576381  1
  O  O61  1  0.29666508  0.20972612  0.26547345  1
  O  O62  1  0.98043024  0.89050793  0.12402090  1
  O  O63  1  0.01431004  0.60424069  0.37593943  1
  O  O64  1  0.01981988  0.10975053  0.87593943  1
  O  O65  1  0.98547117  0.39554887  0.62402090  1
  O  O66  1  0.01712673  0.74125667  0.50736426  1
  O  O67  1  0.24826189  0.02593163  0.99188802  1
  O  O68  1  0.98218035  0.25985009  0.49188802  1
  O  O69  1  0.75137907  0.97550900  0.00736426  1
  O  O70  1  0.78599922  0.23855310  0.75092648  1
  O  O71  1  0.98929835  0.03764818  0.74900595  1
  O  O72  1  0.21334587  0.76169570  0.24900595  1
  O  O73  1  0.01052041  0.96307430  0.25092648  1
  O  O74  1  0.01242957  0.10397914  0.39216529  1
  O  O75  1  0.49502650  0.90497594  0.10655131  1
  O  O76  1  0.98847275  0.89842219  0.60655131  1
  O  O77  1  0.50385557  0.09540513  0.89216529  1
  O  O78  1  0.21138294  0.99041622  0.80746810  1
  O  O79  1  0.79804386  0.51947493  0.69235221  1
  O  O80  1  0.78817286  0.00960392  0.19235221  1
  O  O81  1  0.20211567  0.48114896  0.30746810  1
  O  O82  1  0.01505985  0.23991739  0.00983307  1
  O  O83  1  0.25008476  0.52731604  0.48909076  1
  O  O84  1  0.98359320  0.76082448  0.98909076  1
  O  O85  1  0.75024954  0.47510708  0.50983307  1
  O  O86  1  0.77107293  0.72634308  0.24784887  1
  O  O87  1  0.97360323  0.51852209  0.25227613  1
  O  O88  1  0.22920177  0.27412064  0.75227613  1
  O  O89  1  0.02580805  0.48107820  0.74784887  1
