# generated using pymatgen
data_Sr2CaSn5
_symmetry_space_group_name_H-M   'P 1'
_cell_length_a   6.79821084
_cell_length_b   6.79821084
_cell_length_c   10.87128137
_cell_angle_alpha   90.00000000
_cell_angle_beta   90.00000000
_cell_angle_gamma   101.55398767
_symmetry_Int_Tables_number   1
_chemical_formula_structural   Sr2CaSn5
_chemical_formula_sum   'Sr4 Ca2 Sn10'
_cell_volume   492.24265482
_cell_formula_units_Z   2
loop_
 _symmetry_equiv_pos_site_id
 _symmetry_equiv_pos_as_xyz
  1  'x, y, z'
loop_
 _atom_site_type_symbol
 _atom_site_label
 _atom_site_symmetry_multiplicity
 _atom_site_fract_x
 _atom_site_fract_y
 _atom_site_fract_z
 _atom_site_occupancy
  Sr  Sr0  1  0.70285277  0.29714723  -0.00000000  1
  Sr  Sr1  1  0.70285277  0.29714723  0.50000000  1
  Sr  Sr2  1  0.29714723  0.70285277  0.00000000  1
  Sr  Sr3  1  0.29714723  0.70285277  0.50000000  1
  Ca  Ca4  1  0.85800531  0.85800531  0.25000000  1
  Ca  Ca5  1  0.14199469  0.14199469  0.75000000  1
  Sn  Sn6  1  0.18550095  0.18550095  0.04990225  1
  Sn  Sn7  1  0.81449905  0.81449905  0.95009775  1
  Sn  Sn8  1  0.18550095  0.18550095  0.45009775  1
  Sn  Sn9  1  0.81449905  0.81449905  0.54990225  1
  Sn  Sn10  1  0.00735525  0.41455482  0.25000000  1
  Sn  Sn11  1  0.58544518  0.99264475  0.75000000  1
  Sn  Sn12  1  0.99264475  0.58544518  0.75000000  1
  Sn  Sn13  1  0.41455482  0.00735525  0.25000000  1
  Sn  Sn14  1  0.46492013  0.46492013  0.25000000  1
  Sn  Sn15  1  0.53507987  0.53507987  0.75000000  1
