# generated using pymatgen
data_Sm6Mn(SiS7)2
_symmetry_space_group_name_H-M   'P 1'
_cell_length_a   5.68307442
_cell_length_b   10.10877414
_cell_length_c   10.10870516
_cell_angle_alpha   60.00189447
_cell_angle_beta   89.99798218
_cell_angle_gamma   89.99774016
_symmetry_Int_Tables_number   1
_chemical_formula_structural   Sm6Mn(SiS7)2
_chemical_formula_sum   'Sm6 Mn1 Si2 S14'
_cell_volume   502.94012810
_cell_formula_units_Z   1
loop_
 _symmetry_equiv_pos_site_id
 _symmetry_equiv_pos_as_xyz
  1  'x, y, z'
loop_
 _atom_site_type_symbol
 _atom_site_label
 _atom_site_symmetry_multiplicity
 _atom_site_fract_x
 _atom_site_fract_y
 _atom_site_fract_z
 _atom_site_occupancy
  Sm  Sm0  1  0.25008135  0.23388782  0.12330016  1
  Sm  Sm1  1  0.25006222  0.64275379  0.23392124  1
  Sm  Sm2  1  0.25007148  0.12337475  0.64276255  1
  Sm  Sm3  1  0.75137997  0.76758570  0.87618706  1
  Sm  Sm4  1  0.75133717  0.35618910  0.76762935  1
  Sm  Sm5  1  0.75134687  0.87624941  0.35619376  1
  Mn  Mn6  1  0.48740536  0.99984037  0.00000607  1
  Si  Si7  1  0.83531601  0.33338244  0.33331403  1
  Si  Si8  1  0.33758732  0.66668915  0.66668052  1
  S  S9  1  0.46569309  0.33335853  0.33333596  1
  S  S10  1  0.96755007  0.66668754  0.66666365  1
  S  S11  1  0.72905643  0.16094948  0.08587276  1
  S  S12  1  0.72913933  0.75306786  0.16103106  1
  S  S13  1  0.72911670  0.08590641  0.75310503  1
  S  S14  1  0.24448167  0.83698948  0.91601396  1
  S  S15  1  0.24455291  0.24689119  0.83705874  1
  S  S16  1  0.24451800  0.91605232  0.24693521  1
  S  S17  1  0.98175697  0.11110323  0.40985583  1
  S  S18  1  0.98174806  0.47907144  0.11106747  1
  S  S19  1  0.98174120  0.40990658  0.47908045  1
  S  S20  1  0.48401603  0.88915450  0.58875284  1
  S  S21  1  0.48399966  0.52214531  0.88910768  1
  S  S22  1  0.48404216  0.58876360  0.52212462  1
