# generated using pymatgen
data_Sc3Nb3(B2Ru5)2
_symmetry_space_group_name_H-M   'P 1'
_cell_length_a   3.06619674
_cell_length_b   9.50446862
_cell_length_c   9.50446862
_cell_angle_alpha   90.02551164
_cell_angle_beta   90.00000000
_cell_angle_gamma   90.00000000
_symmetry_Int_Tables_number   1
_chemical_formula_structural   Sc3Nb3(B2Ru5)2
_chemical_formula_sum   'Sc3 Nb3 B4 Ru10'
_cell_volume   276.98462099
_cell_formula_units_Z   1
loop_
 _symmetry_equiv_pos_site_id
 _symmetry_equiv_pos_as_xyz
  1  'x, y, z'
loop_
 _atom_site_type_symbol
 _atom_site_label
 _atom_site_symmetry_multiplicity
 _atom_site_fract_x
 _atom_site_fract_y
 _atom_site_fract_z
 _atom_site_occupancy
  Sc  Sc0  1  -0.00000000  0.32429652  0.17570348  1
  Sc  Sc1  1  -0.00000000  0.82536697  0.32462963  1
  Sc  Sc2  1  0.00000000  0.17537037  0.67463303  1
  Nb  Nb3  1  0.00000000  0.49965185  0.49762461  1
  Nb  Nb4  1  0.00000000  0.00237539  0.00034815  1
  Nb  Nb5  1  0.00000000  0.67496646  0.82503354  1
  B  B6  1  0.00000000  0.88009252  0.61990748  1
  B  B7  1  0.00000000  0.12124538  0.37875462  1
  B  B8  1  0.00000000  0.62158806  0.12175106  1
  B  B9  1  0.00000000  0.37824894  0.87841194  1
  Ru  Ru10  1  0.50000000  0.99855226  0.50144774  1
  Ru  Ru11  1  0.50000000  0.50329194  0.99670806  1
  Ru  Ru12  1  0.50000000  0.71526090  0.57888112  1
  Ru  Ru13  1  0.50000000  0.28139747  0.43024815  1
  Ru  Ru14  1  0.50000000  0.78096077  0.06410548  1
  Ru  Ru15  1  0.50000000  0.21873083  0.92816188  1
  Ru  Ru16  1  0.50000000  0.57183812  0.28126917  1
  Ru  Ru17  1  0.50000000  0.43589452  0.71903923  1
  Ru  Ru18  1  0.50000000  0.06975185  0.21860253  1
  Ru  Ru19  1  0.50000000  0.92111888  0.78473910  1
