# generated using pymatgen
data_SmGaSi
_symmetry_space_group_name_H-M   'P 1'
_cell_length_a   4.16962702
_cell_length_b   4.16962702
_cell_length_c   7.72374317
_cell_angle_alpha   74.34033367
_cell_angle_beta   74.34033367
_cell_angle_gamma   90.00000000
_symmetry_Int_Tables_number   1
_chemical_formula_structural   SmGaSi
_chemical_formula_sum   'Sm2 Ga2 Si2'
_cell_volume   124.11470705
_cell_formula_units_Z   2
loop_
 _symmetry_equiv_pos_site_id
 _symmetry_equiv_pos_as_xyz
  1  'x, y, z'
loop_
 _atom_site_type_symbol
 _atom_site_label
 _atom_site_symmetry_multiplicity
 _atom_site_fract_x
 _atom_site_fract_y
 _atom_site_fract_z
 _atom_site_occupancy
  Sm  Sm0  1  0.87506993  0.62506993  0.24986013  1
  Sm  Sm1  1  0.12506993  0.37506993  0.74986013  1
  Ga  Ga2  1  0.54169998  0.79169998  0.91660005  1
  Ga  Ga3  1  0.29169998  0.04169998  0.41660005  1
  Si  Si4  1  0.45823009  0.20823009  0.08353982  1
  Si  Si5  1  0.70823009  0.95823009  0.58353982  1
