# generated using pymatgen
data_SmGdSe2
_symmetry_space_group_name_H-M   'P 1'
_cell_length_a   4.15586884
_cell_length_b   4.15586885
_cell_length_c   7.25074143
_cell_angle_alpha   73.34653810
_cell_angle_beta   90.00000000
_cell_angle_gamma   120.00000006
_symmetry_Int_Tables_number   1
_chemical_formula_structural   SmGdSe2
_chemical_formula_sum   'Sm1 Gd1 Se2'
_cell_volume   102.34160329
_cell_formula_units_Z   1
loop_
 _symmetry_equiv_pos_site_id
 _symmetry_equiv_pos_as_xyz
  1  'x, y, z'
loop_
 _atom_site_type_symbol
 _atom_site_label
 _atom_site_symmetry_multiplicity
 _atom_site_fract_x
 _atom_site_fract_y
 _atom_site_fract_z
 _atom_site_occupancy
  Sm  Sm0  1  0.50000000  -0.00000000  0.50000000  1
  Gd  Gd1  1  -0.00000000  -0.00000000  0.00000000  1
  Se  Se2  1  0.25069287  0.50138575  0.24792138  1
  Se  Se3  1  0.74930713  0.49861425  0.75207862  1
