# generated using pymatgen
data_SbH5(OF3)2
_symmetry_space_group_name_H-M   'P 1'
_cell_length_a   6.77612908
_cell_length_b   7.63089090
_cell_length_c   8.25785651
_cell_angle_alpha   116.84240165
_cell_angle_beta   93.51686499
_cell_angle_gamma   112.46329244
_symmetry_Int_Tables_number   1
_chemical_formula_structural   SbH5(OF3)2
_chemical_formula_sum   'Sb2 H10 O4 F12'
_cell_volume   337.62164192
_cell_formula_units_Z   2
loop_
 _symmetry_equiv_pos_site_id
 _symmetry_equiv_pos_as_xyz
  1  'x, y, z'
loop_
 _atom_site_type_symbol
 _atom_site_label
 _atom_site_symmetry_multiplicity
 _atom_site_fract_x
 _atom_site_fract_y
 _atom_site_fract_z
 _atom_site_occupancy
  Sb  Sb0  1  0.79215635  0.55746527  0.75682472  1
  Sb  Sb1  1  0.20722874  0.44230557  0.24262321  1
  H  H2  1  0.42587206  0.87339851  0.73199031  1
  H  H3  1  0.57252778  0.12439832  0.25368056  1
  H  H4  1  0.52310084  0.13716331  0.85782519  1
  H  H5  1  0.48220818  0.86309395  0.13172673  1
  H  H6  1  0.06003347  0.13079577  0.75958521  1
  H  H7  1  0.93970975  0.86937345  0.24043351  1
  H  H8  1  0.99978295  0.99976070  0.49973237  1
  H  H9  1  0.13300695  0.29265994  0.67909131  1
  H  H10  1  0.86795858  0.70744824  0.32082474  1
  H  H11  1  0.50034525  0.99820156  0.99076726  1
  O  O12  1  0.11609556  0.14961636  0.65793247  1
  O  O13  1  0.88401318  0.85032926  0.34209612  1
  O  O14  1  0.43399237  0.99611731  0.85231597  1
  O  O15  1  0.56847255  0.00281403  0.13514245  1
  F  F16  1  0.53682202  0.59951108  0.80571545  1
  F  F17  1  0.46262988  0.40035834  0.19413039  1
  F  F18  1  0.05101979  0.51460045  0.71562857  1
  F  F19  1  0.94895525  0.48577596  0.28541144  1
  F  F20  1  0.86904601  0.75465424  0.66301338  1
  F  F21  1  0.13138462  0.24620944  0.33750873  1
  F  F22  1  0.96823685  0.79683157  0.01008059  1
  F  F23  1  0.03061087  0.20227807  0.98972097  1
  F  F24  1  0.61873941  0.30794191  0.50753906  1
  F  F25  1  0.38187655  0.69175248  0.49251482  1
  F  F26  1  0.71630090  0.35692317  0.85156381  1
  F  F27  1  0.28337329  0.64382173  0.14948067  1
