# generated using pymatgen
data_Rb4TlSbCl12
_symmetry_space_group_name_H-M   'P 1'
_cell_length_a   7.49954149
_cell_length_b   10.38621674
_cell_length_c   7.49954149
_cell_angle_alpha   90.00000000
_cell_angle_beta   90.00000000
_cell_angle_gamma   90.00000000
_symmetry_Int_Tables_number   1
_chemical_formula_structural   Rb4TlSbCl12
_chemical_formula_sum   'Rb4 Tl1 Sb1 Cl12'
_cell_volume   584.15326030
_cell_formula_units_Z   1
loop_
 _symmetry_equiv_pos_site_id
 _symmetry_equiv_pos_as_xyz
  1  'x, y, z'
loop_
 _atom_site_type_symbol
 _atom_site_label
 _atom_site_symmetry_multiplicity
 _atom_site_fract_x
 _atom_site_fract_y
 _atom_site_fract_z
 _atom_site_occupancy
  Rb  Rb0  1  0.50000000  0.21356343  -0.00000000  1
  Rb  Rb1  1  -0.00000000  0.78643657  0.50000000  1
  Rb  Rb2  1  0.50000000  0.78643657  -0.00000000  1
  Rb  Rb3  1  -0.00000000  0.21356343  0.50000000  1
  Tl  Tl4  1  -0.00000000  -0.00000000  -0.00000000  1
  Sb  Sb5  1  0.50000000  0.50000000  0.50000000  1
  Cl  Cl6  1  -0.00000000  0.25121449  -0.00000000  1
  Cl  Cl7  1  0.50000000  0.73364195  0.50000000  1
  Cl  Cl8  1  0.27203339  0.50000000  0.27203339  1
  Cl  Cl9  1  0.75066976  -0.00000000  0.75066976  1
  Cl  Cl10  1  0.27203339  0.50000000  0.72796661  1
  Cl  Cl11  1  0.75066976  -0.00000000  0.24933024  1
  Cl  Cl12  1  -0.00000000  0.74878551  -0.00000000  1
  Cl  Cl13  1  0.50000000  0.26635805  0.50000000  1
  Cl  Cl14  1  0.72796661  0.50000000  0.72796661  1
  Cl  Cl15  1  0.24933024  -0.00000000  0.24933024  1
  Cl  Cl16  1  0.72796661  0.50000000  0.27203339  1
  Cl  Cl17  1  0.24933024  -0.00000000  0.75066976  1
