# generated using pymatgen
data_Rb(SiPt)4
_symmetry_space_group_name_H-M   'P 1'
_cell_length_a   4.63187214
_cell_length_b   6.46989242
_cell_length_c   6.46989242
_cell_angle_alpha   97.36168207
_cell_angle_beta   110.97470835
_cell_angle_gamma   69.02529165
_symmetry_Int_Tables_number   1
_chemical_formula_structural   Rb(SiPt)4
_chemical_formula_sum   'Rb1 Si4 Pt4'
_cell_volume   169.04457519
_cell_formula_units_Z   1
loop_
 _symmetry_equiv_pos_site_id
 _symmetry_equiv_pos_as_xyz
  1  'x, y, z'
loop_
 _atom_site_type_symbol
 _atom_site_label
 _atom_site_symmetry_multiplicity
 _atom_site_fract_x
 _atom_site_fract_y
 _atom_site_fract_z
 _atom_site_occupancy
  Rb  Rb0  1  0.29913784  1.00000000  0.00000000  1
  Si  Si1  1  0.11343713  0.50093484  0.72768150  1
  Si  Si2  1  0.88669046  0.49906516  0.27231850  1
  Si  Si3  1  0.61437197  0.27231850  0.50093484  1
  Si  Si4  1  0.38575563  0.72768150  0.49906516  1
  Pt  Pt5  1  0.32604648  0.50199774  0.15378722  1
  Pt  Pt6  1  0.67425700  0.49800226  0.84621278  1
  Pt  Pt7  1  0.82804422  0.84621278  0.50199774  1
  Pt  Pt8  1  0.17225927  0.15378722  0.49800226  1
