# generated using pymatgen
data_NdTaTiO6
_symmetry_space_group_name_H-M   'P 1'
_cell_length_a   5.38734950
_cell_length_b   7.55131503
_cell_length_c   11.11147936
_cell_angle_alpha   90.00000000
_cell_angle_beta   90.00000000
_cell_angle_gamma   90.00000000
_symmetry_Int_Tables_number   1
_chemical_formula_structural   NdTaTiO6
_chemical_formula_sum   'Nd4 Ta4 Ti4 O24'
_cell_volume   452.03246151
_cell_formula_units_Z   4
loop_
 _symmetry_equiv_pos_site_id
 _symmetry_equiv_pos_as_xyz
  1  'x, y, z'
loop_
 _atom_site_type_symbol
 _atom_site_label
 _atom_site_symmetry_multiplicity
 _atom_site_fract_x
 _atom_site_fract_y
 _atom_site_fract_z
 _atom_site_occupancy
  Nd  Nd0  1  0.54422830  0.24861574  0.04432404  1
  Nd  Nd1  1  0.95577170  0.24861574  0.54432404  1
  Nd  Nd2  1  0.45577170  0.74861574  0.95567596  1
  Nd  Nd3  1  0.04422830  0.74861574  0.45567596  1
  Ta  Ta4  1  0.53821115  0.00626537  0.35661714  1
  Ta  Ta5  1  0.46178885  0.50626537  0.64338286  1
  Ta  Ta6  1  0.03821115  0.50626537  0.14338286  1
  Ta  Ta7  1  0.96178885  0.00626537  0.85661714  1
  Ti  Ti8  1  0.96448212  0.49274540  0.85708866  1
  Ti  Ti9  1  0.03551788  0.99274540  0.14291134  1
  Ti  Ti10  1  0.46448212  0.99274540  0.64291134  1
  Ti  Ti11  1  0.53551788  0.49274540  0.35708866  1
  O  O12  1  0.84053079  0.25222533  0.87816460  1
  O  O13  1  0.65946921  0.25222533  0.37816460  1
  O  O14  1  0.15946921  0.75222533  0.12183540  1
  O  O15  1  0.34053079  0.75222533  0.62183540  1
  O  O16  1  0.37020412  0.05988921  0.21026440  1
  O  O17  1  0.12511954  0.44078336  0.71245281  1
  O  O18  1  0.62979588  0.55988921  0.78973560  1
  O  O19  1  0.87488046  0.94078336  0.28754719  1
  O  O20  1  0.62511954  0.94078336  0.78754719  1
  O  O21  1  0.87020412  0.55988921  0.28973560  1
  O  O22  1  0.37488046  0.44078336  0.21245281  1
  O  O23  1  0.12979588  0.05988921  0.71026440  1
  O  O24  1  0.95249335  0.24890662  0.14324949  1
  O  O25  1  0.54750665  0.24890662  0.64324949  1
  O  O26  1  0.04750665  0.74890662  0.85675051  1
  O  O27  1  0.45249335  0.74890662  0.35675051  1
  O  O28  1  0.76500324  0.53825779  0.02689827  1
  O  O29  1  0.73070073  0.96231117  0.52538320  1
  O  O30  1  0.23499676  0.03825779  0.97310173  1
  O  O31  1  0.26929927  0.46231117  0.47461680  1
  O  O32  1  0.23070073  0.46231117  0.97461680  1
  O  O33  1  0.26500324  0.03825779  0.47310173  1
  O  O34  1  0.76929927  0.96231117  0.02538320  1
  O  O35  1  0.73499676  0.53825779  0.52689827  1
