# generated using pymatgen
data_H14C5(SN)2
_symmetry_space_group_name_H-M   'P 1'
_cell_length_a   7.82589163
_cell_length_b   10.11904110
_cell_length_c   12.45119474
_cell_angle_alpha   105.65848880
_cell_angle_beta   90.00000000
_cell_angle_gamma   90.00000000
_symmetry_Int_Tables_number   1
_chemical_formula_structural   H14C5(SN)2
_chemical_formula_sum   'H56 C20 S8 N8'
_cell_volume   949.42307938
_cell_formula_units_Z   4
loop_
 _symmetry_equiv_pos_site_id
 _symmetry_equiv_pos_as_xyz
  1  'x, y, z'
loop_
 _atom_site_type_symbol
 _atom_site_label
 _atom_site_symmetry_multiplicity
 _atom_site_fract_x
 _atom_site_fract_y
 _atom_site_fract_z
 _atom_site_occupancy
  H  H0  1  0.63895287  0.40649555  0.58598367  1
  H  H1  1  0.47428142  0.10570043  0.94002000  1
  H  H2  1  0.72894553  0.12259614  0.29175733  1
  H  H3  1  0.88617445  0.00227991  0.25969487  1
  H  H4  1  0.30746520  0.51209906  0.57805628  1
  H  H5  1  0.11012523  0.46998460  0.78127440  1
  H  H6  1  0.38617445  0.99772009  0.24030513  1
  H  H7  1  0.38987477  0.46998460  0.28127440  1
  H  H8  1  0.93656572  0.17795072  0.17093805  1
  H  H9  1  0.23262565  0.33228781  0.05980600  1
  H  H10  1  0.15367992  0.78018226  0.52548495  1
  H  H11  1  0.36104713  0.59350445  0.41401633  1
  H  H12  1  0.76737435  0.66771219  0.94019400  1
  H  H13  1  0.09915982  0.17768706  0.27179485  1
  H  H14  1  0.06918108  0.69694345  0.69558808  1
  H  H15  1  0.11342981  0.43620061  0.51463697  1
  H  H16  1  0.26737435  0.33228781  0.55980600  1
  H  H17  1  0.31965811  0.50958172  0.83829005  1
  H  H18  1  0.69253480  0.48790094  0.42194372  1
  H  H19  1  0.61342981  0.56379939  0.98536303  1
  H  H20  1  0.38657019  0.43620061  0.01463697  1
  H  H21  1  0.19253480  0.51209906  0.07805628  1
  H  H22  1  0.80746520  0.48790094  0.92194372  1
  H  H23  1  0.18550286  0.96054679  0.54781112  1
  H  H24  1  0.73262565  0.66771219  0.44019400  1
  H  H25  1  0.84632008  0.21981774  0.47451505  1
  H  H26  1  0.68550286  0.03945321  0.95218888  1
  H  H27  1  0.56343428  0.17795072  0.67093805  1
  H  H28  1  0.18034189  0.50958172  0.33829005  1
  H  H29  1  0.34632008  0.78018226  0.02548495  1
  H  H30  1  0.81449714  0.03945321  0.45218888  1
  H  H31  1  0.43081892  0.69694345  0.19558808  1
  H  H32  1  0.40084018  0.17768706  0.77179485  1
  H  H33  1  0.65367992  0.21981774  0.97451505  1
  H  H34  1  0.88987477  0.53001540  0.21872560  1
  H  H35  1  0.77105447  0.12259614  0.79175733  1
  H  H36  1  0.90084018  0.82231294  0.72820515  1
  H  H37  1  0.31449714  0.96054679  0.04781112  1
  H  H38  1  0.27105447  0.87740386  0.70824267  1
  H  H39  1  0.59915982  0.82231294  0.22820515  1
  H  H40  1  0.56918108  0.30305655  0.80441192  1
  H  H41  1  0.86104713  0.40649555  0.08598367  1
  H  H42  1  0.81965811  0.49041828  0.66170995  1
  H  H43  1  0.61012523  0.53001540  0.71872560  1
  H  H44  1  0.13895287  0.59350445  0.91401633  1
  H  H45  1  0.88657019  0.56379939  0.48536303  1
  H  H46  1  0.02571858  0.10570043  0.44002000  1
  H  H47  1  0.61382555  0.00227991  0.75969487  1
  H  H48  1  0.68034189  0.49041828  0.16170995  1
  H  H49  1  0.06343428  0.82204928  0.82906195  1
  H  H50  1  0.93081892  0.30305655  0.30441192  1
  H  H51  1  0.43656572  0.82204928  0.32906195  1
  H  H52  1  0.22894553  0.87740386  0.20824267  1
  H  H53  1  0.11382555  0.99772009  0.74030513  1
  H  H54  1  0.52571858  0.89429957  0.05998000  1
  H  H55  1  0.97428142  0.89429957  0.55998000  1
  C  C56  1  0.74885663  0.58178051  0.47697349  1
  C  C57  1  0.96366061  0.19716921  0.26010539  1
  C  C58  1  0.58801851  0.73545440  0.63287291  1
  C  C59  1  0.25114337  0.41821949  0.52302651  1
  C  C60  1  0.53633939  0.19716921  0.76010539  1
  C  C61  1  0.68465464  0.50410269  0.64154340  1
  C  C62  1  0.88862664  0.11765559  0.42674771  1
  C  C63  1  0.61137336  0.11765559  0.92674771  1
  C  C64  1  0.24885663  0.41821949  0.02302651  1
  C  C65  1  0.46366061  0.80283079  0.23989461  1
  C  C66  1  0.18465464  0.49589731  0.85845660  1
  C  C67  1  0.81534536  0.50410269  0.14154340  1
  C  C68  1  0.41198149  0.26454560  0.36712709  1
  C  C69  1  0.38862664  0.88234441  0.07325229  1
  C  C70  1  0.91198149  0.73545440  0.13287291  1
  C  C71  1  0.31534536  0.49589731  0.35845660  1
  C  C72  1  0.11137336  0.88234441  0.57325229  1
  C  C73  1  0.03633939  0.80283079  0.73989461  1
  C  C74  1  0.75114337  0.58178051  0.97697349  1
  C  C75  1  0.08801851  0.26454560  0.86712709  1
  S  S76  1  -0.00366222  0.23459796  0.73638649  1
  S  S77  1  0.50366222  0.23459796  0.23638649  1
  S  S78  1  1.00366222  0.76540204  0.26361351  1
  S  S79  1  0.41981638  0.13916294  0.43631555  1
  S  S80  1  0.49633778  0.76540204  0.76361351  1
  S  S81  1  0.91981638  0.86083706  0.06368445  1
  S  S82  1  0.58018362  0.86083706  0.56368445  1
  S  S83  1  0.08018362  0.13916294  0.93631555  1
  N  N84  1  0.83283288  0.61325857  0.08613102  1
  N  N85  1  0.85839911  0.10286207  0.30610414  1
  N  N86  1  0.66716712  0.61325857  0.58613102  1
  N  N87  1  0.14160089  0.89713793  0.69389586  1
  N  N88  1  0.64160089  0.10286207  0.80610414  1
  N  N89  1  0.16716712  0.38674143  0.91386898  1
  N  N90  1  0.35839911  0.89713793  0.19389586  1
  N  N91  1  0.33283288  0.38674143  0.41386898  1
