# generated using pymatgen
data_Ni6SnTe2
_symmetry_space_group_name_H-M   'P 1'
_cell_length_a   3.79495396
_cell_length_b   3.79495396
_cell_length_c   10.04631153
_cell_angle_alpha   79.11297902
_cell_angle_beta   79.11297902
_cell_angle_gamma   90.00000000
_symmetry_Int_Tables_number   1
_chemical_formula_structural   Ni6SnTe2
_chemical_formula_sum   'Ni6 Sn1 Te2'
_cell_volume   139.42691768
_cell_formula_units_Z   1
loop_
 _symmetry_equiv_pos_site_id
 _symmetry_equiv_pos_as_xyz
  1  'x, y, z'
loop_
 _atom_site_type_symbol
 _atom_site_label
 _atom_site_symmetry_multiplicity
 _atom_site_fract_x
 _atom_site_fract_y
 _atom_site_fract_z
 _atom_site_occupancy
  Ni  Ni0  1  0.49892515  0.49892515  0.00214970  1
  Ni  Ni1  1  0.59344383  0.09344383  0.81311234  1
  Ni  Ni2  1  0.09344383  0.59344383  0.81311234  1
  Ni  Ni3  1  0.40459129  0.90459129  0.19081742  1
  Ni  Ni4  1  0.90459129  0.40459129  0.19081742  1
  Ni  Ni5  1  0.19114692  0.19114692  0.61770617  1
  Sn  Sn6  1  0.99964944  0.99964944  0.00070113  1
  Te  Te7  1  0.68377524  0.68377524  0.63244952  1
  Te  Te8  1  0.32083302  0.32083302  0.35833396  1
