# generated using pymatgen
data_RbAlSi3O8
_symmetry_space_group_name_H-M   'P 1'
_cell_length_a   7.36282163
_cell_length_b   7.78695815
_cell_length_c   8.10035749
_cell_angle_alpha   111.21847134
_cell_angle_beta   105.40450423
_cell_angle_gamma   103.28747417
_symmetry_Int_Tables_number   1
_chemical_formula_structural   RbAlSi3O8
_chemical_formula_sum   'Rb2 Al2 Si6 O16'
_cell_volume   388.96381011
_cell_formula_units_Z   2
loop_
 _symmetry_equiv_pos_site_id
 _symmetry_equiv_pos_as_xyz
  1  'x, y, z'
loop_
 _atom_site_type_symbol
 _atom_site_label
 _atom_site_symmetry_multiplicity
 _atom_site_fract_x
 _atom_site_fract_y
 _atom_site_fract_z
 _atom_site_occupancy
  Rb  Rb0  1  0.14615101  0.29633475  0.29326792  1
  Rb  Rb1  1  0.85384899  0.70366525  0.70673208  1
  Al  Al2  1  0.21932391  0.81736872  0.20300671  1
  Al  Al3  1  0.78067609  0.18263128  0.79699329  1
  Si  Si4  1  0.22947722  0.20143325  0.82457276  1
  Si  Si5  1  0.77052278  0.79856675  0.17542724  1
  Si  Si6  1  0.34268151  0.60433652  0.84684237  1
  Si  Si7  1  0.35016701  0.84044551  0.60555171  1
  Si  Si8  1  0.65731849  0.39566348  0.15315763  1
  Si  Si9  1  0.64983299  0.15955449  0.39444829  1
  O  O10  1  0.28411596  0.66420163  0.67077658  1
  O  O11  1  0.71588404  0.33579837  0.32922342  1
  O  O12  1  0.40714339  0.05154478  0.29712812  1
  O  O13  1  0.41010257  0.29810687  0.03933167  1
  O  O14  1  0.59285661  0.94845522  0.70287188  1
  O  O15  1  0.58989743  0.70189313  0.96066833  1
  O  O16  1  0.25793670  0.72604264  0.37336949  1
  O  O17  1  0.27111427  0.36081754  0.73652559  1
  O  O18  1  0.74206330  0.27395736  0.62663051  1
  O  O19  1  0.72888573  0.63918246  0.26347441  1
  O  O20  1  0.22257901  0.66745223  0.98345053  1
  O  O21  1  0.23505414  0.99439217  0.67933632  1
  O  O22  1  0.77742099  0.33254777  0.01654947  1
  O  O23  1  0.76494586  0.00560783  0.32066368  1
  O  O24  1  0.98317774  0.84605531  0.14932518  1
  O  O25  1  0.01682226  0.15394469  0.85067482  1
