# generated using pymatgen
data_NaBi3(IO2)2
_symmetry_space_group_name_H-M   'P 1'
_cell_length_a   5.71493370
_cell_length_b   5.71098578
_cell_length_c   7.32330276
_cell_angle_alpha   90.00000000
_cell_angle_beta   67.03378532
_cell_angle_gamma   90.00000000
_symmetry_Int_Tables_number   1
_chemical_formula_structural   NaBi3(IO2)2
_chemical_formula_sum   'Na1 Bi3 I2 O4'
_cell_volume   220.07157930
_cell_formula_units_Z   1
loop_
 _symmetry_equiv_pos_site_id
 _symmetry_equiv_pos_as_xyz
  1  'x, y, z'
loop_
 _atom_site_type_symbol
 _atom_site_label
 _atom_site_symmetry_multiplicity
 _atom_site_fract_x
 _atom_site_fract_y
 _atom_site_fract_z
 _atom_site_occupancy
  Na  Na0  1  0.66174171  0.50000000  0.67651658  1
  Bi  Bi1  1  0.16678768  -0.00000000  0.66642464  1
  Bi  Bi2  1  0.83160616  -0.00000000  0.33678768  1
  Bi  Bi3  1  0.33235764  0.50000000  0.33528471  1
  I  I4  1  0.50256039  -0.00000000  0.99487922  1
  I  I5  1  0.99750347  0.50000000  0.00499305  1
  O  O6  1  0.49320684  0.24185413  0.49627853  1
  O  O7  1  0.01051463  0.75814587  0.49627853  1
  O  O8  1  0.01051463  0.24185413  0.49627853  1
  O  O9  1  0.49320684  0.75814587  0.49627853  1
