# generated using pymatgen
data_NaHo9(Si3O13)2
_symmetry_space_group_name_H-M   'P 1'
_cell_length_a   6.77180156
_cell_length_b   9.41755261
_cell_length_c   9.41758346
_cell_angle_alpha   59.99964516
_cell_angle_beta   89.99992536
_cell_angle_gamma   90.00000226
_symmetry_Int_Tables_number   1
_chemical_formula_structural   NaHo9(Si3O13)2
_chemical_formula_sum   'Na1 Ho9 Si6 O26'
_cell_volume   520.12871955
_cell_formula_units_Z   1
loop_
 _symmetry_equiv_pos_site_id
 _symmetry_equiv_pos_as_xyz
  1  'x, y, z'
loop_
 _atom_site_type_symbol
 _atom_site_label
 _atom_site_symmetry_multiplicity
 _atom_site_fract_x
 _atom_site_fract_y
 _atom_site_fract_z
 _atom_site_occupancy
  Na  Na0  1  0.49633981  0.66664354  0.66668535  1
  Ho  Ho1  1  0.74895700  0.23508210  0.76766895  1
  Ho  Ho2  1  0.74895994  0.99724852  0.23508504  1
  Ho  Ho3  1  0.74895855  0.76767164  0.99724726  1
  Ho  Ho4  1  0.25066096  0.76593773  0.23643056  1
  Ho  Ho5  1  0.25066428  0.99763805  0.76592870  1
  Ho  Ho6  1  0.25066505  0.23642078  0.99764243  1
  Ho  Ho7  1  0.99757847  0.33334422  0.33332863  1
  Ho  Ho8  1  0.50141094  0.33334454  0.33332785  1
  Ho  Ho9  1  0.00282043  0.66666003  0.66666953  1
  Si  Si10  1  0.74947928  0.97137911  0.62698531  1
  Si  Si11  1  0.74947671  0.40163681  0.97137492  1
  Si  Si12  1  0.74947723  0.62699042  0.40163407  1
  Si  Si13  1  0.24735452  0.02604746  0.37139520  1
  Si  Si14  1  0.24735280  0.60255675  0.02605141  1
  Si  Si15  1  0.24735265  0.37139366  0.60255703  1
  O  O16  1  0.75346943  0.00000199  0.00000122  1
  O  O17  1  0.25058833  0.99999583  -0.00000298  1
  O  O18  1  0.74877080  0.17174556  0.50526241  1
  O  O19  1  0.74877176  0.32299216  0.17174188  1
  O  O20  1  0.74877170  0.50526937  0.32298794  1
  O  O21  1  0.23820592  0.83029388  0.48419529  1
  O  O22  1  0.23820159  0.68551557  0.83029851  1
  O  O23  1  0.23820690  0.48418828  0.68551755  1
  O  O24  1  0.24996551  0.13140700  0.46978814  1
  O  O25  1  0.24996028  0.39880033  0.13140612  1
  O  O26  1  0.24996518  0.46980144  0.39880191  1
  O  O27  1  0.76339689  0.87691237  0.52211271  1
  O  O28  1  0.76339146  0.60097921  0.87690962  1
  O  O29  1  0.76339329  0.52210845  0.60097429  1
  O  O30  1  0.94120983  0.91216499  0.75190834  1
  O  O31  1  0.94120919  0.33593286  0.91215929  1
  O  O32  1  0.94121094  0.75191399  0.33593235  1
  O  O33  1  0.44161713  0.09217960  0.24922687  1
  O  O34  1  0.44161977  0.65857822  0.09218927  1
  O  O35  1  0.44161724  0.24922955  0.65858215  1
  O  O36  1  0.05739634  0.09798337  0.24428233  1
  O  O37  1  0.05739281  0.65772008  0.09799386  1
  O  O38  1  0.05739538  0.24428248  0.65772410  1
  O  O39  1  0.56225705  0.91858953  0.75433724  1
  O  O40  1  0.56225363  0.32707691  0.91858305  1
  O  O41  1  0.56225304  0.75434161  0.32707430  1
