# generated using pymatgen
data_Nd2CO5
_symmetry_space_group_name_H-M   'P 1'
_cell_length_a   3.97359502
_cell_length_b   4.05228766
_cell_length_c   15.79730523
_cell_angle_alpha   90.00000000
_cell_angle_beta   90.00000000
_cell_angle_gamma   60.64014770
_symmetry_Int_Tables_number   1
_chemical_formula_structural   Nd2CO5
_chemical_formula_sum   'Nd4 C2 O10'
_cell_volume   221.69860592
_cell_formula_units_Z   2
loop_
 _symmetry_equiv_pos_site_id
 _symmetry_equiv_pos_as_xyz
  1  'x, y, z'
loop_
 _atom_site_type_symbol
 _atom_site_label
 _atom_site_symmetry_multiplicity
 _atom_site_fract_x
 _atom_site_fract_y
 _atom_site_fract_z
 _atom_site_occupancy
  Nd  Nd0  1  0.33907381  0.32184449  0.59440321  1
  Nd  Nd1  1  0.66092619  0.67815551  0.40559679  1
  Nd  Nd2  1  0.66092619  0.67815551  0.09440321  1
  Nd  Nd3  1  0.33907381  0.32184449  0.90559679  1
  C  C4  1  0.08518043  0.82963010  0.75000000  1
  C  C5  1  0.91481957  0.17036990  0.25000000  1
  O  O6  1  0.99910219  0.00178729  0.67709780  1
  O  O7  1  0.00089781  0.99821271  0.32290220  1
  O  O8  1  0.00089781  0.99821271  0.17709780  1
  O  O9  1  0.99910219  0.00178729  0.82290220  1
  O  O10  1  0.33078931  0.33843095  0.05759210  1
  O  O11  1  0.66921069  0.66156905  0.94240790  1
  O  O12  1  0.66921069  0.66156905  0.55759210  1
  O  O13  1  0.33078931  0.33843095  0.44240790  1
  O  O14  1  0.26783852  0.46430833  0.75000000  1
  O  O15  1  0.73216148  0.53569167  0.25000000  1
