# generated using pymatgen
data_ScH3(CO2)3
_symmetry_space_group_name_H-M   'P 1'
_cell_length_a   6.77082997
_cell_length_b   9.19388188
_cell_length_c   10.54948097
_cell_angle_alpha   98.23337537
_cell_angle_beta   90.00000000
_cell_angle_gamma   90.00000000
_symmetry_Int_Tables_number   1
_chemical_formula_structural   ScH3(CO2)3
_chemical_formula_sum   'Sc4 H12 C12 O24'
_cell_volume   649.93872013
_cell_formula_units_Z   4
loop_
 _symmetry_equiv_pos_site_id
 _symmetry_equiv_pos_as_xyz
  1  'x, y, z'
loop_
 _atom_site_type_symbol
 _atom_site_label
 _atom_site_symmetry_multiplicity
 _atom_site_fract_x
 _atom_site_fract_y
 _atom_site_fract_z
 _atom_site_occupancy
  Sc  Sc0  1  0.50000000  0.50000000  0.00000000  1
  Sc  Sc1  1  0.00000000  0.00000000  0.00000000  1
  Sc  Sc2  1  0.50000000  0.00000000  0.50000000  1
  Sc  Sc3  1  0.00000000  0.50000000  0.50000000  1
  H  H4  1  0.65459277  0.20615749  0.26188562  1
  H  H5  1  0.96276560  0.63124017  0.87203192  1
  H  H6  1  0.46276560  0.86875983  0.12796808  1
  H  H7  1  0.70360390  0.29224393  0.67621283  1
  H  H8  1  0.79639610  0.79224393  0.67621283  1
  H  H9  1  0.29639610  0.70775607  0.32378717  1
  H  H10  1  0.15459277  0.29384251  0.73811438  1
  H  H11  1  0.20360390  0.20775607  0.32378717  1
  H  H12  1  0.84540723  0.70615749  0.26188562  1
  H  H13  1  0.03723440  0.36875983  0.12796808  1
  H  H14  1  0.34540723  0.79384251  0.73811438  1
  H  H15  1  0.53723440  0.13124017  0.87203192  1
  C  C16  1  0.59401924  0.84428908  0.06649920  1
  C  C17  1  0.80022017  0.91106401  0.71290815  1
  C  C18  1  0.90598076  0.34428908  0.06649920  1
  C  C19  1  0.09401924  0.65571092  0.93350080  1
  C  C20  1  0.19977983  0.08893599  0.28709185  1
  C  C21  1  0.40598076  0.15571092  0.93350080  1
  C  C22  1  0.69977983  0.41106401  0.71290815  1
  C  C23  1  0.70838373  0.24816544  0.35946194  1
  C  C24  1  0.29161627  0.75183456  0.64053806  1
  C  C25  1  0.20838373  0.25183456  0.64053806  1
  C  C26  1  0.30022017  0.58893599  0.28709185  1
  C  C27  1  0.79161627  0.74816544  0.35946194  1
  O  O28  1  0.80013343  0.49741507  0.65426401  1
  O  O29  1  0.67890443  0.85896568  0.37103924  1
  O  O30  1  0.17890443  0.64103432  0.62896076  1
  O  O31  1  0.15438695  0.31782601  0.54867678  1
  O  O32  1  0.21808376  0.55238246  0.93515243  1
  O  O33  1  0.69986657  0.99741507  0.65426401  1
  O  O34  1  0.65438695  0.18217399  0.45132322  1
  O  O35  1  0.78191624  0.44761754  0.06484757  1
  O  O36  1  0.30013343  0.00258493  0.34573599  1
  O  O37  1  0.71808376  0.94761754  0.06484757  1
  O  O38  1  0.19986657  0.50258493  0.34573599  1
  O  O39  1  0.84561305  0.68217399  0.45132322  1
  O  O40  1  0.61145128  0.71731090  0.00273471  1
  O  O41  1  0.38854872  0.28268910  0.99726529  1
  O  O42  1  0.40578719  0.54685054  0.19000601  1
  O  O43  1  0.90578719  0.95314946  0.80999399  1
  O  O44  1  0.11145128  0.78268910  0.99726529  1
  O  O45  1  0.88854872  0.21731090  0.00273471  1
  O  O46  1  0.82109557  0.35896568  0.37103924  1
  O  O47  1  0.32109557  0.14103432  0.62896076  1
  O  O48  1  0.59421281  0.45314946  0.80999399  1
  O  O49  1  0.28191624  0.05238246  0.93515243  1
  O  O50  1  0.34561305  0.81782601  0.54867678  1
  O  O51  1  0.09421281  0.04685054  0.19000601  1
