# generated using pymatgen
data_NbSn6OF15
_symmetry_space_group_name_H-M   'P 1'
_cell_length_a   8.07149325
_cell_length_b   10.49337614
_cell_length_c   11.06694342
_cell_angle_alpha   89.98031520
_cell_angle_beta   90.00000000
_cell_angle_gamma   67.38112449
_symmetry_Int_Tables_number   1
_chemical_formula_structural   NbSn6OF15
_chemical_formula_sum   'Nb2 Sn12 O2 F30'
_cell_volume   865.24242638
_cell_formula_units_Z   2
loop_
 _symmetry_equiv_pos_site_id
 _symmetry_equiv_pos_as_xyz
  1  'x, y, z'
loop_
 _atom_site_type_symbol
 _atom_site_label
 _atom_site_symmetry_multiplicity
 _atom_site_fract_x
 _atom_site_fract_y
 _atom_site_fract_z
 _atom_site_occupancy
  Nb  Nb0  1  0.33157237  0.99452325  0.23594082  1
  Nb  Nb1  1  0.67390438  0.99452325  0.73594082  1
  Sn  Sn2  1  0.45484406  0.29872982  0.46707104  1
  Sn  Sn3  1  0.75322980  0.70152081  0.03137546  1
  Sn  Sn4  1  0.54524938  0.70152081  0.53137546  1
  Sn  Sn5  1  0.24642612  0.29872982  0.96707104  1
  Sn  Sn6  1  0.87067819  0.41322365  0.31703073  1
  Sn  Sn7  1  0.28279835  0.58732044  0.18251671  1
  Sn  Sn8  1  0.12988121  0.58732044  0.68251671  1
  Sn  Sn9  1  0.71609816  0.41322365  0.81703073  1
  Sn  Sn10  1  0.74369609  0.15163811  0.09479381  1
  Sn  Sn11  1  0.89396589  0.84926392  0.40456866  1
  Sn  Sn12  1  0.25677019  0.84926392  0.90456866  1
  Sn  Sn13  1  0.10466580  0.15163811  0.59479381  1
  O  O14  1  0.36008044  0.93204327  0.08298325  1
  O  O15  1  0.70787629  0.93204327  0.58298325  1
  F  F16  1  0.80760869  0.68349879  0.45878064  1
  F  F17  1  0.49165992  0.31472764  0.04040508  1
  F  F18  1  0.19361244  0.31472764  0.54040508  1
  F  F19  1  0.50889252  0.68349879  0.95878064  1
  F  F20  1  0.43634924  0.13653685  0.21510207  1
  F  F21  1  0.57192359  0.86639965  0.29290478  1
  F  F22  1  0.56167675  0.86639965  0.79290478  1
  F  F23  1  0.42711391  0.13653685  0.71510207  1
  F  F24  1  0.60962448  0.52791389  0.40815819  1
  F  F25  1  0.13838245  0.47184647  0.09161038  1
  F  F26  1  0.38977108  0.47184647  0.59161038  1
  F  F27  1  0.86246163  0.52791389  0.90815819  1
  F  F28  1  0.84952531  0.26704985  0.98320153  1
  F  F29  1  0.11540251  0.73322476  0.51748939  1
  F  F30  1  0.15137274  0.73322476  0.01748939  1
  F  F31  1  0.88342484  0.26704985  0.48320153  1
  F  F32  1  0.08972876  0.13968058  0.21031461  1
  F  F33  1  0.22852388  0.86373664  0.29740438  1
  F  F34  1  0.90773948  0.86373664  0.79740438  1
  F  F35  1  0.77059066  0.13968058  0.71031461  1
  F  F36  1  0.72683439  0.56320086  0.15980394  1
  F  F37  1  0.28941449  0.43713036  0.34014893  1
  F  F38  1  0.27345515  0.43713036  0.84014893  1
  F  F39  1  0.70996474  0.56320086  0.65980394  1
  F  F40  1  0.70989342  0.30727736  0.24364561  1
  F  F41  1  0.01742961  0.69213632  0.25556610  1
  F  F42  1  0.29043406  0.69213632  0.75556610  1
  F  F43  1  0.98282922  0.30727736  0.74364561  1
  F  F44  1  0.29392751  0.06737669  0.41918389  1
  F  F45  1  0.63869580  0.06737669  0.91918389  1
