# generated using pymatgen
data_Nd2FeCo3Si4
_symmetry_space_group_name_H-M   'P 1'
_cell_length_a   3.96350352
_cell_length_b   3.96350352
_cell_length_c   9.97687338
_cell_angle_alpha   90.00000000
_cell_angle_beta   90.00000000
_cell_angle_gamma   90.00000000
_symmetry_Int_Tables_number   1
_chemical_formula_structural   Nd2FeCo3Si4
_chemical_formula_sum   'Nd2 Fe1 Co3 Si4'
_cell_volume   156.73029713
_cell_formula_units_Z   1
loop_
 _symmetry_equiv_pos_site_id
 _symmetry_equiv_pos_as_xyz
  1  'x, y, z'
loop_
 _atom_site_type_symbol
 _atom_site_label
 _atom_site_symmetry_multiplicity
 _atom_site_fract_x
 _atom_site_fract_y
 _atom_site_fract_z
 _atom_site_occupancy
  Nd  Nd0  1  0.00000000  0.00000000  0.00182690  1
  Nd  Nd1  1  0.50000000  0.50000000  0.49817310  1
  Fe  Fe2  1  -0.00000000  0.50000000  0.25000000  1
  Co  Co3  1  0.50000000  -0.00000000  0.75000000  1
  Co  Co4  1  0.50000000  0.00000000  0.25000000  1
  Co  Co5  1  0.00000000  0.50000000  0.75000000  1
  Si  Si6  1  0.50000000  0.50000000  0.13653182  1
  Si  Si7  1  0.00000000  0.00000000  0.63308075  1
  Si  Si8  1  0.00000000  0.00000000  0.36346818  1
  Si  Si9  1  0.50000000  0.50000000  0.86691925  1
