# generated using pymatgen
data_PrH18(BrO6)3
_symmetry_space_group_name_H-M   'P 1'
_cell_length_a   7.04005193
_cell_length_b   12.00574542
_cell_length_c   12.00589468
_cell_angle_alpha   60.00041274
_cell_angle_beta   90.00000000
_cell_angle_gamma   90.00000000
_symmetry_Int_Tables_number   1
_chemical_formula_structural   PrH18(BrO6)3
_chemical_formula_sum   'Pr2 H36 Br6 O36'
_cell_volume   878.80386800
_cell_formula_units_Z   2
loop_
 _symmetry_equiv_pos_site_id
 _symmetry_equiv_pos_as_xyz
  1  'x, y, z'
loop_
 _atom_site_type_symbol
 _atom_site_label
 _atom_site_symmetry_multiplicity
 _atom_site_fract_x
 _atom_site_fract_y
 _atom_site_fract_z
 _atom_site_occupancy
  Pr  Pr0  1  0.74659621  0.66666990  0.66666020  1
  Pr  Pr1  1  0.24659621  0.33333010  0.33333980  1
  H  H2  1  0.42922147  0.63036950  0.49914043  1
  H  H3  1  0.42922239  0.49914537  0.87047425  1
  H  H4  1  0.42921547  0.87049213  0.63037105  1
  H  H5  1  0.42921547  0.49913682  0.63037105  1
  H  H6  1  0.42922147  0.87049007  0.49914043  1
  H  H7  1  0.42922239  0.63038038  0.87047425  1
  H  H8  1  0.57125810  0.36994552  0.50033535  1
  H  H9  1  0.57126032  0.50032938  0.12973467  1
  H  H10  1  0.57126735  0.12971709  0.36994628  1
  H  H11  1  0.57126735  0.50033663  0.36994628  1
  H  H12  1  0.57125810  0.12971913  0.50033535  1
  H  H13  1  0.57126032  0.36993595  0.12973467  1
  H  H14  1  0.92922147  0.36963050  0.50085957  1
  H  H15  1  0.92922239  0.50085463  0.12952575  1
  H  H16  1  0.92921547  0.12950787  0.36962895  1
  H  H17  1  0.92921547  0.50086318  0.36962895  1
  H  H18  1  0.92922147  0.12950993  0.50085957  1
  H  H19  1  0.92922239  0.36961962  0.12952575  1
  H  H20  1  0.07125810  0.63005448  0.49966465  1
  H  H21  1  0.07126032  0.49967062  0.87026533  1
  H  H22  1  0.07126735  0.87028291  0.63005372  1
  H  H23  1  0.07126735  0.49966337  0.63005372  1
  H  H24  1  0.07125810  0.87028087  0.49966465  1
  H  H25  1  0.07126032  0.63006405  0.87026533  1
  H  H26  1  0.75814108  0.88215904  0.74792662  1
  H  H27  1  0.75814269  0.74793014  0.36991600  1
  H  H28  1  0.75814838  0.36991254  0.88215045  1
  H  H29  1  0.75814838  0.74793701  0.88215045  1
  H  H30  1  0.75814108  0.36991433  0.74792662  1
  H  H31  1  0.75814269  0.88215386  0.36991600  1
  H  H32  1  0.25814108  0.11784096  0.25207338  1
  H  H33  1  0.25814269  0.25206986  0.63008400  1
  H  H34  1  0.25814838  0.63008746  0.11784955  1
  H  H35  1  0.25814838  0.25206299  0.11784955  1
  H  H36  1  0.25814108  0.63008567  0.25207338  1
  H  H37  1  0.25814269  0.11784614  0.63008400  1
  Br  Br38  1  0.75565068  0.13411011  0.13412276  1
  Br  Br39  1  0.75565158  0.13411522  0.73176956  1
  Br  Br40  1  0.75565068  0.73176714  0.13412276  1
  Br  Br41  1  0.25565068  0.86588989  0.86587724  1
  Br  Br42  1  0.25565158  0.86588478  0.26823044  1
  Br  Br43  1  0.25565068  0.26823286  0.86587724  1
  O  O44  1  0.73495340  0.78900658  0.78898406  1
  O  O45  1  0.73496020  0.78899590  0.42200821  1
  O  O46  1  0.73495340  0.42200936  0.78898406  1
  O  O47  1  0.23495340  0.21099342  0.21101594  1
  O  O48  1  0.23496020  0.21100410  0.57799179  1
  O  O49  1  0.23495340  0.57799064  0.21101594  1
  O  O50  1  0.75099733  0.07183854  0.29709529  1
  O  O51  1  0.75099232  0.29709070  0.63106230  1
  O  O52  1  0.75099659  0.63105831  0.07185624  1
  O  O53  1  0.75099659  0.29708545  0.07185624  1
  O  O54  1  0.75099733  0.63106617  0.29709529  1
  O  O55  1  0.75099232  0.07184700  0.63106230  1
  O  O56  1  0.25099733  0.92816146  0.70290471  1
  O  O57  1  0.25099232  0.70290930  0.36893770  1
  O  O58  1  0.25099659  0.36894169  0.92814376  1
  O  O59  1  0.25099659  0.70291455  0.92814376  1
  O  O60  1  0.25099733  0.36893383  0.70290471  1
  O  O61  1  0.25099232  0.92815300  0.36893770  1
  O  O62  1  0.50554576  0.57745309  0.57744593  1
  O  O63  1  0.50555774  0.57745441  0.84509119  1
  O  O64  1  0.50554576  0.84510098  0.57744593  1
  O  O65  1  0.49326685  0.42251288  0.42251683  1
  O  O66  1  0.49325508  0.42250995  0.15498011  1
  O  O67  1  0.49326685  0.15497029  0.42251683  1
  O  O68  1  0.00554576  0.42254691  0.42255407  1
  O  O69  1  0.00555774  0.42254559  0.15490881  1
  O  O70  1  0.00554576  0.15489902  0.42255407  1
  O  O71  1  0.99326685  0.57748712  0.57748317  1
  O  O72  1  0.99325508  0.57749005  0.84501989  1
  O  O73  1  0.99326685  0.84502971  0.57748317  1
  O  O74  1  0.54706896  0.09729369  0.09731510  1
  O  O75  1  0.54708092  0.09729987  0.80540027  1
  O  O76  1  0.54706896  0.80539121  0.09731510  1
  O  O77  1  0.04706896  0.90270631  0.90268490  1
  O  O78  1  0.04708092  0.90270013  0.19459973  1
  O  O79  1  0.04706896  0.19460879  0.90268490  1
