# generated using pymatgen
data_Nd7In6Ni5Ge3
_symmetry_space_group_name_H-M   'P 1'
_cell_length_a   4.16333997
_cell_length_b   11.47613096
_cell_length_c   11.46898168
_cell_angle_alpha   119.99464306
_cell_angle_beta   90.00000000
_cell_angle_gamma   90.00000000
_symmetry_Int_Tables_number   1
_chemical_formula_structural   Nd7In6Ni5Ge3
_chemical_formula_sum   'Nd7 In6 Ni5 Ge3'
_cell_volume   474.58750831
_cell_formula_units_Z   1
loop_
 _symmetry_equiv_pos_site_id
 _symmetry_equiv_pos_as_xyz
  1  'x, y, z'
loop_
 _atom_site_type_symbol
 _atom_site_label
 _atom_site_symmetry_multiplicity
 _atom_site_fract_x
 _atom_site_fract_y
 _atom_site_fract_z
 _atom_site_occupancy
  Nd  Nd0  1  -0.00000000  0.91551763  0.62096041  1
  Nd  Nd1  1  -0.00000000  0.37917935  0.29425671  1
  Nd  Nd2  1  -0.00000000  0.70584651  0.08487411  1
  Nd  Nd3  1  -0.00000000  0.07549509  0.37801542  1
  Nd  Nd4  1  -0.00000000  0.62164629  0.69731529  1
  Nd  Nd5  1  -0.00000000  0.30255056  0.92455480  1
  Nd  Nd6  1  -0.00000000  0.00008608  -0.00003957  1
  In  In7  1  0.50000000  0.65038060  0.48576684  1
  In  In8  1  0.50000000  0.51418472  0.16450963  1
  In  In9  1  0.50000000  0.83543730  0.34981340  1
  In  In10  1  0.50000000  0.35664251  0.51876094  1
  In  In11  1  0.50000000  0.48104092  0.83782477  1
  In  In12  1  0.50000000  0.16204864  0.64330939  1
  Ni  Ni13  1  0.00000000  0.66672776  0.33335892  1
  Ni  Ni14  1  -0.00000000  0.33337769  0.66676803  1
  Ni  Ni15  1  0.50000000  0.91794685  0.16425340  1
  Ni  Ni16  1  0.50000000  0.83570795  0.75360237  1
  Ni  Ni17  1  0.50000000  0.24637155  0.08216083  1
  Ge  Ge18  1  0.50000000  0.07710119  0.84540267  1
  Ge  Ge19  1  0.50000000  0.15453194  0.23179605  1
  Ge  Ge20  1  0.50000000  0.76817887  0.92273559  1
