# generated using pymatgen
data_NdGa2Pt3
_symmetry_space_group_name_H-M   'P 1'
_cell_length_a   4.06831058
_cell_length_b   5.61335295
_cell_length_c   5.61335216
_cell_angle_alpha   59.93241131
_cell_angle_beta   90.00000000
_cell_angle_gamma   90.00000000
_symmetry_Int_Tables_number   1
_chemical_formula_structural   NdGa2Pt3
_chemical_formula_sum   'Nd1 Ga2 Pt3'
_cell_volume   110.94128274
_cell_formula_units_Z   1
loop_
 _symmetry_equiv_pos_site_id
 _symmetry_equiv_pos_as_xyz
  1  'x, y, z'
loop_
 _atom_site_type_symbol
 _atom_site_label
 _atom_site_symmetry_multiplicity
 _atom_site_fract_x
 _atom_site_fract_y
 _atom_site_fract_z
 _atom_site_occupancy
  Nd  Nd0  1  -0.00000000  0.99997479  0.00002521  1
  Ga  Ga1  1  0.00000000  0.33311852  0.33319208  1
  Ga  Ga2  1  0.00000000  0.66680792  0.66688148  1
  Pt  Pt3  1  0.50000000  0.50000913  0.49999087  1
  Pt  Pt4  1  0.50000000  0.49999772  0.00000808  1
  Pt  Pt5  1  0.50000000  -0.00000808  0.50000228  1
