# generated using pymatgen
data_HfTe3Se8
_symmetry_space_group_name_H-M   'P 1'
_cell_length_a   7.27136218
_cell_length_b   9.62180354
_cell_length_c   13.24083618
_cell_angle_alpha   77.83174725
_cell_angle_beta   80.86891185
_cell_angle_gamma   54.83502761
_symmetry_Int_Tables_number   1
_chemical_formula_structural   HfTe3Se8
_chemical_formula_sum   'Hf2 Te6 Se16'
_cell_volume   739.48906407
_cell_formula_units_Z   2
loop_
 _symmetry_equiv_pos_site_id
 _symmetry_equiv_pos_as_xyz
  1  'x, y, z'
loop_
 _atom_site_type_symbol
 _atom_site_label
 _atom_site_symmetry_multiplicity
 _atom_site_fract_x
 _atom_site_fract_y
 _atom_site_fract_z
 _atom_site_occupancy
  Hf  Hf0  1  0.34529032  0.75664314  0.00199398  1
  Hf  Hf1  1  0.65470968  0.24335686  0.99800602  1
  Te  Te2  1  0.38848418  0.67317748  0.60662223  1
  Te  Te3  1  0.06606170  0.86341166  0.28157315  1
  Te  Te4  1  0.93393830  0.13658834  0.71842685  1
  Te  Te5  1  0.02950387  0.45933396  0.18334764  1
  Te  Te6  1  0.61151582  0.32682252  0.39337777  1
  Te  Te7  1  0.97049613  0.54066604  0.81665236  1
  Se  Se8  1  0.45991764  0.79170344  0.16224785  1
  Se  Se9  1  0.03450190  0.23104253  0.34594005  1
  Se  Se10  1  0.53225405  0.31132275  0.59273737  1
  Se  Se11  1  0.94905574  0.41232793  0.65683543  1
  Se  Se12  1  0.05094426  0.58767207  0.34316457  1
  Se  Se13  1  0.43835035  0.18709792  0.16751672  1
  Se  Se14  1  0.76518384  0.45126971  0.01861266  1
  Se  Se15  1  0.09920428  0.09072059  0.90377641  1
  Se  Se16  1  0.46774595  0.68867725  0.40726263  1
  Se  Se17  1  0.56164965  0.81290208  0.83248328  1
  Se  Se18  1  0.72663669  0.00419118  0.42939042  1
  Se  Se19  1  0.27336331  0.99580882  0.57060958  1
  Se  Se20  1  0.90079572  0.90927941  0.09622359  1
  Se  Se21  1  0.96549810  0.76895747  0.65405995  1
  Se  Se22  1  0.23481616  0.54873029  0.98138734  1
  Se  Se23  1  0.54008236  0.20829656  0.83775215  1
