# generated using pymatgen
data_Pr4NiS7
_symmetry_space_group_name_H-M   'P 1'
_cell_length_a   6.81965846
_cell_length_b   9.85344521
_cell_length_c   9.85344521
_cell_angle_alpha   119.99999978
_cell_angle_beta   90.00000000
_cell_angle_gamma   90.00000000
_symmetry_Int_Tables_number   1
_chemical_formula_structural   Pr4NiS7
_chemical_formula_sum   'Pr8 Ni2 S14'
_cell_volume   573.41555455
_cell_formula_units_Z   2
loop_
 _symmetry_equiv_pos_site_id
 _symmetry_equiv_pos_as_xyz
  1  'x, y, z'
loop_
 _atom_site_type_symbol
 _atom_site_label
 _atom_site_symmetry_multiplicity
 _atom_site_fract_x
 _atom_site_fract_y
 _atom_site_fract_z
 _atom_site_occupancy
  Pr  Pr0  1  0.82968910  0.66666700  0.33333300  1
  Pr  Pr1  1  0.32968910  0.33333300  0.66666700  1
  Pr  Pr2  1  0.78082742  0.62658103  0.84079353  1
  Pr  Pr3  1  0.78082742  0.21421250  0.37341897  1
  Pr  Pr4  1  0.28082742  0.37341897  0.15920647  1
  Pr  Pr5  1  0.78082742  0.15920647  0.78578750  1
  Pr  Pr6  1  0.28082742  0.78578750  0.62658103  1
  Pr  Pr7  1  0.28082742  0.84079353  0.21421250  1
  Ni  Ni8  1  0.97391516  0.00000000  0.00000000  1
  Ni  Ni9  1  0.47391516  0.00000000  0.00000000  1
  S  S10  1  0.54505311  0.48715059  0.55562683  1
  S  S11  1  0.54505311  0.06847624  0.51284941  1
  S  S12  1  0.04505311  0.51284941  0.44437317  1
  S  S13  1  0.54505311  0.44437317  0.93152376  1
  S  S14  1  0.04505311  0.93152376  0.48715059  1
  S  S15  1  0.04505311  0.55562683  0.06847624  1
  S  S16  1  0.43792664  0.66666700  0.33333300  1
  S  S17  1  0.93792664  0.33333300  0.66666700  1
  S  S18  1  0.69494251  0.90234087  0.12652408  1
  S  S19  1  0.69494251  0.22418321  0.09765913  1
  S  S20  1  0.19494251  0.09765913  0.87347592  1
  S  S21  1  0.69494251  0.87347592  0.77581679  1
  S  S22  1  0.19494251  0.77581679  0.90234087  1
  S  S23  1  0.19494251  0.12652408  0.22418321  1
