# generated using pymatgen
data_Na2Sr3P4
_symmetry_space_group_name_H-M   'P 1'
_cell_length_a   7.37551120
_cell_length_b   8.01130652
_cell_length_c   15.29673219
_cell_angle_alpha   90.02297828
_cell_angle_beta   90.00000000
_cell_angle_gamma   90.00000000
_symmetry_Int_Tables_number   1
_chemical_formula_structural   Na2Sr3P4
_chemical_formula_sum   'Na8 Sr12 P16'
_cell_volume   903.84529939
_cell_formula_units_Z   4
loop_
 _symmetry_equiv_pos_site_id
 _symmetry_equiv_pos_as_xyz
  1  'x, y, z'
loop_
 _atom_site_type_symbol
 _atom_site_label
 _atom_site_symmetry_multiplicity
 _atom_site_fract_x
 _atom_site_fract_y
 _atom_site_fract_z
 _atom_site_occupancy
  Na  Na0  1  0.13638718  0.49079868  0.74970122  1
  Na  Na1  1  0.63638718  0.00920132  0.75029878  1
  Na  Na2  1  0.86361282  0.50920132  0.25029878  1
  Na  Na3  1  0.36361282  0.99079868  0.24970122  1
  Na  Na4  1  0.31599056  0.81736093  0.87459641  1
  Na  Na5  1  0.81599056  0.68263907  0.62540359  1
  Na  Na6  1  0.68400944  0.18263907  0.12540359  1
  Na  Na7  1  0.18400944  0.31736093  0.37459641  1
  Sr  Sr8  1  0.46322673  0.30567361  0.89792514  1
  Sr  Sr9  1  0.96322673  0.19432639  0.60207486  1
  Sr  Sr10  1  0.53717939  0.69115289  0.39785663  1
  Sr  Sr11  1  0.03717939  0.80884711  0.10214337  1
  Sr  Sr12  1  0.53677327  0.69432639  0.10207486  1
  Sr  Sr13  1  0.03677327  0.80567361  0.39792514  1
  Sr  Sr14  1  0.46282061  0.30884711  0.60214337  1
  Sr  Sr15  1  0.96282061  0.19115289  0.89785663  1
  Sr  Sr16  1  0.68422170  0.18629235  0.37268993  1
  Sr  Sr17  1  0.18422170  0.31370765  0.12731007  1
  Sr  Sr18  1  0.31577830  0.81370765  0.62731007  1
  Sr  Sr19  1  0.81577830  0.68629235  0.87268993  1
  P  P20  1  0.13501981  0.52759040  0.96490140  1
  P  P21  1  0.63501981  0.97240960  0.53509860  1
  P  P22  1  0.86678934  0.47127206  0.46509950  1
  P  P23  1  0.36678934  0.02872794  0.03490050  1
  P  P24  1  0.86498019  0.47240960  0.03509860  1
  P  P25  1  0.36498019  0.02759040  0.46490140  1
  P  P26  1  0.13321066  0.52872794  0.53490050  1
  P  P27  1  0.63321066  0.97127206  0.96509950  1
  P  P28  1  0.02055739  0.92152666  0.75063566  1
  P  P29  1  0.52055739  0.57847334  0.74936434  1
  P  P30  1  0.97944261  0.07847334  0.24936434  1
  P  P31  1  0.47944261  0.42152666  0.25063566  1
  P  P32  1  0.24332873  0.11783579  0.74927251  1
  P  P33  1  0.74332873  0.38216421  0.75072749  1
  P  P34  1  0.75667127  0.88216421  0.25072749  1
  P  P35  1  0.25667127  0.61783579  0.24927251  1
