# generated using pymatgen
data_NaFeSnO4
_symmetry_space_group_name_H-M   'P 1'
_cell_length_a   3.12111889
_cell_length_b   9.45848916
_cell_length_c   11.15064667
_cell_angle_alpha   90.00000000
_cell_angle_beta   90.00000000
_cell_angle_gamma   90.00000000
_symmetry_Int_Tables_number   1
_chemical_formula_structural   NaFeSnO4
_chemical_formula_sum   'Na4 Fe4 Sn4 O16'
_cell_volume   329.17901184
_cell_formula_units_Z   4
loop_
 _symmetry_equiv_pos_site_id
 _symmetry_equiv_pos_as_xyz
  1  'x, y, z'
loop_
 _atom_site_type_symbol
 _atom_site_label
 _atom_site_symmetry_multiplicity
 _atom_site_fract_x
 _atom_site_fract_y
 _atom_site_fract_z
 _atom_site_occupancy
  Na  Na0  1  0.25000000  0.25708228  0.84908902  1
  Na  Na1  1  0.25000000  0.75708228  0.65091098  1
  Na  Na2  1  0.75000000  0.74091408  0.15390981  1
  Na  Na3  1  0.75000000  0.24091408  0.34609019  1
  Fe  Fe4  1  0.25000000  0.91920030  0.39451280  1
  Fe  Fe5  1  0.25000000  0.41920030  0.10548720  1
  Fe  Fe6  1  0.25000000  0.93479044  0.88599405  1
  Fe  Fe7  1  0.25000000  0.43479044  0.61400595  1
  Sn  Sn8  1  0.75000000  0.08365129  0.60299422  1
  Sn  Sn9  1  0.75000000  0.58365129  0.89700578  1
  Sn  Sn10  1  0.75000000  0.06264884  0.11244189  1
  Sn  Sn11  1  0.75000000  0.56264884  0.38755811  1
  O  O12  1  0.25000000  0.91896903  0.07250302  1
  O  O13  1  0.25000000  0.41896903  0.42749698  1
  O  O14  1  0.75000000  0.07395913  0.92499596  1
  O  O15  1  0.75000000  0.57395913  0.57500404  1
  O  O16  1  0.25000000  0.70670365  0.34540745  1
  O  O17  1  0.25000000  0.20670365  0.15459255  1
  O  O18  1  0.75000000  0.29699667  0.65460373  1
  O  O19  1  0.75000000  0.79699667  0.84539627  1
  O  O20  1  0.25000000  0.02251925  0.71705848  1
  O  O21  1  0.25000000  0.52251925  0.78294152  1
  O  O22  1  0.75000000  0.97860702  0.28609145  1
  O  O23  1  0.75000000  0.47860702  0.21390855  1
  O  O24  1  0.25000000  0.61888694  0.02094719  1
  O  O25  1  0.25000000  0.11888694  0.47905281  1
  O  O26  1  0.75000000  0.38507110  0.98527444  1
  O  O27  1  0.75000000  0.88507110  0.51472556  1
