# generated using pymatgen
data_Na(V3S4)2
_symmetry_space_group_name_H-M   'P 1'
_cell_length_a   3.25861010
_cell_length_b   9.11235816
_cell_length_c   9.11577334
_cell_angle_alpha   59.99858555
_cell_angle_beta   89.99923968
_cell_angle_gamma   89.99973557
_symmetry_Int_Tables_number   1
_chemical_formula_structural   Na(V3S4)2
_chemical_formula_sum   'Na1 V6 S8'
_cell_volume   234.41270145
_cell_formula_units_Z   1
loop_
 _symmetry_equiv_pos_site_id
 _symmetry_equiv_pos_as_xyz
  1  'x, y, z'
loop_
 _atom_site_type_symbol
 _atom_site_label
 _atom_site_symmetry_multiplicity
 _atom_site_fract_x
 _atom_site_fract_y
 _atom_site_fract_z
 _atom_site_occupancy
  Na  Na0  1  0.50000000  0.00000000  -0.00000000  1
  V  V1  1  0.74931374  0.37605526  0.50923599  1
  V  V2  1  0.74930514  0.11464465  0.37605572  1
  V  V3  1  0.74931390  0.50935321  0.11460022  1
  V  V4  1  0.25068626  0.62394474  0.49076401  1
  V  V5  1  0.25069486  0.88535535  0.62394428  1
  V  V6  1  0.25068610  0.49064679  0.88539978  1
  S  S7  1  0.75026966  0.66662120  0.66670464  1
  S  S8  1  0.24973034  0.33337880  0.33329536  1
  S  S9  1  0.75161153  0.05013503  0.65824187  1
  S  S10  1  0.75161500  0.29156472  0.05014271  1
  S  S11  1  0.75162368  0.65833841  0.29162975  1
  S  S12  1  0.24838847  0.94986497  0.34175813  1
  S  S13  1  0.24838500  0.70843528  0.94985729  1
  S  S14  1  0.24837632  0.34166159  0.70837025  1
