# generated using pymatgen
data_MnNi5(BO5)2
_symmetry_space_group_name_H-M   'P 1'
_cell_length_a   3.00918803
_cell_length_b   9.22649734
_cell_length_c   12.41051045
_cell_angle_alpha   90.00000000
_cell_angle_beta   90.00000000
_cell_angle_gamma   90.00000000
_symmetry_Int_Tables_number   1
_chemical_formula_structural   MnNi5(BO5)2
_chemical_formula_sum   'Mn2 Ni10 B4 O20'
_cell_volume   344.56870532
_cell_formula_units_Z   2
loop_
 _symmetry_equiv_pos_site_id
 _symmetry_equiv_pos_as_xyz
  1  'x, y, z'
loop_
 _atom_site_type_symbol
 _atom_site_label
 _atom_site_symmetry_multiplicity
 _atom_site_fract_x
 _atom_site_fract_y
 _atom_site_fract_z
 _atom_site_occupancy
  Mn  Mn0  1  0.00000000  0.25892834  0.61346719  1
  Mn  Mn1  1  -0.00000000  0.24107166  0.11346719  1
  Ni  Ni2  1  0.50000000  0.50492805  0.49855911  1
  Ni  Ni3  1  0.50000000  0.99507195  0.99855911  1
  Ni  Ni4  1  0.50000000  0.50508932  0.22004844  1
  Ni  Ni5  1  0.50000000  0.50352515  0.78188903  1
  Ni  Ni6  1  0.50000000  0.99647485  0.28188903  1
  Ni  Ni7  1  0.50000000  0.99491068  0.72004844  1
  Ni  Ni8  1  -0.00000000  0.99493386  0.49864968  1
  Ni  Ni9  1  -0.00000000  0.50506614  0.99864968  1
  Ni  Ni10  1  0.00000000  0.74030395  0.38615511  1
  Ni  Ni11  1  -0.00000000  0.75969605  0.88615511  1
  B  B12  1  -0.00000000  0.77636663  0.13987040  1
  B  B13  1  0.00000000  0.22639496  0.86028750  1
  B  B14  1  -0.00000000  0.27360504  0.36028750  1
  B  B15  1  -0.00000000  0.72363337  0.63987040  1
  O  O16  1  0.50000000  0.88608569  0.42251186  1
  O  O17  1  0.50000000  0.11935051  0.57852725  1
  O  O18  1  0.50000000  0.38064949  0.07852725  1
  O  O19  1  0.50000000  0.61391431  0.92251186  1
  O  O20  1  0.50000000  0.60819140  0.35733852  1
  O  O21  1  0.50000000  0.38949574  0.64281205  1
  O  O22  1  0.50000000  0.11050426  0.14281205  1
  O  O23  1  0.50000000  0.89180860  0.85733852  1
  O  O24  1  -0.00000000  0.85065946  0.23641095  1
  O  O25  1  -0.00000000  0.14858284  0.76384853  1
  O  O26  1  0.00000000  0.35141716  0.26384853  1
  O  O27  1  0.00000000  0.64934054  0.73641095  1
  O  O28  1  -0.00000000  0.62448299  0.14084570  1
  O  O29  1  -0.00000000  0.37544060  0.85876683  1
  O  O30  1  0.00000000  0.12455940  0.35876683  1
  O  O31  1  0.00000000  0.87551701  0.64084570  1
  O  O32  1  0.00000000  0.64885483  0.54324347  1
  O  O33  1  0.00000000  0.35135850  0.45676838  1
  O  O34  1  -0.00000000  0.14864150  0.95676838  1
  O  O35  1  -0.00000000  0.85114517  0.04324347  1
