# generated using pymatgen
data_NaCa2Mg5AlSi7(O11F)2
_symmetry_space_group_name_H-M   'P 1'
_cell_length_a   5.33283870
_cell_length_b   9.98113310
_cell_length_c   10.36892916
_cell_angle_alpha   61.35742165
_cell_angle_beta   82.87706777
_cell_angle_gamma   75.18841903
_symmetry_Int_Tables_number   1
_chemical_formula_structural   NaCa2Mg5AlSi7(O11F)2
_chemical_formula_sum   'Na1 Ca2 Mg5 Al1 Si7 O22 F2'
_cell_volume   468.27986274
_cell_formula_units_Z   1
loop_
 _symmetry_equiv_pos_site_id
 _symmetry_equiv_pos_as_xyz
  1  'x, y, z'
loop_
 _atom_site_type_symbol
 _atom_site_label
 _atom_site_symmetry_multiplicity
 _atom_site_fract_x
 _atom_site_fract_y
 _atom_site_fract_z
 _atom_site_occupancy
  Na  Na0  1  0.00381263  0.49587178  0.99283242  1
  Ca  Ca1  1  0.49781958  0.27605283  0.44865764  1
  Ca  Ca2  1  0.51033973  0.70818095  0.56184466  1
  Mg  Mg3  1  0.50095470  0.09258346  0.82137978  1
  Mg  Mg4  1  0.49995385  0.91210629  0.17733672  1
  Mg  Mg5  1  0.99563178  0.00231517  0.99835798  1
  Mg  Mg6  1  0.99675234  0.17918866  0.64934059  1
  Mg  Mg7  1  0.00117531  0.82207784  0.35551216  1
  Al  Al8  1  0.69902617  0.36452442  0.83144361  1
  Si  Si9  1  0.18915598  0.46621179  0.65395886  1
  Si  Si10  1  0.19634730  0.11340929  0.34610648  1
  Si  Si11  1  0.80431566  0.54209518  0.34019077  1
  Si  Si12  1  0.80453558  0.88219046  0.65815089  1
  Si  Si13  1  0.70352417  0.19541625  0.17048312  1
  Si  Si14  1  0.29749676  0.63894753  0.16724038  1
  Si  Si15  1  0.30016891  0.80539039  0.83249447  1
  O  O16  1  0.21915921  0.61283198  0.49469653  1
  O  O17  1  0.20839832  0.11675848  0.49842625  1
  O  O18  1  0.79298917  0.38671730  0.49107381  1
  O  O19  1  0.79165130  0.87845775  0.50689190  1
  O  O20  1  0.27341086  0.29395703  0.65560469  1
  O  O21  1  0.27602146  0.94638420  0.34250468  1
  O  O22  1  0.72570773  0.71108015  0.33990546  1
  O  O23  1  0.72300426  0.05181173  0.65645203  1
  O  O24  1  0.78683068  0.18635481  0.82889529  1
  O  O25  1  0.78087481  0.02574240  0.17266800  1
  O  O26  1  0.21744741  0.80554013  0.16820504  1
  O  O27  1  0.22738875  0.97274695  0.83104655  1
  O  O28  1  0.89254190  0.49701518  0.71778013  1
  O  O29  1  0.89763370  0.20728287  0.27632028  1
  O  O30  1  0.09922633  0.52169649  0.26338716  1
  O  O31  1  0.09897724  0.78778942  0.73530646  1
  O  O32  1  0.72188595  0.34170730  0.00959555  1
  O  O33  1  0.28483207  0.66014206  0.99972760  1
  O  O34  1  0.38514163  0.47055400  0.76383530  1
  O  O35  1  0.40508363  0.22494101  0.23598870  1
  O  O36  1  0.59349119  0.54195446  0.23015046  1
  O  O37  1  0.59610777  0.77075973  0.76939350  1
  F  F38  1  0.28808147  0.10016616  0.00170709  1
  F  F39  1  0.71310273  0.89104613  0.00510701  1
