# generated using pymatgen
data_MnV(Fe2Si)2
_symmetry_space_group_name_H-M   'P 1'
_cell_length_a   3.97122534
_cell_length_b   3.97122534
_cell_length_c   6.86350817
_cell_angle_alpha   73.18395571
_cell_angle_beta   90.00000000
_cell_angle_gamma   120.00000000
_symmetry_Int_Tables_number   1
_chemical_formula_structural   MnV(Fe2Si)2
_chemical_formula_sum   'Mn1 V1 Fe4 Si2'
_cell_volume   88.35516588
_cell_formula_units_Z   1
loop_
 _symmetry_equiv_pos_site_id
 _symmetry_equiv_pos_as_xyz
  1  'x, y, z'
loop_
 _atom_site_type_symbol
 _atom_site_label
 _atom_site_symmetry_multiplicity
 _atom_site_fract_x
 _atom_site_fract_y
 _atom_site_fract_z
 _atom_site_occupancy
  Mn  Mn0  1  0.00000000  0.00000000  -0.00000000  1
  V  V1  1  0.50000000  0.00000000  0.50000000  1
  Fe  Fe2  1  0.62298663  0.24597326  0.13104011  1
  Fe  Fe3  1  0.12662084  0.25324167  0.62013749  1
  Fe  Fe4  1  0.87337916  0.74675833  0.37986251  1
  Fe  Fe5  1  0.37701337  0.75402674  0.86895989  1
  Si  Si6  1  0.25160567  0.50321133  0.24518300  1
  Si  Si7  1  0.74839433  0.49678867  0.75481700  1
