# generated using pymatgen
data_MnCdSe2
_symmetry_space_group_name_H-M   'P 1'
_cell_length_a   4.29590899
_cell_length_b   4.29636687
_cell_length_c   6.96027141
_cell_angle_alpha   90.00000000
_cell_angle_beta   90.00287203
_cell_angle_gamma   59.99646705
_symmetry_Int_Tables_number   1
_chemical_formula_structural   MnCdSe2
_chemical_formula_sum   'Mn1 Cd1 Se2'
_cell_volume   111.24942494
_cell_formula_units_Z   1
loop_
 _symmetry_equiv_pos_site_id
 _symmetry_equiv_pos_as_xyz
  1  'x, y, z'
loop_
 _atom_site_type_symbol
 _atom_site_label
 _atom_site_symmetry_multiplicity
 _atom_site_fract_x
 _atom_site_fract_y
 _atom_site_fract_z
 _atom_site_occupancy
  Mn  Mn0  1  0.33339459  0.33330271  0.00184607  1
  Cd  Cd1  1  0.66661697  0.66669151  0.49828575  1
  Se  Se2  1  0.66663924  0.66668038  0.11153952  1
  Se  Se3  1  0.33334919  0.33332540  0.63832866  1
