# generated using pymatgen
data_MnCoP2
_symmetry_space_group_name_H-M   'P 1'
_cell_length_a   3.06643152
_cell_length_b   5.19034640
_cell_length_c   5.76322910
_cell_angle_alpha   90.00000000
_cell_angle_beta   90.00000000
_cell_angle_gamma   90.00000000
_symmetry_Int_Tables_number   1
_chemical_formula_structural   MnCoP2
_chemical_formula_sum   'Mn2 Co2 P4'
_cell_volume   91.72664262
_cell_formula_units_Z   2
loop_
 _symmetry_equiv_pos_site_id
 _symmetry_equiv_pos_as_xyz
  1  'x, y, z'
loop_
 _atom_site_type_symbol
 _atom_site_label
 _atom_site_symmetry_multiplicity
 _atom_site_fract_x
 _atom_site_fract_y
 _atom_site_fract_z
 _atom_site_occupancy
  Mn  Mn0  1  0.25000000  0.50414587  0.30504787  1
  Mn  Mn1  1  0.25000000  0.00414587  0.19495213  1
  Co  Co2  1  0.75000000  0.50073785  0.70630743  1
  Co  Co3  1  0.75000000  0.00073785  0.79369257  1
  P  P4  1  0.75000000  0.30732210  0.06895186  1
  P  P5  1  0.75000000  0.80732210  0.43104814  1
  P  P6  1  0.25000000  0.68779418  0.93323361  1
  P  P7  1  0.25000000  0.18779418  0.56676639  1
