# generated using pymatgen
data_Ca3Mg(SiO4)2
_symmetry_space_group_name_H-M   'P 1'
_cell_length_a   5.26933663
_cell_length_b   9.96782530
_cell_length_c   13.67008167
_cell_angle_alpha   97.71951314
_cell_angle_beta   90.00000000
_cell_angle_gamma   90.00000000
_symmetry_Int_Tables_number   1
_chemical_formula_structural   Ca3Mg(SiO4)2
_chemical_formula_sum   'Ca12 Mg4 Si8 O32'
_cell_volume   711.49809129
_cell_formula_units_Z   4
loop_
 _symmetry_equiv_pos_site_id
 _symmetry_equiv_pos_as_xyz
  1  'x, y, z'
loop_
 _atom_site_type_symbol
 _atom_site_label
 _atom_site_symmetry_multiplicity
 _atom_site_fract_x
 _atom_site_fract_y
 _atom_site_fract_z
 _atom_site_occupancy
  Ca  Ca0  1  0.25898112  0.07115074  0.40461671  1
  Ca  Ca1  1  0.24740379  0.73882473  0.97781288  1
  Ca  Ca2  1  0.26887929  0.47583545  0.62145069  1
  Ca  Ca3  1  0.23112071  0.47583545  0.12145069  1
  Ca  Ca4  1  0.76887929  0.52416455  0.87854931  1
  Ca  Ca5  1  0.74740379  0.26117527  0.52218712  1
  Ca  Ca6  1  0.75898112  0.92884926  0.09538329  1
  Ca  Ca7  1  0.24101888  0.07115074  0.90461671  1
  Ca  Ca8  1  0.73112071  0.52416455  0.37854931  1
  Ca  Ca9  1  0.74101888  0.92884926  0.59538329  1
  Ca  Ca10  1  0.25259621  0.73882473  0.47781288  1
  Ca  Ca11  1  0.75259621  0.26117527  0.02218712  1
  Mg  Mg12  1  0.73317535  0.17176055  0.78829836  1
  Mg  Mg13  1  0.76682465  0.17176055  0.28829836  1
  Mg  Mg14  1  0.26682465  0.82823945  0.21170164  1
  Mg  Mg15  1  0.23317535  0.82823945  0.71170164  1
  Si  Si16  1  0.78831587  0.88993821  0.36219967  1
  Si  Si17  1  0.72992602  0.62434862  0.64021794  1
  Si  Si18  1  0.71168413  0.88993821  0.86219967  1
  Si  Si19  1  0.21168413  0.11006179  0.63780033  1
  Si  Si20  1  0.77007398  0.62434862  0.14021794  1
  Si  Si21  1  0.22992602  0.37565138  0.85978206  1
  Si  Si22  1  0.27007398  0.37565138  0.35978206  1
  Si  Si23  1  0.28831587  0.11006179  0.13780033  1
  O  O24  1  -0.01612472  0.31102222  0.36782270  1
  O  O25  1  0.59274511  0.14700106  0.15747632  1
  O  O26  1  0.82452250  0.77900929  0.92961047  1
  O  O27  1  0.61849134  0.57230749  0.73872469  1
  O  O28  1  0.38150866  0.42769251  0.26127531  1
  O  O29  1  0.48290227  0.25934592  0.38196414  1
  O  O30  1  0.20862421  0.95708648  0.56821967  1
  O  O31  1  0.51612472  0.31102222  0.86782270  1
  O  O32  1  1.01709773  0.25934592  0.88196414  1
  O  O33  1  0.22784105  0.51055934  0.94541062  1
  O  O34  1  0.17547750  0.22099071  0.07038953  1
  O  O35  1  0.10823654  0.08076671  0.23115236  1
  O  O36  1  0.70862421  0.04291352  0.93178033  1
  O  O37  1  0.90725489  0.14700106  0.65747632  1
  O  O38  1  0.48387528  0.68897778  0.13217730  1
  O  O39  1  0.29137579  0.95708648  0.06821967  1
  O  O40  1  0.79137579  0.04291352  0.43178033  1
  O  O41  1  0.51709773  0.74065408  0.61803586  1
  O  O42  1  0.27215895  0.51055934  0.44541062  1
  O  O43  1  0.60823654  0.91923329  0.26884764  1
  O  O44  1  0.39176346  0.08076671  0.73115236  1
  O  O45  1  0.09274511  0.85299894  0.34252368  1
  O  O46  1  0.40725489  0.85299894  0.84252368  1
  O  O47  1  0.88150866  0.57230749  0.23872469  1
  O  O48  1  0.77215895  0.48944066  0.05458938  1
  O  O49  1  1.01612472  0.68897778  0.63217730  1
  O  O50  1  0.67547750  0.77900929  0.42961047  1
  O  O51  1  0.11849134  0.42769251  0.76127531  1
  O  O52  1  -0.01709773  0.74065408  0.11803586  1
  O  O53  1  0.89176346  0.91923329  0.76884764  1
  O  O54  1  0.72784105  0.48944066  0.55458938  1
  O  O55  1  0.32452250  0.22099071  0.57038953  1
