# generated using pymatgen
data_LiGeRhO4
_symmetry_space_group_name_H-M   'P 1'
_cell_length_a   5.99831385
_cell_length_b   5.99831385
_cell_length_c   5.99831385
_cell_angle_alpha   89.79227372
_cell_angle_beta   61.66962643
_cell_angle_gamma   121.45438603
_symmetry_Int_Tables_number   1
_chemical_formula_structural   LiGeRhO4
_chemical_formula_sum   'Li2 Ge2 Rh2 O8'
_cell_volume   152.71208774
_cell_formula_units_Z   2
loop_
 _symmetry_equiv_pos_site_id
 _symmetry_equiv_pos_as_xyz
  1  'x, y, z'
loop_
 _atom_site_type_symbol
 _atom_site_label
 _atom_site_symmetry_multiplicity
 _atom_site_fract_x
 _atom_site_fract_y
 _atom_site_fract_z
 _atom_site_occupancy
  Li  Li0  1  0.50000000  0.75070767  0.74929233  1
  Li  Li1  1  0.00000000  0.99929233  0.00070767  1
  Ge  Ge2  1  0.25000000  0.87500000  0.37500000  1
  Ge  Ge3  1  0.75000000  0.37500000  0.37500000  1
  Rh  Rh4  1  0.75000000  0.37500000  0.87500000  1
  Rh  Rh5  1  0.25000000  0.37500000  0.37500000  1
  O  O6  1  0.28462028  0.13101362  0.58436610  1
  O  O7  1  0.71537972  0.13101362  0.15360666  1
  O  O8  1  0.73226310  0.58269283  0.14957026  1
  O  O9  1  0.26773690  0.11816664  0.14957026  1
  O  O10  1  0.21537972  0.61898638  0.16563390  1
  O  O11  1  0.78462028  0.61898638  0.59639334  1
  O  O12  1  0.76773690  0.16730717  0.60042974  1
  O  O13  1  0.23226310  0.63183336  0.60042974  1
