# generated using pymatgen
data_LiAlGeO4
_symmetry_space_group_name_H-M   'P 1'
_cell_length_a   8.62426039
_cell_length_b   8.62426039
_cell_length_c   8.62426072
_cell_angle_alpha   107.86124914
_cell_angle_beta   107.86124914
_cell_angle_gamma   107.86124526
_symmetry_Int_Tables_number   1
_chemical_formula_structural   LiAlGeO4
_chemical_formula_sum   'Li6 Al6 Ge6 O24'
_cell_volume   521.14932862
_cell_formula_units_Z   6
loop_
 _symmetry_equiv_pos_site_id
 _symmetry_equiv_pos_as_xyz
  1  'x, y, z'
loop_
 _atom_site_type_symbol
 _atom_site_label
 _atom_site_symmetry_multiplicity
 _atom_site_fract_x
 _atom_site_fract_y
 _atom_site_fract_z
 _atom_site_occupancy
  Li  Li0  1  0.22950916  0.05849449  0.45754728  1
  Li  Li1  1  0.05849449  0.45754728  0.22950916  1
  Li  Li2  1  0.45754728  0.22950916  0.05849449  1
  Li  Li3  1  0.77028886  0.94089872  0.54171583  1
  Li  Li4  1  0.94089872  0.54171583  0.77028886  1
  Li  Li5  1  0.54171583  0.77028886  0.94089872  1
  Al  Al6  1  0.72207108  0.13188419  0.89952844  1
  Al  Al7  1  0.13188419  0.89952844  0.72207108  1
  Al  Al8  1  0.89952844  0.72207108  0.13188419  1
  Al  Al9  1  0.43311297  0.61340020  0.20698661  1
  Al  Al10  1  0.61340020  0.20698661  0.43311297  1
  Al  Al11  1  0.20698661  0.43311297  0.61340020  1
  Ge  Ge12  1  0.27859826  0.86829012  0.10047251  1
  Ge  Ge13  1  0.86829012  0.10047251  0.27859826  1
  Ge  Ge14  1  0.10047251  0.27859826  0.86829012  1
  Ge  Ge15  1  0.56746129  0.38648186  0.79374382  1
  Ge  Ge16  1  0.38648186  0.79374382  0.56746129  1
  Ge  Ge17  1  0.79374382  0.56746129  0.38648186  1
  O  O18  1  0.58797419  0.25215896  0.91040782  1
  O  O19  1  0.25215896  0.91040782  0.58797419  1
  O  O20  1  0.91040782  0.58797419  0.25215896  1
  O  O21  1  0.41084416  0.74773389  0.08929530  1
  O  O22  1  0.74773389  0.08929530  0.41084416  1
  O  O23  1  0.08929530  0.41084416  0.74773389  1
  O  O24  1  0.04425009  0.32569650  0.38109005  1
  O  O25  1  0.32569650  0.38109005  0.04425009  1
  O  O26  1  0.38109005  0.04425009  0.32569650  1
  O  O27  1  0.95515139  0.67325800  0.61811451  1
  O  O28  1  0.67325800  0.61811451  0.95515139  1
  O  O29  1  0.61811451  0.95515139  0.67325800  1
  O  O30  1  0.68726864  0.35719219  0.66140015  1
  O  O31  1  0.35719219  0.66140015  0.68726864  1
  O  O32  1  0.66140015  0.68726864  0.35719219  1
  O  O33  1  0.31276806  0.64362217  0.33950806  1
  O  O34  1  0.64362217  0.33950806  0.31276806  1
  O  O35  1  0.33950806  0.31276806  0.64362217  1
  O  O36  1  0.02961319  0.04976133  0.71995726  1
  O  O37  1  0.04976133  0.71995726  0.02961319  1
  O  O38  1  0.71995726  0.02961319  0.04976133  1
  O  O39  1  0.97051910  0.95137826  0.28055106  1
  O  O40  1  0.95137826  0.28055106  0.97051910  1
  O  O41  1  0.28055106  0.97051910  0.95137826  1
