# generated using pymatgen
data_LiB12PC
_symmetry_space_group_name_H-M   'P 1'
_cell_length_a   5.77281740
_cell_length_b   7.12658811
_cell_length_c   7.12658811
_cell_angle_alpha   88.88500493
_cell_angle_beta   113.89235863
_cell_angle_gamma   66.10764137
_symmetry_Int_Tables_number   1
_chemical_formula_structural   LiB12PC
_chemical_formula_sum   'Li2 B24 P2 C2'
_cell_volume   239.11822323
_cell_formula_units_Z   2
loop_
 _symmetry_equiv_pos_site_id
 _symmetry_equiv_pos_as_xyz
  1  'x, y, z'
loop_
 _atom_site_type_symbol
 _atom_site_label
 _atom_site_symmetry_multiplicity
 _atom_site_fract_x
 _atom_site_fract_y
 _atom_site_fract_z
 _atom_site_occupancy
  Li  Li0  1  0.68280629  0.56894208  0.43455465  1
  Li  Li1  1  0.31719371  0.43455465  0.56894208  1
  B  B2  1  0.96625891  0.20137908  0.63389689  1
  B  B3  1  0.03374109  0.63389689  0.20137908  1
  B  B4  1  0.02313256  0.81055323  0.35681836  1
  B  B5  1  0.97686744  0.35681836  0.81055323  1
  B  B6  1  0.82011977  0.09016931  0.23040885  1
  B  B7  1  0.17988023  0.23040885  0.09016931  1
  B  B8  1  0.15931353  0.92914661  0.74777367  1
  B  B9  1  0.84068647  0.74777367  0.92914661  1
  B  B10  1  0.99155191  0.22833062  0.39479631  1
  B  B11  1  0.00844809  0.39479631  0.22833062  1
  B  B12  1  0.32508622  0.39479631  0.22833062  1
  B  B13  1  0.67491378  0.22833062  0.39479631  1
  B  B14  1  0.99715306  0.78001476  0.59869881  1
  B  B15  1  0.00284694  0.59869881  0.78001476  1
  B  B16  1  0.67846901  0.59869881  0.78001476  1
  B  B17  1  0.32153099  0.78001476  0.59869881  1
  B  B18  1  0.20447793  0.97074814  0.36597674  1
  B  B19  1  0.79552207  0.36597674  0.97074814  1
  B  B20  1  0.30924933  0.36597674  0.97074814  1
  B  B21  1  0.69075067  0.97074814  0.36597674  1
  B  B22  1  0.79507794  0.04258542  0.61737603  1
  B  B23  1  0.20492206  0.61737603  0.04258542  1
  B  B24  1  0.72028733  0.61737603  0.04258542  1
  B  B25  1  0.27971267  0.04258542  0.61737603  1
  P  P26  1  0.36982993  0.80183329  0.04149315  1
  P  P27  1  0.63017007  0.04149315  0.80183329  1
  C  C28  1  0.62741602  0.22764257  0.98247462  1
  C  C29  1  0.37258398  0.98247462  0.22764257  1
