# generated using pymatgen
data_Na2Mg3(MoO4)4
_symmetry_space_group_name_H-M   'P 1'
_cell_length_a   9.90614872
_cell_length_b   12.46950389
_cell_length_c   10.43501145
_cell_angle_alpha   93.36916316
_cell_angle_beta   116.09547615
_cell_angle_gamma   77.54514582
_symmetry_Int_Tables_number   1
_chemical_formula_structural   Na2Mg3(MoO4)4
_chemical_formula_sum   'Na6 Mg9 Mo12 O48'
_cell_volume   1129.38600117
_cell_formula_units_Z   3
loop_
 _symmetry_equiv_pos_site_id
 _symmetry_equiv_pos_as_xyz
  1  'x, y, z'
loop_
 _atom_site_type_symbol
 _atom_site_label
 _atom_site_symmetry_multiplicity
 _atom_site_fract_x
 _atom_site_fract_y
 _atom_site_fract_z
 _atom_site_occupancy
  Na  Na0  1  0.75812351  0.78953948  0.55934339  1
  Na  Na1  1  0.01519189  0.49249521  0.51416738  1
  Na  Na2  1  0.47504359  0.01508882  0.48285988  1
  Na  Na3  1  0.54116282  0.75208950  0.80544083  1
  Na  Na4  1  0.04033090  0.25287514  0.80120885  1
  Na  Na5  1  0.96005041  0.74620588  0.19765825  1
  Mg  Mg6  1  0.91920279  0.04138465  0.60555140  1
  Mg  Mg7  1  0.41740377  0.53764767  0.60428128  1
  Mg  Mg8  1  0.08633353  0.96115396  0.39681419  1
  Mg  Mg9  1  0.58535984  0.45823463  0.39770704  1
  Mg  Mg10  1  0.62680588  0.17097428  0.98174758  1
  Mg  Mg11  1  0.12775019  0.67090236  0.98190136  1
  Mg  Mg12  1  0.37109466  0.82861897  0.01687015  1
  Mg  Mg13  1  0.86761818  0.33038338  0.01650765  1
  Mg  Mg14  1  0.47080099  0.25042462  0.19827738  1
  Mo  Mo15  1  0.35665406  0.73840437  0.33370790  1
  Mo  Mo16  1  0.85098150  0.23701463  0.33094847  1
  Mo  Mo17  1  0.64351577  0.26132906  0.66668137  1
  Mo  Mo18  1  0.14489518  0.76159944  0.66669515  1
  Mo  Mo19  1  0.68909238  0.97806184  0.26262264  1
  Mo  Mo20  1  0.19375101  0.46988142  0.25999362  1
  Mo  Mo21  1  0.31043083  0.02517765  0.73860960  1
  Mo  Mo22  1  0.80983081  0.52371143  0.73878508  1
  Mo  Mo23  1  0.82483608  0.91910680  0.86857853  1
  Mo  Mo24  1  0.32424781  0.41774537  0.87300099  1
  Mo  Mo25  1  0.18398792  0.08731021  0.13253119  1
  Mo  Mo26  1  0.67670072  0.58059544  0.13419936  1
  O  O27  1  0.65477689  0.87240402  0.75101855  1
  O  O28  1  0.14752334  0.38120520  0.75746211  1
  O  O29  1  0.35875601  0.14076277  0.22880104  1
  O  O30  1  0.85214715  0.62137680  0.24575197  1
  O  O31  1  0.45035275  0.30183051  0.00456840  1
  O  O32  1  0.96004124  0.80555404  0.98814277  1
  O  O33  1  0.54149822  0.69562021  0.01538448  1
  O  O34  1  0.03771778  0.19395515  0.01087631  1
  O  O35  1  0.77655530  0.03128527  0.96611756  1
  O  O36  1  0.27732855  0.53368721  0.96412234  1
  O  O37  1  0.22581697  0.97151044  0.03799145  1
  O  O38  1  0.71903214  0.46738365  0.03457538  1
  O  O39  1  0.89466463  0.95557911  0.74802088  1
  O  O40  1  0.39786711  0.45690647  0.75828371  1
  O  O41  1  0.12446697  0.04297835  0.25585647  1
  O  O42  1  0.60545516  0.53802973  0.24972271  1
  O  O43  1  0.49791626  0.81711865  0.42253379  1
  O  O44  1  0.98289594  0.31888113  0.42145497  1
  O  O45  1  0.50539235  0.18337369  0.57777356  1
  O  O46  1  0.99776478  0.68746903  0.58009456  1
  O  O47  1  0.42958338  0.59970773  0.41873010  1
  O  O48  1  0.92783839  0.09968015  0.42026811  1
  O  O49  1  0.56983389  0.39888230  0.57654190  1
  O  O50  1  0.06860877  0.89826989  0.57642340  1
  O  O51  1  0.31557773  0.74068672  0.14666077  1
  O  O52  1  0.81831396  0.23681095  0.14607672  1
  O  O53  1  0.68029707  0.26105882  0.85409096  1
  O  O54  1  0.18429159  0.76099807  0.85388048  1
  O  O55  1  0.55674839  0.89348625  0.17124534  1
  O  O56  1  0.05344550  0.39067449  0.17151863  1
  O  O57  1  0.44433848  0.11013972  0.82950115  1
  O  O58  1  0.93984127  0.61290257  0.82394667  1
  O  O59  1  0.61965604  0.11380898  0.16857445  1
  O  O60  1  0.13414352  0.59922136  0.16097062  1
  O  O61  1  0.37162252  0.89562878  0.83842234  1
  O  O62  1  0.87386733  0.39501176  0.84051833  1
  O  O63  1  0.71295869  0.98558380  0.44535553  1
  O  O64  1  0.21619423  0.49338530  0.43959970  1
  O  O65  1  0.28926064  0.00205745  0.55894972  1
  O  O66  1  0.78949437  0.50393346  0.55863095  1
  O  O67  1  0.67206114  0.30108118  0.34182534  1
  O  O68  1  0.18868119  0.80741237  0.35339278  1
  O  O69  1  0.31013538  0.69066639  0.64426927  1
  O  O70  1  0.81172620  0.19306063  0.64541683  1
  O  O71  1  0.86968000  0.91318443  0.26553883  1
  O  O72  1  0.37499156  0.39315908  0.26257439  1
  O  O73  1  0.12675601  0.09174687  0.72971801  1
  O  O74  1  0.62583620  0.59184289  0.72781512  1
