# generated using pymatgen
data_Mg4AlB10
_symmetry_space_group_name_H-M   'P 1'
_cell_length_a   3.06969144
_cell_length_b   3.06981424
_cell_length_c   17.25912107
_cell_angle_alpha   90.00000000
_cell_angle_beta   90.00000000
_cell_angle_gamma   119.99867308
_symmetry_Int_Tables_number   1
_chemical_formula_structural   Mg4AlB10
_chemical_formula_sum   'Mg4 Al1 B10'
_cell_volume   140.85164827
_cell_formula_units_Z   1
loop_
 _symmetry_equiv_pos_site_id
 _symmetry_equiv_pos_as_xyz
  1  'x, y, z'
loop_
 _atom_site_type_symbol
 _atom_site_label
 _atom_site_symmetry_multiplicity
 _atom_site_fract_x
 _atom_site_fract_y
 _atom_site_fract_z
 _atom_site_occupancy
  Mg  Mg0  1  0.99995812  1.00000000  0.19902507  1
  Mg  Mg1  1  0.99996594  1.00000000  0.39992540  1
  Mg  Mg2  1  0.99996594  1.00000000  0.60007460  1
  Mg  Mg3  1  0.99995812  1.00000000  0.80097493  1
  Al  Al4  1  0.99997192  1.00000000  -0.00000000  1
  B  B5  1  0.33330448  0.66667871  0.09163952  1
  B  B6  1  0.33357835  0.66721444  0.29867917  1
  B  B7  1  0.33290548  0.66587599  0.50000000  1
  B  B8  1  0.33357835  0.66721444  0.70132083  1
  B  B9  1  0.33330448  0.66667871  0.90836048  1
  B  B10  1  0.66662576  0.33332129  0.09163952  1
  B  B11  1  0.66636390  0.33278556  0.29867917  1
  B  B12  1  0.66702948  0.33412401  0.50000000  1
  B  B13  1  0.66636390  0.33278556  0.70132083  1
  B  B14  1  0.66662576  0.33332129  0.90836048  1
