# generated using pymatgen
data_Li3Sn11Pd4
_symmetry_space_group_name_H-M   'P 1'
_cell_length_a   6.69389601
_cell_length_b   6.69389601
_cell_length_c   8.72374209
_cell_angle_alpha   90.00000000
_cell_angle_beta   90.00000000
_cell_angle_gamma   90.87803152
_symmetry_Int_Tables_number   1
_chemical_formula_structural   Li3Sn11Pd4
_chemical_formula_sum   'Li3 Sn11 Pd4'
_cell_volume   390.84966395
_cell_formula_units_Z   1
loop_
 _symmetry_equiv_pos_site_id
 _symmetry_equiv_pos_as_xyz
  1  'x, y, z'
loop_
 _atom_site_type_symbol
 _atom_site_label
 _atom_site_symmetry_multiplicity
 _atom_site_fract_x
 _atom_site_fract_y
 _atom_site_fract_z
 _atom_site_occupancy
  Li  Li0  1  0.49984021  0.49913425  0.50000000  1
  Li  Li1  1  0.99913425  0.99984021  0.50000000  1
  Li  Li2  1  0.83038211  0.33038211  -0.00000000  1
  Sn  Sn3  1  0.66155722  0.16155722  0.68282628  1
  Sn  Sn4  1  0.34164428  0.84164428  0.67737857  1
  Sn  Sn5  1  0.84149480  0.65574426  0.67891509  1
  Sn  Sn6  1  0.15574426  0.34149480  0.67891509  1
  Sn  Sn7  1  0.34164428  0.84164428  0.32262143  1
  Sn  Sn8  1  0.66155722  0.16155722  0.31717372  1
  Sn  Sn9  1  0.15574426  0.34149480  0.32108491  1
  Sn  Sn10  1  0.84149480  0.65574426  0.32108491  1
  Sn  Sn11  1  0.16621216  0.66621216  -0.00000000  1
  Sn  Sn12  1  0.66862169  0.83366321  0.00000000  1
  Sn  Sn13  1  0.33366321  0.16862169  0.00000000  1
  Pd  Pd14  1  0.49909252  0.50154011  0.81653836  1
  Pd  Pd15  1  0.00154011  0.99909252  0.81653836  1
  Pd  Pd16  1  0.49909252  0.50154011  0.18346164  1
  Pd  Pd17  1  0.00154011  0.99909252  0.18346164  1
