# generated using pymatgen
data_LiMnRhO4
_symmetry_space_group_name_H-M   'P 1'
_cell_length_a   5.97515350
_cell_length_b   5.97515350
_cell_length_c   5.97515350
_cell_angle_alpha   89.47669266
_cell_angle_beta   61.58140373
_cell_angle_gamma   120.99458103
_symmetry_Int_Tables_number   1
_chemical_formula_structural   LiMnRhO4
_chemical_formula_sum   'Li2 Mn2 Rh2 O8'
_cell_volume   151.41294207
_cell_formula_units_Z   2
loop_
 _symmetry_equiv_pos_site_id
 _symmetry_equiv_pos_as_xyz
  1  'x, y, z'
loop_
 _atom_site_type_symbol
 _atom_site_label
 _atom_site_symmetry_multiplicity
 _atom_site_fract_x
 _atom_site_fract_y
 _atom_site_fract_z
 _atom_site_occupancy
  Li  Li0  1  0.50000000  0.75026655  0.74973345  1
  Li  Li1  1  0.00000000  0.99973345  0.00026655  1
  Mn  Mn2  1  0.25000000  0.87500000  0.37500000  1
  Mn  Mn3  1  0.75000000  0.37500000  0.37500000  1
  Rh  Rh4  1  0.75000000  0.37500000  0.87500000  1
  Rh  Rh5  1  0.25000000  0.37500000  0.37500000  1
  O  O6  1  0.28399345  0.13069636  0.58531019  1
  O  O7  1  0.71600655  0.13069636  0.15329708  1
  O  O8  1  0.73117623  0.58721691  0.14395932  1
  O  O9  1  0.26882377  0.12486445  0.14395932  1
  O  O10  1  0.21600655  0.61930364  0.16468981  1
  O  O11  1  0.78399345  0.61930364  0.59670292  1
  O  O12  1  0.76882377  0.16278309  0.60604068  1
  O  O13  1  0.23117623  0.62513555  0.60604068  1
