# generated using pymatgen
data_Li(TiTe2)5
_symmetry_space_group_name_H-M   'P 1'
_cell_length_a   6.58504675
_cell_length_b   7.88675113
_cell_length_c   9.56516738
_cell_angle_alpha   70.07964630
_cell_angle_beta   110.32109583
_cell_angle_gamma   90.12393335
_symmetry_Int_Tables_number   1
_chemical_formula_structural   Li(TiTe2)5
_chemical_formula_sum   'Li1 Ti5 Te10'
_cell_volume   434.15454399
_cell_formula_units_Z   1
loop_
 _symmetry_equiv_pos_site_id
 _symmetry_equiv_pos_as_xyz
  1  'x, y, z'
loop_
 _atom_site_type_symbol
 _atom_site_label
 _atom_site_symmetry_multiplicity
 _atom_site_fract_x
 _atom_site_fract_y
 _atom_site_fract_z
 _atom_site_occupancy
  Li  Li0  1  0.10000000  0.30000000  0.20000000  1
  Ti  Ti1  1  0.79749337  0.40075617  0.60022130  1
  Ti  Ti2  1  0.40250663  0.19924383  0.79977870  1
  Ti  Ti3  1  0.60000000  0.80000000  0.20000000  1
  Ti  Ti4  1  0.00021060  0.00051609  0.99807949  1
  Ti  Ti5  1  0.19978940  0.59948391  0.40192051  1
  Te  Te6  1  0.71166041  0.14907806  0.09957052  1
  Te  Te7  1  0.91664871  0.74985084  0.50012062  1
  Te  Te8  1  0.11726993  0.35253174  0.89606527  1
  Te  Te9  1  0.31973956  0.94596010  0.30296269  1
  Te  Te10  1  0.51660269  0.55034926  0.70021166  1
  Te  Te11  1  0.88026044  0.65403990  0.09703731  1
  Te  Te12  1  0.08273007  0.24746826  0.50393473  1
  Te  Te13  1  0.28335129  0.85014916  0.89987938  1
  Te  Te14  1  0.48833959  0.45092194  0.30042948  1
  Te  Te15  1  0.68339731  0.04965074  0.69978834  1
