# generated using pymatgen
data_LaAlNi4
_symmetry_space_group_name_H-M   'P 1'
_cell_length_a   4.04784976
_cell_length_b   5.16783319
_cell_length_c   4.97751658
_cell_angle_alpha   121.27307556
_cell_angle_beta   90.00000000
_cell_angle_gamma   90.00000000
_symmetry_Int_Tables_number   1
_chemical_formula_structural   LaAlNi4
_chemical_formula_sum   'La1 Al1 Ni4'
_cell_volume   88.99400419
_cell_formula_units_Z   1
loop_
 _symmetry_equiv_pos_site_id
 _symmetry_equiv_pos_as_xyz
  1  'x, y, z'
loop_
 _atom_site_type_symbol
 _atom_site_label
 _atom_site_symmetry_multiplicity
 _atom_site_fract_x
 _atom_site_fract_y
 _atom_site_fract_z
 _atom_site_occupancy
  La  La0  1  0.00000000  0.99998306  0.00000000  1
  Al  Al1  1  0.50000000  0.49997976  0.00000000  1
  Ni  Ni2  1  0.00000000  0.33261687  0.66526059  1
  Ni  Ni3  1  0.00000000  0.66735628  0.33473941  1
  Ni  Ni4  1  0.50000000  0.49998004  0.49999605  1
  Ni  Ni5  1  0.50000000  0.99998399  0.50000395  1
