# generated using pymatgen
data_Li2TiFe(PO4)3
_symmetry_space_group_name_H-M   'P 1'
_cell_length_a   8.66099436
_cell_length_b   8.74193810
_cell_length_c   12.12023620
_cell_angle_alpha   90.00000000
_cell_angle_beta   90.00000000
_cell_angle_gamma   90.00000000
_symmetry_Int_Tables_number   1
_chemical_formula_structural   Li2TiFe(PO4)3
_chemical_formula_sum   'Li8 Ti4 Fe4 P12 O48'
_cell_volume   917.67006776
_cell_formula_units_Z   4
loop_
 _symmetry_equiv_pos_site_id
 _symmetry_equiv_pos_as_xyz
  1  'x, y, z'
loop_
 _atom_site_type_symbol
 _atom_site_label
 _atom_site_symmetry_multiplicity
 _atom_site_fract_x
 _atom_site_fract_y
 _atom_site_fract_z
 _atom_site_occupancy
  Li  Li0  1  0.71515907  0.78200663  0.31672407  1
  Li  Li1  1  0.78314610  0.27735412  0.18136784  1
  Li  Li2  1  0.78484093  0.21799337  0.81672407  1
  Li  Li3  1  0.71685390  0.72264588  0.68136784  1
  Li  Li4  1  0.28314610  0.22264588  0.68136784  1
  Li  Li5  1  0.21515907  0.71799337  0.81672407  1
  Li  Li6  1  0.21685390  0.77735412  0.18136784  1
  Li  Li7  1  0.28484093  0.28200663  0.31672407  1
  Ti  Ti8  1  0.75328622  0.46297718  0.38927598  1
  Ti  Ti9  1  0.74671378  0.53702282  0.88927598  1
  Ti  Ti10  1  0.25328622  0.03702282  0.88927598  1
  Ti  Ti11  1  0.24671378  0.96297718  0.38927598  1
  Fe  Fe12  1  0.74820802  0.96318234  0.11173938  1
  Fe  Fe13  1  0.75179198  0.03681766  0.61173938  1
  Fe  Fe14  1  0.24820802  0.53681766  0.61173938  1
  Fe  Fe15  1  0.25179198  0.46318234  0.11173938  1
  P  P16  1  0.96111452  0.74839772  0.50110500  1
  P  P17  1  0.53888548  0.25160228  0.00110500  1
  P  P18  1  0.03888548  0.24839772  0.50110500  1
  P  P19  1  0.46111452  0.75160228  0.00110500  1
  P  P20  1  0.89538148  0.60885931  0.14789363  1
  P  P21  1  0.60370101  0.10743082  0.35411088  1
  P  P22  1  0.60461852  0.39114069  0.64789363  1
  P  P23  1  0.89629899  0.89256918  0.85411088  1
  P  P24  1  0.10370101  0.39256918  0.85411088  1
  P  P25  1  0.39538148  0.89114069  0.64789363  1
  P  P26  1  0.39629899  0.60743082  0.35411088  1
  P  P27  1  0.10461852  0.10885931  0.14789363  1
  O  O28  1  0.67335649  0.99172592  0.27219287  1
  O  O29  1  0.82540379  0.48764533  0.22771680  1
  O  O30  1  0.82664351  0.00827408  0.77219287  1
  O  O31  1  0.67459621  0.51235467  0.72771680  1
  O  O32  1  0.32540379  0.01235467  0.72771680  1
  O  O33  1  0.17335649  0.50827408  0.77219287  1
  O  O34  1  0.17459621  0.98764533  0.22771680  1
  O  O35  1  0.32664351  0.49172592  0.27219287  1
  O  O36  1  0.83518711  0.76845037  0.17874041  1
  O  O37  1  0.66064268  0.27325725  0.32492001  1
  O  O38  1  0.66481289  0.23154963  0.67874041  1
  O  O39  1  0.83935732  0.72674275  0.82492001  1
  O  O40  1  0.16064268  0.22674275  0.82492001  1
  O  O41  1  0.33518711  0.73154963  0.67874041  1
  O  O42  1  0.33935732  0.77325725  0.32492001  1
  O  O43  1  0.16481289  0.26845037  0.17874041  1
  O  O44  1  0.83982525  0.56364775  0.02910130  1
  O  O45  1  0.65192254  0.06503037  0.47054955  1
  O  O46  1  0.66017475  0.43635225  0.52910130  1
  O  O47  1  0.84807746  0.93496963  0.97054955  1
  O  O48  1  0.15192254  0.43496963  0.97054955  1
  O  O49  1  0.33982525  0.93635225  0.52910130  1
  O  O50  1  0.34807746  0.56503037  0.47054955  1
  O  O51  1  0.16017475  0.06364775  0.02910130  1
  O  O52  1  0.85487877  0.66074621  0.41772258  1
  O  O53  1  0.64820995  0.16556407  0.07875545  1
  O  O54  1  0.64512123  0.33925379  0.91772258  1
  O  O55  1  0.85179005  0.83443593  0.57875545  1
  O  O56  1  0.14820995  0.33443593  0.57875545  1
  O  O57  1  0.35487877  0.83925379  0.91772258  1
  O  O58  1  0.35179005  0.66556407  0.07875545  1
  O  O59  1  0.14512123  0.16074621  0.41772258  1
  O  O60  1  0.57571542  0.60540028  0.34456024  1
  O  O61  1  0.92799292  0.10802088  0.15435714  1
  O  O62  1  0.92428458  0.39459972  0.84456024  1
  O  O63  1  0.57200708  0.89197912  0.65435714  1
  O  O64  1  0.42799292  0.39197912  0.65435714  1
  O  O65  1  0.07571542  0.89459972  0.84456024  1
  O  O66  1  0.07200708  0.60802088  0.15435714  1
  O  O67  1  0.42428458  0.10540028  0.34456024  1
  O  O68  1  0.55855932  0.86134211  0.06792641  1
  O  O69  1  0.93744559  0.35869836  0.43124044  1
  O  O70  1  0.94144068  0.13865789  0.56792641  1
  O  O71  1  0.56255441  0.64130164  0.93124044  1
  O  O72  1  0.43744559  0.14130164  0.93124044  1
  O  O73  1  0.05855932  0.63865789  0.56792641  1
  O  O74  1  0.06255441  0.85869836  0.43124044  1
  O  O75  1  0.44144068  0.36134211  0.06792641  1
