# generated using pymatgen
data_LaAlCu4
_symmetry_space_group_name_H-M   'P 1'
_cell_length_a   4.19817702
_cell_length_b   5.17917555
_cell_length_c   5.17917651
_cell_angle_alpha   61.62977346
_cell_angle_beta   90.00000000
_cell_angle_gamma   90.00000000
_symmetry_Int_Tables_number   1
_chemical_formula_structural   LaAlCu4
_chemical_formula_sum   'La1 Al1 Cu4'
_cell_volume   99.08621555
_cell_formula_units_Z   1
loop_
 _symmetry_equiv_pos_site_id
 _symmetry_equiv_pos_as_xyz
  1  'x, y, z'
loop_
 _atom_site_type_symbol
 _atom_site_label
 _atom_site_symmetry_multiplicity
 _atom_site_fract_x
 _atom_site_fract_y
 _atom_site_fract_z
 _atom_site_occupancy
  La  La0  1  0.00000000  0.99998096  0.00001904  1
  Al  Al1  1  0.50000000  0.49999610  0.50000390  1
  Cu  Cu2  1  0.00000000  0.33360772  0.33364990  1
  Cu  Cu3  1  0.00000000  0.66635010  0.66639228  1
  Cu  Cu4  1  0.50000000  0.49998530  0.00002019  1
  Cu  Cu5  1  0.50000000  0.99997981  0.50001470  1
