# generated using pymatgen
data_LaAlSi
_symmetry_space_group_name_H-M   'P 1'
_cell_length_a   4.32482786
_cell_length_b   4.32482786
_cell_length_c   7.98149135
_cell_angle_alpha   74.28047116
_cell_angle_beta   74.28047116
_cell_angle_gamma   90.00000000
_symmetry_Int_Tables_number   1
_chemical_formula_structural   LaAlSi
_chemical_formula_sum   'La2 Al2 Si2'
_cell_volume   137.89418759
_cell_formula_units_Z   2
loop_
 _symmetry_equiv_pos_site_id
 _symmetry_equiv_pos_as_xyz
  1  'x, y, z'
loop_
 _atom_site_type_symbol
 _atom_site_label
 _atom_site_symmetry_multiplicity
 _atom_site_fract_x
 _atom_site_fract_y
 _atom_site_fract_z
 _atom_site_occupancy
  La  La0  1  0.87497990  0.62497990  0.25004020  1
  La  La1  1  0.12497990  0.37497990  0.75004020  1
  Al  Al2  1  0.54171268  0.79171268  0.91657463  1
  Al  Al3  1  0.29171268  0.04171268  0.41657463  1
  Si  Si4  1  0.45830742  0.20830742  0.08338517  1
  Si  Si5  1  0.70830742  0.95830742  0.58338517  1
