# generated using pymatgen
data_LaZrTa3O11
_symmetry_space_group_name_H-M   'P 1'
_cell_length_a   6.34844343
_cell_length_b   6.34843521
_cell_length_c   12.58478499
_cell_angle_alpha   90.10062865
_cell_angle_beta   89.89918653
_cell_angle_gamma   60.18075970
_symmetry_Int_Tables_number   1
_chemical_formula_structural   LaZrTa3O11
_chemical_formula_sum   'La2 Zr2 Ta6 O22'
_cell_volume   440.04377079
_cell_formula_units_Z   2
loop_
 _symmetry_equiv_pos_site_id
 _symmetry_equiv_pos_as_xyz
  1  'x, y, z'
loop_
 _atom_site_type_symbol
 _atom_site_label
 _atom_site_symmetry_multiplicity
 _atom_site_fract_x
 _atom_site_fract_y
 _atom_site_fract_z
 _atom_site_occupancy
  La  La0  1  0.33138497  0.33136922  0.74999539  1
  La  La1  1  0.66697752  0.66694789  0.25000346  1
  Zr  Zr2  1  0.36047479  0.00012872  0.50079118  1
  Zr  Zr3  1  0.00012363  0.36046049  0.99920951  1
  Ta  Ta4  1  0.00251862  0.64293012  0.50057542  1
  Ta  Ta5  1  0.64410642  0.35847017  0.49872863  1
  Ta  Ta6  1  0.64292561  0.00250997  0.99942528  1
  Ta  Ta7  1  0.35847002  0.64409115  0.00127027  1
  Ta  Ta8  1  0.33015939  0.33015349  0.25000012  1
  Ta  Ta9  1  0.66565550  0.66564206  0.75000137  1
  O  O10  1  0.75552232  0.00138755  0.49959020  1
  O  O11  1  0.98771808  0.25494268  0.50085332  1
  O  O12  1  0.24166648  0.74741228  0.49974013  1
  O  O13  1  0.25493550  0.98770599  0.99914778  1
  O  O14  1  0.00138209  0.75551534  0.00041026  1
  O  O15  1  0.74740162  0.24164959  0.00025898  1
  O  O16  1  0.43707957  0.62082278  0.84460432  1
  O  O17  1  0.62929309  0.93810413  0.84555779  1
  O  O18  1  0.94626847  0.43222985  0.83500506  1
  O  O19  1  0.05445892  0.37813540  0.16433886  1
  O  O20  1  0.56672259  0.06002492  0.15443306  1
  O  O21  1  0.37720581  0.56480397  0.15564429  1
  O  O22  1  0.56481206  0.37720352  0.34435634  1
  O  O23  1  0.37814152  0.05445193  0.33566183  1
  O  O24  1  0.06004352  0.56671338  0.34556869  1
  O  O25  1  0.93810800  0.62929171  0.65444169  1
  O  O26  1  0.43223028  0.94626379  0.66499223  1
  O  O27  1  0.62083208  0.43707406  0.65539473  1
  O  O28  1  0.33118343  0.34012595  0.54124560  1
  O  O29  1  0.67077285  0.66150562  0.45880576  1
  O  O30  1  0.66150096  0.67076186  0.04119174  1
  O  O31  1  0.34012428  0.33117040  0.95875672  1
