# generated using pymatgen
data_LaAs2Au
_symmetry_space_group_name_H-M   'P 1'
_cell_length_a   4.17103784
_cell_length_b   4.17103784
_cell_length_c   10.90542811
_cell_angle_alpha   78.89167655
_cell_angle_beta   78.89167655
_cell_angle_gamma   89.57221949
_symmetry_Int_Tables_number   1
_chemical_formula_structural   LaAs2Au
_chemical_formula_sum   'La2 As4 Au2'
_cell_volume   182.59852742
_cell_formula_units_Z   2
loop_
 _symmetry_equiv_pos_site_id
 _symmetry_equiv_pos_as_xyz
  1  'x, y, z'
loop_
 _atom_site_type_symbol
 _atom_site_label
 _atom_site_symmetry_multiplicity
 _atom_site_fract_x
 _atom_site_fract_y
 _atom_site_fract_z
 _atom_site_occupancy
  La  La0  1  0.11122206  0.12571207  0.76306587  1
  La  La1  1  0.87428793  0.88877794  0.23693413  1
  As  As2  1  0.33121904  0.34534275  0.32343820  1
  As  As3  1  0.65465725  0.66878096  0.67656180  1
  As  As4  1  0.50677363  0.06171461  1.00000000  1
  As  As5  1  0.93828539  0.49322637  0.00000000  1
  Au  Au6  1  0.75012735  0.24987265  0.50000000  1
  Au  Au7  1  0.25012735  0.74987265  0.50000000  1
