# generated using pymatgen
data_LaGaNi4
_symmetry_space_group_name_H-M   'P 1'
_cell_length_a   3.87974146
_cell_length_b   5.17973726
_cell_length_c   5.17914499
_cell_angle_alpha   60.01424902
_cell_angle_beta   90.00000000
_cell_angle_gamma   90.00000000
_symmetry_Int_Tables_number   1
_chemical_formula_structural   LaGaNi4
_chemical_formula_sum   'La1 Ga1 Ni4'
_cell_volume   90.14913359
_cell_formula_units_Z   1
loop_
 _symmetry_equiv_pos_site_id
 _symmetry_equiv_pos_as_xyz
  1  'x, y, z'
loop_
 _atom_site_type_symbol
 _atom_site_label
 _atom_site_symmetry_multiplicity
 _atom_site_fract_x
 _atom_site_fract_y
 _atom_site_fract_z
 _atom_site_occupancy
  La  La0  1  -0.00000000  0.99996458  0.00005096  1
  Ga  Ga1  1  0.00000000  0.33332855  0.33333979  1
  Ni  Ni2  1  0.00000000  0.66663370  0.66668889  1
  Ni  Ni3  1  0.50000000  0.50319733  0.50321490  1
  Ni  Ni4  1  0.50000000  0.50319255  0.99359937  1
  Ni  Ni5  1  0.50000000  0.99358329  0.50320609  1
