# generated using pymatgen
data_VP2O7
_symmetry_space_group_name_H-M   'P 1'
_cell_length_a   3.80868675
_cell_length_b   8.24463169
_cell_length_c   8.24463170
_cell_angle_alpha   86.94172205
_cell_angle_beta   76.64523409
_cell_angle_gamma   76.64524006
_symmetry_Int_Tables_number   1
_chemical_formula_structural   VP2O7
_chemical_formula_sum   'V2 P4 O14'
_cell_volume   245.07919763
_cell_formula_units_Z   2
loop_
 _symmetry_equiv_pos_site_id
 _symmetry_equiv_pos_as_xyz
  1  'x, y, z'
loop_
 _atom_site_type_symbol
 _atom_site_label
 _atom_site_symmetry_multiplicity
 _atom_site_fract_x
 _atom_site_fract_y
 _atom_site_fract_z
 _atom_site_occupancy
  V  V0  1  0.00000000  0.00000000  0.00000000  1
  V  V1  1  0.25000000  0.50000000  0.50000000  1
  P  P2  1  0.12500000  0.59365602  0.90634398  1
  P  P3  1  0.28134398  0.09365602  0.59365602  1
  P  P4  1  0.96865602  0.90634398  0.40634398  1
  P  P5  1  0.62500000  0.40634398  0.09365602  1
  O  O6  1  0.04511647  0.56648422  0.74196961  1
  O  O7  1  0.21291292  0.74196961  0.43351578  1
  O  O8  1  0.35357130  0.43351578  0.25803039  1
  O  O9  1  0.89642870  0.24196961  0.06648422  1
  O  O10  1  0.03708708  0.06648422  0.75803039  1
  O  O11  1  0.62500000  0.93450697  0.56549303  1
  O  O12  1  0.86160169  0.93351578  0.24196961  1
  O  O13  1  0.75000000  0.50000000  0.50000000  1
  O  O14  1  0.38839831  0.25803039  0.56648422  1
  O  O15  1  0.12500000  0.06549303  0.43450697  1
  O  O16  1  0.20488353  0.75803039  0.93351578  1
  O  O17  1  0.44049303  0.43450697  0.93450697  1
  O  O18  1  0.50000000  0.00000000  0.00000000  1
  O  O19  1  0.80950697  0.56549303  0.06549303  1
