# generated using pymatgen
data_KGaGeS4
_symmetry_space_group_name_H-M   'P 1'
_cell_length_a   6.99864059
_cell_length_b   7.27420490
_cell_length_c   16.27618188
_cell_angle_alpha   90.00000000
_cell_angle_beta   90.00000000
_cell_angle_gamma   111.46716581
_symmetry_Int_Tables_number   1
_chemical_formula_structural   KGaGeS4
_chemical_formula_sum   'K4 Ga4 Ge4 S16'
_cell_volume   771.13002128
_cell_formula_units_Z   4
loop_
 _symmetry_equiv_pos_site_id
 _symmetry_equiv_pos_as_xyz
  1  'x, y, z'
loop_
 _atom_site_type_symbol
 _atom_site_label
 _atom_site_symmetry_multiplicity
 _atom_site_fract_x
 _atom_site_fract_y
 _atom_site_fract_z
 _atom_site_occupancy
  K  K0  1  0.22593770  0.82091904  0.89589250  1
  K  K1  1  0.27406230  0.17908096  0.39589250  1
  K  K2  1  0.77077408  0.18055229  0.10368322  1
  K  K3  1  0.72922592  0.81944771  0.60368322  1
  Ga  Ga4  1  0.41517005  0.52525897  0.08444242  1
  Ga  Ga5  1  0.08482995  0.47474103  0.58444242  1
  Ga  Ga6  1  0.84473447  0.28169481  0.77389933  1
  Ga  Ga7  1  0.65526553  0.71830519  0.27389933  1
  Ge  Ge8  1  0.58655658  0.47213572  0.91976237  1
  Ge  Ge9  1  0.91344342  0.52786428  0.41976237  1
  Ge  Ge10  1  0.15873715  0.72915738  0.22391218  1
  Ge  Ge11  1  0.34126285  0.27084262  0.72391218  1
  S  S12  1  0.13799175  0.62386315  0.09398551  1
  S  S13  1  0.36200825  0.37613685  0.59398551  1
  S  S14  1  0.85527272  0.37828223  0.90996695  1
  S  S15  1  0.64472728  0.62171777  0.40996695  1
  S  S16  1  0.02417766  0.44697508  0.29929189  1
  S  S17  1  0.47582234  0.55302492  0.79929189  1
  S  S18  1  0.97784235  0.56481522  0.70191531  1
  S  S19  1  0.52215765  0.43518478  0.20191531  1
  S  S20  1  0.47504156  0.92683886  0.26227229  1
  S  S21  1  0.02495844  0.07316114  0.76227229  1
  S  S22  1  0.51622206  0.07067666  0.73850071  1
  S  S23  1  0.98377794  0.92932334  0.23850071  1
  S  S24  1  0.15894472  0.74606211  0.49564320  1
  S  S25  1  0.34105528  0.25393789  0.99564320  1
  S  S26  1  0.84063852  0.25545195  0.49683212  1
  S  S27  1  0.65936148  0.74454805  0.99683212  1
