# generated using pymatgen
data_La2VFeO6
_symmetry_space_group_name_H-M   'P 1'
_cell_length_a   5.63444222
_cell_length_b   5.57859788
_cell_length_c   8.05820803
_cell_angle_alpha   90.00000000
_cell_angle_beta   90.19730524
_cell_angle_gamma   90.00000000
_symmetry_Int_Tables_number   1
_chemical_formula_structural   La2VFeO6
_chemical_formula_sum   'La4 V2 Fe2 O12'
_cell_volume   253.28640908
_cell_formula_units_Z   2
loop_
 _symmetry_equiv_pos_site_id
 _symmetry_equiv_pos_as_xyz
  1  'x, y, z'
loop_
 _atom_site_type_symbol
 _atom_site_label
 _atom_site_symmetry_multiplicity
 _atom_site_fract_x
 _atom_site_fract_y
 _atom_site_fract_z
 _atom_site_occupancy
  La  La0  1  0.50617953  0.53907668  0.25265058  1
  La  La1  1  0.99382047  0.03907668  0.24734942  1
  La  La2  1  0.49382047  0.46092332  0.74734942  1
  La  La3  1  0.00617953  0.96092332  0.75265058  1
  V  V4  1  0.50000000  -0.00000000  0.00000000  1
  V  V5  1  0.00000000  0.50000000  0.50000000  1
  Fe  Fe6  1  0.50000000  -0.00000000  0.50000000  1
  Fe  Fe7  1  0.00000000  0.50000000  0.00000000  1
  O  O8  1  0.41161431  0.98251427  0.24022702  1
  O  O9  1  0.08838569  0.48251427  0.25977298  1
  O  O10  1  0.58838569  0.01748573  0.75977298  1
  O  O11  1  0.91161431  0.51748573  0.74022702  1
  O  O12  1  0.78036178  0.79124083  0.04973951  1
  O  O13  1  0.71963822  0.29124083  0.45026049  1
  O  O14  1  0.19445705  0.22717951  0.54521398  1
  O  O15  1  0.30554295  0.72717951  0.95478602  1
  O  O16  1  0.21963822  0.20875917  0.95026049  1
  O  O17  1  0.28036178  0.70875917  0.54973951  1
  O  O18  1  0.80554295  0.77282049  0.45478602  1
  O  O19  1  0.69445705  0.27282049  0.04521398  1
