# generated using pymatgen
data_KGaGe3O8
_symmetry_space_group_name_H-M   'P 1'
_cell_length_a   7.64765236
_cell_length_b   8.12094264
_cell_length_c   8.34401315
_cell_angle_alpha   113.49206711
_cell_angle_beta   104.40599185
_cell_angle_gamma   103.07860494
_symmetry_Int_Tables_number   1
_chemical_formula_structural   KGaGe3O8
_chemical_formula_sum   'K2 Ga2 Ge6 O16'
_cell_volume   428.30789352
_cell_formula_units_Z   2
loop_
 _symmetry_equiv_pos_site_id
 _symmetry_equiv_pos_as_xyz
  1  'x, y, z'
loop_
 _atom_site_type_symbol
 _atom_site_label
 _atom_site_symmetry_multiplicity
 _atom_site_fract_x
 _atom_site_fract_y
 _atom_site_fract_z
 _atom_site_occupancy
  K  K0  1  0.13683802  0.27684890  0.27356710  1
  K  K1  1  0.86316198  0.72315110  0.72643290  1
  Ga  Ga2  1  0.22060034  0.81760134  0.19109931  1
  Ga  Ga3  1  0.77939966  0.18239866  0.80890069  1
  Ge  Ge4  1  0.22264538  0.18902921  0.82338422  1
  Ge  Ge5  1  0.77735462  0.81097079  0.17661578  1
  Ge  Ge6  1  0.34193361  0.58867256  0.82457765  1
  Ge  Ge7  1  0.34986229  0.81977148  0.58489009  1
  Ge  Ge8  1  0.65806639  0.41132744  0.17542235  1
  Ge  Ge9  1  0.65013771  0.18022852  0.41510991  1
  O  O10  1  0.28446149  0.61328988  0.61856276  1
  O  O11  1  0.71553851  0.38671012  0.38143724  1
  O  O12  1  0.39940850  0.06544247  0.30288449  1
  O  O13  1  0.40183492  0.30567971  0.05702078  1
  O  O14  1  0.60059150  0.93455753  0.69711551  1
  O  O15  1  0.59816508  0.69432029  0.94297922  1
  O  O16  1  0.99069891  0.86084461  0.13637916  1
  O  O17  1  0.00930109  0.13915539  0.86362084  1
  O  O18  1  0.25686787  0.70133152  0.33805416  1
  O  O19  1  0.26566122  0.33125986  0.71219970  1
  O  O20  1  0.74313213  0.29866848  0.66194584  1
  O  O21  1  0.73433878  0.66874014  0.28780030  1
  O  O22  1  0.20155360  0.66857548  0.94931665  1
  O  O23  1  0.21011611  0.95576497  0.67366530  1
  O  O24  1  0.79844640  0.33142452  0.05068335  1
  O  O25  1  0.78988389  0.04423503  0.32633470  1
