# generated using pymatgen
data_KBa2Bi2O7
_symmetry_space_group_name_H-M   'P 1'
_cell_length_a   4.37189465
_cell_length_b   4.37189465
_cell_length_c   11.57884281
_cell_angle_alpha   79.11793449
_cell_angle_beta   79.11793449
_cell_angle_gamma   90.00000000
_symmetry_Int_Tables_number   1
_chemical_formula_structural   KBa2Bi2O7
_chemical_formula_sum   'K1 Ba2 Bi2 O7'
_cell_volume   213.27821492
_cell_formula_units_Z   1
loop_
 _symmetry_equiv_pos_site_id
 _symmetry_equiv_pos_as_xyz
  1  'x, y, z'
loop_
 _atom_site_type_symbol
 _atom_site_label
 _atom_site_symmetry_multiplicity
 _atom_site_fract_x
 _atom_site_fract_y
 _atom_site_fract_z
 _atom_site_occupancy
  K  K0  1  0.31386139  0.31386139  0.37227722  1
  Ba  Ba1  1  0.49496925  0.49496925  0.01006151  1
  Ba  Ba2  1  0.68886095  0.68886095  0.62227809  1
  Bi  Bi3  1  0.09720587  0.09720587  0.80558826  1
  Bi  Bi4  1  0.89667104  0.89667104  0.20665791  1
  O  O5  1  0.19214772  0.19214772  0.61570456  1
  O  O6  1  0.80286852  0.80286852  0.39426297  1
  O  O7  1  0.59645148  0.09645148  0.80709705  1
  O  O8  1  0.09645148  0.59645148  0.80709705  1
  O  O9  1  0.41019672  0.91019672  0.17960657  1
  O  O10  1  0.91019672  0.41019672  0.17960657  1
  O  O11  1  0.00011888  0.00011888  0.99976224  1
