# generated using pymatgen
data_La4Zr8Ni15As16
_symmetry_space_group_name_H-M   'P 1'
_cell_length_a   3.96907166
_cell_length_b   9.41854881
_cell_length_c   19.70772965
_cell_angle_alpha   97.68063383
_cell_angle_beta   90.00000000
_cell_angle_gamma   90.00000000
_symmetry_Int_Tables_number   1
_chemical_formula_structural   La4Zr8Ni15As16
_chemical_formula_sum   'La4 Zr8 Ni15 As16'
_cell_volume   730.12234973
_cell_formula_units_Z   1
loop_
 _symmetry_equiv_pos_site_id
 _symmetry_equiv_pos_as_xyz
  1  'x, y, z'
loop_
 _atom_site_type_symbol
 _atom_site_label
 _atom_site_symmetry_multiplicity
 _atom_site_fract_x
 _atom_site_fract_y
 _atom_site_fract_z
 _atom_site_occupancy
  La  La0  1  0.25000000  0.63513679  0.37508520  1
  La  La1  1  0.25000000  0.63585050  0.87788944  1
  La  La2  1  0.75000000  0.37689687  0.12712796  1
  La  La3  1  0.75000000  0.36388130  0.62262655  1
  Zr  Zr4  1  0.25000000  0.87244429  0.05293056  1
  Zr  Zr5  1  0.25000000  0.87161052  0.55258345  1
  Zr  Zr6  1  0.75000000  0.12772993  0.44669544  1
  Zr  Zr7  1  0.75000000  0.12953407  0.94870380  1
  Zr  Zr8  1  0.25000000  0.84709453  0.22593353  1
  Zr  Zr9  1  0.25000000  0.85806610  0.72693013  1
  Zr  Zr10  1  0.75000000  0.14034119  0.27240882  1
  Zr  Zr11  1  0.75000000  0.14181374  0.77314029  1
  Ni  Ni12  1  0.25000000  0.11255273  0.16053216  1
  Ni  Ni13  1  0.25000000  0.11511031  0.65962985  1
  Ni  Ni14  1  0.75000000  0.88479947  0.34045007  1
  Ni  Ni15  1  0.75000000  0.88532108  0.84056920  1
  Ni  Ni16  1  0.25000000  0.38868277  0.49062009  1
  Ni  Ni17  1  0.25000000  0.38792812  0.98941570  1
  Ni  Ni18  1  0.75000000  0.61248727  0.00916869  1
  Ni  Ni19  1  0.75000000  0.61063753  0.50969537  1
  Ni  Ni20  1  0.25000000  0.29076019  0.36205535  1
  Ni  Ni21  1  0.25000000  0.29008853  0.86180709  1
  Ni  Ni22  1  0.75000000  0.71176607  0.13629576  1
  Ni  Ni23  1  0.75000000  0.70955969  0.63769057  1
  Ni  Ni24  1  0.25000000  0.56558281  0.70390732  1
  Ni  Ni25  1  0.75000000  0.43239696  0.29588022  1
  Ni  Ni26  1  0.75000000  0.43443826  0.79623352  1
  As  As27  1  0.25000000  0.02787239  0.34934943  1
  As  As28  1  0.25000000  0.02963124  0.85099801  1
  As  As29  1  0.75000000  0.97018730  0.14993710  1
  As  As30  1  0.75000000  0.97072337  0.64914587  1
  As  As31  1  0.25000000  0.17188079  0.04464285  1
  As  As32  1  0.25000000  0.16712866  0.54197808  1
  As  As33  1  0.75000000  0.83053787  0.45725472  1
  As  As34  1  0.75000000  0.83363579  0.95794687  1
  As  As35  1  0.25000000  0.33365566  0.24043430  1
  As  As36  1  0.25000000  0.33182868  0.74080033  1
  As  As37  1  0.75000000  0.66495286  0.25688891  1
  As  As38  1  0.75000000  0.66828925  0.75929016  1
  As  As39  1  0.25000000  0.59432529  0.08215486  1
  As  As40  1  0.25000000  0.59257216  0.58150131  1
  As  As41  1  0.75000000  0.40741985  0.41836514  1
  As  As42  1  0.75000000  0.40744721  0.91835593  1
