# generated using pymatgen
data_Li4Mo3O8
_symmetry_space_group_name_H-M   'P 1'
_cell_length_a   11.01424284
_cell_length_b   11.01424245
_cell_length_c   11.01424203
_cell_angle_alpha   32.50122879
_cell_angle_beta   32.50123246
_cell_angle_gamma   32.50123549
_symmetry_Int_Tables_number   1
_chemical_formula_structural   Li4Mo3O8
_chemical_formula_sum   'Li8 Mo6 O16'
_cell_volume   343.02505205
_cell_formula_units_Z   2
loop_
 _symmetry_equiv_pos_site_id
 _symmetry_equiv_pos_as_xyz
  1  'x, y, z'
loop_
 _atom_site_type_symbol
 _atom_site_label
 _atom_site_symmetry_multiplicity
 _atom_site_fract_x
 _atom_site_fract_y
 _atom_site_fract_z
 _atom_site_occupancy
  Li  Li0  1  0.24946631  0.24946631  0.24946631  1
  Li  Li1  1  0.18016342  0.18016342  0.18016342  1
  Li  Li2  1  0.81983658  0.81983658  0.81983658  1
  Li  Li3  1  0.68079651  0.68079651  0.68079651  1
  Li  Li4  1  0.75053369  0.75053369  0.75053369  1
  Li  Li5  1  0.00000000  0.00000000  0.00000000  1
  Li  Li6  1  0.50000000  0.50000000  0.50000000  1
  Li  Li7  1  0.31920349  0.31920349  0.31920349  1
  Mo  Mo8  1  0.25019341  0.74970421  0.25019341  1
  Mo  Mo9  1  0.74980659  0.74980659  0.25029579  1
  Mo  Mo10  1  0.74970421  0.25019341  0.25019341  1
  Mo  Mo11  1  0.74980659  0.25029579  0.74980659  1
  Mo  Mo12  1  0.25029579  0.74980659  0.74980659  1
  Mo  Mo13  1  0.25019341  0.25019341  0.74970421  1
  O  O14  1  0.11521961  0.62661421  0.11521961  1
  O  O15  1  0.61550057  0.61550057  0.12660550  1
  O  O16  1  0.37338579  0.88478039  0.88478039  1
  O  O17  1  0.11521961  0.11521961  0.62661421  1
  O  O18  1  0.88158384  0.88158384  0.88158384  1
  O  O19  1  0.38449943  0.38449943  0.87339450  1
  O  O20  1  0.61550057  0.12660550  0.61550057  1
  O  O21  1  0.87339450  0.38449943  0.38449943  1
  O  O22  1  0.61850165  0.61850165  0.61850165  1
  O  O23  1  0.11841616  0.11841616  0.11841616  1
  O  O24  1  0.88478039  0.88478039  0.37338579  1
  O  O25  1  0.38449943  0.87339450  0.38449943  1
  O  O26  1  0.88478039  0.37338579  0.88478039  1
  O  O27  1  0.62661421  0.11521961  0.11521961  1
  O  O28  1  0.38149835  0.38149835  0.38149835  1
  O  O29  1  0.12660550  0.61550057  0.61550057  1
