# generated using pymatgen
data_La2Al3Cu7
_symmetry_space_group_name_H-M   'P 1'
_cell_length_a   4.19294142
_cell_length_b   5.26538143
_cell_length_c   9.07530364
_cell_angle_alpha   90.59119449
_cell_angle_beta   90.00000000
_cell_angle_gamma   90.00000000
_symmetry_Int_Tables_number   1
_chemical_formula_structural   La2Al3Cu7
_chemical_formula_sum   'La2 Al3 Cu7'
_cell_volume   200.34876848
_cell_formula_units_Z   1
loop_
 _symmetry_equiv_pos_site_id
 _symmetry_equiv_pos_as_xyz
  1  'x, y, z'
loop_
 _atom_site_type_symbol
 _atom_site_label
 _atom_site_symmetry_multiplicity
 _atom_site_fract_x
 _atom_site_fract_y
 _atom_site_fract_z
 _atom_site_occupancy
  La  La0  1  -0.00000000  0.99965015  0.99917077  1
  La  La1  1  -0.00000000  0.50030450  0.50083131  1
  Al  Al2  1  0.50000000  0.50503495  0.99458173  1
  Al  Al3  1  0.50000000  0.99496673  0.50542175  1
  Al  Al4  1  0.50000000  0.24999791  0.25000480  1
  Cu  Cu5  1  0.00000000  0.99867854  0.33305885  1
  Cu  Cu6  1  -0.00000000  0.49981633  0.83266103  1
  Cu  Cu7  1  -0.00000000  0.50126990  0.16693391  1
  Cu  Cu8  1  -0.00000000  0.00010116  0.66733869  1
  Cu  Cu9  1  0.50000000  0.74999455  0.75000577  1
  Cu  Cu10  1  0.50000000  0.74999269  0.24999378  1
  Cu  Cu11  1  0.50000000  0.24999258  0.74999762  1
