# generated using pymatgen
data_La2SbO2
_symmetry_space_group_name_H-M   'P 1'
_cell_length_a   4.07785366
_cell_length_b   4.06467926
_cell_length_c   7.57492806
_cell_angle_alpha   74.43697872
_cell_angle_beta   74.38525118
_cell_angle_gamma   90.00000000
_symmetry_Int_Tables_number   1
_chemical_formula_structural   La2SbO2
_chemical_formula_sum   'La2 Sb1 O2'
_cell_volume   116.13493828
_cell_formula_units_Z   1
loop_
 _symmetry_equiv_pos_site_id
 _symmetry_equiv_pos_as_xyz
  1  'x, y, z'
loop_
 _atom_site_type_symbol
 _atom_site_label
 _atom_site_symmetry_multiplicity
 _atom_site_fract_x
 _atom_site_fract_y
 _atom_site_fract_z
 _atom_site_occupancy
  La  La0  1  0.33725561  0.34922462  0.32548877  1
  La  La1  1  0.66274439  0.67471339  0.67451123  1
  Sb  Sb2  1  0.00000000  0.02731253  1.00000000  1
  O  O3  1  0.75013311  0.26100784  0.49973377  1
  O  O4  1  0.24986689  0.76074161  0.50026623  1
