# generated using pymatgen
data_Ho2CoGe4
_symmetry_space_group_name_H-M   'P 1'
_cell_length_a   4.09979341
_cell_length_b   4.12153762
_cell_length_c   8.18942125
_cell_angle_alpha   75.42554630
_cell_angle_beta   90.00000000
_cell_angle_gamma   90.00000000
_symmetry_Int_Tables_number   1
_chemical_formula_structural   Ho2CoGe4
_chemical_formula_sum   'Ho2 Co1 Ge4'
_cell_volume   133.92748148
_cell_formula_units_Z   1
loop_
 _symmetry_equiv_pos_site_id
 _symmetry_equiv_pos_as_xyz
  1  'x, y, z'
loop_
 _atom_site_type_symbol
 _atom_site_label
 _atom_site_symmetry_multiplicity
 _atom_site_fract_x
 _atom_site_fract_y
 _atom_site_fract_z
 _atom_site_occupancy
  Ho  Ho0  1  0.25000000  0.89566822  0.20866356  1
  Ho  Ho1  1  0.75000000  0.10417094  0.79165812  1
  Co  Co2  1  0.25000000  0.69114547  0.61770906  1
  Ge  Ge3  1  0.25000000  0.26016806  0.47966389  1
  Ge  Ge4  1  0.75000000  0.75767449  0.48465101  1
  Ge  Ge5  1  0.25000000  0.54675563  0.90648875  1
  Ge  Ge6  1  0.75000000  0.44341720  0.11316560  1
