# generated using pymatgen
data_K(ThTe3)2
_symmetry_space_group_name_H-M   'P 1'
_cell_length_a   4.44656602
_cell_length_b   6.17021416
_cell_length_c   12.21832154
_cell_angle_alpha   90.00000000
_cell_angle_beta   79.51587989
_cell_angle_gamma   90.00000000
_symmetry_Int_Tables_number   1
_chemical_formula_structural   K(ThTe3)2
_chemical_formula_sum   'K1 Th2 Te6'
_cell_volume   329.62864632
_cell_formula_units_Z   1
loop_
 _symmetry_equiv_pos_site_id
 _symmetry_equiv_pos_as_xyz
  1  'x, y, z'
loop_
 _atom_site_type_symbol
 _atom_site_label
 _atom_site_symmetry_multiplicity
 _atom_site_fract_x
 _atom_site_fract_y
 _atom_site_fract_z
 _atom_site_occupancy
  K  K0  1  0.49626937  0.75000000  0.00746125  1
  Th  Th1  1  0.67860551  0.75000000  0.64278898  1
  Th  Th2  1  0.32121741  0.25000000  0.35756517  1
  Te  Te3  1  0.27476391  0.75000000  0.45047219  1
  Te  Te4  1  0.72536239  0.25000000  0.54927523  1
  Te  Te5  1  0.10353489  0.50078397  0.79293022  1
  Te  Te6  1  0.89620581  0.49657119  0.20758838  1
  Te  Te7  1  0.10353489  0.99921603  0.79293022  1
  Te  Te8  1  0.89620581  0.00342881  0.20758838  1
