# generated using pymatgen
data_Ho2FeSbO7
_symmetry_space_group_name_H-M   'P 1'
_cell_length_a   7.28413138
_cell_length_b   7.23635258
_cell_length_c   7.34628282
_cell_angle_alpha   90.00000000
_cell_angle_beta   59.71734534
_cell_angle_gamma   119.78325629
_symmetry_Int_Tables_number   1
_chemical_formula_structural   Ho2FeSbO7
_chemical_formula_sum   'Ho4 Fe2 Sb2 O14'
_cell_volume   273.53231954
_cell_formula_units_Z   2
loop_
 _symmetry_equiv_pos_site_id
 _symmetry_equiv_pos_as_xyz
  1  'x, y, z'
loop_
 _atom_site_type_symbol
 _atom_site_label
 _atom_site_symmetry_multiplicity
 _atom_site_fract_x
 _atom_site_fract_y
 _atom_site_fract_z
 _atom_site_occupancy
  Ho  Ho0  1  0.50000000  0.50000000  -0.00000000  1
  Ho  Ho1  1  0.50000000  -0.00000000  -0.00000000  1
  Ho  Ho2  1  -0.00000000  -0.00000000  0.50000000  1
  Ho  Ho3  1  -0.00000000  -0.00000000  -0.00000000  1
  Fe  Fe4  1  0.50000000  -0.00000000  0.50000000  1
  Fe  Fe5  1  0.50000000  0.50000000  0.50000000  1
  Sb  Sb6  1  -0.00000000  0.50000000  -0.00000000  1
  Sb  Sb7  1  -0.00000000  0.50000000  0.50000000  1
  O  O8  1  0.67903420  0.83951710  0.41048290  1
  O  O9  1  0.83334245  0.41667123  0.83332877  1
  O  O10  1  0.25068761  0.83217639  0.83967198  1
  O  O11  1  0.25068761  0.41851122  0.40964041  1
  O  O12  1  0.25068761  0.41851122  0.83967198  1
  O  O13  1  0.25068761  0.83217639  0.40964041  1
  O  O14  1  0.32096580  0.16048290  0.58951710  1
  O  O15  1  0.16665755  0.58332877  0.16667123  1
  O  O16  1  0.74931239  0.16782361  0.16032802  1
  O  O17  1  0.74931239  0.58148878  0.59035959  1
  O  O18  1  0.74931239  0.58148878  0.16032802  1
  O  O19  1  0.74931239  0.16782361  0.59035959  1
  O  O20  1  0.25396846  0.12698423  0.12301577  1
  O  O21  1  0.74603154  0.87301577  0.87698423  1
