# generated using pymatgen
data_La9Al5S21
_symmetry_space_group_name_H-M   'P 1'
_cell_length_a   11.88776843
_cell_length_b   11.88776503
_cell_length_c   11.88774330
_cell_angle_alpha   96.86966352
_cell_angle_beta   83.13035399
_cell_angle_gamma   83.13010718
_symmetry_Int_Tables_number   1
_chemical_formula_structural   La9Al5S21
_chemical_formula_sum   'La18 Al10 S42'
_cell_volume   1640.57405619
_cell_formula_units_Z   2
loop_
 _symmetry_equiv_pos_site_id
 _symmetry_equiv_pos_as_xyz
  1  'x, y, z'
loop_
 _atom_site_type_symbol
 _atom_site_label
 _atom_site_symmetry_multiplicity
 _atom_site_fract_x
 _atom_site_fract_y
 _atom_site_fract_z
 _atom_site_occupancy
  La  La0  1  0.24904001  0.12063297  0.87989804  1
  La  La1  1  0.91766968  0.45716532  0.21489846  1
  La  La2  1  0.58528666  0.78494561  0.54679292  1
  La  La3  1  0.45321735  0.41470855  0.78492049  1
  La  La4  1  0.12010637  0.75096526  0.12063007  1
  La  La5  1  0.78510832  0.08233664  0.45716496  1
  La  La6  1  0.54283260  0.21489060  0.08231875  1
  La  La7  1  0.21506068  0.54678942  0.41470615  1
  La  La8  1  0.87936932  0.87989848  0.75096093  1
  La  La9  1  0.41667143  0.21359683  0.45343425  1
  La  La10  1  0.07914622  0.54572800  0.78810325  1
  La  La11  1  0.75057828  0.87948556  0.11824982  1
  La  La12  1  0.21188305  0.92084897  0.54572937  1
  La  La13  1  0.88175567  0.24941043  0.87950202  1
  La  La14  1  0.54656353  0.58332272  0.21360688  1
  La  La15  1  0.12051445  0.11824406  0.24942501  1
  La  La16  1  0.78640033  0.45342795  0.58332041  1
  La  La17  1  0.45427564  0.78809652  0.92085052  1
  Al  Al18  1  0.94336120  0.72343504  0.39024214  1
  Al  Al19  1  0.60975740  0.05664665  0.72342366  1
  Al  Al20  1  0.27657271  0.39025407  0.05663532  1
  Al  Al21  1  0.44371776  0.88955105  0.22454814  1
  Al  Al22  1  0.11044372  0.22453878  0.55628325  1
  Al  Al23  1  0.77545941  0.55626957  0.88956724  1
  Al  Al24  1  0.15388290  0.84611664  0.84611796  1
  Al  Al25  1  0.83900745  0.16098836  0.16098765  1
  Al  Al26  1  0.33902148  0.66098189  0.66098155  1
  Al  Al27  1  0.65396655  0.34603154  0.34603071  1
  S  S28  1  0.81968383  0.84473161  0.51584301  1
  S  S29  1  0.48415213  0.18032168  0.84471373  1
  S  S30  1  0.15527880  0.51585568  0.18031350  1
  S  S31  1  0.65456214  0.67947592  0.01601351  1
  S  S32  1  0.32051422  0.01600203  0.34544246  1
  S  S33  1  0.98399150  0.34543130  0.67949250  1
  S  S34  1  0.69156132  0.54044073  0.38754297  1
  S  S35  1  0.34198751  0.87540469  0.73470817  1
  S  S36  1  0.00740549  0.22367074  0.07636965  1
  S  S37  1  0.92363538  0.99259645  0.22366902  1
  S  S38  1  0.61245413  0.30843952  0.54044205  1
  S  S39  1  0.26528916  0.65801445  0.87540237  1
  S  S40  1  0.12458871  0.73470513  0.65801370  1
  S  S41  1  0.77632472  0.07635488  0.99259601  1
  S  S42  1  0.45955381  0.38754326  0.30843534  1
  S  S43  1  0.64596953  0.13693209  0.27784353  1
  S  S44  1  0.29736779  0.47111469  0.61839251  1
  S  S45  1  0.98432379  0.78382851  0.93681420  1
  S  S46  1  0.38160083  0.70262828  0.47111057  1
  S  S47  1  0.06318173  0.01567465  0.78383365  1
  S  S48  1  0.72215173  0.35402737  0.13692274  1
  S  S49  1  0.21617061  0.93681987  0.01567684  1
  S  S50  1  0.86307639  0.27785550  0.35403263  1
  S  S51  1  0.52889696  0.61840089  0.70262713  1
  S  S52  1  0.97214010  0.54772501  0.44538787  1
  S  S53  1  0.63548204  0.88143242  0.77789236  1
  S  S54  1  0.29909330  0.21306579  0.10840293  1
  S  S55  1  0.89159849  0.70090575  0.21305384  1
  S  S56  1  0.55461922  0.02786531  0.54771020  1
  S  S57  1  0.22210622  0.36452106  0.88141897  1
  S  S58  1  0.11857737  0.77789490  0.36451666  1
  S  S59  1  0.78694914  0.10840284  0.70090262  1
  S  S60  1  0.45228908  0.44538757  0.02785764  1
  S  S61  1  0.51901993  0.96735170  0.07372988  1
  S  S62  1  0.18363571  0.30112011  0.40328470  1
  S  S63  1  0.84603341  0.63416657  0.73631215  1
  S  S64  1  0.59672069  0.81635649  0.30112055  1
  S  S65  1  0.26369567  0.15395852  0.63417333  1
  S  S66  1  0.92628514  0.48097228  0.96735466  1
  S  S67  1  0.36582757  0.73630249  0.15396013  1
  S  S68  1  0.03264725  0.07372065  0.48097492  1
  S  S69  1  0.69888728  0.40327314  0.81636489  1
