# generated using pymatgen
data_La3InPb4
_symmetry_space_group_name_H-M   'P 1'
_cell_length_a   8.93726434
_cell_length_b   8.93726434
_cell_length_c   8.94403788
_cell_angle_alpha   60.39270365
_cell_angle_beta   60.39270365
_cell_angle_gamma   90.63862850
_symmetry_Int_Tables_number   1
_chemical_formula_structural   La3InPb4
_chemical_formula_sum   'La6 In2 Pb8'
_cell_volume   508.31048978
_cell_formula_units_Z   2
loop_
 _symmetry_equiv_pos_site_id
 _symmetry_equiv_pos_as_xyz
  1  'x, y, z'
loop_
 _atom_site_type_symbol
 _atom_site_label
 _atom_site_symmetry_multiplicity
 _atom_site_fract_x
 _atom_site_fract_y
 _atom_site_fract_z
 _atom_site_occupancy
  La  La0  1  0.66129946  0.16129946  0.17873396  1
  La  La1  1  0.34003342  0.84003342  0.82126604  1
  La  La2  1  0.15974700  0.34056120  0.50000000  1
  La  La3  1  0.84056120  0.65974700  0.50000000  1
  La  La4  1  0.75020038  0.75020038  0.00000000  1
  La  La5  1  0.25020038  0.25020038  0.00000000  1
  In  In6  1  0.32184008  0.82184008  0.21406986  1
  In  In7  1  0.03590994  0.53590994  0.78593014  1
  Pb  Pb8  1  0.50026535  0.50026535  -0.00000000  1
  Pb  Pb9  1  0.00026535  0.00026535  0.00000000  1
  Pb  Pb10  1  0.82181326  0.03502535  0.50000000  1
  Pb  Pb11  1  0.53502535  0.32181326  0.50000000  1
  Pb  Pb12  1  0.67602009  0.17602009  0.78973090  1
  Pb  Pb13  1  0.96575099  0.46575099  0.21026910  1
  Pb  Pb14  1  0.17806952  0.96299824  0.50000000  1
  Pb  Pb15  1  0.46299824  0.67806952  0.50000000  1
