# generated using pymatgen
data_KMgMn2AlGe3(O5F)2
_symmetry_space_group_name_H-M   'P 1'
_cell_length_a   5.56093569
_cell_length_b   10.66500703
_cell_length_c   5.57136540
_cell_angle_alpha   79.43062392
_cell_angle_beta   59.90524473
_cell_angle_gamma   84.77697514
_symmetry_Int_Tables_number   1
_chemical_formula_structural   KMgMn2AlGe3(O5F)2
_chemical_formula_sum   'K1 Mg1 Mn2 Al1 Ge3 O10 F2'
_cell_volume   281.03078211
_cell_formula_units_Z   1
loop_
 _symmetry_equiv_pos_site_id
 _symmetry_equiv_pos_as_xyz
  1  'x, y, z'
loop_
 _atom_site_type_symbol
 _atom_site_label
 _atom_site_symmetry_multiplicity
 _atom_site_fract_x
 _atom_site_fract_y
 _atom_site_fract_z
 _atom_site_occupancy
  K  K0  1  0.99906116  0.02312994  0.49270253  1
  Mg  Mg1  1  0.34013300  0.49442070  0.33293035  1
  Mn  Mn2  1  0.66119775  0.49022117  0.67806509  1
  Mn  Mn3  1  0.99606130  0.49046063  0.99792331  1
  Al  Al4  1  0.66102270  0.22267004  0.09604226  1
  Ge  Ge5  1  0.33206435  0.21813096  0.75660105  1
  Ge  Ge6  1  0.33014852  0.77442362  0.91458345  1
  Ge  Ge7  1  0.66130425  0.77402285  0.24581708  1
  O  O8  1  0.99694797  0.16551529  0.02040021  1
  O  O9  1  0.99654929  0.83998550  0.99154654  1
  O  O10  1  0.57351795  0.16641915  0.87034585  1
  O  O11  1  0.42655672  0.15698083  0.44854537  1
  O  O12  1  0.43711506  0.84481170  0.11389498  1
  O  O13  1  0.56233404  0.83886876  0.55600312  1
  O  O14  1  0.65310193  0.39343583  0.04987425  1
  O  O15  1  0.33466225  0.39106739  0.68933449  1
  O  O16  1  0.32992963  0.60743478  0.97562265  1
  O  O17  1  0.65708843  0.60685958  0.30027535  1
  F  F18  1  0.02285643  0.40154132  0.36551213  1
  F  F19  1  0.02834730  0.59959997  0.60397997  1
