# generated using pymatgen
data_K(Nb3Se4)2
_symmetry_space_group_name_H-M   'P 1'
_cell_length_a   3.52452612
_cell_length_b   10.19635208
_cell_length_c   10.19494105
_cell_angle_alpha   119.99344687
_cell_angle_beta   89.99785050
_cell_angle_gamma   90.00167330
_symmetry_Int_Tables_number   1
_chemical_formula_structural   K(Nb3Se4)2
_chemical_formula_sum   'K1 Nb6 Se8'
_cell_volume   317.31425376
_cell_formula_units_Z   1
loop_
 _symmetry_equiv_pos_site_id
 _symmetry_equiv_pos_as_xyz
  1  'x, y, z'
loop_
 _atom_site_type_symbol
 _atom_site_label
 _atom_site_symmetry_multiplicity
 _atom_site_fract_x
 _atom_site_fract_y
 _atom_site_fract_z
 _atom_site_occupancy
  K  K0  1  0.50000000  0.00000000  0.00000000  1
  Nb  Nb1  1  0.74980334  0.38190689  0.89381834  1
  Nb  Nb2  1  0.74979334  0.10620947  0.48811649  1
  Nb  Nb3  1  0.74980210  0.51190703  0.61806835  1
  Nb  Nb4  1  0.25019666  0.61809311  0.10618166  1
  Nb  Nb5  1  0.25020666  0.89379053  0.51188351  1
  Nb  Nb6  1  0.25019790  0.48809297  0.38193165  1
  Se  Se7  1  0.75122468  0.05977470  0.71813645  1
  Se  Se8  1  0.75122275  0.28186818  0.34164299  1
  Se  Se9  1  0.75123037  0.65836356  0.94024163  1
  Se  Se10  1  0.24877532  0.94022530  0.28186355  1
  Se  Se11  1  0.24877725  0.71813182  0.65835701  1
  Se  Se12  1  0.24876963  0.34163644  0.05975837  1
  Se  Se13  1  0.74999630  0.66666293  0.33333700  1
  Se  Se14  1  0.25000370  0.33333707  0.66666300  1
