# generated using pymatgen
data_La2CuSn4
_symmetry_space_group_name_H-M   'P 1'
_cell_length_a   4.57146316
_cell_length_b   4.65295530
_cell_length_c   9.19193853
_cell_angle_alpha   75.33898249
_cell_angle_beta   90.00000000
_cell_angle_gamma   90.00000000
_symmetry_Int_Tables_number   1
_chemical_formula_structural   La2CuSn4
_chemical_formula_sum   'La2 Cu1 Sn4'
_cell_volume   189.15391584
_cell_formula_units_Z   1
loop_
 _symmetry_equiv_pos_site_id
 _symmetry_equiv_pos_as_xyz
  1  'x, y, z'
loop_
 _atom_site_type_symbol
 _atom_site_label
 _atom_site_symmetry_multiplicity
 _atom_site_fract_x
 _atom_site_fract_y
 _atom_site_fract_z
 _atom_site_occupancy
  La  La0  1  0.25000000  0.90521732  0.18956536  1
  La  La1  1  0.75000000  0.11083919  0.77832161  1
  Cu  Cu2  1  0.25000000  0.69382533  0.61234935  1
  Sn  Sn3  1  0.25000000  0.26819294  0.46361412  1
  Sn  Sn4  1  0.75000000  0.76830615  0.46338770  1
  Sn  Sn5  1  0.25000000  0.55009697  0.89980606  1
  Sn  Sn6  1  0.75000000  0.44352210  0.11295580  1
