# generated using pymatgen
data_NiP2H24(C2O7)2
_symmetry_space_group_name_H-M   'P 1'
_cell_length_a   7.18702740
_cell_length_b   9.86267485
_cell_length_c   12.65070530
_cell_angle_alpha   110.69078939
_cell_angle_beta   90.00000000
_cell_angle_gamma   90.00000000
_symmetry_Int_Tables_number   1
_chemical_formula_structural   NiP2H24(C2O7)2
_chemical_formula_sum   'Ni2 P4 H48 C8 O28'
_cell_volume   838.88598309
_cell_formula_units_Z   2
loop_
 _symmetry_equiv_pos_site_id
 _symmetry_equiv_pos_as_xyz
  1  'x, y, z'
loop_
 _atom_site_type_symbol
 _atom_site_label
 _atom_site_symmetry_multiplicity
 _atom_site_fract_x
 _atom_site_fract_y
 _atom_site_fract_z
 _atom_site_occupancy
  Ni  Ni0  1  0.00000000  0.50000000  0.50000000  1
  Ni  Ni1  1  0.50000000  0.00000000  0.50000000  1
  P  P2  1  0.48099364  0.53062972  0.75609898  1
  P  P3  1  0.51900636  0.46937028  0.24390102  1
  P  P4  1  0.98099364  0.96937028  0.24390102  1
  P  P5  1  0.01900636  0.03062972  0.75609898  1
  H  H6  1  0.25750995  0.28689497  0.85399529  1
  H  H7  1  0.28158157  0.79672148  0.99673110  1
  H  H8  1  0.60763570  0.96051139  0.69497516  1
  H  H9  1  0.30284810  0.35702052  0.39430561  1
  H  H10  1  0.27590956  0.77073905  0.47218333  1
  H  H11  1  0.67083911  0.75347786  0.37726786  1
  H  H12  1  0.71841843  0.20327852  0.00326890  1
  H  H13  1  0.89236430  0.46051139  0.69497516  1
  H  H14  1  0.66001281  0.85490423  0.09911527  1
  H  H15  1  0.86239220  0.94201374  0.93321869  1
  H  H16  1  0.10763570  0.53948861  0.30502484  1
  H  H17  1  0.60663840  0.28226806  0.80900350  1
  H  H18  1  0.17337472  0.12725727  0.59057181  1
  H  H19  1  0.13760780  0.05798626  0.06678131  1
  H  H20  1  0.39336160  0.71773194  0.19099650  1
  H  H21  1  0.33998719  0.14509577  0.90088473  1
  H  H22  1  0.61888138  0.05520163  0.31261439  1
  H  H23  1  0.11888138  0.44479837  0.68738561  1
  H  H24  1  0.32916089  0.24652214  0.62273214  1
  H  H25  1  0.16481190  0.64828729  0.14874931  1
  H  H26  1  0.24249005  0.78689497  0.85399529  1
  H  H27  1  0.82662528  0.87274273  0.40942819  1
  H  H28  1  0.77590956  0.72926095  0.52781667  1
  H  H29  1  0.16001281  0.64509577  0.90088473  1
  H  H30  1  0.83998719  0.35490423  0.09911527  1
  H  H31  1  0.32662528  0.62725727  0.59057181  1
  H  H32  1  0.67337472  0.37274273  0.40942819  1
  H  H33  1  0.10663840  0.21773194  0.19099650  1
  H  H34  1  0.63760780  0.44201374  0.93321869  1
  H  H35  1  0.36239220  0.55798626  0.06678131  1
  H  H36  1  0.80284810  0.14297948  0.60569439  1
  H  H37  1  0.88111862  0.55520163  0.31261439  1
  H  H38  1  0.19715190  0.85702052  0.39430561  1
  H  H39  1  0.33518810  0.14828729  0.14874931  1
  H  H40  1  0.17083911  0.74652214  0.62273214  1
  H  H41  1  0.69715190  0.64297948  0.60569439  1
  H  H42  1  0.83518810  0.35171271  0.85125069  1
  H  H43  1  0.39236430  0.03948861  0.30502484  1
  H  H44  1  0.75750995  0.21310503  0.14600471  1
  H  H45  1  0.21841843  0.29672148  0.99673110  1
  H  H46  1  0.78158157  0.70327852  0.00326890  1
  H  H47  1  0.72409044  0.22926095  0.52781667  1
  H  H48  1  0.22409044  0.27073905  0.47218333  1
  H  H49  1  0.89336160  0.78226806  0.80900350  1
  H  H50  1  0.38111862  0.94479837  0.68738561  1
  H  H51  1  0.66481190  0.85171271  0.85125069  1
  H  H52  1  0.74249005  0.71310503  0.14600471  1
  H  H53  1  0.82916089  0.25347786  0.37726786  1
  C  C54  1  0.27195940  0.72396454  0.90850529  1
  C  C55  1  0.18905253  0.11900036  0.15214578  1
  C  C56  1  0.31094747  0.61900036  0.15214578  1
  C  C57  1  0.77195940  0.77603546  0.09149471  1
  C  C58  1  0.22804060  0.22396454  0.90850529  1
  C  C59  1  0.68905253  0.38099964  0.84785422  1
  C  C60  1  0.81094747  0.88099964  0.84785422  1
  C  C61  1  0.72804060  0.27603546  0.09149471  1
  O  O62  1  0.31914328  0.52971492  0.22192292  1
  O  O63  1  0.83186029  0.08481622  0.26678417  1
  O  O64  1  0.49654491  0.96161578  0.65012057  1
  O  O65  1  0.01078140  0.90079246  0.33191025  1
  O  O66  1  0.18912717  0.33534533  0.43077890  1
  O  O67  1  0.18085672  0.02971492  0.22192292  1
  O  O68  1  0.21450607  0.65963417  0.55871877  1
  O  O69  1  0.51078140  0.59920754  0.66808975  1
  O  O70  1  0.94949895  0.84877487  0.11981015  1
  O  O71  1  0.68085672  0.47028508  0.77807708  1
  O  O72  1  0.55050105  0.34877487  0.11981015  1
  O  O73  1  0.99654491  0.53838422  0.34987943  1
  O  O74  1  0.71450607  0.84036583  0.44128123  1
  O  O75  1  0.68912717  0.16465467  0.56922110  1
  O  O76  1  0.31087283  0.83534533  0.43077890  1
  O  O77  1  0.00345509  0.46161578  0.65012057  1
  O  O78  1  0.66813971  0.58481622  0.26678417  1
  O  O79  1  0.16813971  0.91518378  0.73321583  1
  O  O80  1  0.98921860  0.09920754  0.66808975  1
  O  O81  1  0.05050105  0.15122513  0.88018985  1
  O  O82  1  0.81914328  0.97028508  0.77807708  1
  O  O83  1  0.48921860  0.40079246  0.33191025  1
  O  O84  1  0.33186029  0.41518378  0.73321583  1
  O  O85  1  0.78549393  0.34036583  0.44128123  1
  O  O86  1  0.44949895  0.65122513  0.88018985  1
  O  O87  1  0.28549393  0.15963417  0.55871877  1
  O  O88  1  0.81087283  0.66465467  0.56922110  1
  O  O89  1  0.50345509  0.03838422  0.34987943  1
