# generated using pymatgen
data_K4TiSn3(PO5)4
_symmetry_space_group_name_H-M   'P 1'
_cell_length_a   6.58795567
_cell_length_b   10.86771688
_cell_length_c   13.28155789
_cell_angle_alpha   90.00000000
_cell_angle_beta   89.94168676
_cell_angle_gamma   90.00000000
_symmetry_Int_Tables_number   1
_chemical_formula_structural   K4TiSn3(PO5)4
_chemical_formula_sum   'K8 Ti2 Sn6 P8 O40'
_cell_volume   950.90641856
_cell_formula_units_Z   2
loop_
 _symmetry_equiv_pos_site_id
 _symmetry_equiv_pos_as_xyz
  1  'x, y, z'
loop_
 _atom_site_type_symbol
 _atom_site_label
 _atom_site_symmetry_multiplicity
 _atom_site_fract_x
 _atom_site_fract_y
 _atom_site_fract_z
 _atom_site_occupancy
  K  K0  1  0.72336941  0.30221114  0.87880036  1
  K  K1  1  0.27663059  0.80221114  0.12119964  1
  K  K2  1  0.22261545  0.80285838  0.62542608  1
  K  K3  1  0.77738455  0.30285838  0.37457392  1
  K  K4  1  0.80468948  0.06088585  0.60996202  1
  K  K5  1  0.19531052  0.56088585  0.39003798  1
  K  K6  1  0.30281653  0.55997596  0.89446668  1
  K  K7  1  0.69718347  0.05997596  0.10553332  1
  Ti  Ti8  1  0.00249994  0.99905775  0.86937806  1
  Ti  Ti9  1  0.99750006  0.49905775  0.13062194  1
  Sn  Sn10  1  0.50154771  0.49929732  0.62734776  1
  Sn  Sn11  1  0.49845229  0.99929732  0.37265224  1
  Sn  Sn12  1  0.24778517  0.24936256  0.74968642  1
  Sn  Sn13  1  0.75221483  0.74936256  0.25031358  1
  Sn  Sn14  1  0.74294986  0.74897342  0.75472395  1
  Sn  Sn15  1  0.25705014  0.24897342  0.24527605  1
  P  P16  1  0.15510097  0.24980140  0.00047283  1
  P  P17  1  0.84489903  0.74980140  0.99952717  1
  P  P18  1  0.66129782  0.74966829  0.49973753  1
  P  P19  1  0.33870218  0.24966829  0.50026247  1
  P  P20  1  0.99789235  0.50157217  0.67648798  1
  P  P21  1  0.00210765  0.00157217  0.32351202  1
  P  P22  1  0.49789584  0.00180707  0.82300138  1
  P  P23  1  0.50210416  0.50180707  0.17699862  1
  O  O24  1  0.30109282  0.22480426  0.09061232  1
  O  O25  1  0.69890718  0.72480426  0.90938768  1
  O  O26  1  0.80188840  0.72669454  0.40803204  1
  O  O27  1  0.19811160  0.22669454  0.59196796  1
  O  O28  1  0.29666556  0.27232697  0.90764879  1
  O  O29  1  0.70333444  0.77232697  0.09235121  1
  O  O30  1  0.79869802  0.77073172  0.59314700  1
  O  O31  1  0.20130198  0.27073172  0.40685300  1
  O  O32  1  0.81486460  0.47822044  0.60645355  1
  O  O33  1  0.18513540  0.97822044  0.39354645  1
  O  O34  1  0.30510502  0.98100098  0.88732192  1
  O  O35  1  0.69489498  0.48100098  0.11267808  1
  O  O36  1  0.02855372  0.39079472  0.74893208  1
  O  O37  1  0.97144628  0.89079472  0.25106792  1
  O  O38  1  0.52874251  0.89125533  0.74981729  1
  O  O39  1  0.47125749  0.39125533  0.25018271  1
  O  O40  1  0.51149788  0.63603602  0.72897680  1
  O  O41  1  0.48850212  0.13603602  0.27102320  1
  O  O42  1  0.02608584  0.12559468  0.77711238  1
  O  O43  1  0.97391416  0.62559468  0.22288762  1
  O  O44  1  0.18202806  0.52510757  0.60597773  1
  O  O45  1  0.81797194  0.02510757  0.39402227  1
  O  O46  1  0.68626354  0.02276928  0.89035369  1
  O  O47  1  0.31373646  0.52276928  0.10964631  1
  O  O48  1  0.46880520  0.37385122  0.73589971  1
  O  O49  1  0.53119480  0.87385122  0.26410029  1
  O  O50  1  0.95848073  0.88123851  0.77315662  1
  O  O51  1  0.04151927  0.38123851  0.22684338  1
  O  O52  1  0.01211537  0.13860592  0.98408394  1
  O  O53  1  0.98788463  0.63860592  0.01591606  1
  O  O54  1  0.51282789  0.63887910  0.51317726  1
  O  O55  1  0.48717211  0.13887910  0.48682274  1
  O  O56  1  0.02576398  0.36764810  0.01661383  1
  O  O57  1  0.97423602  0.86764810  0.98338617  1
  O  O58  1  0.52477715  0.86654691  0.48771618  1
  O  O59  1  0.47522285  0.36654691  0.51228382  1
  O  O60  1  0.97213935  0.61518844  0.74672167  1
  O  O61  1  0.02786065  0.11518844  0.25327833  1
  O  O62  1  0.47388777  0.11483397  0.75150472  1
  O  O63  1  0.52611223  0.61483397  0.24849528  1
