# generated using pymatgen
data_Hf10VSb5
_symmetry_space_group_name_H-M   'P 1'
_cell_length_a   5.58339589
_cell_length_b   8.30821891
_cell_length_c   8.30821891
_cell_angle_alpha   96.48292052
_cell_angle_beta   109.63435751
_cell_angle_gamma   70.36564249
_symmetry_Int_Tables_number   1
_chemical_formula_structural   Hf10VSb5
_chemical_formula_sum   'Hf10 V1 Sb5'
_cell_volume   341.88765663
_cell_formula_units_Z   1
loop_
 _symmetry_equiv_pos_site_id
 _symmetry_equiv_pos_as_xyz
  1  'x, y, z'
loop_
 _atom_site_type_symbol
 _atom_site_label
 _atom_site_symmetry_multiplicity
 _atom_site_fract_x
 _atom_site_fract_y
 _atom_site_fract_z
 _atom_site_occupancy
  Hf  Hf0  1  0.93761337  0.86028060  0.70793160  1
  Hf  Hf1  1  0.08996238  0.13971940  0.29206840  1
  Hf  Hf2  1  0.41003762  0.29206840  0.13971940  1
  Hf  Hf3  1  0.56238663  0.70793160  0.86028060  1
  Hf  Hf4  1  0.22968177  0.70793160  0.13971940  1
  Hf  Hf5  1  0.79789398  0.29206840  0.86028060  1
  Hf  Hf6  1  0.27031823  0.13971940  0.70793160  1
  Hf  Hf7  1  0.70210602  0.86028060  0.29206840  1
  Hf  Hf8  1  0.25000000  0.50000000  0.50000000  1
  Hf  Hf9  1  0.75000000  0.50000000  0.50000000  1
  V  V10  1  0.25000000  -0.00000000  0.00000000  1
  Sb  Sb11  1  0.33599852  0.82800297  0.50000000  1
  Sb  Sb12  1  0.66400148  0.17199703  0.50000000  1
  Sb  Sb13  1  0.83599852  0.50000000  0.17199703  1
  Sb  Sb14  1  0.16400148  0.50000000  0.82800297  1
  Sb  Sb15  1  0.75000000  -0.00000000  0.00000000  1
