# generated using pymatgen
data_AlSeBr3N
_symmetry_space_group_name_H-M   'P 1'
_cell_length_a   7.68470865
_cell_length_b   10.18696989
_cell_length_c   10.85784945
_cell_angle_alpha   90.00000000
_cell_angle_beta   90.00000000
_cell_angle_gamma   110.79895720
_symmetry_Int_Tables_number   1
_chemical_formula_structural   AlSeBr3N
_chemical_formula_sum   'Al4 Se4 Br12 N4'
_cell_volume   794.60241352
_cell_formula_units_Z   4
loop_
 _symmetry_equiv_pos_site_id
 _symmetry_equiv_pos_as_xyz
  1  'x, y, z'
loop_
 _atom_site_type_symbol
 _atom_site_label
 _atom_site_symmetry_multiplicity
 _atom_site_fract_x
 _atom_site_fract_y
 _atom_site_fract_z
 _atom_site_occupancy
  Al  Al0  1  0.38215651  0.15245148  0.12542073  1
  Al  Al1  1  0.11784349  0.34754852  0.62542073  1
  Al  Al2  1  0.88215651  0.65245148  0.37457927  1
  Al  Al3  1  0.61784349  0.84754852  0.87457927  1
  Se  Se4  1  0.47098850  0.62245368  0.46819172  1
  Se  Se5  1  0.52901150  0.37754632  0.53180828  1
  Se  Se6  1  0.97098850  0.12245368  0.03180828  1
  Se  Se7  1  0.02901150  0.87754632  0.96819172  1
  Br  Br8  1  0.20526528  0.15246471  0.65984102  1
  Br  Br9  1  0.56976363  0.94399823  0.69436133  1
  Br  Br10  1  0.61985484  0.20694317  0.98076703  1
  Br  Br11  1  0.93023637  0.55600177  0.19436133  1
  Br  Br12  1  0.79473472  0.84753529  0.34015898  1
  Br  Br13  1  0.88014516  0.29305683  0.48076703  1
  Br  Br14  1  0.06976363  0.44399823  0.80563867  1
  Br  Br15  1  0.43023637  0.05600177  0.30563867  1
  Br  Br16  1  0.38014516  0.79305683  0.01923297  1
  Br  Br17  1  0.29473472  0.34753529  0.15984102  1
  Br  Br18  1  0.70526528  0.65246471  0.84015898  1
  Br  Br19  1  0.11985484  0.70694317  0.51923297  1
  N  N20  1  0.84779586  0.95425643  0.95406847  1
  N  N21  1  0.34779586  0.45425643  0.54593153  1
  N  N22  1  0.65220414  0.54574357  0.45406847  1
  N  N23  1  0.15220414  0.04574357  0.04593153  1
