# generated using pymatgen
data_GdYScSbO7
_symmetry_space_group_name_H-M   'P 1'
_cell_length_a   7.40381336
_cell_length_b   7.38571882
_cell_length_c   7.46368932
_cell_angle_alpha   90.00000000
_cell_angle_beta   59.73211584
_cell_angle_gamma   119.91918768
_symmetry_Int_Tables_number   1
_chemical_formula_structural   GdYScSbO7
_chemical_formula_sum   'Gd2 Y2 Sc2 Sb2 O14'
_cell_volume   287.77304500
_cell_formula_units_Z   2
loop_
 _symmetry_equiv_pos_site_id
 _symmetry_equiv_pos_as_xyz
  1  'x, y, z'
loop_
 _atom_site_type_symbol
 _atom_site_label
 _atom_site_symmetry_multiplicity
 _atom_site_fract_x
 _atom_site_fract_y
 _atom_site_fract_z
 _atom_site_occupancy
  Gd  Gd0  1  0.00000000  0.50000000  0.00000000  1
  Gd  Gd1  1  0.00000000  0.50000000  0.50000000  1
  Y  Y2  1  0.50000000  0.00000000  0.50000000  1
  Y  Y3  1  0.50000000  0.50000000  0.50000000  1
  Sc  Sc4  1  0.50000000  0.50000000  0.00000000  1
  Sc  Sc5  1  0.50000000  0.00000000  0.00000000  1
  Sb  Sb6  1  -0.00000000  0.00000000  0.50000000  1
  Sb  Sb7  1  -0.00000000  0.00000000  0.00000000  1
  O  O8  1  0.73654894  0.36827447  0.38172553  1
  O  O9  1  0.26345106  0.63172553  0.61827447  1
  O  O10  1  0.85268133  0.92634066  0.32365934  1
  O  O11  1  0.69544520  0.34772260  0.90227740  1
  O  O12  1  0.25193182  0.92614529  0.90374233  1
  O  O13  1  0.25193182  0.32578653  0.34432585  1
  O  O14  1  0.25193182  0.32578653  0.90374233  1
  O  O15  1  0.25193182  0.92614529  0.34432585  1
  O  O16  1  0.14731867  0.07365934  0.67634066  1
  O  O17  1  0.30455480  0.65227740  0.09772260  1
  O  O18  1  0.74806818  0.07385471  0.09625767  1
  O  O19  1  0.74806818  0.67421347  0.65567415  1
  O  O20  1  0.74806818  0.67421347  0.09625767  1
  O  O21  1  0.74806818  0.07385471  0.65567415  1
