# generated using pymatgen
data_Hf3TiTe20
_symmetry_space_group_name_H-M   'P 1'
_cell_length_a   4.00511369
_cell_length_b   7.80657954
_cell_length_c   27.46354056
_cell_angle_alpha   90.00000000
_cell_angle_beta   90.00000000
_cell_angle_gamma   75.13622989
_symmetry_Int_Tables_number   1
_chemical_formula_structural   Hf3TiTe20
_chemical_formula_sum   'Hf3 Ti1 Te20'
_cell_volume   829.94881941
_cell_formula_units_Z   1
loop_
 _symmetry_equiv_pos_site_id
 _symmetry_equiv_pos_as_xyz
  1  'x, y, z'
loop_
 _atom_site_type_symbol
 _atom_site_label
 _atom_site_symmetry_multiplicity
 _atom_site_fract_x
 _atom_site_fract_y
 _atom_site_fract_z
 _atom_site_occupancy
  Hf  Hf0  1  0.68453634  0.63092733  0.62500000  1
  Hf  Hf1  1  0.31544634  0.36910733  0.37468514  1
  Hf  Hf2  1  0.31544634  0.36910733  0.87531486  1
  Ti  Ti3  1  0.68431769  0.63136462  0.12500000  1
  Te  Te4  1  0.07985565  0.84028870  0.17478706  1
  Te  Te5  1  0.07430176  0.85139649  0.67557872  1
  Te  Te6  1  0.92578980  0.14842039  0.32424977  1
  Te  Te7  1  0.92562443  0.14875114  0.82459062  1
  Te  Te8  1  0.07985565  0.84028870  0.07521294  1
  Te  Te9  1  0.07430176  0.85139649  0.57442128  1
  Te  Te10  1  0.92562443  0.14875114  0.42540938  1
  Te  Te11  1  0.92578980  0.14842039  0.92575023  1
  Te  Te12  1  0.66747287  0.66505426  0.37491843  1
  Te  Te13  1  0.66747287  0.66505426  0.87508157  1
  Te  Te14  1  0.32674252  0.34651495  0.12500000  1
  Te  Te15  1  0.33275459  0.33449083  0.62500000  1
  Te  Te16  1  0.78571959  0.42856082  0.21435426  1
  Te  Te17  1  0.78861337  0.42277326  0.71680694  1
  Te  Te18  1  0.21147906  0.57704189  0.28251640  1
  Te  Te19  1  0.21152157  0.57695685  0.78335054  1
  Te  Te20  1  0.78571959  0.42856082  0.03564574  1
  Te  Te21  1  0.78861337  0.42277326  0.53319306  1
  Te  Te22  1  0.21152157  0.57695685  0.46664946  1
  Te  Te23  1  0.21147906  0.57704189  0.96748360  1
