# generated using pymatgen
data_HfZrN2
_symmetry_space_group_name_H-M   'P 1'
_cell_length_a   3.22376708
_cell_length_b   3.22376708
_cell_length_c   5.65417580
_cell_angle_alpha   73.43645349
_cell_angle_beta   90.00000000
_cell_angle_gamma   120.00000000
_symmetry_Int_Tables_number   1
_chemical_formula_structural   HfZrN2
_chemical_formula_sum   'Hf1 Zr1 N2'
_cell_volume   48.05317468
_cell_formula_units_Z   1
loop_
 _symmetry_equiv_pos_site_id
 _symmetry_equiv_pos_as_xyz
  1  'x, y, z'
loop_
 _atom_site_type_symbol
 _atom_site_label
 _atom_site_symmetry_multiplicity
 _atom_site_fract_x
 _atom_site_fract_y
 _atom_site_fract_z
 _atom_site_occupancy
  Hf  Hf0  1  0.00000000  -0.00000000  0.00000000  1
  Zr  Zr1  1  0.50000000  -0.00000000  0.50000000  1
  N  N2  1  0.25558599  0.51117198  0.23324202  1
  N  N3  1  0.74441401  0.48882802  0.76675798  1
