# generated using pymatgen
data_HfZrCN
_symmetry_space_group_name_H-M   'P 1'
_cell_length_a   3.27521448
_cell_length_b   3.27521448
_cell_length_c   5.68530565
_cell_angle_alpha   73.25922581
_cell_angle_beta   90.00000000
_cell_angle_gamma   120.00000000
_symmetry_Int_Tables_number   1
_chemical_formula_structural   HfZrCN
_chemical_formula_sum   'Hf1 Zr1 C1 N1'
_cell_volume   49.80885597
_cell_formula_units_Z   1
loop_
 _symmetry_equiv_pos_site_id
 _symmetry_equiv_pos_as_xyz
  1  'x, y, z'
loop_
 _atom_site_type_symbol
 _atom_site_label
 _atom_site_symmetry_multiplicity
 _atom_site_fract_x
 _atom_site_fract_y
 _atom_site_fract_z
 _atom_site_occupancy
  Hf  Hf0  1  0.99904270  0.99808540  0.00287190  1
  Zr  Zr1  1  0.50129857  0.00259714  0.49610430  1
  C  C2  1  0.25205921  0.50411843  0.24382236  1
  N  N3  1  0.74759952  0.49519904  0.75720145  1
