# generated using pymatgen
data_Ho2(B2Rh3)3
_symmetry_space_group_name_H-M   'P 1'
_cell_length_a   5.59023730
_cell_length_b   5.59067816
_cell_length_c   8.56275622
_cell_angle_alpha   90.00073059
_cell_angle_beta   90.00146128
_cell_angle_gamma   60.00261424
_symmetry_Int_Tables_number   1
_chemical_formula_structural   Ho2(B2Rh3)3
_chemical_formula_sum   'Ho2 B6 Rh9'
_cell_volume   231.76635295
_cell_formula_units_Z   1
loop_
 _symmetry_equiv_pos_site_id
 _symmetry_equiv_pos_as_xyz
  1  'x, y, z'
loop_
 _atom_site_type_symbol
 _atom_site_label
 _atom_site_symmetry_multiplicity
 _atom_site_fract_x
 _atom_site_fract_y
 _atom_site_fract_z
 _atom_site_occupancy
  Ho  Ho0  1  0.99999848  1.00000000  0.29537494  1
  Ho  Ho1  1  -0.00000266  -0.00000000  0.70454266  1
  B  B2  1  0.66665740  0.66666167  0.00006727  1
  B  B3  1  0.33331906  0.33333833  0.00006727  1
  B  B4  1  0.66665123  0.66667481  0.33260859  1
  B  B5  1  0.33332604  0.33332519  0.33260859  1
  B  B6  1  0.33333169  0.33332857  0.66733587  1
  B  B7  1  0.66666027  0.66667143  0.66733587  1
  Rh  Rh8  1  0.49996546  0.00000000  0.16438694  1
  Rh  Rh9  1  0.99999527  0.49998336  0.16439020  1
  Rh  Rh10  1  0.49997863  0.50001664  0.16439020  1
  Rh  Rh11  1  0.50001927  1.00000000  0.83564011  1
  Rh  Rh12  1  0.99999539  0.50001565  0.83563044  1
  Rh  Rh13  1  0.50001105  0.49998435  0.83563044  1
  Rh  Rh14  1  0.50001029  1.00000000  0.49999742  1
  Rh  Rh15  1  -0.00001144  0.50000601  0.49999659  1
  Rh  Rh16  1  0.49999457  0.49999399  0.49999659  1
