# generated using pymatgen
data_GdAlNi4
_symmetry_space_group_name_H-M   'P 1'
_cell_length_a   4.02118649
_cell_length_b   5.04798079
_cell_length_c   4.92005553
_cell_angle_alpha   120.86389858
_cell_angle_beta   90.00000000
_cell_angle_gamma   90.00000000
_symmetry_Int_Tables_number   1
_chemical_formula_structural   GdAlNi4
_chemical_formula_sum   'Gd1 Al1 Ni4'
_cell_volume   85.72859542
_cell_formula_units_Z   1
loop_
 _symmetry_equiv_pos_site_id
 _symmetry_equiv_pos_as_xyz
  1  'x, y, z'
loop_
 _atom_site_type_symbol
 _atom_site_label
 _atom_site_symmetry_multiplicity
 _atom_site_fract_x
 _atom_site_fract_y
 _atom_site_fract_z
 _atom_site_occupancy
  Gd  Gd0  1  -0.00000000  0.99998529  1.00000000  1
  Al  Al1  1  0.50000000  0.49999213  0.00000000  1
  Ni  Ni2  1  -0.00000000  0.33315668  0.66636334  1
  Ni  Ni3  1  0.00000000  0.66679334  0.33363666  1
  Ni  Ni4  1  0.50000000  0.49998749  0.50000242  1
  Ni  Ni5  1  0.50000000  0.99998508  0.49999758  1
