# generated using pymatgen
data_GdAlSi
_symmetry_space_group_name_H-M   'P 1'
_cell_length_a   4.15013068
_cell_length_b   4.15013068
_cell_length_c   7.81779949
_cell_angle_alpha   74.60759515
_cell_angle_beta   74.60759515
_cell_angle_gamma   90.00000000
_symmetry_Int_Tables_number   1
_chemical_formula_structural   GdAlSi
_chemical_formula_sum   'Gd2 Al2 Si2'
_cell_volume   124.80409170
_cell_formula_units_Z   2
loop_
 _symmetry_equiv_pos_site_id
 _symmetry_equiv_pos_as_xyz
  1  'x, y, z'
loop_
 _atom_site_type_symbol
 _atom_site_label
 _atom_site_symmetry_multiplicity
 _atom_site_fract_x
 _atom_site_fract_y
 _atom_site_fract_z
 _atom_site_occupancy
  Gd  Gd0  1  0.37475576  0.12475576  0.25048848  1
  Gd  Gd1  1  0.62475576  0.87475576  0.75048848  1
  Al  Al2  1  0.20779927  0.45779927  0.58440145  1
  Al  Al3  1  0.95779927  0.70779927  0.08440145  1
  Si  Si4  1  0.79244497  0.54244497  0.41511006  1
  Si  Si5  1  0.04244497  0.29244497  0.91511006  1
