# generated using pymatgen
data_EuSi2PdAu
_symmetry_space_group_name_H-M   'P 1'
_cell_length_a   4.35164649
_cell_length_b   4.35164649
_cell_length_c   5.90022143
_cell_angle_alpha   68.36023473
_cell_angle_beta   68.36023473
_cell_angle_gamma   90.00000000
_symmetry_Int_Tables_number   1
_chemical_formula_structural   EuSi2PdAu
_chemical_formula_sum   'Eu1 Si2 Pd1 Au1'
_cell_volume   95.33371203
_cell_formula_units_Z   1
loop_
 _symmetry_equiv_pos_site_id
 _symmetry_equiv_pos_as_xyz
  1  'x, y, z'
loop_
 _atom_site_type_symbol
 _atom_site_label
 _atom_site_symmetry_multiplicity
 _atom_site_fract_x
 _atom_site_fract_y
 _atom_site_fract_z
 _atom_site_occupancy
  Eu  Eu0  1  -0.00000000  0.00000000  -0.00000000  1
  Si  Si1  1  0.38184094  0.38184094  0.23631812  1
  Si  Si2  1  0.61815906  0.61815906  0.76368188  1
  Pd  Pd3  1  0.25000000  0.75000000  0.50000000  1
  Au  Au4  1  0.75000000  0.25000000  0.50000000  1
