# generated using pymatgen
data_K5Mo8As(H3O16)2
_symmetry_space_group_name_H-M   'P 1'
_cell_length_a   8.53650478
_cell_length_b   12.50324749
_cell_length_c   15.79182536
_cell_angle_alpha   90.00000000
_cell_angle_beta   90.00000000
_cell_angle_gamma   70.03954450
_symmetry_Int_Tables_number   1
_chemical_formula_structural   K5Mo8As(H3O16)2
_chemical_formula_sum   'K10 Mo16 As2 H12 O64'
_cell_volume   1584.27308681
_cell_formula_units_Z   2
loop_
 _symmetry_equiv_pos_site_id
 _symmetry_equiv_pos_as_xyz
  1  'x, y, z'
loop_
 _atom_site_type_symbol
 _atom_site_label
 _atom_site_symmetry_multiplicity
 _atom_site_fract_x
 _atom_site_fract_y
 _atom_site_fract_z
 _atom_site_occupancy
  K  K0  1  0.61681306  0.76637389  0.25000000  1
  K  K1  1  0.38318694  0.23362611  0.75000000  1
  K  K2  1  0.13297222  0.72972385  0.97425983  1
  K  K3  1  0.86269607  0.27027615  0.02574017  1
  K  K4  1  0.13730393  0.72972385  0.52574017  1
  K  K5  1  0.86702778  0.27027615  0.47425983  1
  K  K6  1  0.37911696  0.24247136  0.02993417  1
  K  K7  1  0.62158831  0.75752864  0.97006583  1
  K  K8  1  0.37841169  0.24247136  0.47006583  1
  K  K9  1  0.62088304  0.75752864  0.52993417  1
  Mo  Mo10  1  0.42479820  0.52848033  0.14166014  1
  Mo  Mo11  1  0.95327854  0.47151967  0.85833986  1
  Mo  Mo12  1  0.42634513  0.52734547  0.35775431  1
  Mo  Mo13  1  0.95369060  0.47265453  0.64224569  1
  Mo  Mo14  1  0.57365487  0.47265453  0.85775431  1
  Mo  Mo15  1  0.04630940  0.52734547  0.14224569  1
  Mo  Mo16  1  0.57520180  0.47151967  0.64166014  1
  Mo  Mo17  1  0.04672146  0.52848033  0.35833986  1
  Mo  Mo18  1  0.20835673  0.97910855  0.14768625  1
  Mo  Mo19  1  0.18746528  0.02089145  0.85231375  1
  Mo  Mo20  1  0.20857326  0.97913809  0.35253582  1
  Mo  Mo21  1  0.18771135  0.02086191  0.64746418  1
  Mo  Mo22  1  0.79142674  0.02086191  0.85253582  1
  Mo  Mo23  1  0.81228865  0.97913809  0.14746418  1
  Mo  Mo24  1  0.79164327  0.02089145  0.64768625  1
  Mo  Mo25  1  0.81253472  0.97910855  0.35231375  1
  As  As26  1  0.12323228  0.75353544  0.25000000  1
  As  As27  1  0.87676772  0.24646456  0.75000000  1
  H  H28  1  0.93950497  0.12099006  0.25000000  1
  H  H29  1  0.06049503  0.87900994  0.75000000  1
  H  H30  1  0.31031784  0.37936432  0.25000000  1
  H  H31  1  0.68968216  0.62063568  0.75000000  1
  H  H32  1  0.50114488  0.17756432  0.24957048  1
  H  H33  1  0.67870920  0.82243568  0.75042952  1
  H  H34  1  0.49885512  0.82243568  0.74957048  1
  H  H35  1  0.32129080  0.17756432  0.25042952  1
  H  H36  1  0.23237738  0.69901347  0.77380099  1
  H  H37  1  0.93139085  0.30098653  0.22619901  1
  H  H38  1  0.76762262  0.30098653  0.27380099  1
  H  H39  1  0.06860915  0.69901347  0.72619901  1
  O  O40  1  0.25326011  0.49068212  0.07865411  1
  O  O41  1  0.74394223  0.50931788  0.92134589  1
  O  O42  1  0.25605777  0.49068212  0.42134589  1
  O  O43  1  0.74673989  0.50931788  0.57865411  1
  O  O44  1  0.38519181  0.22961638  0.25000000  1
  O  O45  1  0.61480819  0.77038362  0.75000000  1
  O  O46  1  0.12623258  0.74753484  0.75000000  1
  O  O47  1  0.87376742  0.25246516  0.25000000  1
  O  O48  1  0.47771318  0.58379719  0.24995498  1
  O  O49  1  0.06151037  0.41620281  0.75004502  1
  O  O50  1  0.52228682  0.41620281  0.74995498  1
  O  O51  1  0.93848963  0.58379719  0.25004502  1
  O  O52  1  0.58066928  0.39598314  0.13409830  1
  O  O53  1  0.97665242  0.60401686  0.86590170  1
  O  O54  1  0.58512791  0.39434343  0.36235629  1
  O  O55  1  0.97947134  0.60565657  0.63764371  1
  O  O56  1  0.41487209  0.60565657  0.86235629  1
  O  O57  1  0.02052866  0.39434343  0.13764371  1
  O  O58  1  0.41933072  0.60401686  0.63409830  1
  O  O59  1  0.02334758  0.39598314  0.36590170  1
  O  O60  1  0.48143338  0.61773775  0.07260566  1
  O  O61  1  0.09917112  0.38226225  0.92739434  1
  O  O62  1  0.48309678  0.61604075  0.42712575  1
  O  O63  1  0.09913753  0.38395925  0.57287425  1
  O  O64  1  0.51690322  0.38395925  0.92712575  1
  O  O65  1  0.90086247  0.61604075  0.07287425  1
  O  O66  1  0.51856662  0.38226225  0.57260566  1
  O  O67  1  0.90082888  0.61773775  0.42739434  1
  O  O68  1  0.30462571  0.01980413  0.25010914  1
  O  O69  1  0.32442983  0.98019587  0.74989086  1
  O  O70  1  0.69537429  0.98019587  0.75010914  1
  O  O71  1  0.67557017  0.01980413  0.24989086  1
  O  O72  1  0.38283321  0.89176591  0.09410364  1
  O  O73  1  0.27459912  0.10823409  0.90589636  1
  O  O74  1  0.38323865  0.89094935  0.40556955  1
  O  O75  1  0.27418799  0.10905065  0.59443045  1
  O  O76  1  0.61676135  0.10905065  0.90556955  1
  O  O77  1  0.72581201  0.89094935  0.09443045  1
  O  O78  1  0.61716679  0.10823409  0.59410364  1
  O  O79  1  0.72540088  0.89176591  0.40589636  1
  O  O80  1  0.24663511  0.83748057  0.24975688  1
  O  O81  1  0.08411567  0.16251943  0.75024312  1
  O  O82  1  0.75336489  0.16251943  0.74975688  1
  O  O83  1  0.91588433  0.83748057  0.25024312  1
  O  O84  1  0.03965755  0.92076707  0.10463799  1
  O  O85  1  0.96042462  0.07923293  0.89536201  1
  O  O86  1  0.03957538  0.92076707  0.39536201  1
  O  O87  1  0.96034245  0.07923293  0.60463799  1
  O  O88  1  0.15073728  0.11236181  0.09871871  1
  O  O89  1  0.26309909  0.88763819  0.90128129  1
  O  O90  1  0.15246517  0.11138502  0.40256675  1
  O  O91  1  0.26385019  0.88861498  0.59743325  1
  O  O92  1  0.84753483  0.88861498  0.90256675  1
  O  O93  1  0.73614981  0.11138502  0.09743325  1
  O  O94  1  0.84926272  0.88763819  0.59871871  1
  O  O95  1  0.73690091  0.11236181  0.40128129  1
  O  O96  1  0.16539486  0.66740671  0.16163093  1
  O  O97  1  0.83280157  0.33259329  0.83836907  1
  O  O98  1  0.16719843  0.66740671  0.33836907  1
  O  O99  1  0.83460514  0.33259329  0.66163093  1
  O  O100  1  0.98268173  0.03463654  0.25000000  1
  O  O101  1  0.01731827  0.96536346  0.75000000  1
  O  O102  1  0.26779558  0.46440885  0.25000000  1
  O  O103  1  0.73220442  0.53559115  0.75000000  1
