# generated using pymatgen
data_Ga5Ag13
_symmetry_space_group_name_H-M   'P 1'
_cell_length_a   2.97430112
_cell_length_b   7.89883326
_cell_length_c   13.48197524
_cell_angle_alpha   90.05076027
_cell_angle_beta   89.93383013
_cell_angle_gamma   90.29945219
_symmetry_Int_Tables_number   1
_chemical_formula_structural   Ga5Ag13
_chemical_formula_sum   'Ga5 Ag13'
_cell_volume   316.73424180
_cell_formula_units_Z   1
loop_
 _symmetry_equiv_pos_site_id
 _symmetry_equiv_pos_as_xyz
  1  'x, y, z'
loop_
 _atom_site_type_symbol
 _atom_site_label
 _atom_site_symmetry_multiplicity
 _atom_site_fract_x
 _atom_site_fract_y
 _atom_site_fract_z
 _atom_site_occupancy
  Ga  Ga0  1  0.25014261  0.00010832  0.66650589  1
  Ga  Ga1  1  0.74963024  0.99987882  0.33265671  1
  Ga  Ga2  1  0.75107065  0.50068535  0.83349563  1
  Ga  Ga3  1  0.00084503  0.00028926  0.00073528  1
  Ga  Ga4  1  0.00100179  0.49998542  0.49992050  1
  Ag  Ag5  1  0.74683947  0.66940671  0.01209110  1
  Ag  Ag6  1  0.74845095  0.16501819  0.51595811  1
  Ag  Ag7  1  0.74732741  0.64733621  0.32860719  1
  Ag  Ag8  1  0.74777453  0.14387201  0.82445643  1
  Ag  Ag9  1  0.74709077  0.18525415  0.15935524  1
  Ag  Ag10  1  0.74679073  0.68997936  0.65970463  1
  Ag  Ag11  1  0.25211790  0.83490029  0.48528493  1
  Ag  Ag12  1  0.25270827  0.33204728  0.98181745  1
  Ag  Ag13  1  0.25219027  0.85957853  0.17539745  1
  Ag  Ag14  1  0.25136231  0.35609671  0.67502502  1
  Ag  Ag15  1  0.25258310  0.30630432  0.34272010  1
  Ag  Ag16  1  0.25169507  0.80917923  0.83964180  1
  Ag  Ag17  1  0.25037889  0.50007984  0.16662653  1
