# generated using pymatgen
data_EuGaAu
_symmetry_space_group_name_H-M   'P 1'
_cell_length_a   4.69120438
_cell_length_b   6.10215796
_cell_length_c   5.84914031
_cell_angle_alpha   96.44709871
_cell_angle_beta   113.64174462
_cell_angle_gamma   67.39418823
_symmetry_Int_Tables_number   1
_chemical_formula_structural   EuGaAu
_chemical_formula_sum   'Eu2 Ga2 Au2'
_cell_volume   141.42899400
_cell_formula_units_Z   2
loop_
 _symmetry_equiv_pos_site_id
 _symmetry_equiv_pos_as_xyz
  1  'x, y, z'
loop_
 _atom_site_type_symbol
 _atom_site_label
 _atom_site_symmetry_multiplicity
 _atom_site_fract_x
 _atom_site_fract_y
 _atom_site_fract_z
 _atom_site_occupancy
  Eu  Eu0  1  0.75500028  0.70379615  0.21379672  1
  Eu  Eu1  1  0.24499972  0.29620385  0.78620328  1
  Ga  Ga2  1  0.05277561  0.11180514  0.21735636  1
  Ga  Ga3  1  0.94722439  0.88819486  0.78264364  1
  Au  Au4  1  0.55032689  0.27270581  0.37335959  1
  Au  Au5  1  0.44967311  0.72729419  0.62664041  1
