# generated using pymatgen
data_Gd2VFeO6
_symmetry_space_group_name_H-M   'P 1'
_cell_length_a   5.42260476
_cell_length_b   5.75909925
_cell_length_c   7.62174205
_cell_angle_alpha   90.00000000
_cell_angle_beta   91.44907707
_cell_angle_gamma   90.00000000
_symmetry_Int_Tables_number   1
_chemical_formula_structural   Gd2VFeO6
_chemical_formula_sum   'Gd4 V2 Fe2 O12'
_cell_volume   237.94569329
_cell_formula_units_Z   2
loop_
 _symmetry_equiv_pos_site_id
 _symmetry_equiv_pos_as_xyz
  1  'x, y, z'
loop_
 _atom_site_type_symbol
 _atom_site_label
 _atom_site_symmetry_multiplicity
 _atom_site_fract_x
 _atom_site_fract_y
 _atom_site_fract_z
 _atom_site_occupancy
  Gd  Gd0  1  0.52296771  0.56987783  0.24803056  1
  Gd  Gd1  1  0.97703229  0.06987783  0.25196944  1
  Gd  Gd2  1  0.47703229  0.43012217  0.75196944  1
  Gd  Gd3  1  0.02296771  0.93012217  0.74803056  1
  V  V4  1  0.50000000  0.00000000  0.50000000  1
  V  V5  1  0.00000000  0.50000000  0.00000000  1
  Fe  Fe6  1  0.50000000  0.00000000  0.00000000  1
  Fe  Fe7  1  0.00000000  0.50000000  0.50000000  1
  O  O8  1  0.81790117  0.79603348  0.05789519  1
  O  O9  1  0.68209883  0.29603348  0.44210481  1
  O  O10  1  0.20240028  0.18370968  0.55402080  1
  O  O11  1  0.29759972  0.68370968  0.94597920  1
  O  O12  1  0.18209883  0.20396652  0.94210481  1
  O  O13  1  0.31790117  0.70396652  0.55789519  1
  O  O14  1  0.79759972  0.81629032  0.44597920  1
  O  O15  1  0.70240028  0.31629032  0.05402080  1
  O  O16  1  0.38960427  0.96570883  0.26234032  1
  O  O17  1  0.11039573  0.46570883  0.23765968  1
  O  O18  1  0.61039573  0.03429117  0.73765968  1
  O  O19  1  0.88960427  0.53429117  0.76234032  1
