# generated using pymatgen
data_GaH6N2F3
_symmetry_space_group_name_H-M   'P 1'
_cell_length_a   4.03119800
_cell_length_b   5.73441090
_cell_length_c   5.24706751
_cell_angle_alpha   95.96410419
_cell_angle_beta   112.59024826
_cell_angle_gamma   69.42140624
_symmetry_Int_Tables_number   1
_chemical_formula_structural   GaH6N2F3
_chemical_formula_sum   'Ga1 H6 N2 F3'
_cell_volume   104.77406449
_cell_formula_units_Z   1
loop_
 _symmetry_equiv_pos_site_id
 _symmetry_equiv_pos_as_xyz
  1  'x, y, z'
loop_
 _atom_site_type_symbol
 _atom_site_label
 _atom_site_symmetry_multiplicity
 _atom_site_fract_x
 _atom_site_fract_y
 _atom_site_fract_z
 _atom_site_occupancy
  Ga  Ga0  1  -0.00000000  0.50000000  0.50000000  1
  H  H1  1  0.12297558  0.05697119  0.30292235  1
  H  H2  1  0.87702442  0.94302881  0.69707765  1
  H  H3  1  0.87668260  0.75280435  0.91330029  1
  H  H4  1  0.71618666  0.24719565  0.08669971  1
  H  H5  1  0.12331740  0.24719565  0.08669971  1
  H  H6  1  0.28381334  0.75280435  0.91330029  1
  N  N7  1  0.99112820  0.23372341  0.21597982  1
  N  N8  1  0.00887180  0.76627659  0.78402018  1
  F  F9  1  0.27314130  0.24882144  0.79510405  1
  F  F10  1  0.72685870  0.75117856  0.20489595  1
  F  F11  1  0.50000000  0.50000000  0.50000000  1
