# generated using pymatgen
data_GaBi3Sb2O11
_symmetry_space_group_name_H-M   'P 1'
_cell_length_a   9.54294002
_cell_length_b   9.64033191
_cell_length_c   9.62048669
_cell_angle_alpha   90.00000000
_cell_angle_beta   90.00000000
_cell_angle_gamma   90.07509839
_symmetry_Int_Tables_number   1
_chemical_formula_structural   GaBi3Sb2O11
_chemical_formula_sum   'Ga4 Bi12 Sb8 O44'
_cell_volume   885.05620420
_cell_formula_units_Z   4
loop_
 _symmetry_equiv_pos_site_id
 _symmetry_equiv_pos_as_xyz
  1  'x, y, z'
loop_
 _atom_site_type_symbol
 _atom_site_label
 _atom_site_symmetry_multiplicity
 _atom_site_fract_x
 _atom_site_fract_y
 _atom_site_fract_z
 _atom_site_occupancy
  Ga  Ga0  1  0.09264659  0.25308292  0.75109554  1
  Ga  Ga1  1  0.74849496  0.08868371  0.24812602  1
  Ga  Ga2  1  0.59264659  0.75308292  0.24890446  1
  Ga  Ga3  1  0.24849496  0.58868371  0.75187398  1
  Bi  Bi4  1  0.49556576  0.51039784  0.00032243  1
  Bi  Bi5  1  0.51287047  0.99482562  0.48080763  1
  Bi  Bi6  1  0.01287047  0.49482562  0.51919237  1
  Bi  Bi7  1  0.99556576  0.01039784  0.99967757  1
  Bi  Bi8  1  0.88381630  0.87615759  0.61965346  1
  Bi  Bi9  1  0.89015450  0.62410978  0.87638400  1
  Bi  Bi10  1  0.61785501  0.87328770  0.88495871  1
  Bi  Bi11  1  0.61193951  0.62730270  0.61823448  1
  Bi  Bi12  1  0.11193951  0.12730270  0.38176552  1
  Bi  Bi13  1  0.11785501  0.37328770  0.11504129  1
  Bi  Bi14  1  0.39015450  0.12410978  0.12361600  1
  Bi  Bi15  1  0.38381630  0.37615759  0.38034654  1
  Sb  Sb16  1  0.40029371  0.25319532  0.74984266  1
  Sb  Sb17  1  0.74775143  0.40500124  0.25065623  1
  Sb  Sb18  1  0.25158934  0.74827952  0.09044581  1
  Sb  Sb19  1  0.25283994  0.74785412  0.40984168  1
  Sb  Sb20  1  0.90029371  0.75319532  0.25015734  1
  Sb  Sb21  1  0.24775143  0.90500124  0.74934377  1
  Sb  Sb22  1  0.75158934  0.24827952  0.90955419  1
  Sb  Sb23  1  0.75283994  0.24785412  0.59015832  1
  O  O24  1  0.10790744  0.74930254  0.74875760  1
  O  O25  1  0.38835047  0.75095874  0.75178145  1
  O  O26  1  0.75123252  0.11099059  0.74973134  1
  O  O27  1  0.75135032  0.38552776  0.75029992  1
  O  O28  1  0.74842006  0.75062579  0.10840239  1
  O  O29  1  0.74944237  0.75304384  0.39226991  1
  O  O30  1  0.88835047  0.25095874  0.24821855  1
  O  O31  1  0.60790744  0.24930254  0.25124240  1
  O  O32  1  0.25135032  0.88552776  0.24970008  1
  O  O33  1  0.25123252  0.61099059  0.25026866  1
  O  O34  1  0.24842006  0.25062579  0.89159761  1
  O  O35  1  0.24944237  0.25304384  0.60773009  1
  O  O36  1  0.64844905  0.64597504  0.85161285  1
  O  O37  1  0.64848931  0.85337587  0.64883695  1
  O  O38  1  0.85132668  0.64638886  0.64779975  1
  O  O39  1  0.85227266  0.85315821  0.85183138  1
  O  O40  1  0.35227266  0.35315821  0.14816862  1
  O  O41  1  0.35132668  0.14638886  0.35220025  1
  O  O42  1  0.14848931  0.35337587  0.35116305  1
  O  O43  1  0.14844905  0.14597504  0.14838715  1
  O  O44  1  0.08725579  0.03789141  0.75582957  1
  O  O45  1  0.08456770  0.46370037  0.74240696  1
  O  O46  1  0.41080408  0.03956173  0.75000848  1
  O  O47  1  0.41443329  0.46315700  0.75653078  1
  O  O48  1  0.75383559  0.08499256  0.03555598  1
  O  O49  1  0.74579734  0.08540159  0.46355041  1
  O  O50  1  0.74760460  0.41306337  0.03584763  1
  O  O51  1  0.74933646  0.41356627  0.46402321  1
  O  O52  1  0.03838663  0.75170114  0.08723178  1
  O  O53  1  0.46293521  0.74301974  0.08445221  1
  O  O54  1  0.03863928  0.74724723  0.41174075  1
  O  O55  1  0.46334563  0.75517230  0.41581265  1
  O  O56  1  0.91443329  0.96315700  0.24346922  1
  O  O57  1  0.91080408  0.53956173  0.24999152  1
  O  O58  1  0.58456770  0.96370037  0.25759304  1
  O  O59  1  0.58725579  0.53789141  0.24417043  1
  O  O60  1  0.24760460  0.91306337  0.96415237  1
  O  O61  1  0.24933646  0.91356627  0.53597679  1
  O  O62  1  0.25383559  0.58499256  0.96444402  1
  O  O63  1  0.24579734  0.58540159  0.53644959  1
  O  O64  1  0.96293521  0.24301974  0.91554779  1
  O  O65  1  0.53838663  0.25170114  0.91276822  1
  O  O66  1  0.96334563  0.25517230  0.58418735  1
  O  O67  1  0.53863928  0.24724723  0.58825925  1
