# generated using pymatgen
data_Dy5P12Ir19
_symmetry_space_group_name_H-M   'P 1'
_cell_length_a   3.97917212
_cell_length_b   12.72323264
_cell_length_c   12.72264070
_cell_angle_alpha   120.00153595
_cell_angle_beta   90.00021947
_cell_angle_gamma   89.99956094
_symmetry_Int_Tables_number   1
_chemical_formula_structural   Dy5P12Ir19
_chemical_formula_sum   'Dy5 P12 Ir19'
_cell_volume   557.81651165
_cell_formula_units_Z   1
loop_
 _symmetry_equiv_pos_site_id
 _symmetry_equiv_pos_as_xyz
  1  'x, y, z'
loop_
 _atom_site_type_symbol
 _atom_site_label
 _atom_site_symmetry_multiplicity
 _atom_site_fract_x
 _atom_site_fract_y
 _atom_site_fract_z
 _atom_site_occupancy
  Dy  Dy0  1  0.00006953  0.33327688  0.66669112  1
  Dy  Dy1  1  0.00006953  0.66658576  0.33330888  1
  Dy  Dy2  1  0.50191371  0.18514262  1.00000000  1
  Dy  Dy3  1  0.50191504  0.81477362  0.81476939  1
  Dy  Dy4  1  0.50191504  0.00000424  0.18523061  1
  P  P5  1  0.00064682  0.35781431  0.00000000  1
  P  P6  1  0.00064322  0.64210176  0.64209442  1
  P  P7  1  0.00064322  0.00000733  0.35790558  1
  P  P8  1  0.50041692  0.31144992  0.48269652  1
  P  P9  1  0.50042639  0.17138287  0.68858545  1
  P  P10  1  0.50043036  0.51728754  0.82870358  1
  P  P11  1  0.50041692  0.82875340  0.51730348  1
  P  P12  1  0.50042639  0.48279742  0.31141455  1
  P  P13  1  0.50043036  0.68858397  0.17129642  1
  P  P14  1  0.00226861  0.82200511  1.00000000  1
  P  P15  1  0.00226189  0.17795802  0.17794765  1
  P  P16  1  0.00226189  0.00001037  0.82205235  1
  Ir  Ir17  1  0.50031768  0.13280449  0.49392395  1
  Ir  Ir18  1  0.50031294  0.36122066  0.86733951  1
  Ir  Ir19  1  0.50031216  0.50589211  0.63881928  1
  Ir  Ir20  1  0.50031768  0.63888053  0.50607605  1
  Ir  Ir21  1  0.50031294  0.49388115  0.13266049  1
  Ir  Ir22  1  0.50031216  0.86707283  0.36118072  1
  Ir  Ir23  1  0.99963680  0.53728027  0.00000000  1
  Ir  Ir24  1  0.99958739  0.46260796  0.46268174  1
  Ir  Ir25  1  0.99958739  0.99992622  0.53731826  1
  Ir  Ir26  1  0.50182417  0.71553971  0.00000000  1
  Ir  Ir27  1  0.50180485  0.28449384  0.28445997  1
  Ir  Ir28  1  0.50180485  0.00003387  0.71554003  1
  Ir  Ir29  1  0.00104425  0.19431784  0.37536317  1
  Ir  Ir30  1  0.00103359  0.18115784  0.80568191  1
  Ir  Ir31  1  0.00104796  0.62462414  0.81882907  1
  Ir  Ir32  1  0.00104425  0.81895466  0.62463683  1
  Ir  Ir33  1  0.00103359  0.37547593  0.19431809  1
  Ir  Ir34  1  0.00104796  0.80579508  0.18117093  1
  Ir  Ir35  1  0.00266157  0.00000571  0.00000000  1
