# generated using pymatgen
data_KSm2Cl5
_symmetry_space_group_name_H-M   'P 1'
_cell_length_a   7.12423960
_cell_length_b   8.65881334
_cell_length_c   13.36956956
_cell_angle_alpha   89.91890094
_cell_angle_beta   90.00000000
_cell_angle_gamma   90.00000000
_symmetry_Int_Tables_number   1
_chemical_formula_structural   KSm2Cl5
_chemical_formula_sum   'K4 Sm8 Cl20'
_cell_volume   824.73397285
_cell_formula_units_Z   4
loop_
 _symmetry_equiv_pos_site_id
 _symmetry_equiv_pos_as_xyz
  1  'x, y, z'
loop_
 _atom_site_type_symbol
 _atom_site_label
 _atom_site_symmetry_multiplicity
 _atom_site_fract_x
 _atom_site_fract_y
 _atom_site_fract_z
 _atom_site_occupancy
  K  K0  1  0.44697664  0.49875406  0.33283583  1
  K  K1  1  0.94697664  0.50124594  0.16716417  1
  K  K2  1  0.55302336  0.50124594  0.66716417  1
  K  K3  1  0.05302336  0.49875406  0.83283583  1
  Sm  Sm4  1  0.02999578  0.20549975  0.49979186  1
  Sm  Sm5  1  0.97000422  0.79450025  0.50020814  1
  Sm  Sm6  1  0.60217044  0.00864913  0.65797298  1
  Sm  Sm7  1  0.52999578  0.79450025  0.00020814  1
  Sm  Sm8  1  0.10217044  0.99135087  0.84202702  1
  Sm  Sm9  1  0.47000422  0.20549975  0.99979186  1
  Sm  Sm10  1  0.89782956  0.00864913  0.15797298  1
  Sm  Sm11  1  0.39782956  0.99135087  0.34202702  1
  Cl  Cl12  1  0.17099702  0.52449979  0.57769157  1
  Cl  Cl13  1  0.82900298  0.47550021  0.42230843  1
  Cl  Cl14  1  0.95186401  0.79303850  0.99976684  1
  Cl  Cl15  1  0.83849581  0.76166322  0.70418576  1
  Cl  Cl16  1  0.33849581  0.23833678  0.79581424  1
  Cl  Cl17  1  0.67099702  0.47550021  0.92230843  1
  Cl  Cl18  1  0.04813599  0.20696150  0.00023316  1
  Cl  Cl19  1  0.80769697  0.02367170  0.36555368  1
  Cl  Cl20  1  0.16150419  0.23833678  0.29581424  1
  Cl  Cl21  1  0.45186401  0.20696150  0.50023316  1
  Cl  Cl22  1  0.14825662  0.75078027  0.31381504  1
  Cl  Cl23  1  0.35174338  0.75078027  0.81381504  1
  Cl  Cl24  1  0.64825662  0.24921973  0.18618496  1
  Cl  Cl25  1  0.66150419  0.76166322  0.20418576  1
  Cl  Cl26  1  0.19230303  0.97632830  0.63444632  1
  Cl  Cl27  1  0.32900298  0.52449979  0.07769157  1
  Cl  Cl28  1  0.54813599  0.79303850  0.49976684  1
  Cl  Cl29  1  0.85174338  0.24921973  0.68618496  1
  Cl  Cl30  1  0.69230303  0.02367170  0.86555368  1
  Cl  Cl31  1  0.30769697  0.97632830  0.13444632  1
