# generated using pymatgen
data_DyEr3Fe8
_symmetry_space_group_name_H-M   'P 1'
_cell_length_a   5.11141602
_cell_length_b   5.11141602
_cell_length_c   8.85134318
_cell_angle_alpha   73.21765815
_cell_angle_beta   90.00000000
_cell_angle_gamma   120.00000000
_symmetry_Int_Tables_number   1
_chemical_formula_structural   DyEr3Fe8
_chemical_formula_sum   'Dy1 Er3 Fe8'
_cell_volume   188.81409958
_cell_formula_units_Z   1
loop_
 _symmetry_equiv_pos_site_id
 _symmetry_equiv_pos_as_xyz
  1  'x, y, z'
loop_
 _atom_site_type_symbol
 _atom_site_label
 _atom_site_symmetry_multiplicity
 _atom_site_fract_x
 _atom_site_fract_y
 _atom_site_fract_z
 _atom_site_occupancy
  Dy  Dy0  1  0.87500632  0.75001264  0.37498103  1
  Er  Er1  1  0.37501138  0.75002276  0.87496586  1
  Er  Er2  1  0.00002809  0.00005619  0.99991572  1
  Er  Er3  1  0.49996157  0.99992314  0.50011529  1
  Fe  Fe4  1  0.43749135  0.37527280  0.18723585  1
  Fe  Fe5  1  0.93755271  0.37469116  0.68775614  1
  Fe  Fe6  1  0.43749135  0.87498270  0.18723585  1
  Fe  Fe7  1  0.93755271  0.87510541  0.68775614  1
  Fe  Fe8  1  0.18743110  0.37486221  0.43770669  1
  Fe  Fe9  1  0.68755352  0.37510705  0.93733943  1
  Fe  Fe10  1  0.93778145  0.37527280  0.18723585  1
  Fe  Fe11  1  0.43713845  0.37469116  0.68775614  1
