# generated using pymatgen
data_Eu2FeSbO7
_symmetry_space_group_name_H-M   'P 1'
_cell_length_a   7.40113246
_cell_length_b   7.33987799
_cell_length_c   7.45837596
_cell_angle_alpha   90.00000000
_cell_angle_beta   59.74381575
_cell_angle_gamma   119.72659566
_symmetry_Int_Tables_number   1
_chemical_formula_structural   Eu2FeSbO7
_chemical_formula_sum   'Eu4 Fe2 Sb2 O14'
_cell_volume   286.56293377
_cell_formula_units_Z   2
loop_
 _symmetry_equiv_pos_site_id
 _symmetry_equiv_pos_as_xyz
  1  'x, y, z'
loop_
 _atom_site_type_symbol
 _atom_site_label
 _atom_site_symmetry_multiplicity
 _atom_site_fract_x
 _atom_site_fract_y
 _atom_site_fract_z
 _atom_site_occupancy
  Eu  Eu0  1  0.50000000  0.50000000  -0.00000000  1
  Eu  Eu1  1  0.50000000  0.00000000  -0.00000000  1
  Eu  Eu2  1  -0.00000000  0.00000000  0.50000000  1
  Eu  Eu3  1  0.00000000  0.00000000  -0.00000000  1
  Fe  Fe4  1  0.50000000  0.00000000  0.50000000  1
  Fe  Fe5  1  0.50000000  0.50000000  0.50000000  1
  Sb  Sb6  1  -0.00000000  0.50000000  -0.00000000  1
  Sb  Sb7  1  -0.00000000  0.50000000  0.50000000  1
  O  O8  1  0.25093825  0.12546912  0.12453088  1
  O  O9  1  0.74906175  0.87453088  0.87546912  1
  O  O10  1  0.65801830  0.82900915  0.42099085  1
  O  O11  1  0.84352157  0.42176079  0.82823921  1
  O  O12  1  0.24859548  0.82591283  0.83129511  1
  O  O13  1  0.24859548  0.42268265  0.42010942  1
  O  O14  1  0.24859548  0.42268265  0.83129511  1
  O  O15  1  0.24859548  0.82591283  0.42010942  1
  O  O16  1  0.34198170  0.17099085  0.57900915  1
  O  O17  1  0.15647843  0.57823921  0.17176079  1
  O  O18  1  0.75140452  0.17408717  0.16870489  1
  O  O19  1  0.75140452  0.57731735  0.57989058  1
  O  O20  1  0.75140452  0.57731735  0.16870489  1
  O  O21  1  0.75140452  0.17408717  0.57989058  1
