# generated using pymatgen
data_Fe3(WN2)4
_symmetry_space_group_name_H-M   'P 1'
_cell_length_a   2.87164138
_cell_length_b   10.79507977
_cell_length_c   4.99981941
_cell_angle_alpha   78.12268849
_cell_angle_beta   90.00715575
_cell_angle_gamma   82.37889300
_symmetry_Int_Tables_number   1
_chemical_formula_structural   Fe3(WN2)4
_chemical_formula_sum   'Fe3 W4 N8'
_cell_volume   150.27422980
_cell_formula_units_Z   1
loop_
 _symmetry_equiv_pos_site_id
 _symmetry_equiv_pos_as_xyz
  1  'x, y, z'
loop_
 _atom_site_type_symbol
 _atom_site_label
 _atom_site_symmetry_multiplicity
 _atom_site_fract_x
 _atom_site_fract_y
 _atom_site_fract_z
 _atom_site_occupancy
  Fe  Fe0  1  0.25000000  0.50000000  0.25000000  1
  Fe  Fe1  1  0.99714833  0.00485056  0.97435835  1
  Fe  Fe2  1  0.50285167  0.99514944  0.52564165  1
  W  W3  1  0.12706237  0.74625473  0.12576094  1
  W  W4  1  0.63405713  0.73245445  0.62661564  1
  W  W5  1  0.37293763  0.25374527  0.37423906  1
  W  W6  1  0.86594287  0.26754555  0.87338436  1
  N  N7  1  0.56679799  0.86706167  0.89847500  1
  N  N8  1  0.06762224  0.86526450  0.40900917  1
  N  N9  1  0.43237776  0.13473550  0.09099083  1
  N  N10  1  0.93320201  0.13293833  0.60152500  1
  N  N11  1  0.30988726  0.38040163  0.00242589  1
  N  N12  1  0.80874441  0.38244586  0.47517892  1
  N  N13  1  0.69125559  0.61755414  0.02482108  1
  N  N14  1  0.19011274  0.61959837  0.49757411  1
