# generated using pymatgen
data_Cd2Ru(CN)6
_symmetry_space_group_name_H-M   'P 1'
_cell_length_a   6.49210400
_cell_length_b   6.49210386
_cell_length_c   6.60895299
_cell_angle_alpha   90.00000000
_cell_angle_beta   90.00000000
_cell_angle_gamma   120.00000070
_symmetry_Int_Tables_number   1
_chemical_formula_structural   Cd2Ru(CN)6
_chemical_formula_sum   'Cd2 Ru1 C6 N6'
_cell_volume   241.23161199
_cell_formula_units_Z   1
loop_
 _symmetry_equiv_pos_site_id
 _symmetry_equiv_pos_as_xyz
  1  'x, y, z'
loop_
 _atom_site_type_symbol
 _atom_site_label
 _atom_site_symmetry_multiplicity
 _atom_site_fract_x
 _atom_site_fract_y
 _atom_site_fract_z
 _atom_site_occupancy
  Cd  Cd0  1  0.66666700  0.33333300  0.50190393  1
  Cd  Cd1  1  0.33333300  0.66666700  0.49809607  1
  Ru  Ru2  1  -0.00000000  0.00000000  -0.00000000  1
  C  C3  1  0.24546019  0.00098192  0.18441194  1
  C  C4  1  0.00098192  0.75552173  0.81558806  1
  C  C5  1  0.75552173  0.75453981  0.18441194  1
  C  C6  1  0.75453981  0.99901808  0.81558806  1
  C  C7  1  0.99901808  0.24447827  0.18441194  1
  C  C8  1  0.24447827  0.24546019  0.81558806  1
  N  N9  1  0.37940501  0.38038542  0.69505257  1
  N  N10  1  0.99901960  0.37940501  0.30494743  1
  N  N11  1  0.62059499  0.61961458  0.30494743  1
  N  N12  1  0.38038542  0.00098040  0.30494743  1
  N  N13  1  0.00098040  0.62059499  0.69505257  1
  N  N14  1  0.61961458  0.99901960  0.69505257  1
