# generated using pymatgen
data_CsU2F9
_symmetry_space_group_name_H-M   'P 1'
_cell_length_a   7.11884621
_cell_length_b   8.62375870
_cell_length_c   8.74957513
_cell_angle_alpha   115.32984132
_cell_angle_beta   90.00000000
_cell_angle_gamma   65.62253717
_symmetry_Int_Tables_number   1
_chemical_formula_structural   CsU2F9
_chemical_formula_sum   'Cs2 U4 F18'
_cell_volume   431.92873777
_cell_formula_units_Z   2
loop_
 _symmetry_equiv_pos_site_id
 _symmetry_equiv_pos_as_xyz
  1  'x, y, z'
loop_
 _atom_site_type_symbol
 _atom_site_label
 _atom_site_symmetry_multiplicity
 _atom_site_fract_x
 _atom_site_fract_y
 _atom_site_fract_z
 _atom_site_occupancy
  Cs  Cs0  1  0.89476335  0.99402003  0.24823331  1
  Cs  Cs1  1  0.11121662  0.99402003  0.74823331  1
  U  U2  1  0.81415494  0.56108512  0.69942150  1
  U  U3  1  0.38500248  0.41616617  0.78973609  1
  U  U4  1  0.19883135  0.41616617  0.28973609  1
  U  U5  1  0.62475994  0.56108512  0.19942150  1
  F  F6  1  0.35151047  0.66919211  0.07206249  1
  F  F7  1  0.00874302  0.32771406  0.43028442  1
  F  F8  1  0.66354292  0.32771406  0.93028442  1
  F  F9  1  0.97929741  0.66919211  0.57206249  1
  F  F10  1  0.56223029  0.33638741  0.22408188  1
  F  F11  1  0.88124879  0.66495129  0.27641000  1
  F  F12  1  0.45379992  0.66495129  0.77641000  1
  F  F13  1  0.10138230  0.33638741  0.72408188  1
  F  F14  1  0.27262772  0.68176282  0.36320636  1
  F  F15  1  0.94567035  0.31745828  0.13368884  1
  F  F16  1  0.73687137  0.31745828  0.63368884  1
  F  F17  1  0.04560945  0.68176282  0.86320636  1
  F  F18  1  0.36001454  0.37561663  0.51480243  1
  F  F19  1  0.73312558  0.63123630  0.98608272  1
  F  F20  1  0.63563812  0.63123630  0.48608272  1
  F  F21  1  0.26436883  0.37561663  0.01480243  1
  F  F22  1  0.52654735  0.11360978  0.66168997  1
  F  F23  1  0.35984286  0.11360978  0.16168997  1
