# generated using pymatgen
data_Er5Co19P12
_symmetry_space_group_name_H-M   'P 1'
_cell_length_a   3.66748482
_cell_length_b   11.96505866
_cell_length_c   11.96505881
_cell_angle_alpha   60.01596150
_cell_angle_beta   90.00047011
_cell_angle_gamma   89.99952994
_symmetry_Int_Tables_number   1
_chemical_formula_structural   Er5Co19P12
_chemical_formula_sum   'Er5 Co19 P12'
_cell_volume   454.77696064
_cell_formula_units_Z   1
loop_
 _symmetry_equiv_pos_site_id
 _symmetry_equiv_pos_as_xyz
  1  'x, y, z'
loop_
 _atom_site_type_symbol
 _atom_site_label
 _atom_site_symmetry_multiplicity
 _atom_site_fract_x
 _atom_site_fract_y
 _atom_site_fract_z
 _atom_site_occupancy
  Er  Er0  1  -0.00001380  0.33340249  0.33326467  1
  Er  Er1  1  -0.00001380  0.66673533  0.66659751  1
  Er  Er2  1  0.50358767  0.81262318  0.18737682  1
  Er  Er3  1  0.50363883  0.18712529  0.00015551  1
  Er  Er4  1  0.50363883  0.99984449  0.81287471  1
  Co  Co5  1  0.00065078  0.17800173  0.19928758  1
  Co  Co6  1  0.00063605  0.19916196  0.62272981  1
  Co  Co7  1  0.00063353  0.62273706  0.17801675  1
  Co  Co8  1  0.00065078  0.80071242  0.82199827  1
  Co  Co9  1  0.00063605  0.37727019  0.80083804  1
  Co  Co10  1  0.00063353  0.82198325  0.37726294  1
  Co  Co11  1  0.00043971  0.44784598  0.55215402  1
  Co  Co12  1  0.00041105  0.55210260  0.00011803  1
  Co  Co13  1  0.00041105  0.99988197  0.44789740  1
  Co  Co14  1  0.50021869  0.35787713  0.12586029  1
  Co  Co15  1  0.50021957  0.12589286  0.51626612  1
  Co  Co16  1  0.50020720  0.51646791  0.35767427  1
  Co  Co17  1  0.50021869  0.87413971  0.64212287  1
  Co  Co18  1  0.50021957  0.48373388  0.87410714  1
  Co  Co19  1  0.50020720  0.64232573  0.48353209  1
  Co  Co20  1  0.50234154  0.28463003  0.71536997  1
  Co  Co21  1  0.50235005  0.71529675  -0.00001486  1
  Co  Co22  1  0.50235005  0.00001486  0.28470325  1
  Co  Co23  1  0.01062238  0.99986881  0.00013119  1
  P  P24  1  0.00050886  0.63289678  0.36710322  1
  P  P25  1  0.00050497  0.36727319  0.99997158  1
  P  P26  1  0.00050497  0.00002842  0.63272681  1
  P  P27  1  0.50018909  0.16599214  0.31469226  1
  P  P28  1  0.50019517  0.31470540  0.51926789  1
  P  P29  1  0.50018649  0.51939208  0.16600526  1
  P  P30  1  0.50018909  0.68530774  0.83400786  1
  P  P31  1  0.50019517  0.48073211  0.68529460  1
  P  P32  1  0.50018649  0.83399474  0.48060792  1
  P  P33  1  0.00312622  0.18020432  0.81979568  1
  P  P34  1  0.00315916  0.81974037  0.00004290  1
  P  P35  1  0.00315916  0.99995710  0.18025963  1
