# generated using pymatgen
data_Cr8Cu3NiS16
_symmetry_space_group_name_H-M   'P 1'
_cell_length_a   6.94188022
_cell_length_b   6.94188023
_cell_length_c   12.02050442
_cell_angle_alpha   73.21676429
_cell_angle_beta   90.00000000
_cell_angle_gamma   119.99999997
_symmetry_Int_Tables_number   1
_chemical_formula_structural   Cr8Cu3NiS16
_chemical_formula_sum   'Cr8 Cu3 Ni1 S16'
_cell_volume   472.95181683
_cell_formula_units_Z   1
loop_
 _symmetry_equiv_pos_site_id
 _symmetry_equiv_pos_as_xyz
  1  'x, y, z'
loop_
 _atom_site_type_symbol
 _atom_site_label
 _atom_site_symmetry_multiplicity
 _atom_site_fract_x
 _atom_site_fract_y
 _atom_site_fract_z
 _atom_site_occupancy
  Cr  Cr0  1  0.24988198  0.99976396  0.25035406  1
  Cr  Cr1  1  0.74989828  0.99979655  0.75030517  1
  Cr  Cr2  1  0.00041916  0.50083832  0.50003820  1
  Cr  Cr3  1  0.50052631  0.50105263  0.99989689  1
  Cr  Cr4  1  0.00041916  0.99954264  0.50003820  1
  Cr  Cr5  1  0.50052631  0.99957680  0.99989689  1
  Cr  Cr6  1  0.99905048  0.99957680  0.99989689  1
  Cr  Cr7  1  0.49912348  0.99954264  0.50003820  1
  Cu  Cu8  1  0.43749765  0.37499530  0.68750704  1
  Cu  Cu9  1  0.56248383  0.62496766  0.31254852  1
  Cu  Cu10  1  0.06250294  0.62500588  0.81249118  1
  Ni  Ni11  1  0.93743374  0.37486748  0.18769877  1
  S  S12  1  0.87202489  0.24404979  0.38392532  1
  S  S13  1  0.37102520  0.24205040  0.88692440  1
  S  S14  1  0.13415750  0.76831499  0.12203200  1
  S  S15  1  0.63679687  0.77359374  0.62095175  1
  S  S16  1  0.13415750  0.24381051  0.12203200  1
  S  S17  1  0.63679687  0.24225138  0.62095175  1
  S  S18  1  0.60965301  0.24381051  0.12203200  1
  S  S19  1  0.10545451  0.24225138  0.62095175  1
  S  S20  1  0.62890981  0.75781963  0.11327056  1
  S  S21  1  0.12889367  0.75778735  0.61331898  1
  S  S22  1  0.36333909  0.22667818  0.37861757  1
  S  S23  1  0.86332694  0.22665389  0.87901560  1
  S  S24  1  0.36333909  0.75804334  0.37861757  1
  S  S25  1  0.86332694  0.75765746  0.87901560  1
  S  S26  1  0.89470425  0.75804334  0.37861757  1
  S  S27  1  0.39433051  0.75765746  0.87901560  1
