# generated using pymatgen
data_K6Te3(H8O7)4
_symmetry_space_group_name_H-M   'P 1'
_cell_length_a   8.16067024
_cell_length_b   9.34313134
_cell_length_c   10.28043800
_cell_angle_alpha   101.91143438
_cell_angle_beta   106.78901670
_cell_angle_gamma   95.86402081
_symmetry_Int_Tables_number   1
_chemical_formula_structural   K6Te3(H8O7)4
_chemical_formula_sum   'K6 Te3 H32 O28'
_cell_volume   723.24065994
_cell_formula_units_Z   1
loop_
 _symmetry_equiv_pos_site_id
 _symmetry_equiv_pos_as_xyz
  1  'x, y, z'
loop_
 _atom_site_type_symbol
 _atom_site_label
 _atom_site_symmetry_multiplicity
 _atom_site_fract_x
 _atom_site_fract_y
 _atom_site_fract_z
 _atom_site_occupancy
  K  K0  1  0.38258296  0.80824035  0.04479311  1
  K  K1  1  0.61862782  0.19216643  0.95672118  1
  K  K2  1  0.99194990  0.52018880  0.30334858  1
  K  K3  1  0.03708490  0.46591914  0.70726390  1
  K  K4  1  0.41575160  0.78368711  0.41230279  1
  K  K5  1  0.57858808  0.21453909  0.58782279  1
  Te  Te6  1  0.12722303  0.15115419  0.04881808  1
  Te  Te7  1  0.86973417  0.84349021  0.94426558  1
  Te  Te8  1  0.00088372  0.00590318  0.50054859  1
  H  H9  1  0.81487795  0.78587982  0.52133322  1
  H  H10  1  0.20750665  0.23474142  0.49463771  1
  H  H11  1  0.16325035  0.75826185  0.59257144  1
  H  H12  1  0.83003230  0.25823607  0.42084870  1
  H  H13  1  0.21348181  0.02686512  0.84289653  1
  H  H14  1  0.78632862  0.97306395  0.15057675  1
  H  H15  1  0.27462955  0.64034648  0.64668751  1
  H  H16  1  0.71727209  0.36712749  0.35181872  1
  H  H17  1  0.96000200  0.17699764  0.22104465  1
  H  H18  1  0.04135296  0.82304108  0.77659189  1
  H  H19  1  0.37179771  0.45043002  0.47566311  1
  H  H20  1  0.68329751  0.52456614  0.53192149  1
  H  H21  1  0.29291210  0.31385835  0.33837693  1
  H  H22  1  0.64198469  0.65355979  0.64407583  1
  H  H23  1  0.44574011  0.09200201  0.27057556  1
  H  H24  1  0.55318257  0.90733749  0.72879070  1
  H  H25  1  0.63410255  0.04343620  0.32379605  1
  H  H26  1  0.36637417  0.95910096  0.67776264  1
  H  H27  1  0.07818729  0.64055047  0.09643729  1
  H  H28  1  0.92005626  0.35796124  0.90139006  1
  H  H29  1  0.73627874  0.67715936  0.12092058  1
  H  H30  1  0.26674487  0.31908336  0.88043558  1
  H  H31  1  0.51236140  0.67303306  0.80887014  1
  H  H32  1  0.48516355  0.32824894  0.19242055  1
  H  H33  1  0.71777867  0.73529389  0.27347244  1
  H  H34  1  0.28616071  0.26012834  0.72807401  1
  H  H35  1  0.92326367  0.09809719  0.71587055  1
  H  H36  1  0.07322368  0.90607783  0.28327202  1
  H  H37  1  0.40814965  0.51633132  0.81616672  1
  H  H38  1  0.59730542  0.48375540  0.18717115  1
  H  H39  1  0.18043011  0.50497571  0.08907656  1
  H  H40  1  0.81990099  0.49488365  0.90915042  1
  O  O41  1  0.90756542  0.13719122  0.63144095  1
  O  O42  1  0.08952398  0.87050203  0.36950887  1
  O  O43  1  0.27928011  0.06040677  0.94530662  1
  O  O44  1  0.71912637  0.93560692  0.04942884  1
  O  O45  1  0.66029684  0.66432539  0.18107206  1
  O  O46  1  0.34292115  0.33266924  0.82055426  1
  O  O47  1  0.19043140  0.65668375  0.56167230  1
  O  O48  1  0.79405801  0.35749146  0.44527174  1
  O  O49  1  0.91742928  0.03664001  0.88767775  1
  O  O50  1  0.08061399  0.95758467  0.10494383  1
  O  O51  1  0.39724844  0.61906241  0.80682191  1
  O  O52  1  0.60259018  0.38018990  0.19690121  1
  O  O53  1  0.97114757  0.23484696  0.15228726  1
  O  O54  1  0.02040840  0.75669445  0.83611893  1
  O  O55  1  0.79069281  0.84420318  0.45123747  1
  O  O56  1  0.21092106  0.16153531  0.55440158  1
  O  O57  1  0.50953746  0.01928550  0.31540887  1
  O  O58  1  0.49074017  0.98223346  0.68641766  1
  O  O59  1  0.19004523  0.60906606  0.14285435  1
  O  O60  1  0.80980043  0.39105139  0.85404156  1
  O  O61  1  0.32825070  0.21784266  0.20772503  1
  O  O62  1  0.66707971  0.77780889  0.78674209  1
  O  O63  1  0.12591341  0.31925748  0.97335016  1
  O  O64  1  0.87222547  0.67711971  0.02184037  1
  O  O65  1  0.87409607  0.08439455  0.35344797  1
  O  O66  1  0.12158180  0.92623152  0.64950727  1
  O  O67  1  0.27129586  0.37008961  0.42651176  1
  O  O68  1  0.59662178  0.58646536  0.54542524  1
