# generated using pymatgen
data_Er2PtAu
_symmetry_space_group_name_H-M   'P 1'
_cell_length_a   4.63395751
_cell_length_b   5.58135887
_cell_length_c   6.96224355
_cell_angle_alpha   90.00000000
_cell_angle_beta   90.00000000
_cell_angle_gamma   90.00000000
_symmetry_Int_Tables_number   1
_chemical_formula_structural   Er2PtAu
_chemical_formula_sum   'Er4 Pt2 Au2'
_cell_volume   180.06993445
_cell_formula_units_Z   2
loop_
 _symmetry_equiv_pos_site_id
 _symmetry_equiv_pos_as_xyz
  1  'x, y, z'
loop_
 _atom_site_type_symbol
 _atom_site_label
 _atom_site_symmetry_multiplicity
 _atom_site_fract_x
 _atom_site_fract_y
 _atom_site_fract_z
 _atom_site_occupancy
  Er  Er0  1  0.25000000  0.85340830  0.68160981  1
  Er  Er1  1  0.25000000  0.64659170  0.18160981  1
  Er  Er2  1  0.75000000  0.12926109  0.31941109  1
  Er  Er3  1  0.75000000  0.37073891  0.81941109  1
  Pt  Pt4  1  0.75000000  0.64988723  0.45686403  1
  Pt  Pt5  1  0.75000000  0.85011277  0.95686403  1
  Au  Au6  1  0.25000000  0.34650703  0.54211507  1
  Au  Au7  1  0.25000000  0.15349297  0.04211507  1
