# generated using pymatgen
data_Cs2Ge(TeO4)3
_symmetry_space_group_name_H-M   'P 1'
_cell_length_a   7.30009055
_cell_length_b   7.13067702
_cell_length_c   7.30009055
_cell_angle_alpha   90.00000000
_cell_angle_beta   60.00000000
_cell_angle_gamma   120.78908380
_symmetry_Int_Tables_number   1
_chemical_formula_structural   Cs2Ge(TeO4)3
_chemical_formula_sum   'Cs2 Ge1 Te3 O12'
_cell_volume   265.45330048
_cell_formula_units_Z   1
loop_
 _symmetry_equiv_pos_site_id
 _symmetry_equiv_pos_as_xyz
  1  'x, y, z'
loop_
 _atom_site_type_symbol
 _atom_site_label
 _atom_site_symmetry_multiplicity
 _atom_site_fract_x
 _atom_site_fract_y
 _atom_site_fract_z
 _atom_site_occupancy
  Cs  Cs0  1  0.75473272  0.38209908  0.37263364  1
  Cs  Cs1  1  0.24526728  0.61790092  0.62736636  1
  Ge  Ge2  1  0.50000000  0.50000000  -0.00000000  1
  Te  Te3  1  0.50000000  0.00000000  -0.00000000  1
  Te  Te4  1  -0.00000000  0.00000000  0.50000000  1
  Te  Te5  1  -0.00000000  0.00000000  -0.00000000  1
  O  O6  1  0.84980560  0.91753330  0.32509720  1
  O  O7  1  0.63892616  0.32156913  0.93053692  1
  O  O8  1  0.24263050  0.91753330  0.93227230  1
  O  O9  1  0.25210605  0.32156913  0.31735703  1
  O  O10  1  0.25210605  0.32156913  0.93053692  1
  O  O11  1  0.24263050  0.91753330  0.32509720  1
  O  O12  1  0.15019440  0.08246670  0.67490280  1
  O  O13  1  0.36107384  0.67843087  0.06946308  1
  O  O14  1  0.75736950  0.08246670  0.06772770  1
  O  O15  1  0.74789395  0.67843087  0.68264297  1
  O  O16  1  0.74789395  0.67843087  0.06946308  1
  O  O17  1  0.75736950  0.08246670  0.67490280  1
