# generated using pymatgen
data_Er3Sc2S7
_symmetry_space_group_name_H-M   'P 1'
_cell_length_a   3.70647428
_cell_length_b   6.44200319
_cell_length_c   11.30997229
_cell_angle_alpha   104.17845721
_cell_angle_beta   90.00000000
_cell_angle_gamma   73.28087269
_symmetry_Int_Tables_number   1
_chemical_formula_structural   Er3Sc2S7
_chemical_formula_sum   'Er3 Sc2 S7'
_cell_volume   250.03192049
_cell_formula_units_Z   1
loop_
 _symmetry_equiv_pos_site_id
 _symmetry_equiv_pos_as_xyz
  1  'x, y, z'
loop_
 _atom_site_type_symbol
 _atom_site_label
 _atom_site_symmetry_multiplicity
 _atom_site_fract_x
 _atom_site_fract_y
 _atom_site_fract_z
 _atom_site_occupancy
  Er  Er0  1  0.69577296  0.60845408  0.19811816  1
  Er  Er1  1  0.30422704  0.39154592  0.80188184  1
  Er  Er2  1  -0.00000000  0.00000000  0.00000000  1
  Sc  Sc3  1  0.88829046  0.22341908  0.42852569  1
  Sc  Sc4  1  0.11170954  0.77658092  0.57147431  1
  S  S5  1  0.66151994  0.67696012  0.94769715  1
  S  S6  1  0.33848006  0.32303988  0.05230285  1
  S  S7  1  0.73843618  0.52312764  0.64050416  1
  S  S8  1  0.26156382  0.47687236  0.35949584  1
  S  S9  1  0.96722288  0.06555424  0.77784385  1
  S  S10  1  0.03277712  0.93444576  0.22215615  1
  S  S11  1  0.50000000  0.00000000  0.50000000  1
