# generated using pymatgen
data_Gd2Mn(GeO3)4
_symmetry_space_group_name_H-M   'P 1'
_cell_length_a   5.05589153
_cell_length_b   10.10617482
_cell_length_c   10.10617482
_cell_angle_alpha   90.68024383
_cell_angle_beta   90.00000000
_cell_angle_gamma   90.00000000
_symmetry_Int_Tables_number   1
_chemical_formula_structural   Gd2Mn(GeO3)4
_chemical_formula_sum   'Gd4 Mn2 Ge8 O24'
_cell_volume   516.34592233
_cell_formula_units_Z   2
loop_
 _symmetry_equiv_pos_site_id
 _symmetry_equiv_pos_as_xyz
  1  'x, y, z'
loop_
 _atom_site_type_symbol
 _atom_site_label
 _atom_site_symmetry_multiplicity
 _atom_site_fract_x
 _atom_site_fract_y
 _atom_site_fract_z
 _atom_site_occupancy
  Gd  Gd0  1  0.50000000  0.00000000  0.50000000  1
  Gd  Gd1  1  0.50000000  0.50000000  0.00000000  1
  Gd  Gd2  1  0.50000000  0.75000000  0.75000000  1
  Gd  Gd3  1  0.50000000  0.25000000  0.25000000  1
  Mn  Mn4  1  0.50000000  0.50000000  0.50000000  1
  Mn  Mn5  1  0.50000000  0.00000000  0.00000000  1
  Ge  Ge6  1  0.99429067  0.74607769  0.47648627  1
  Ge  Ge7  1  0.00570933  0.25392231  0.52351373  1
  Ge  Ge8  1  0.00570933  0.24607769  0.97648627  1
  Ge  Ge9  1  0.99429067  0.75392231  0.02351373  1
  Ge  Ge10  1  0.00570933  0.47648627  0.74607769  1
  Ge  Ge11  1  0.99429067  0.52351373  0.25392231  1
  Ge  Ge12  1  0.99429067  0.97648627  0.24607769  1
  Ge  Ge13  1  0.00570933  0.02351373  0.75392231  1
  O  O14  1  0.26195897  0.55999767  0.66836253  1
  O  O15  1  0.24792256  0.06241336  0.32794909  1
  O  O16  1  0.24792256  0.43758664  0.17205091  1
  O  O17  1  0.26195897  0.94000233  0.83163747  1
  O  O18  1  0.73804103  0.44000233  0.33163747  1
  O  O19  1  0.75207744  0.93758664  0.67205091  1
  O  O20  1  0.75207744  0.56241336  0.82794909  1
  O  O21  1  0.73804103  0.05999767  0.16836253  1
  O  O22  1  0.73804103  0.66836253  0.55999767  1
  O  O23  1  0.75207744  0.32794909  0.06241336  1
  O  O24  1  0.75207744  0.17205091  0.43758664  1
  O  O25  1  0.73804103  0.83163747  0.94000233  1
  O  O26  1  0.26195897  0.33163747  0.44000233  1
  O  O27  1  0.24792256  0.67205091  0.93758664  1
  O  O28  1  0.24792256  0.82794909  0.56241336  1
  O  O29  1  0.26195897  0.16836253  0.05999767  1
  O  O30  1  0.83196970  0.36886179  0.63113821  1
  O  O31  1  0.83337396  0.87174738  0.37174738  1
  O  O32  1  0.83337396  0.62825262  0.12825262  1
  O  O33  1  0.83196970  0.13113821  0.86886179  1
  O  O34  1  0.16803030  0.63113821  0.36886179  1
  O  O35  1  0.16662604  0.12825262  0.62825262  1
  O  O36  1  0.16662604  0.37174738  0.87174738  1
  O  O37  1  0.16803030  0.86886179  0.13113821  1
