# generated using pymatgen
data_CeSiGePd2
_symmetry_space_group_name_H-M   'P 1'
_cell_length_a   4.25381741
_cell_length_b   4.25381741
_cell_length_c   5.90208405
_cell_angle_alpha   68.87734289
_cell_angle_beta   68.87734289
_cell_angle_gamma   90.00000000
_symmetry_Int_Tables_number   1
_chemical_formula_structural   CeSiGePd2
_chemical_formula_sum   'Ce1 Si1 Ge1 Pd2'
_cell_volume   91.88805669
_cell_formula_units_Z   1
loop_
 _symmetry_equiv_pos_site_id
 _symmetry_equiv_pos_as_xyz
  1  'x, y, z'
loop_
 _atom_site_type_symbol
 _atom_site_label
 _atom_site_symmetry_multiplicity
 _atom_site_fract_x
 _atom_site_fract_y
 _atom_site_fract_z
 _atom_site_occupancy
  Ce  Ce0  1  0.00102202  0.00102202  0.99795597  1
  Si  Si1  1  0.62398019  0.62398019  0.75203962  1
  Ge  Ge2  1  0.38666287  0.38666287  0.22667425  1
  Pd  Pd3  1  0.74416746  0.24416746  0.51166508  1
  Pd  Pd4  1  0.24416746  0.74416746  0.51166508  1
