# generated using pymatgen
data_Cr4GaCuSe8
_symmetry_space_group_name_H-M   'P 1'
_cell_length_a   7.46837168
_cell_length_b   7.46837168
_cell_length_c   7.46837168
_cell_angle_alpha   90.00000000
_cell_angle_beta   60.00000000
_cell_angle_gamma   120.00000000
_symmetry_Int_Tables_number   1
_chemical_formula_structural   Cr4GaCuSe8
_chemical_formula_sum   'Cr4 Ga1 Cu1 Se8'
_cell_volume   294.55254036
_cell_formula_units_Z   1
loop_
 _symmetry_equiv_pos_site_id
 _symmetry_equiv_pos_as_xyz
  1  'x, y, z'
loop_
 _atom_site_type_symbol
 _atom_site_label
 _atom_site_symmetry_multiplicity
 _atom_site_fract_x
 _atom_site_fract_y
 _atom_site_fract_z
 _atom_site_occupancy
  Cr  Cr0  1  0.49205097  0.48807645  0.00397452  1
  Cr  Cr1  1  0.49205097  0.00397452  0.00397452  1
  Cr  Cr2  1  0.00794903  0.00397452  0.48807645  1
  Cr  Cr3  1  0.00794903  0.00397452  0.00397452  1
  Ga  Ga4  1  0.25000000  0.62500000  0.62500000  1
  Cu  Cu5  1  0.75000000  0.37500000  0.37500000  1
  Se  Se6  1  0.01696782  0.77545173  0.24151609  1
  Se  Se7  1  0.01696782  0.24151609  0.24151609  1
  Se  Se8  1  0.48303218  0.24151609  0.77545173  1
  Se  Se9  1  0.48303218  0.24151609  0.24151609  1
  Se  Se10  1  0.97948784  0.21923176  0.76025608  1
  Se  Se11  1  0.97948784  0.76025608  0.76025608  1
  Se  Se12  1  0.52051216  0.76025608  0.21923176  1
  Se  Se13  1  0.52051216  0.76025608  0.76025608  1
