# generated using pymatgen
data_Cs3Y7Se12
_symmetry_space_group_name_H-M   'P 1'
_cell_length_a   4.18443409
_cell_length_b   12.95306150
_cell_length_c   26.49189146
_cell_angle_alpha   90.00000000
_cell_angle_beta   90.00000000
_cell_angle_gamma   90.00000000
_symmetry_Int_Tables_number   1
_chemical_formula_structural   Cs3Y7Se12
_chemical_formula_sum   'Cs6 Y14 Se24'
_cell_volume   1435.89315807
_cell_formula_units_Z   2
loop_
 _symmetry_equiv_pos_site_id
 _symmetry_equiv_pos_as_xyz
  1  'x, y, z'
loop_
 _atom_site_type_symbol
 _atom_site_label
 _atom_site_symmetry_multiplicity
 _atom_site_fract_x
 _atom_site_fract_y
 _atom_site_fract_z
 _atom_site_occupancy
  Cs  Cs0  1  0.50000000  0.77313418  0.12907841  1
  Cs  Cs1  1  0.50000000  0.21681886  0.86639970  1
  Cs  Cs2  1  -0.00000000  0.28318114  0.36639970  1
  Cs  Cs3  1  0.00000000  0.72686582  0.62907841  1
  Cs  Cs4  1  0.50000000  0.05521240  0.47315667  1
  Cs  Cs5  1  -0.00000000  0.44478760  0.97315667  1
  Y  Y6  1  0.50000000  0.71318400  0.41574245  1
  Y  Y7  1  0.50000000  0.28705729  0.58595748  1
  Y  Y8  1  -0.00000000  0.21294271  0.08595748  1
  Y  Y9  1  -0.00000000  0.78681600  0.91574245  1
  Y  Y10  1  0.50000000  0.91699644  0.78901458  1
  Y  Y11  1  0.50000000  0.08311808  0.21103638  1
  Y  Y12  1  0.00000000  0.41688192  0.71103638  1
  Y  Y13  1  -0.00000000  0.58300356  0.28901458  1
  Y  Y14  1  -0.00000000  0.49981561  0.49989874  1
  Y  Y15  1  0.50000000  0.00018439  0.99989874  1
  Y  Y16  1  0.50000000  0.58826549  0.81526523  1
  Y  Y17  1  0.50000000  0.41379919  0.18363164  1
  Y  Y18  1  -0.00000000  0.08620081  0.68363164  1
  Y  Y19  1  0.00000000  0.91173451  0.31526523  1
  Se  Se20  1  0.50000000  0.93511367  0.89673215  1
  Se  Se21  1  0.50000000  0.06391569  0.10342344  1
  Se  Se22  1  -0.00000000  0.43608431  0.60342344  1
  Se  Se23  1  0.00000000  0.56488633  0.39673215  1
  Se  Se24  1  0.50000000  0.74567310  0.30294052  1
  Se  Se25  1  0.50000000  0.25396851  0.69746494  1
  Se  Se26  1  -0.00000000  0.24603149  0.19746494  1
  Se  Se27  1  0.00000000  0.75432690  0.80294052  1
  Se  Se28  1  0.50000000  0.63548972  0.92005321  1
  Se  Se29  1  0.50000000  0.36542642  0.07908857  1
  Se  Se30  1  -0.00000000  0.13457358  0.57908857  1
  Se  Se31  1  0.00000000  0.86451028  0.42005321  1
  Se  Se32  1  0.50000000  0.56197827  0.71008927  1
  Se  Se33  1  0.50000000  0.43739454  0.28953970  1
  Se  Se34  1  0.00000000  0.06260546  0.78953970  1
  Se  Se35  1  0.00000000  0.93802173  0.21008927  1
  Se  Se36  1  0.50000000  0.93883604  0.68155830  1
  Se  Se37  1  0.50000000  0.06136546  0.32060887  1
  Se  Se38  1  -0.00000000  0.43863454  0.82060887  1
  Se  Se39  1  0.00000000  0.56116396  0.18155830  1
  Se  Se40  1  0.50000000  0.64905768  0.51675326  1
  Se  Se41  1  0.50000000  0.34638984  0.48297648  1
  Se  Se42  1  0.00000000  0.15361016  0.98297648  1
  Se  Se43  1  -0.00000000  0.85094232  0.01675326  1
