# generated using pymatgen
data_Cs2Hf(WO4)3
_symmetry_space_group_name_H-M   'P 1'
_cell_length_a   7.43619047
_cell_length_b   7.43514879
_cell_length_c   7.52080183
_cell_angle_alpha   90.00000000
_cell_angle_beta   60.40598611
_cell_angle_gamma   119.99536625
_symmetry_Int_Tables_number   1
_chemical_formula_structural   Cs2Hf(WO4)3
_chemical_formula_sum   'Cs2 Hf1 W3 O12'
_cell_volume   295.84029159
_cell_formula_units_Z   1
loop_
 _symmetry_equiv_pos_site_id
 _symmetry_equiv_pos_as_xyz
  1  'x, y, z'
loop_
 _atom_site_type_symbol
 _atom_site_label
 _atom_site_symmetry_multiplicity
 _atom_site_fract_x
 _atom_site_fract_y
 _atom_site_fract_z
 _atom_site_occupancy
  Cs  Cs0  1  0.27468710  0.16521528  0.11084640  1
  Cs  Cs1  1  0.72531290  0.89052818  0.88915360  1
  Hf  Hf2  1  -0.00000000  0.50249372  0.00000000  1
  W  W3  1  0.50028483  0.00309999  0.50033596  1
  W  W4  1  0.49971517  0.50281516  0.49966404  1
  W  W5  1  -0.00000000  0.50203238  0.50000000  1
  O  O6  1  0.61673504  0.80905439  0.44470463  1
  O  O7  1  0.87462010  0.43577876  0.79993651  1
  O  O8  1  0.26538668  0.82672355  0.79967381  1
  O  O9  1  0.24629630  0.43889825  0.44543109  1
  O  O10  1  0.26259703  0.43824966  0.79978445  1
  O  O11  1  0.24769857  0.80886988  0.44393126  1
  O  O12  1  0.38326496  0.19231935  0.55529537  1
  O  O13  1  0.12537990  0.56115866  0.20006349  1
  O  O14  1  0.73740297  0.17565263  0.20021555  1
  O  O15  1  0.75230143  0.56117131  0.55606874  1
  O  O16  1  0.73461332  0.56133688  0.20032619  1
  O  O17  1  0.75370370  0.19260195  0.55456891  1
