# generated using pymatgen
data_CrCo4SbO8
_symmetry_space_group_name_H-M   'P 1'
_cell_length_a   6.06806891
_cell_length_b   6.13204107
_cell_length_c   6.02908236
_cell_angle_alpha   90.00000000
_cell_angle_beta   60.21230635
_cell_angle_gamma   119.19940584
_symmetry_Int_Tables_number   1
_chemical_formula_structural   CrCo4SbO8
_chemical_formula_sum   'Cr1 Co4 Sb1 O8'
_cell_volume   161.02612648
_cell_formula_units_Z   1
loop_
 _symmetry_equiv_pos_site_id
 _symmetry_equiv_pos_as_xyz
  1  'x, y, z'
loop_
 _atom_site_type_symbol
 _atom_site_label
 _atom_site_symmetry_multiplicity
 _atom_site_fract_x
 _atom_site_fract_y
 _atom_site_fract_z
 _atom_site_occupancy
  Cr  Cr0  1  0.50000000  0.50000000  0.50000000  1
  Co  Co1  1  0.22424264  0.09813617  0.13787868  1
  Co  Co2  1  0.77575736  0.90186383  0.86212132  1
  Co  Co3  1  0.00000000  0.50000000  0.00000000  1
  Co  Co4  1  0.00000000  0.50000000  0.50000000  1
  Sb  Sb5  1  0.50000000  -0.00000000  0.50000000  1
  O  O6  1  0.96318185  0.71017374  0.26840907  1
  O  O7  1  0.96089338  0.24130174  0.26955331  1
  O  O8  1  0.50055313  0.24708122  0.72614909  1
  O  O9  1  0.50055313  0.24708122  0.27329778  1
  O  O10  1  0.03681815  0.28982626  0.73159093  1
  O  O11  1  0.03910662  0.75869826  0.73044669  1
  O  O12  1  0.49944687  0.75291878  0.27385091  1
  O  O13  1  0.49944687  0.75291878  0.72670222  1
