# generated using pymatgen
data_CrBiTeO6
_symmetry_space_group_name_H-M   'P 1'
_cell_length_a   5.25104114
_cell_length_b   5.25164481
_cell_length_c   10.04189849
_cell_angle_alpha   89.99462188
_cell_angle_beta   90.00268939
_cell_angle_gamma   120.00380422
_symmetry_Int_Tables_number   1
_chemical_formula_structural   CrBiTeO6
_chemical_formula_sum   'Cr2 Bi2 Te2 O12'
_cell_volume   239.81181370
_cell_formula_units_Z   2
loop_
 _symmetry_equiv_pos_site_id
 _symmetry_equiv_pos_as_xyz
  1  'x, y, z'
loop_
 _atom_site_type_symbol
 _atom_site_label
 _atom_site_symmetry_multiplicity
 _atom_site_fract_x
 _atom_site_fract_y
 _atom_site_fract_z
 _atom_site_occupancy
  Cr  Cr0  1  0.33338915  0.66669457  0.75000000  1
  Cr  Cr1  1  0.66661085  0.33330543  0.25000000  1
  Bi  Bi2  1  -0.00000000  -0.00000000  0.50000000  1
  Bi  Bi3  1  -0.00000000  -0.00000000  0.00000000  1
  Te  Te4  1  0.66679617  0.33339809  0.75000000  1
  Te  Te5  1  0.33320383  0.66660191  0.25000000  1
  O  O6  1  0.63587312  0.00883713  0.64171718  1
  O  O7  1  0.99125465  0.62703753  0.64173866  1
  O  O8  1  0.37302966  0.36420616  0.64173360  1
  O  O9  1  0.36412688  0.37296401  0.14171718  1
  O  O10  1  0.62697034  0.99117650  0.14173360  1
  O  O11  1  0.00874535  0.63578288  0.14173866  1
  O  O12  1  0.36412688  0.99116287  0.35828282  1
  O  O13  1  0.00874535  0.37296247  0.35826134  1
  O  O14  1  0.62697034  0.63579384  0.35826640  1
  O  O15  1  0.63587312  0.62703599  0.85828282  1
  O  O16  1  0.37302966  0.00882350  0.85826640  1
  O  O17  1  0.99125465  0.36421712  0.85826134  1
