# generated using pymatgen
data_CrAgSnS4
_symmetry_space_group_name_H-M   'P 1'
_cell_length_a   7.45660173
_cell_length_b   7.35677545
_cell_length_c   7.57621925
_cell_angle_alpha   90.00000000
_cell_angle_beta   59.46790650
_cell_angle_gamma   119.55811990
_symmetry_Int_Tables_number   1
_chemical_formula_structural   CrAgSnS4
_chemical_formula_sum   'Cr2 Ag2 Sn2 S8'
_cell_volume   293.45488078
_cell_formula_units_Z   2
loop_
 _symmetry_equiv_pos_site_id
 _symmetry_equiv_pos_as_xyz
  1  'x, y, z'
loop_
 _atom_site_type_symbol
 _atom_site_label
 _atom_site_symmetry_multiplicity
 _atom_site_fract_x
 _atom_site_fract_y
 _atom_site_fract_z
 _atom_site_occupancy
  Cr  Cr0  1  0.50000000  0.50000000  0.00000000  1
  Cr  Cr1  1  0.50000000  0.00000000  0.00000000  1
  Ag  Ag2  1  0.73036212  0.36518106  0.38481894  1
  Ag  Ag3  1  0.26963788  0.63481894  0.61518106  1
  Sn  Sn4  1  -0.00000000  0.00000000  0.50000000  1
  Sn  Sn5  1  -0.00000000  0.00000000  0.00000000  1
  S  S6  1  0.04000063  0.78001218  0.22999968  1
  S  S7  1  0.04000063  0.25998845  0.22999968  1
  S  S8  1  0.48992267  0.24496133  0.79161894  1
  S  S9  1  0.48992267  0.24496133  0.21845840  1
  S  S10  1  0.95999937  0.21998782  0.77000032  1
  S  S11  1  0.95999937  0.74001155  0.77000032  1
  S  S12  1  0.51007733  0.75503867  0.20838106  1
  S  S13  1  0.51007733  0.75503867  0.78154160  1
