# generated using pymatgen
data_Np3HF12
_symmetry_space_group_name_H-M   'P 1'
_cell_length_a   8.42720323
_cell_length_b   8.43419635
_cell_length_c   8.58354202
_cell_angle_alpha   63.01876739
_cell_angle_beta   63.17268104
_cell_angle_gamma   88.54901459
_symmetry_Int_Tables_number   1
_chemical_formula_structural   Np3HF12
_chemical_formula_sum   'Np6 H2 F24'
_cell_volume   472.65673158
_cell_formula_units_Z   2
loop_
 _symmetry_equiv_pos_site_id
 _symmetry_equiv_pos_as_xyz
  1  'x, y, z'
loop_
 _atom_site_type_symbol
 _atom_site_label
 _atom_site_symmetry_multiplicity
 _atom_site_fract_x
 _atom_site_fract_y
 _atom_site_fract_z
 _atom_site_occupancy
  Np  Np0  1  0.05530220  0.06138888  0.25229633  1
  Np  Np1  1  0.24951873  0.59991271  0.79555809  1
  Np  Np2  1  0.47734631  0.10484494  0.40519163  1
  Np  Np3  1  0.09785018  0.48393371  0.40488087  1
  Np  Np4  1  0.59330121  0.25725809  0.79597057  1
  Np  Np5  1  0.67796720  0.68576922  0.92519770  1
  H  H6  1  0.99174560  0.99322704  0.99962829  1
  H  H7  1  0.71396790  0.71582089  0.13232377  1
  F  F8  1  0.00969837  0.25065480  0.36894245  1
  F  F9  1  0.95497846  0.65589305  0.87771525  1
  F  F10  1  0.26894612  0.27578206  0.47165734  1
  F  F11  1  0.76766020  0.05847330  0.30885016  1
  F  F12  1  0.24467917  0.01563070  0.36900602  1
  F  F13  1  0.62437040  0.39964074  0.18038361  1
  F  F14  1  0.31181916  0.06911191  0.98946487  1
  F  F15  1  0.65060036  0.96186740  0.87751717  1
  F  F16  1  0.55627447  0.16600499  0.59114631  1
  F  F17  1  0.87623581  0.88222873  0.58549548  1
  F  F18  1  0.44464417  0.45172630  0.65815835  1
  F  F19  1  0.71642742  0.50417313  0.78904387  1
  F  F20  1  0.39369632  0.63267402  0.18201373  1
  F  F21  1  0.05095817  0.77453145  0.30754724  1
  F  F22  1  0.25515847  0.90612716  0.71772347  1
  F  F23  1  0.15815962  0.56406381  0.59128930  1
  F  F24  1  0.80208650  0.46305511  0.47357702  1
  F  F25  1  0.35109569  0.35686859  0.01456506  1
  F  F26  1  0.45702177  0.80940983  0.47418263  1
  F  F27  1  0.13204504  0.59299460  0.09270686  1
  F  F28  1  0.49724994  0.72330860  0.79077899  1
  F  F29  1  0.89973553  0.26205586  0.71754953  1
  F  F30  1  0.58641453  0.13773977  0.09295718  1
  F  F31  1  0.06274499  0.31772861  0.98928087  1
