# generated using pymatgen
data_Ca5As3ClO12
_symmetry_space_group_name_H-M   'P 1'
_cell_length_a   6.87579195
_cell_length_b   10.25727505
_cell_length_c   10.25738972
_cell_angle_alpha   59.99887150
_cell_angle_beta   90.00000000
_cell_angle_gamma   90.00000000
_symmetry_Int_Tables_number   1
_chemical_formula_structural   Ca5As3ClO12
_chemical_formula_sum   'Ca10 As6 Cl2 O24'
_cell_volume   626.49452213
_cell_formula_units_Z   2
loop_
 _symmetry_equiv_pos_site_id
 _symmetry_equiv_pos_as_xyz
  1  'x, y, z'
loop_
 _atom_site_type_symbol
 _atom_site_label
 _atom_site_symmetry_multiplicity
 _atom_site_fract_x
 _atom_site_fract_y
 _atom_site_fract_z
 _atom_site_occupancy
  Ca  Ca0  1  0.50436376  0.66664145  0.66667858  1
  Ca  Ca1  1  0.00436376  0.33335855  0.33332142  1
  Ca  Ca2  1  0.49568015  0.33335923  0.33332232  1
  Ca  Ca3  1  0.99568015  0.66664077  0.66667768  1
  Ca  Ca4  1  0.75067313  0.02386355  0.72843928  1
  Ca  Ca5  1  0.75067465  0.24767414  0.02387989  1
  Ca  Ca6  1  0.75067431  0.72845510  0.24768411  1
  Ca  Ca7  1  0.25067313  0.97613645  0.27156072  1
  Ca  Ca8  1  0.25067465  0.75232586  0.97612011  1
  Ca  Ca9  1  0.25067431  0.27154490  0.75231589  1
  As  As10  1  0.74952518  0.37934405  0.59093208  1
  As  As11  1  0.74953062  0.02972528  0.37935323  1
  As  As12  1  0.74952143  0.59093514  0.02972224  1
  As  As13  1  0.24952518  0.62065595  0.40906792  1
  As  As14  1  0.24953062  0.97027472  0.62064677  1
  As  As15  1  0.24952143  0.40906486  0.97027776  1
  Cl  Cl16  1  0.63080910  -0.00000009  0.99999765  1
  Cl  Cl17  1  0.13080910  0.00000009  0.00000235  1
  O  O18  1  0.74984623  0.64745135  0.84249323  1
  O  O19  1  0.74984608  0.51004855  0.64745678  1
  O  O20  1  0.74984584  0.84248874  0.51005619  1
  O  O21  1  0.24984623  0.35254865  0.15750677  1
  O  O22  1  0.24984608  0.48995145  0.35254322  1
  O  O23  1  0.24984584  0.15751126  0.48994381  1
  O  O24  1  0.75025375  0.13989751  0.46511589  1
  O  O25  1  0.75025445  0.39498390  0.13989173  1
  O  O26  1  0.75025427  0.46512933  0.39498493  1
  O  O27  1  0.25025375  0.86010249  0.53488411  1
  O  O28  1  0.25025445  0.60501610  0.86010827  1
  O  O29  1  0.25025427  0.53487067  0.60501507  1
  O  O30  1  0.55038270  0.26133068  0.64840739  1
  O  O31  1  0.55038965  0.09026094  0.26133063  1
  O  O32  1  0.55038300  0.64840135  0.09026684  1
  O  O33  1  0.05038270  0.73866932  0.35159261  1
  O  O34  1  0.05038965  0.90973906  0.73866937  1
  O  O35  1  0.05038300  0.35159865  0.90973316  1
  O  O36  1  0.44779941  0.74002443  0.34928621  1
  O  O37  1  0.44779212  0.91069128  0.74002411  1
  O  O38  1  0.44780018  0.34929140  0.91068619  1
  O  O39  1  0.94779941  0.25997557  0.65071379  1
  O  O40  1  0.94779212  0.08930872  0.25997589  1
  O  O41  1  0.94780018  0.65070860  0.08931381  1
