# generated using pymatgen
data_Be4AlCr
_symmetry_space_group_name_H-M   'P 1'
_cell_length_a   4.33169861
_cell_length_b   4.33088738
_cell_length_c   7.00148888
_cell_angle_alpha   90.00000000
_cell_angle_beta   90.00506697
_cell_angle_gamma   60.00619486
_symmetry_Int_Tables_number   1
_chemical_formula_structural   Be4AlCr
_chemical_formula_sum   'Be8 Al2 Cr2'
_cell_volume   113.75834401
_cell_formula_units_Z   2
loop_
 _symmetry_equiv_pos_site_id
 _symmetry_equiv_pos_as_xyz
  1  'x, y, z'
loop_
 _atom_site_type_symbol
 _atom_site_label
 _atom_site_symmetry_multiplicity
 _atom_site_fract_x
 _atom_site_fract_y
 _atom_site_fract_z
 _atom_site_occupancy
  Be  Be0  1  0.00000000  -0.00000000  0.50000000  1
  Be  Be1  1  0.00000000  -0.00000000  0.00000000  1
  Be  Be2  1  0.83149268  0.33704813  0.75849426  1
  Be  Be3  1  0.33705956  0.83147022  0.75850818  1
  Be  Be4  1  0.83149268  0.83145919  0.75849426  1
  Be  Be5  1  0.16850732  0.66295187  0.24150574  1
  Be  Be6  1  0.66294044  0.16852978  0.24149182  1
  Be  Be7  1  0.16850732  0.16854081  0.24150574  1
  Al  Al8  1  0.33332039  0.33333980  0.57607569  1
  Al  Al9  1  0.66667961  0.66666020  0.42392431  1
  Cr  Cr10  1  0.66641072  0.66679464  0.05229003  1
  Cr  Cr11  1  0.33358928  0.33320536  0.94770997  1
