# generated using pymatgen
data_Cd43Pd8
_symmetry_space_group_name_H-M   'P 1'
_cell_length_a   10.18920782
_cell_length_b   10.18920782
_cell_length_c   10.18920782
_cell_angle_alpha   90.08614306
_cell_angle_beta   89.91385694
_cell_angle_gamma   90.08614306
_symmetry_Int_Tables_number   1
_chemical_formula_structural   Cd43Pd8
_chemical_formula_sum   'Cd43 Pd8'
_cell_volume   1057.83952549
_cell_formula_units_Z   1
loop_
 _symmetry_equiv_pos_site_id
 _symmetry_equiv_pos_as_xyz
  1  'x, y, z'
loop_
 _atom_site_type_symbol
 _atom_site_label
 _atom_site_symmetry_multiplicity
 _atom_site_fract_x
 _atom_site_fract_y
 _atom_site_fract_z
 _atom_site_occupancy
  Cd  Cd0  1  0.39485455  0.60514545  0.39485455  1
  Cd  Cd1  1  0.60586874  0.39413126  0.39451308  1
  Cd  Cd2  1  0.39451308  0.39413126  0.60586874  1
  Cd  Cd3  1  0.60586874  0.60548692  0.60586874  1
  Cd  Cd4  1  0.49982571  0.85756615  0.49982571  1
  Cd  Cd5  1  0.14243385  0.50017429  0.49982571  1
  Cd  Cd6  1  0.49982571  0.50017429  0.14243385  1
  Cd  Cd7  1  0.50121399  0.14149146  0.50121399  1
  Cd  Cd8  1  0.85850854  0.49878601  0.50121399  1
  Cd  Cd9  1  0.50121399  0.49878601  0.85850854  1
  Cd  Cd10  1  0.70596921  0.29403079  0.94758404  1
  Cd  Cd11  1  0.70596921  0.05241596  0.70596921  1
  Cd  Cd12  1  0.94758404  0.29403079  0.70596921  1
  Cd  Cd13  1  0.30376564  0.69623436  0.95284179  1
  Cd  Cd14  1  0.30551860  0.95418215  0.69537336  1
  Cd  Cd15  1  0.04581785  0.69448140  0.69537336  1
  Cd  Cd16  1  0.69537336  0.69448140  0.04581785  1
  Cd  Cd17  1  0.69537336  0.95418215  0.30551860  1
  Cd  Cd18  1  0.95284179  0.69623436  0.30376564  1
  Cd  Cd19  1  0.30551860  0.30462664  0.04581785  1
  Cd  Cd20  1  0.30376564  0.04715821  0.30376564  1
  Cd  Cd21  1  0.04581785  0.30462664  0.30551860  1
  Cd  Cd22  1  0.19302163  0.80697837  0.45405750  1
  Cd  Cd23  1  0.19302163  0.54594250  0.19302163  1
  Cd  Cd24  1  0.45405750  0.80697837  0.19302163  1
  Cd  Cd25  1  0.80676206  0.19323794  0.45785592  1
  Cd  Cd26  1  0.80748973  0.45478334  0.19242373  1
  Cd  Cd27  1  0.54521666  0.19251027  0.19242373  1
  Cd  Cd28  1  0.19242373  0.19251027  0.54521666  1
  Cd  Cd29  1  0.19242373  0.45478334  0.80748973  1
  Cd  Cd30  1  0.45785592  0.19323794  0.80676206  1
  Cd  Cd31  1  0.80748973  0.80757627  0.54521666  1
  Cd  Cd32  1  0.80676206  0.54214408  0.80676206  1
  Cd  Cd33  1  0.54521666  0.80757627  0.80748973  1
  Cd  Cd34  1  0.99265339  0.34554499  0.99265339  1
  Cd  Cd35  1  0.65445501  0.00734661  0.99265339  1
  Cd  Cd36  1  0.99265339  0.00734661  0.65445501  1
  Cd  Cd37  1  0.00068161  0.64262948  0.00068161  1
  Cd  Cd38  1  0.35737052  0.99931839  0.00068161  1
  Cd  Cd39  1  0.00068161  0.99931839  0.35737052  1
  Cd  Cd40  1  0.09694289  0.90305711  0.89446030  1
  Cd  Cd41  1  0.89446030  0.90305711  0.09694289  1
  Cd  Cd42  1  0.09694289  0.10553970  0.09694289  1
  Pd  Pd43  1  0.17087592  0.82912408  0.17087592  1
  Pd  Pd44  1  0.82649506  0.17350494  0.17669695  1
  Pd  Pd45  1  0.17669695  0.17350494  0.82649506  1
  Pd  Pd46  1  0.82649506  0.82330305  0.82649506  1
  Pd  Pd47  1  0.67042240  0.32957760  0.67042240  1
  Pd  Pd48  1  0.32817179  0.67182821  0.67144633  1
  Pd  Pd49  1  0.67144633  0.67182821  0.32817179  1
  Pd  Pd50  1  0.32817179  0.32855367  0.32817179  1
