# generated using pymatgen
data_CaZnAg
_symmetry_space_group_name_H-M   'P 1'
_cell_length_a   4.65963750
_cell_length_b   5.93381214
_cell_length_c   5.83953426
_cell_angle_alpha   95.36980360
_cell_angle_beta   113.51401103
_cell_angle_gamma   66.88148579
_symmetry_Int_Tables_number   1
_chemical_formula_structural   CaZnAg
_chemical_formula_sum   'Ca2 Zn2 Ag2'
_cell_volume   135.78180318
_cell_formula_units_Z   2
loop_
 _symmetry_equiv_pos_site_id
 _symmetry_equiv_pos_as_xyz
  1  'x, y, z'
loop_
 _atom_site_type_symbol
 _atom_site_label
 _atom_site_symmetry_multiplicity
 _atom_site_fract_x
 _atom_site_fract_y
 _atom_site_fract_z
 _atom_site_occupancy
  Ca  Ca0  1  0.75182519  0.69985590  0.20350629  1
  Ca  Ca1  1  0.24817481  0.30014410  0.79649371  1
  Zn  Zn2  1  0.05475067  0.10467879  0.21418012  1
  Zn  Zn3  1  0.94524933  0.89532121  0.78581988  1
  Ag  Ag4  1  0.56079845  0.26877191  0.39036881  1
  Ag  Ag5  1  0.43920155  0.73122809  0.60963119  1
