# generated using pymatgen
data_CdHOF
_symmetry_space_group_name_H-M   'P 1'
_cell_length_a   3.53435895
_cell_length_b   4.84468698
_cell_length_c   5.62796012
_cell_angle_alpha   90.00000000
_cell_angle_beta   90.08310024
_cell_angle_gamma   90.00000000
_symmetry_Int_Tables_number   1
_chemical_formula_structural   CdHOF
_chemical_formula_sum   'Cd2 H2 O2 F2'
_cell_volume   96.36668759
_cell_formula_units_Z   2
loop_
 _symmetry_equiv_pos_site_id
 _symmetry_equiv_pos_as_xyz
  1  'x, y, z'
loop_
 _atom_site_type_symbol
 _atom_site_label
 _atom_site_symmetry_multiplicity
 _atom_site_fract_x
 _atom_site_fract_y
 _atom_site_fract_z
 _atom_site_occupancy
  Cd  Cd0  1  0.74775648  0.75453171  0.98336890  1
  Cd  Cd1  1  0.25224352  0.25453171  0.51663110  1
  H  H2  1  0.74969908  0.68416701  0.52240391  1
  H  H3  1  0.25030092  0.18416701  0.97759609  1
  O  O4  1  0.24815926  0.02155341  0.86969195  1
  O  O5  1  0.75184074  0.52155341  0.63030805  1
  F  F6  1  0.24887445  0.47974788  0.14419765  1
  F  F7  1  0.75112555  0.97974788  0.35580235  1
