# generated using pymatgen
data_Ca7TlN4
_symmetry_space_group_name_H-M   'P 1'
_cell_length_a   3.61090548
_cell_length_b   11.77505346
_cell_length_c   12.12247969
_cell_angle_alpha   90.00000000
_cell_angle_beta   90.00000000
_cell_angle_gamma   90.00000000
_symmetry_Int_Tables_number   1
_chemical_formula_structural   Ca7TlN4
_chemical_formula_sum   'Ca14 Tl2 N8'
_cell_volume   515.43092636
_cell_formula_units_Z   2
loop_
 _symmetry_equiv_pos_site_id
 _symmetry_equiv_pos_as_xyz
  1  'x, y, z'
loop_
 _atom_site_type_symbol
 _atom_site_label
 _atom_site_symmetry_multiplicity
 _atom_site_fract_x
 _atom_site_fract_y
 _atom_site_fract_z
 _atom_site_occupancy
  Ca  Ca0  1  0.99898814  0.73240930  0.43520014  1
  Ca  Ca1  1  0.99898814  0.26759070  0.56479986  1
  Ca  Ca2  1  0.00101186  0.23240930  0.06479986  1
  Ca  Ca3  1  0.00101186  0.76759070  0.93520014  1
  Ca  Ca4  1  0.50004512  0.72735418  0.67913839  1
  Ca  Ca5  1  0.50004512  0.27264582  0.32086161  1
  Ca  Ca6  1  0.49995488  0.22735418  0.82086161  1
  Ca  Ca7  1  0.49995488  0.77264582  0.17913839  1
  Ca  Ca8  1  0.49996090  0.50000000  0.50000000  1
  Ca  Ca9  1  0.50003910  -0.00000000  0.00000000  1
  Ca  Ca10  1  0.00106042  0.47219511  0.73112053  1
  Ca  Ca11  1  0.00106042  0.52780489  0.26887947  1
  Ca  Ca12  1  0.99893958  0.97219511  0.76887947  1
  Ca  Ca13  1  0.99893958  0.02780489  0.23112053  1
  Tl  Tl14  1  0.45427261  -0.00000000  0.50000000  1
  Tl  Tl15  1  0.54572739  0.50000000  0.00000000  1
  N  N16  1  0.00005571  0.62600042  0.60486474  1
  N  N17  1  0.00005571  0.37399958  0.39513526  1
  N  N18  1  0.99994429  0.12600042  0.89513526  1
  N  N19  1  0.99994429  0.87399958  0.10486474  1
  N  N20  1  0.49977890  0.64481115  0.33592594  1
  N  N21  1  0.49977890  0.35518885  0.66407406  1
  N  N22  1  0.50022110  0.14481115  0.16407406  1
  N  N23  1  0.50022110  0.85518885  0.83592594  1
