# generated using pymatgen
data_BaSr3(CoO3)4
_symmetry_space_group_name_H-M   'P 1'
_cell_length_a   4.76694109
_cell_length_b   5.55337566
_cell_length_c   9.58412508
_cell_angle_alpha   89.97800160
_cell_angle_beta   90.00000000
_cell_angle_gamma   90.00000000
_symmetry_Int_Tables_number   1
_chemical_formula_structural   BaSr3(CoO3)4
_chemical_formula_sum   'Ba1 Sr3 Co4 O12'
_cell_volume   253.71683074
_cell_formula_units_Z   1
loop_
 _symmetry_equiv_pos_site_id
 _symmetry_equiv_pos_as_xyz
  1  'x, y, z'
loop_
 _atom_site_type_symbol
 _atom_site_label
 _atom_site_symmetry_multiplicity
 _atom_site_fract_x
 _atom_site_fract_y
 _atom_site_fract_z
 _atom_site_occupancy
  Ba  Ba0  1  0.25000000  0.50044852  0.16621640  1
  Sr  Sr1  1  0.25000000  -0.00018365  0.66691895  1
  Sr  Sr2  1  0.75000000  0.00016604  0.33561668  1
  Sr  Sr3  1  0.75000000  0.49973827  0.83193127  1
  Co  Co4  1  0.49985117  0.99979256  0.99646165  1
  Co  Co5  1  0.49926912  0.49997435  0.50340635  1
  Co  Co6  1  0.00014883  0.99979256  0.99646165  1
  Co  Co7  1  0.00073088  0.49997435  0.50340635  1
  O  O8  1  0.75000000  0.77309910  0.07334468  1
  O  O9  1  0.75000000  0.26817325  0.57913260  1
  O  O10  1  0.75000000  0.22931349  0.07505393  1
  O  O11  1  0.75000000  0.72800639  0.57768950  1
  O  O12  1  0.75000000  0.50132791  0.35132088  1
  O  O13  1  0.75000000  0.99879990  0.84556296  1
  O  O14  1  0.25000000  0.73528166  0.42891413  1
  O  O15  1  0.25000000  0.22516411  0.91826343  1
  O  O16  1  0.25000000  0.26854829  0.43060385  1
  O  O17  1  0.25000000  0.77160566  0.91608679  1
  O  O18  1  0.25000000  0.00207885  0.14859707  1
  O  O19  1  0.25000000  0.49889842  0.65501089  1
