# generated using pymatgen
data_BaSrMn2Al9PbO20
_symmetry_space_group_name_H-M   'P 1'
_cell_length_a   5.03166611
_cell_length_b   9.77840749
_cell_length_c   9.73353171
_cell_angle_alpha   72.38450897
_cell_angle_beta   74.80989864
_cell_angle_gamma   74.66978569
_symmetry_Int_Tables_number   1
_chemical_formula_structural   BaSrMn2Al9PbO20
_chemical_formula_sum   'Ba1 Sr1 Mn2 Al9 Pb1 O20'
_cell_volume   431.49190066
_cell_formula_units_Z   1
loop_
 _symmetry_equiv_pos_site_id
 _symmetry_equiv_pos_as_xyz
  1  'x, y, z'
loop_
 _atom_site_type_symbol
 _atom_site_label
 _atom_site_symmetry_multiplicity
 _atom_site_fract_x
 _atom_site_fract_y
 _atom_site_fract_z
 _atom_site_occupancy
  Ba  Ba0  1  0.00160671  0.00024787  0.00330294  1
  Sr  Sr1  1  0.29379068  0.72659891  0.72343753  1
  Mn  Mn2  1  0.99886502  0.49504037  0.50484093  1
  Mn  Mn3  1  0.50194537  0.63558868  0.36502724  1
  Al  Al4  1  0.33266712  0.28816639  0.00831459  1
  Al  Al5  1  0.33948222  0.01593278  0.28622457  1
  Al  Al6  1  0.66158041  0.71278336  0.98447623  1
  Al  Al7  1  0.66755606  0.99099320  0.71168118  1
  Al  Al8  1  0.82753969  0.42537574  0.84676126  1
  Al  Al9  1  0.83630625  0.85263694  0.42521973  1
  Al  Al10  1  0.16564995  0.57596769  0.14626347  1
  Al  Al11  1  0.17189592  0.15271176  0.57697201  1
  Al  Al12  1  0.49968509  0.36095829  0.63890866  1
  Pb  Pb13  1  0.67014417  0.27805859  0.27742258  1
  O  O14  1  0.66945852  0.60037437  0.87291300  1
  O  O15  1  0.67577722  0.87817508  0.60008776  1
  O  O16  1  0.33278328  0.40086185  0.12078937  1
  O  O17  1  0.33643979  0.12735957  0.40002057  1
  O  O18  1  0.89718198  0.55126379  0.31042494  1
  O  O19  1  0.88926515  0.30814052  0.55771710  1
  O  O20  1  0.11076792  0.44762549  0.69091055  1
  O  O21  1  0.10550294  0.68760291  0.45379340  1
  O  O22  1  0.00881107  0.69983904  0.00178041  1
  O  O23  1  0.01619831  0.00655110  0.69962419  1
  O  O24  1  0.99351462  0.29711036  0.98570899  1
  O  O25  1  0.00209642  0.99022327  0.29755835  1
  O  O26  1  0.42780773  0.66360999  0.15892553  1
  O  O27  1  0.43496373  0.16695187  0.66607316  1
  O  O28  1  0.56337537  0.33792813  0.83209712  1
  O  O29  1  0.57246369  0.84464431  0.33777128  1
  O  O30  1  0.38837863  0.41924316  0.44451237  1
  O  O31  1  0.60508254  0.55793725  0.57391066  1
  O  O32  1  0.53934758  0.89571127  0.89310641  1
  O  O33  1  0.46206884  0.10778609  0.10342192  1
