# generated using pymatgen
data_Ca2Al2Si(HO4)2
_symmetry_space_group_name_H-M   'P 1'
_cell_length_a   7.73194457
_cell_length_b   7.73194457
_cell_length_c   7.73194457
_cell_angle_alpha   69.72618193
_cell_angle_beta   70.92858133
_cell_angle_gamma   109.07141867
_symmetry_Int_Tables_number   1
_chemical_formula_structural   Ca2Al2Si(HO4)2
_chemical_formula_sum   'Ca4 Al4 Si2 H4 O16'
_cell_volume   355.77897726
_cell_formula_units_Z   2
loop_
 _symmetry_equiv_pos_site_id
 _symmetry_equiv_pos_as_xyz
  1  'x, y, z'
loop_
 _atom_site_type_symbol
 _atom_site_label
 _atom_site_symmetry_multiplicity
 _atom_site_fract_x
 _atom_site_fract_y
 _atom_site_fract_z
 _atom_site_occupancy
  Ca  Ca0  1  0.71635567  0.71281252  0.28718748  1
  Ca  Ca1  1  0.28364433  0.99645685  0.00354315  1
  Ca  Ca2  1  0.00000000  0.28718748  0.99645685  1
  Ca  Ca3  1  -0.00000000  0.00354315  0.71281252  1
  Al  Al4  1  0.25142302  0.75142302  0.50000000  1
  Al  Al5  1  0.74857698  0.50000000  0.75142302  1
  Al  Al6  1  0.25142302  0.50000000  0.24857698  1
  Al  Al7  1  0.74857698  0.24857698  0.50000000  1
  Si  Si8  1  0.50000000  0.25000000  0.25000000  1
  Si  Si9  1  0.50000000  0.75000000  0.75000000  1
  H  H10  1  0.35399738  0.34997904  0.65002096  1
  H  H11  1  0.64600262  0.99598166  0.00401834  1
  H  H12  1  -0.00000000  0.65002096  0.99598166  1
  H  H13  1  -0.00000000  0.00401834  0.34997904  1
  O  O14  1  0.70666224  0.43189748  0.56810252  1
  O  O15  1  0.44403326  0.43034040  0.27792870  1
  O  O16  1  0.44403326  0.72207130  0.56965960  1
  O  O17  1  0.29333776  0.72523524  0.27476476  1
  O  O18  1  0.55596674  0.27803804  0.01369286  1
  O  O19  1  0.55596674  0.98630714  0.72196196  1
  O  O20  1  0.00000000  0.56810252  0.72523524  1
  O  O21  1  0.29173091  0.56965960  0.98630714  1
  O  O22  1  0.70826909  0.27792870  0.27803804  1
  O  O23  1  -0.00000000  0.27476476  0.43189748  1
  O  O24  1  0.70826909  0.72196196  0.72207130  1
  O  O25  1  0.29173091  0.01369286  0.43034040  1
  O  O26  1  0.22453783  0.22768870  0.77231130  1
  O  O27  1  0.77546217  0.00315087  0.99684913  1
  O  O28  1  -0.00000000  0.77231130  0.00315087  1
  O  O29  1  -0.00000000  0.99684913  0.22768870  1
