# generated using pymatgen
data_BaHgPb
_symmetry_space_group_name_H-M   'P 1'
_cell_length_a   5.46557190
_cell_length_b   6.76704165
_cell_length_c   6.74149752
_cell_angle_alpha   97.87330415
_cell_angle_beta   113.91417275
_cell_angle_gamma   66.18169754
_symmetry_Int_Tables_number   1
_chemical_formula_structural   BaHgPb
_chemical_formula_sum   'Ba2 Hg2 Pb2'
_cell_volume   208.41502537
_cell_formula_units_Z   2
loop_
 _symmetry_equiv_pos_site_id
 _symmetry_equiv_pos_as_xyz
  1  'x, y, z'
loop_
 _atom_site_type_symbol
 _atom_site_label
 _atom_site_symmetry_multiplicity
 _atom_site_fract_x
 _atom_site_fract_y
 _atom_site_fract_z
 _atom_site_occupancy
  Ba  Ba0  1  0.75125233  0.71354428  0.21604895  1
  Ba  Ba1  1  0.24874767  0.28645572  0.78395105  1
  Hg  Hg2  1  0.55085948  0.28841746  0.39013643  1
  Hg  Hg3  1  0.44914052  0.71158254  0.60986357  1
  Pb  Pb4  1  0.05765353  0.10690440  0.22221147  1
  Pb  Pb5  1  0.94234647  0.89309560  0.77778853  1
