# generated using pymatgen
data_Ba6Nd2Y(MoO6)3
_symmetry_space_group_name_H-M   'P 1'
_cell_length_a   6.09081927
_cell_length_b   8.65800176
_cell_length_c   10.48681948
_cell_angle_alpha   114.38110194
_cell_angle_beta   73.28227533
_cell_angle_gamma   90.00000000
_symmetry_Int_Tables_number   1
_chemical_formula_structural   Ba6Nd2Y(MoO6)3
_chemical_formula_sum   'Ba6 Nd2 Y1 Mo3 O18'
_cell_volume   477.91737271
_cell_formula_units_Z   1
loop_
 _symmetry_equiv_pos_site_id
 _symmetry_equiv_pos_as_xyz
  1  'x, y, z'
loop_
 _atom_site_type_symbol
 _atom_site_label
 _atom_site_symmetry_multiplicity
 _atom_site_fract_x
 _atom_site_fract_y
 _atom_site_fract_z
 _atom_site_occupancy
  Ba  Ba0  1  0.50074073  0.24907639  0.99876799  1
  Ba  Ba1  1  0.16666700  0.58312848  0.66666700  1
  Ba  Ba2  1  0.83259227  0.91697539  0.33456501  1
  Ba  Ba3  1  0.16666700  0.08353752  0.66666700  1
  Ba  Ba4  1  0.83259227  0.41759061  0.33456501  1
  Ba  Ba5  1  0.50074073  0.74969161  0.99876799  1
  Nd  Nd6  1  0.00011100  0.00001424  0.00002848  1
  Nd  Nd7  1  0.33322200  0.66665276  0.33330452  1
  Y  Y8  1  0.66666700  0.33333300  0.66666700  1
  Mo  Mo9  1  0.66666700  0.83333300  0.66666700  1
  Mo  Mo10  1  0.33082186  0.16831625  0.33663150  1
  Mo  Mo11  1  0.00251114  0.49835075  0.99670150  1
  O  O12  1  0.00025781  0.26530131  0.99827846  1
  O  O13  1  0.66666700  0.60211372  0.66666700  1
  O  O14  1  0.33307519  0.93368986  0.33505454  1
  O  O15  1  0.66666700  0.06455228  0.66666700  1
  O  O16  1  0.33307519  0.40136569  0.33505454  1
  O  O17  1  0.00025781  0.73297714  0.99827846  1
  O  O18  1  0.71374894  0.58477577  0.16955154  1
  O  O19  1  0.03449526  0.25577419  0.51154738  1
  O  O20  1  0.37892929  0.92326248  0.84652597  1
  O  O21  1  0.95440471  0.74340352  0.48680803  1
  O  O22  1  0.29883774  0.41089281  0.82178562  1
  O  O23  1  0.61958406  0.08189123  0.16378146  1
  O  O24  1  0.86507371  0.90041069  0.80082138  1
  O  O25  1  0.19972938  0.56294728  0.12589356  1
  O  O26  1  0.52951467  0.23574507  0.47149113  1
  O  O27  1  0.46825929  0.76625631  0.53251162  1
  O  O28  1  0.80381933  0.43092093  0.86184287  1
  O  O29  1  0.13360362  0.10371972  0.20743944  1
