# generated using pymatgen
data_Ca2ZnGa3
_symmetry_space_group_name_H-M   'P 1'
_cell_length_a   4.51327574
_cell_length_b   5.79735573
_cell_length_c   5.80860079
_cell_angle_alpha   96.22087354
_cell_angle_beta   112.86115930
_cell_angle_gamma   67.09197570
_symmetry_Int_Tables_number   1
_chemical_formula_structural   Ca2ZnGa3
_chemical_formula_sum   'Ca2 Zn1 Ga3'
_cell_volume   128.83430187
_cell_formula_units_Z   1
loop_
 _symmetry_equiv_pos_site_id
 _symmetry_equiv_pos_as_xyz
  1  'x, y, z'
loop_
 _atom_site_type_symbol
 _atom_site_label
 _atom_site_symmetry_multiplicity
 _atom_site_fract_x
 _atom_site_fract_y
 _atom_site_fract_z
 _atom_site_occupancy
  Ca  Ca0  1  0.75043927  0.70813206  0.20901061  1
  Ca  Ca1  1  0.24987195  0.29187426  0.79161815  1
  Zn  Zn2  1  0.55628269  0.27850843  0.39107382  1
  Ga  Ga3  1  0.44466240  0.71639479  0.60571958  1
  Ga  Ga4  1  0.05504824  0.10988493  0.21998141  1
  Ga  Ga5  1  0.94369545  0.89520554  0.78259643  1
