# generated using pymatgen
data_CaCe(FeSb3)8
_symmetry_space_group_name_H-M   'P 1'
_cell_length_a   7.93824408
_cell_length_b   7.93824408
_cell_length_c   13.03127342
_cell_angle_alpha   90.05199532
_cell_angle_beta   89.94800468
_cell_angle_gamma   109.33001046
_symmetry_Int_Tables_number   1
_chemical_formula_structural   CaCe(FeSb3)8
_chemical_formula_sum   'Ca1 Ce1 Fe8 Sb24'
_cell_volume   774.88306188
_cell_formula_units_Z   1
loop_
 _symmetry_equiv_pos_site_id
 _symmetry_equiv_pos_as_xyz
  1  'x, y, z'
loop_
 _atom_site_type_symbol
 _atom_site_label
 _atom_site_symmetry_multiplicity
 _atom_site_fract_x
 _atom_site_fract_y
 _atom_site_fract_z
 _atom_site_occupancy
  Ca  Ca0  1  -0.00000000  -0.00000000  -0.00000000  1
  Ce  Ce1  1  0.50000000  0.50000000  0.50000000  1
  Fe  Fe2  1  0.74941225  0.74930340  0.25143250  1
  Fe  Fe3  1  0.25058775  0.25069660  0.74856750  1
  Fe  Fe4  1  -0.00000000  0.50000000  0.50000000  1
  Fe  Fe5  1  0.50000000  -0.00000000  -0.00000000  1
  Fe  Fe6  1  0.50000000  -0.00000000  0.50000000  1
  Fe  Fe7  1  -0.00000000  0.50000000  -0.00000000  1
  Fe  Fe8  1  0.25069660  0.25058775  0.25143250  1
  Fe  Fe9  1  0.74930340  0.74941225  0.74856750  1
  Sb  Sb10  1  0.83056465  0.49534231  0.33270477  1
  Sb  Sb11  1  0.32854729  0.99515990  0.83312752  1
  Sb  Sb12  1  0.67145271  0.00484010  0.16687248  1
  Sb  Sb13  1  0.16943535  0.50465769  0.66729523  1
  Sb  Sb14  1  0.50465769  0.16943535  0.33270477  1
  Sb  Sb15  1  0.00484010  0.67145271  0.83312752  1
  Sb  Sb16  1  0.99515990  0.32854729  0.16687248  1
  Sb  Sb17  1  0.49534231  0.83056465  0.66729523  1
  Sb  Sb18  1  0.74656710  0.58504184  0.08146917  1
  Sb  Sb19  1  0.24805608  0.08438762  0.58177855  1
  Sb  Sb20  1  0.75194392  0.91561238  0.41822145  1
  Sb  Sb21  1  0.25343290  0.41495816  0.91853083  1
  Sb  Sb22  1  0.08438762  0.24805608  0.41822145  1
  Sb  Sb23  1  0.58504184  0.74656710  0.91853083  1
  Sb  Sb24  1  0.41495816  0.25343290  0.08146917  1
  Sb  Sb25  1  0.91561238  0.75194392  0.58177855  1
  Sb  Sb26  1  0.25124927  0.74875073  0.41409224  1
  Sb  Sb27  1  0.75219577  0.24780423  0.91415753  1
  Sb  Sb28  1  0.24780423  0.75219577  0.08584247  1
  Sb  Sb29  1  0.74875073  0.25124927  0.58590776  1
  Sb  Sb30  1  0.41392073  0.58607927  0.25128653  1
  Sb  Sb31  1  0.91411051  0.08588949  0.75229123  1
  Sb  Sb32  1  0.08588949  0.91411051  0.24770877  1
  Sb  Sb33  1  0.58607927  0.41392073  0.74871347  1
