# generated using pymatgen
data_Ba3SrSi8(NO)8
_symmetry_space_group_name_H-M   'P 1'
_cell_length_a   4.85336916
_cell_length_b   5.52660810
_cell_length_c   14.47861142
_cell_angle_alpha   90.96789630
_cell_angle_beta   89.98276424
_cell_angle_gamma   90.02589257
_symmetry_Int_Tables_number   1
_chemical_formula_structural   Ba3SrSi8(NO)8
_chemical_formula_sum   'Ba3 Sr1 Si8 N8 O8'
_cell_volume   388.29953876
_cell_formula_units_Z   1
loop_
 _symmetry_equiv_pos_site_id
 _symmetry_equiv_pos_as_xyz
  1  'x, y, z'
loop_
 _atom_site_type_symbol
 _atom_site_label
 _atom_site_symmetry_multiplicity
 _atom_site_fract_x
 _atom_site_fract_y
 _atom_site_fract_z
 _atom_site_occupancy
  Ba  Ba0  1  0.70574640  0.74161125  0.47409337  1
  Ba  Ba1  1  0.20607945  0.25825093  0.52604764  1
  Ba  Ba2  1  0.20827649  0.75481055  0.97387974  1
  Sr  Sr3  1  0.71039914  0.23145771  0.02994325  1
  Si  Si4  1  0.75244526  0.44207105  0.70457276  1
  Si  Si5  1  0.25245474  0.56182037  0.29536045  1
  Si  Si6  1  0.25253409  0.05994832  0.20037906  1
  Si  Si7  1  0.75244623  0.94840981  0.79945814  1
  Si  Si8  1  0.25356721  0.25008588  0.80288190  1
  Si  Si9  1  0.75478666  0.74435999  0.19619793  1
  Si  Si10  1  0.75421639  0.25135470  0.29889470  1
  Si  Si11  1  0.25437391  0.74746973  0.70046333  1
  N  N12  1  0.10486376  0.27717548  0.27402014  1
  N  N13  1  0.60360603  0.72502427  0.72825398  1
  N  N14  1  0.60263690  0.22773568  0.77542575  1
  N  N15  1  0.10555159  0.77586435  0.22231410  1
  N  N16  1  0.10612205  0.46555721  0.72871899  1
  N  N17  1  0.60689062  0.53529357  0.27246622  1
  N  N18  1  0.60896216  0.03340224  0.22186021  1
  N  N19  1  0.10504266  0.96691853  0.77384736  1
  O  O20  1  0.70642175  0.37020625  0.59583410  1
  O  O21  1  0.20492197  0.63398561  0.40369728  1
  O  O22  1  0.20544461  0.13376868  0.09325329  1
  O  O23  1  0.70717620  0.89631700  0.90884181  1
  O  O24  1  0.20187595  0.30443632  0.91222954  1
  O  O25  1  0.70594000  0.66692527  0.08833314  1
  O  O26  1  0.70186980  0.19689207  0.40780359  1
  O  O27  1  0.20574799  0.79884717  0.59092828  1
