# generated using pymatgen
data_Ba4Cu11(Te4S)2
_symmetry_space_group_name_H-M   'P 1'
_cell_length_a   4.35640683
_cell_length_b   9.67995461
_cell_length_c   14.24103507
_cell_angle_alpha   89.97990393
_cell_angle_beta   90.00000000
_cell_angle_gamma   90.00000000
_symmetry_Int_Tables_number   1
_chemical_formula_structural   Ba4Cu11(Te4S)2
_chemical_formula_sum   'Ba4 Cu11 Te8 S2'
_cell_volume   600.54185383
_cell_formula_units_Z   1
loop_
 _symmetry_equiv_pos_site_id
 _symmetry_equiv_pos_as_xyz
  1  'x, y, z'
loop_
 _atom_site_type_symbol
 _atom_site_label
 _atom_site_symmetry_multiplicity
 _atom_site_fract_x
 _atom_site_fract_y
 _atom_site_fract_z
 _atom_site_occupancy
  Ba  Ba0  1  0.50000000  0.52237550  0.33575354  1
  Ba  Ba1  1  0.50000000  0.47546168  0.66023677  1
  Ba  Ba2  1  0.50000000  0.02345409  0.15727340  1
  Ba  Ba3  1  0.50000000  0.97525306  0.84252807  1
  Cu  Cu4  1  0.50000000  0.88184912  0.40796586  1
  Cu  Cu5  1  0.50000000  0.11878598  0.59159837  1
  Cu  Cu6  1  0.50000000  0.39009624  0.09347271  1
  Cu  Cu7  1  0.50000000  0.61832933  0.90746932  1
  Cu  Cu8  1  -0.00000000  0.75090398  0.48623461  1
  Cu  Cu9  1  0.00000000  0.24872607  0.51343962  1
  Cu  Cu10  1  0.00000000  0.24845488  0.01266420  1
  Cu  Cu11  1  0.00000000  0.74537485  0.99580480  1
  Cu  Cu12  1  0.00000000  0.47694647  0.91736700  1
  Cu  Cu13  1  0.00000000  0.02458914  0.41021611  1
  Cu  Cu14  1  0.00000000  0.97488132  0.58924780  1
  Te  Te15  1  0.00000000  0.80673336  0.30039091  1
  Te  Te16  1  0.00000000  0.19215330  0.69924338  1
  Te  Te17  1  0.00000000  0.31356725  0.19175658  1
  Te  Te18  1  0.00000000  0.69075834  0.80291260  1
  Te  Te19  1  0.50000000  0.66811521  0.08885159  1
  Te  Te20  1  0.50000000  0.32412059  0.90804954  1
  Te  Te21  1  0.50000000  0.17753065  0.40662494  1
  Te  Te22  1  0.50000000  0.82258055  0.59364825  1
  S  S23  1  0.00000000  0.49990180  0.49952728  1
  S  S24  1  0.00000000  0.00164725  0.99763274  1
