# generated using pymatgen
data_Ba4Nb2WO12
_symmetry_space_group_name_H-M   'P 1'
_cell_length_a   5.87232120
_cell_length_b   5.87232152
_cell_length_c   10.12285049
_cell_angle_alpha   90.00000000
_cell_angle_beta   73.13888835
_cell_angle_gamma   120.00000178
_symmetry_Int_Tables_number   1
_chemical_formula_structural   Ba4Nb2WO12
_chemical_formula_sum   'Ba4 Nb2 W1 O12'
_cell_volume   284.85049555
_cell_formula_units_Z   1
loop_
 _symmetry_equiv_pos_site_id
 _symmetry_equiv_pos_as_xyz
  1  'x, y, z'
loop_
 _atom_site_type_symbol
 _atom_site_label
 _atom_site_symmetry_multiplicity
 _atom_site_fract_x
 _atom_site_fract_y
 _atom_site_fract_z
 _atom_site_occupancy
  Ba  Ba0  1  0.57828665  0.28914332  0.13257003  1
  Ba  Ba1  1  0.42378369  0.71189185  0.86432446  1
  Ba  Ba2  1  0.27066758  0.13533379  0.59399863  1
  Ba  Ba3  1  0.73076947  0.86538474  0.40384579  1
  Nb  Nb4  1  0.00294107  0.00147053  0.99558840  1
  Nb  Nb5  1  0.84754693  0.42377347  0.72867960  1
  W  W6  1  0.16007922  0.58003961  0.25988117  1
  O  O7  1  0.08566767  0.78893281  0.12539952  1
  O  O8  1  0.57786562  0.78893281  0.12539952  1
  O  O9  1  0.08566767  0.29673486  0.12539952  1
  O  O10  1  0.91403516  0.20150792  0.88445692  1
  O  O11  1  0.40301584  0.20150792  0.88445692  1
  O  O12  1  0.91403516  0.71252724  0.88445692  1
  O  O13  1  0.74328862  0.61752504  0.63918634  1
  O  O14  1  0.23505009  0.61752504  0.63918634  1
  O  O15  1  0.74328862  0.12576358  0.63918634  1
  O  O16  1  0.25341757  0.38858791  0.35799452  1
  O  O17  1  0.77717582  0.38858791  0.35799452  1
  O  O18  1  0.25341757  0.86482966  0.35799452  1
