# generated using pymatgen
data_Ba5Li2U3O15
_symmetry_space_group_name_H-M   'P 1'
_cell_length_a   8.64627977
_cell_length_b   10.56149781
_cell_length_c   10.56149781
_cell_angle_alpha   80.35452875
_cell_angle_beta   114.16276524
_cell_angle_gamma   114.16276524
_symmetry_Int_Tables_number   1
_chemical_formula_structural   Ba5Li2U3O15
_chemical_formula_sum   'Ba10 Li4 U6 O30'
_cell_volume   802.85633825
_cell_formula_units_Z   2
loop_
 _symmetry_equiv_pos_site_id
 _symmetry_equiv_pos_as_xyz
  1  'x, y, z'
loop_
 _atom_site_type_symbol
 _atom_site_label
 _atom_site_symmetry_multiplicity
 _atom_site_fract_x
 _atom_site_fract_y
 _atom_site_fract_z
 _atom_site_occupancy
  Ba  Ba0  1  0.75000000  0.50000000  0.50000000  1
  Ba  Ba1  1  0.36604156  0.89183719  0.31765802  1
  Ba  Ba2  1  0.15654635  0.10816281  0.68234198  1
  Ba  Ba3  1  0.52579563  0.68234198  0.89183719  1
  Ba  Ba4  1  0.95161646  0.31765802  0.10816281  1
  Ba  Ba5  1  0.47420437  0.31765802  0.10816281  1
  Ba  Ba6  1  0.04838354  0.68234198  0.89183719  1
  Ba  Ba7  1  0.84345365  0.89183719  0.31765802  1
  Ba  Ba8  1  0.25000000  0.50000000  0.50000000  1
  Ba  Ba9  1  0.63395844  0.10816281  0.68234198  1
  Li  Li10  1  0.80276105  0.20511224  0.40040986  1
  Li  Li11  1  0.59764881  0.40040986  0.79488776  1
  Li  Li12  1  0.40235119  0.59959014  0.20511224  1
  Li  Li13  1  0.19723895  0.79488776  0.59959014  1
  U  U14  1  0.09903318  0.40014447  0.79792189  1
  U  U15  1  0.69888871  0.79792189  0.59985553  1
  U  U16  1  0.50000000  0.00000000  0.00000000  1
  U  U17  1  0.90096682  0.59985553  0.20207811  1
  U  U18  1  0.30111129  0.20207811  0.40014447  1
  U  U19  1  0.00000000  0.00000000  0.00000000  1
  O  O20  1  0.86385055  0.40020412  0.80200686  1
  O  O21  1  0.46364642  0.80200686  0.59979588  1
  O  O22  1  0.23809092  0.00000000  0.00000000  1
  O  O23  1  0.66163956  0.59979588  0.19799314  1
  O  O24  1  0.06184369  0.19799314  0.40020412  1
  O  O25  1  0.24267688  0.49601488  0.98933888  1
  O  O26  1  0.85587586  0.90393235  0.80781937  1
  O  O27  1  0.63971424  0.09180664  0.18762185  1
  O  O28  1  0.04436652  0.69898319  0.38974985  1
  O  O29  1  0.44700236  0.29580342  0.59820129  1
  O  O30  1  0.04805649  0.19218063  0.90393235  1
  O  O31  1  0.65461667  0.61025015  0.69898319  1
  O  O32  1  0.45209239  0.81237815  0.09180664  1
  O  O33  1  0.84880106  0.40179871  0.29580342  1
  O  O34  1  0.25333800  0.01066112  0.49601488  1
  O  O35  1  0.33836044  0.40020412  0.80200686  1
  O  O36  1  0.93815631  0.80200686  0.59979588  1
  O  O37  1  0.76190908  0.00000000  0.00000000  1
  O  O38  1  0.13614945  0.59979588  0.19799314  1
  O  O39  1  0.53635358  0.19799314  0.40020412  1
  O  O40  1  0.95563348  0.30101681  0.61025015  1
  O  O41  1  0.55299764  0.70419658  0.40179871  1
  O  O42  1  0.36028576  0.90819336  0.81237815  1
  O  O43  1  0.75732312  0.50398512  0.01066112  1
  O  O44  1  0.14412414  0.09606765  0.19218063  1
  O  O45  1  0.15119894  0.59820129  0.70419658  1
  O  O46  1  0.74666200  0.98933888  0.50398512  1
  O  O47  1  0.54790761  0.18762185  0.90819336  1
  O  O48  1  0.95194351  0.80781937  0.09606765  1
  O  O49  1  0.34538333  0.38974985  0.30101681  1
