# generated using pymatgen
data_Al3BC3
_symmetry_space_group_name_H-M   'P 1'
_cell_length_a   5.93351567
_cell_length_b   5.93351377
_cell_length_c   15.93134287
_cell_angle_alpha   90.00006857
_cell_angle_beta   89.99929342
_cell_angle_gamma   119.99996391
_symmetry_Int_Tables_number   1
_chemical_formula_structural   Al3BC3
_chemical_formula_sum   'Al18 B6 C18'
_cell_volume   485.74375171
_cell_formula_units_Z   6
loop_
 _symmetry_equiv_pos_site_id
 _symmetry_equiv_pos_as_xyz
  1  'x, y, z'
loop_
 _atom_site_type_symbol
 _atom_site_label
 _atom_site_symmetry_multiplicity
 _atom_site_fract_x
 _atom_site_fract_y
 _atom_site_fract_z
 _atom_site_occupancy
  Al  Al0  1  0.34298385  0.33022381  0.12182041  1
  Al  Al1  1  0.66979003  0.01276766  0.12182095  1
  Al  Al2  1  0.98724702  0.65702018  0.12181856  1
  Al  Al3  1  0.34298455  0.01275945  0.62182057  1
  Al  Al4  1  0.98724739  0.33022820  0.62181872  1
  Al  Al5  1  0.66978875  0.65702173  0.62182101  1
  Al  Al6  1  0.66407729  0.67743239  0.87688064  1
  Al  Al7  1  0.32255502  0.98663754  0.87687995  1
  Al  Al8  1  0.01334762  0.33591939  0.87688228  1
  Al  Al9  1  0.66407695  0.98664491  0.37688060  1
  Al  Al10  1  0.01334680  0.67742757  0.37688231  1
  Al  Al11  1  0.32255542  0.33591738  0.37687999  1
  Al  Al12  1  0.99999905  0.00000358  0.74292843  1
  Al  Al13  1  0.99999904  0.99999505  0.24292789  1
  Al  Al14  1  0.33333276  0.66666454  0.73665365  1
  Al  Al15  1  0.33333296  0.66666885  0.23665351  1
  Al  Al16  1  0.66666561  0.33333433  0.26447394  1
  Al  Al17  1  0.66666378  0.33332955  0.76447395  1
  B  B18  1  0.66666351  0.33333178  0.49107393  1
  B  B19  1  0.66666339  0.33333135  0.99107468  1
  B  B20  1  0.33333757  0.66666864  0.50633763  1
  B  B21  1  0.33333766  0.66666926  0.00633724  1
  B  B22  1  0.00000033  0.00000012  0.50248494  1
  B  B23  1  0.00000124  0.00000092  0.00248413  1
  C  C24  1  0.66665888  0.33333008  0.40093853  1
  C  C25  1  0.66665677  0.33332680  0.90093876  1
  C  C26  1  0.33334544  0.66667215  0.59657086  1
  C  C27  1  0.33334399  0.66667352  0.09657103  1
  C  C28  1  0.66635603  0.00014335  0.24932293  1
  C  C29  1  0.99985765  0.66621139  0.24932223  1
  C  C30  1  0.33378179  0.33364740  0.24932319  1
  C  C31  1  0.66635633  0.66621300  0.74932354  1
  C  C32  1  0.33378272  0.00013625  0.74932348  1
  C  C33  1  0.99985898  0.33364680  0.74932290  1
  C  C34  1  0.66667471  0.33333555  0.58169767  1
  C  C35  1  0.66667489  0.33334004  0.08169775  1
  C  C36  1  0.33332573  0.66666355  0.41561006  1
  C  C37  1  0.33332460  0.66666085  0.91561038  1
  C  C38  1  0.00000948  0.00000762  0.59318934  1
  C  C39  1  0.00000903  0.00000199  0.09318971  1
  C  C40  1  0.99999320  0.99999407  0.41198875  1
  C  C41  1  0.99999220  -0.00000258  0.91198900  1
