# generated using pymatgen
data_Ba3Dy2WO9
_symmetry_space_group_name_H-M   'P 1'
_cell_length_a   6.10430632
_cell_length_b   8.65448778
_cell_length_c   10.58426466
_cell_angle_alpha   65.86817318
_cell_angle_beta   73.23978119
_cell_angle_gamma   90.00000000
_symmetry_Int_Tables_number   1
_chemical_formula_structural   Ba3Dy2WO9
_chemical_formula_sum   'Ba6 Dy4 W2 O18'
_cell_volume   484.15127970
_cell_formula_units_Z   2
loop_
 _symmetry_equiv_pos_site_id
 _symmetry_equiv_pos_as_xyz
  1  'x, y, z'
loop_
 _atom_site_type_symbol
 _atom_site_label
 _atom_site_symmetry_multiplicity
 _atom_site_fract_x
 _atom_site_fract_y
 _atom_site_fract_z
 _atom_site_occupancy
  Ba  Ba0  1  0.50000000  0.26639374  -0.00000000  1
  Ba  Ba1  1  0.83977513  0.57984590  0.32044874  1
  Ba  Ba2  1  0.16022487  0.90029564  0.67955126  1
  Ba  Ba3  1  0.50000000  0.73360626  -0.00000000  1
  Ba  Ba4  1  0.83977513  0.09970436  0.32044874  1
  Ba  Ba5  1  0.16022487  0.42015410  0.67955126  1
  Dy  Dy6  1  -0.00000000  0.00000000  -0.00000000  1
  Dy  Dy7  1  0.32798960  0.32798960  0.34401979  1
  Dy  Dy8  1  0.67201040  0.67201040  0.65598021  1
  Dy  Dy9  1  -0.00000000  0.50000000  -0.00000000  1
  W  W10  1  0.33418937  0.83418937  0.33162026  1
  W  W11  1  0.66581063  0.16581063  0.66837974  1
  O  O12  1  -0.00000000  0.24683696  -0.00000000  1
  O  O13  1  0.33042843  0.60178331  0.33914214  1
  O  O14  1  0.66957157  0.94092646  0.66085786  1
  O  O15  1  0.16148666  0.41054423  0.17891154  1
  O  O16  1  0.48929231  0.75969707  0.48060485  1
  O  O17  1  0.81832465  0.08974296  0.82051507  1
  O  O18  1  0.34039820  0.58945577  0.82108846  1
  O  O19  1  0.63883872  0.91025704  0.17948493  1
  O  O20  1  0.96989817  0.24030293  0.51939515  1
  O  O21  1  -0.00000000  0.75316304  -0.00000000  1
  O  O22  1  0.33042843  0.05907354  0.33914214  1
  O  O23  1  0.66957157  0.39821669  0.66085786  1
  O  O24  1  0.83851334  0.58945577  0.82108846  1
  O  O25  1  0.18167535  0.91025704  0.17948493  1
  O  O26  1  0.51070769  0.24030293  0.51939515  1
  O  O27  1  0.65960180  0.41054423  0.17891154  1
  O  O28  1  0.03010183  0.75969707  0.48060485  1
  O  O29  1  0.36116128  0.08974296  0.82051507  1
