# generated using pymatgen
data_CaCl2
_symmetry_space_group_name_H-M   'P 1'
_cell_length_a   5.14143194
_cell_length_b   7.62454177
_cell_length_c   11.57787822
_cell_angle_alpha   90.00000000
_cell_angle_beta   90.00000000
_cell_angle_gamma   90.00000000
_symmetry_Int_Tables_number   1
_chemical_formula_structural   CaCl2
_chemical_formula_sum   'Ca4 Cl8'
_cell_volume   453.86512869
_cell_formula_units_Z   4
loop_
 _symmetry_equiv_pos_site_id
 _symmetry_equiv_pos_as_xyz
  1  'x, y, z'
loop_
 _atom_site_type_symbol
 _atom_site_label
 _atom_site_symmetry_multiplicity
 _atom_site_fract_x
 _atom_site_fract_y
 _atom_site_fract_z
 _atom_site_occupancy
  Ca  Ca0  1  0.25000000  0.85995614  0.11860019  1
  Ca  Ca1  1  0.25000000  0.35995614  0.38139981  1
  Ca  Ca2  1  0.75000000  0.14004386  0.88139981  1
  Ca  Ca3  1  0.75000000  0.64004386  0.61860019  1
  Cl  Cl4  1  0.75000000  0.97257962  0.68452462  1
  Cl  Cl5  1  0.25000000  0.52742038  0.18452462  1
  Cl  Cl6  1  0.25000000  0.02742038  0.31547538  1
  Cl  Cl7  1  0.75000000  0.47257962  0.81547538  1
  Cl  Cl8  1  0.75000000  0.85863383  0.03687830  1
  Cl  Cl9  1  0.25000000  0.14136617  0.96312170  1
  Cl  Cl10  1  0.75000000  0.35863383  0.46312170  1
  Cl  Cl11  1  0.25000000  0.64136617  0.53687830  1
