# generated using pymatgen
data_Ba3MgIrRuO9
_symmetry_space_group_name_H-M   'P 1'
_cell_length_a   5.83254404
_cell_length_b   5.83291781
_cell_length_c   14.44697377
_cell_angle_alpha   90.00000000
_cell_angle_beta   90.00395516
_cell_angle_gamma   59.99788007
_symmetry_Int_Tables_number   1
_chemical_formula_structural   Ba3MgIrRuO9
_chemical_formula_sum   'Ba6 Mg2 Ir2 Ru2 O18'
_cell_volume   425.63969246
_cell_formula_units_Z   2
loop_
 _symmetry_equiv_pos_site_id
 _symmetry_equiv_pos_as_xyz
  1  'x, y, z'
loop_
 _atom_site_type_symbol
 _atom_site_label
 _atom_site_symmetry_multiplicity
 _atom_site_fract_x
 _atom_site_fract_y
 _atom_site_fract_z
 _atom_site_occupancy
  Ba  Ba0  1  0.33339508  0.33330246  0.41120266  1
  Ba  Ba1  1  0.66660492  0.66669754  0.58879734  1
  Ba  Ba2  1  0.66663491  0.66668255  0.91198397  1
  Ba  Ba3  1  0.33336509  0.33331745  0.08801603  1
  Ba  Ba4  1  -0.00000318  0.00000159  0.75058773  1
  Ba  Ba5  1  0.00000318  -0.00000159  0.24941227  1
  Mg  Mg6  1  0.00000000  -0.00000000  0.50000000  1
  Mg  Mg7  1  0.00000000  -0.00000000  -0.00000000  1
  Ir  Ir8  1  0.66669578  0.66665211  0.15460118  1
  Ir  Ir9  1  0.33330422  0.33334789  0.84539882  1
  Ru  Ru10  1  0.33320790  0.33339605  0.65308157  1
  Ru  Ru11  1  0.66679210  0.66660395  0.34691843  1
  O  O12  1  0.16965729  0.66077938  0.91799848  1
  O  O13  1  0.66099870  0.16950065  0.91796806  1
  O  O14  1  0.16965729  0.16956333  0.91799848  1
  O  O15  1  0.83034271  0.33922062  0.08200152  1
  O  O16  1  0.33900130  0.83049935  0.08203194  1
  O  O17  1  0.83034271  0.83043667  0.08200152  1
  O  O18  1  0.82977528  0.34055992  0.41681898  1
  O  O19  1  0.34055229  0.82972385  0.41677471  1
  O  O20  1  0.82977528  0.82966480  0.41681898  1
  O  O21  1  0.17022472  0.65944008  0.58318102  1
  O  O22  1  0.65944771  0.17027615  0.58322529  1
  O  O23  1  0.17022472  0.17033520  0.58318102  1
  O  O24  1  0.48303614  0.03423975  0.75048491  1
  O  O25  1  0.03408682  0.48295659  0.75048424  1
  O  O26  1  0.48303614  0.48272411  0.75048491  1
  O  O27  1  0.51696386  0.96576025  0.24951509  1
  O  O28  1  0.96591318  0.51704341  0.24951576  1
  O  O29  1  0.51696386  0.51727589  0.24951509  1
