# generated using pymatgen
data_Cs5Re6S8Cl7
_symmetry_space_group_name_H-M   'P 1'
_cell_length_a   10.06976834
_cell_length_b   10.06997358
_cell_length_c   19.27983951
_cell_angle_alpha   74.86151423
_cell_angle_beta   74.86260318
_cell_angle_gamma   59.99931827
_symmetry_Int_Tables_number   1
_chemical_formula_structural   Cs5Re6S8Cl7
_chemical_formula_sum   'Cs10 Re12 S16 Cl14'
_cell_volume   1614.27729585
_cell_formula_units_Z   2
loop_
 _symmetry_equiv_pos_site_id
 _symmetry_equiv_pos_as_xyz
  1  'x, y, z'
loop_
 _atom_site_type_symbol
 _atom_site_label
 _atom_site_symmetry_multiplicity
 _atom_site_fract_x
 _atom_site_fract_y
 _atom_site_fract_z
 _atom_site_occupancy
  Cs  Cs0  1  0.06065738  0.43880680  0.75096518  1
  Cs  Cs1  1  0.43878951  0.74957397  0.75097078  1
  Cs  Cs2  1  0.74955707  0.06067020  0.75097033  1
  Cs  Cs3  1  0.56065738  0.24957064  0.25096518  1
  Cs  Cs4  1  0.24955707  0.93880240  0.25097033  1
  Cs  Cs5  1  0.93878951  0.56066574  0.25097078  1
  Cs  Cs6  1  0.16330052  0.16338127  0.50994861  1
  Cs  Cs7  1  0.66330052  0.66336961  0.00994861  1
  Cs  Cs8  1  0.83816647  0.83808369  0.48565472  1
  Cs  Cs9  1  0.33816647  0.33809512  0.98565472  1
  Re  Re10  1  0.36019702  0.53936216  0.44174005  1
  Re  Re11  1  0.53937994  0.65872486  0.44173611  1
  Re  Re12  1  0.65878014  0.36013091  0.44172014  1
  Re  Re13  1  0.86019702  0.15870077  0.94174005  1
  Re  Re14  1  0.15878014  0.03936880  0.94172014  1
  Re  Re15  1  0.03937994  0.86015909  0.94173611  1
  Re  Re16  1  0.63958708  0.46097654  0.55840327  1
  Re  Re17  1  0.46092727  0.34101152  0.55841165  1
  Re  Re18  1  0.34103917  0.63964998  0.55842206  1
  Re  Re19  1  0.13958708  0.84103310  0.05840327  1
  Re  Re20  1  0.84103917  0.96088879  0.05842206  1
  Re  Re21  1  0.96092727  0.13964956  0.05841165  1
  S  S22  1  0.25979909  0.81178450  0.44650216  1
  S  S23  1  0.81177072  0.48190560  0.44649044  1
  S  S24  1  0.48190548  0.25981109  0.44650230  1
  S  S25  1  0.75979909  0.98191425  0.94650216  1
  S  S26  1  0.98190548  0.31178113  0.94650230  1
  S  S27  1  0.31177072  0.75983323  0.94649044  1
  S  S28  1  0.74022615  0.18798382  0.55375598  1
  S  S29  1  0.18799017  0.51802041  0.55376373  1
  S  S30  1  0.51801989  0.74021521  0.55375802  1
  S  S31  1  0.24022615  0.01803404  0.05375598  1
  S  S32  1  0.01801989  0.68800688  0.05375802  1
  S  S33  1  0.68799017  0.24022569  0.05376373  1
  S  S34  1  0.55385403  0.55386220  0.33841267  1
  S  S35  1  0.05385403  0.05387110  0.83841267  1
  S  S36  1  0.44611527  0.44611089  0.66166316  1
  S  S37  1  0.94611527  0.94611068  0.16166316  1
  Cl  Cl38  1  0.17436119  0.59803824  0.36449714  1
  Cl  Cl39  1  0.59803869  0.86308525  0.36449870  1
  Cl  Cl40  1  0.86309066  0.17438505  0.36450168  1
  Cl  Cl41  1  0.67436119  0.36310343  0.86449714  1
  Cl  Cl42  1  0.36309066  0.09802260  0.86450168  1
  Cl  Cl43  1  0.09803868  0.67437736  0.86449870  1
  Cl  Cl44  1  0.82522332  0.40560589  0.63585957  1
  Cl  Cl45  1  0.40561631  0.13331354  0.63585233  1
  Cl  Cl46  1  0.13331354  0.82520968  0.63585532  1
  Cl  Cl47  1  0.32522332  0.63331122  0.13585957  1
  Cl  Cl48  1  0.63331354  0.90562146  0.13585532  1
  Cl  Cl49  1  0.90561631  0.32521782  0.13585233  1
  Cl  Cl50  1  0.22989394  0.22996930  0.31014387  1
  Cl  Cl51  1  0.72989394  0.72999289  0.81014387  1
