# generated using pymatgen
data_Ba2ScO3F
_symmetry_space_group_name_H-M   'P 1'
_cell_length_a   4.18138716
_cell_length_b   4.18138716
_cell_length_c   7.50501834
_cell_angle_alpha   73.82495972
_cell_angle_beta   73.82495972
_cell_angle_gamma   90.00000000
_symmetry_Int_Tables_number   1
_chemical_formula_structural   Ba2ScO3F
_chemical_formula_sum   'Ba2 Sc1 O3 F1'
_cell_volume   120.60575903
_cell_formula_units_Z   1
loop_
 _symmetry_equiv_pos_site_id
 _symmetry_equiv_pos_as_xyz
  1  'x, y, z'
loop_
 _atom_site_type_symbol
 _atom_site_label
 _atom_site_symmetry_multiplicity
 _atom_site_fract_x
 _atom_site_fract_y
 _atom_site_fract_z
 _atom_site_occupancy
  Ba  Ba0  1  0.36484784  0.36484784  0.27030432  1
  Ba  Ba1  1  0.63841343  0.63841343  0.72317313  1
  Sc  Sc2  1  0.01448094  0.01448094  0.97103811  1
  O  O3  1  0.49414444  0.99414444  0.01171112  1
  O  O4  1  0.99414444  0.49414444  0.01171112  1
  O  O5  1  0.16123395  0.16123395  0.67753210  1
  F  F6  1  0.83273495  0.83273495  0.33453010  1
