# generated using pymatgen
data_Ba3Ta6Fe2O21
_symmetry_space_group_name_H-M   'P 1'
_cell_length_a   9.24489907
_cell_length_b   9.24490229
_cell_length_c   12.10565381
_cell_angle_alpha   89.75446400
_cell_angle_beta   89.75443761
_cell_angle_gamma   59.67658040
_symmetry_Int_Tables_number   1
_chemical_formula_structural   Ba3Ta6Fe2O21
_chemical_formula_sum   'Ba6 Ta12 Fe4 O42'
_cell_volume   893.08639594
_cell_formula_units_Z   2
loop_
 _symmetry_equiv_pos_site_id
 _symmetry_equiv_pos_as_xyz
  1  'x, y, z'
loop_
 _atom_site_type_symbol
 _atom_site_label
 _atom_site_symmetry_multiplicity
 _atom_site_fract_x
 _atom_site_fract_y
 _atom_site_fract_z
 _atom_site_occupancy
  Ba  Ba0  1  0.59273629  0.99344820  0.74963466  1
  Ba  Ba1  1  0.00655175  0.40726332  0.75036542  1
  Ba  Ba2  1  0.40046007  0.59953872  0.74999954  1
  Ba  Ba3  1  0.40726377  0.00655264  0.25036640  1
  Ba  Ba4  1  0.99344959  0.59273595  0.24963364  1
  Ba  Ba5  1  0.59953862  0.40046190  0.25000033  1
  Ta  Ta6  1  0.65994895  0.67946387  0.49917920  1
  Ta  Ta7  1  0.34005166  0.32053581  0.50082086  1
  Ta  Ta8  1  0.32053643  0.34005105  0.00082108  1
  Ta  Ta9  1  0.67946348  0.65994937  0.99917886  1
  Ta  Ta10  1  0.99934169  0.75557734  0.59695662  1
  Ta  Ta11  1  0.75763349  0.24570858  0.59180113  1
  Ta  Ta12  1  0.00065738  0.24442237  0.40304314  1
  Ta  Ta13  1  0.24236583  0.75429178  0.40819915  1
  Ta  Ta14  1  0.75557710  0.99934338  0.09695727  1
  Ta  Ta15  1  0.24570866  0.75763430  0.09180109  1
  Ta  Ta16  1  0.24442326  0.00065684  0.90304277  1
  Ta  Ta17  1  0.75429162  0.24236620  0.90819895  1
  Fe  Fe18  1  0.24522443  0.00165192  0.59176437  1
  Fe  Fe19  1  0.75477478  0.99834729  0.40823554  1
  Fe  Fe20  1  0.00165344  0.24522562  0.09176451  1
  Fe  Fe21  1  0.99834778  0.75477548  0.90823605  1
  O  O22  1  0.21334600  0.99888330  0.75079803  1
  O  O23  1  0.00111630  0.78665446  0.74920161  1
  O  O24  1  0.79352815  0.20647207  0.75000011  1
  O  O25  1  0.78665515  0.00111569  0.24920165  1
  O  O26  1  0.99888340  0.21334533  0.25079823  1
  O  O27  1  0.20647066  0.79352867  0.25000010  1
  O  O28  1  0.80173194  0.00021598  0.57662133  1
  O  O29  1  0.99733900  0.20402661  0.57473392  1
  O  O30  1  0.20427657  0.79235727  0.57361995  1
  O  O31  1  0.19826770  -0.00021565  0.42337858  1
  O  O32  1  0.00266033  0.79597300  0.42526570  1
  O  O33  1  0.79572271  0.20764319  0.42637956  1
  O  O34  1  0.20402707  0.99733870  0.07473414  1
  O  O35  1  0.00021591  0.80173196  0.07662138  1
  O  O36  1  0.79235664  0.20427791  0.07362058  1
  O  O37  1  0.79597383  0.00266106  0.92526622  1
  O  O38  1  -0.00021561  0.19826794  0.92337878  1
  O  O39  1  0.20764277  0.79572270  0.92637959  1
  O  O40  1  0.68475107  0.48105647  0.59769099  1
  O  O41  1  0.48673154  0.82835078  0.59953822  1
  O  O42  1  0.83249570  0.68412276  0.59864945  1
  O  O43  1  0.16791983  0.51807228  0.59619973  1
  O  O44  1  0.31675507  0.17128935  0.60006765  1
  O  O45  1  0.51877979  0.31499020  0.59900304  1
  O  O46  1  0.31524834  0.51894349  0.40230835  1
  O  O47  1  0.51326870  0.17164870  0.40046183  1
  O  O48  1  0.16750432  0.31587619  0.40135075  1
  O  O49  1  0.83208020  0.48192760  0.40379952  1
  O  O50  1  0.68324462  0.82871034  0.39993243  1
  O  O51  1  0.48121983  0.68500987  0.40099715  1
  O  O52  1  0.31498970  0.51878030  0.09900269  1
  O  O53  1  0.51807222  0.16792029  0.09620092  1
  O  O54  1  0.17128960  0.31675501  0.10006803  1
  O  O55  1  0.82835189  0.48673173  0.09953861  1
  O  O56  1  0.68412334  0.83249622  0.09864894  1
  O  O57  1  0.48105708  0.68475105  0.09769155  1
  O  O58  1  0.68501053  0.48122009  0.90099761  1
  O  O59  1  0.48192800  0.83207934  0.90379940  1
  O  O60  1  0.82871082  0.68324510  0.89993217  1
  O  O61  1  0.17164873  0.51326862  0.90046132  1
  O  O62  1  0.31587708  0.16750365  0.90135104  1
  O  O63  1  0.51894339  0.31524847  0.90230856  1
