# generated using pymatgen
data_Ba2LuB2ClO6
_symmetry_space_group_name_H-M   'P 1'
_cell_length_a   5.31153729
_cell_length_b   6.42515515
_cell_length_c   11.38393117
_cell_angle_alpha   96.00911252
_cell_angle_beta   90.00000000
_cell_angle_gamma   90.00000000
_symmetry_Int_Tables_number   1
_chemical_formula_structural   Ba2LuB2ClO6
_chemical_formula_sum   'Ba4 Lu2 B4 Cl2 O12'
_cell_volume   386.36982323
_cell_formula_units_Z   2
loop_
 _symmetry_equiv_pos_site_id
 _symmetry_equiv_pos_as_xyz
  1  'x, y, z'
loop_
 _atom_site_type_symbol
 _atom_site_label
 _atom_site_symmetry_multiplicity
 _atom_site_fract_x
 _atom_site_fract_y
 _atom_site_fract_z
 _atom_site_occupancy
  Ba  Ba0  1  0.75161532  0.65665691  0.92072204  1
  Ba  Ba1  1  0.25161532  0.34334309  0.07927796  1
  Ba  Ba2  1  0.75851631  0.90539890  0.29636652  1
  Ba  Ba3  1  0.25851631  0.09460110  0.70363348  1
  Lu  Lu4  1  0.76000351  0.65297630  0.58390710  1
  Lu  Lu5  1  0.26000351  0.34702370  0.41609290  1
  B  B6  1  0.76204026  0.21063181  0.56881525  1
  B  B7  1  0.26204026  0.78936819  0.43118475  1
  B  B8  1  0.25539814  0.62507368  0.76907395  1
  B  B9  1  0.75539814  0.37492632  0.23092605  1
  Cl  Cl10  1  0.75153127  0.14808159  0.91138471  1
  Cl  Cl11  1  0.25153127  0.85191841  0.08861529  1
  O  O12  1  0.02994795  0.70899917  0.73195961  1
  O  O13  1  0.52994795  0.29100083  0.26804039  1
  O  O14  1  0.97909229  0.29402722  0.27137611  1
  O  O15  1  0.47909229  0.70597278  0.72862389  1
  O  O16  1  0.25629486  0.48219874  0.85241162  1
  O  O17  1  0.75629486  0.51780126  0.14758838  1
  O  O18  1  0.98120503  0.33020935  0.56311481  1
  O  O19  1  0.48120503  0.66979065  0.43688519  1
  O  O20  1  0.04136293  0.67301914  0.43723664  1
  O  O21  1  0.54136293  0.32698086  0.56276336  1
  O  O22  1  0.76545214  0.00406801  0.58731979  1
  O  O23  1  0.26545214  0.99593199  0.41268021  1
