# generated using pymatgen
data_Ba3HoIrRuO9
_symmetry_space_group_name_H-M   'P 1'
_cell_length_a   5.94502399
_cell_length_b   5.94502399
_cell_length_c   14.66923639
_cell_angle_alpha   90.00000000
_cell_angle_beta   90.00000000
_cell_angle_gamma   120.00779615
_symmetry_Int_Tables_number   1
_chemical_formula_structural   Ba3HoIrRuO9
_chemical_formula_sum   'Ba6 Ho2 Ir2 Ru2 O18'
_cell_volume   448.96371014
_cell_formula_units_Z   2
loop_
 _symmetry_equiv_pos_site_id
 _symmetry_equiv_pos_as_xyz
  1  'x, y, z'
loop_
 _atom_site_type_symbol
 _atom_site_label
 _atom_site_symmetry_multiplicity
 _atom_site_fract_x
 _atom_site_fract_y
 _atom_site_fract_z
 _atom_site_occupancy
  Ba  Ba0  1  0.00005026  0.99994974  0.75006812  1
  Ba  Ba1  1  0.99994974  0.00005026  0.25006812  1
  Ba  Ba2  1  0.66667509  0.33332491  0.40718762  1
  Ba  Ba3  1  0.33332991  0.66667009  0.59459170  1
  Ba  Ba4  1  0.33332491  0.66667509  0.90718762  1
  Ba  Ba5  1  0.66667009  0.33332991  0.09459170  1
  Ho  Ho6  1  0.00000747  -0.00000747  0.50123758  1
  Ho  Ho7  1  -0.00000747  0.00000747  0.00123758  1
  Ir  Ir8  1  0.66663629  0.33336371  0.66448485  1
  Ir  Ir9  1  0.33336371  0.66663629  0.16448485  1
  Ru  Ru10  1  0.33333374  0.66666626  0.33688935  1
  Ru  Ru11  1  0.66666626  0.33333374  0.83688935  1
  O  O12  1  0.82429228  0.64854942  0.91181106  1
  O  O13  1  0.82422722  0.17577278  0.91180383  1
  O  O14  1  0.35145058  0.17570772  0.91181106  1
  O  O15  1  0.17538202  0.35085317  0.08587010  1
  O  O16  1  0.17539772  0.82460228  0.08586462  1
  O  O17  1  0.64914683  0.82461798  0.08587010  1
  O  O18  1  0.17570772  0.35145058  0.41181106  1
  O  O19  1  0.17577278  0.82422722  0.41180383  1
  O  O20  1  0.64854942  0.82429228  0.41181106  1
  O  O21  1  0.82461798  0.64914683  0.58587010  1
  O  O22  1  0.82460228  0.17539772  0.58586462  1
  O  O23  1  0.35085317  0.17538202  0.58587010  1
  O  O24  1  0.51000745  0.02026519  0.75084123  1
  O  O25  1  0.51016809  0.48983191  0.75082757  1
  O  O26  1  0.97973481  0.48999255  0.75084123  1
  O  O27  1  0.48999255  0.97973481  0.25084123  1
  O  O28  1  0.48983191  0.51016809  0.25082757  1
  O  O29  1  0.02026519  0.51000745  0.25084123  1
