# generated using pymatgen
data_AsIrS
_symmetry_space_group_name_H-M   'P 1'
_cell_length_a   5.85085622
_cell_length_b   5.85085622
_cell_length_c   5.85085622
_cell_angle_alpha   90.00000000
_cell_angle_beta   90.00000000
_cell_angle_gamma   90.00000000
_symmetry_Int_Tables_number   1
_chemical_formula_structural   AsIrS
_chemical_formula_sum   'As4 Ir4 S4'
_cell_volume   200.28954383
_cell_formula_units_Z   4
loop_
 _symmetry_equiv_pos_site_id
 _symmetry_equiv_pos_as_xyz
  1  'x, y, z'
loop_
 _atom_site_type_symbol
 _atom_site_label
 _atom_site_symmetry_multiplicity
 _atom_site_fract_x
 _atom_site_fract_y
 _atom_site_fract_z
 _atom_site_occupancy
  As  As0  1  0.88308690  0.38308690  0.11691310  1
  As  As1  1  0.38308690  0.11691310  0.88308690  1
  As  As2  1  0.11691310  0.88308690  0.38308690  1
  As  As3  1  0.61691310  0.61691310  0.61691310  1
  Ir  Ir4  1  0.50384273  0.00384273  0.49615727  1
  Ir  Ir5  1  0.00384273  0.49615727  0.50384273  1
  Ir  Ir6  1  0.49615727  0.50384273  0.00384273  1
  Ir  Ir7  1  0.99615727  0.99615727  0.99615727  1
  S  S8  1  0.11399323  0.61399323  0.88600677  1
  S  S9  1  0.61399323  0.88600677  0.11399323  1
  S  S10  1  0.88600677  0.11399323  0.61399323  1
  S  S11  1  0.38600677  0.38600677  0.38600677  1
