# generated using pymatgen
data_Al53Fe17Si12
_symmetry_space_group_name_H-M   'P 1'
_cell_length_a   8.78299217
_cell_length_b   8.79077691
_cell_length_c   16.86146308
_cell_angle_alpha   80.11146642
_cell_angle_beta   100.21800607
_cell_angle_gamma   70.79923240
_symmetry_Int_Tables_number   1
_chemical_formula_structural   Al53Fe17Si12
_chemical_formula_sum   'Al53 Fe17 Si12'
_cell_volume   1172.28319409
_cell_formula_units_Z   1
loop_
 _symmetry_equiv_pos_site_id
 _symmetry_equiv_pos_as_xyz
  1  'x, y, z'
loop_
 _atom_site_type_symbol
 _atom_site_label
 _atom_site_symmetry_multiplicity
 _atom_site_fract_x
 _atom_site_fract_y
 _atom_site_fract_z
 _atom_site_occupancy
  Al  Al0  1  0.57811432  0.38582551  0.19189245  1
  Al  Al1  1  0.07811593  0.38622304  0.69337506  1
  Al  Al2  1  0.92188407  0.61377696  0.30662494  1
  Al  Al3  1  0.42188568  0.61417449  0.80810755  1
  Al  Al4  1  0.19777665  0.70468162  0.10393003  1
  Al  Al5  1  0.71264546  0.68770540  0.61165801  1
  Al  Al6  1  0.75043785  0.20974434  0.04686592  1
  Al  Al7  1  0.24102622  0.22067791  0.55035791  1
  Al  Al8  1  0.56445492  0.10104372  0.34290407  1
  Al  Al9  1  0.06073346  0.09346522  0.85335680  1
  Al  Al10  1  0.28735454  0.31229460  0.38834199  1
  Al  Al11  1  0.80222335  0.29531838  0.89606997  1
  Al  Al12  1  0.75897378  0.77932209  0.44964209  1
  Al  Al13  1  0.24956215  0.79025566  0.95313408  1
  Al  Al14  1  0.93926654  0.90653478  0.14664320  1
  Al  Al15  1  0.43554508  0.89895628  0.65709593  1
  Al  Al16  1  0.80194324  0.46031908  0.12205610  1
  Al  Al17  1  0.30352685  0.46030638  0.62537933  1
  Al  Al18  1  0.80044558  0.24958706  0.33756260  1
  Al  Al19  1  0.29802822  0.24786903  0.84024860  1
  Al  Al20  1  0.47570001  0.67985120  0.22763896  1
  Al  Al21  1  0.97887777  0.67688909  0.73321323  1
  Al  Al22  1  0.69647315  0.53969362  0.37462067  1
  Al  Al23  1  0.19805676  0.53968092  0.87794390  1
  Al  Al24  1  0.70197178  0.75213097  0.15975140  1
  Al  Al25  1  0.19955442  0.75041294  0.66243740  1
  Al  Al26  1  0.02112223  0.32311091  0.26678677  1
  Al  Al27  1  0.52429999  0.32014880  0.77236104  1
  Al  Al28  1  0.17262079  0.06275251  0.41747334  1
  Al  Al29  1  0.69105568  0.05667698  0.92575250  1
  Al  Al30  1  0.43673198  0.83928169  0.37489135  1
  Al  Al31  1  0.94172525  0.84735685  0.88419991  1
  Al  Al32  1  0.87843191  0.76422905  0.02882130  1
  Al  Al33  1  0.36841024  0.75613774  0.53080005  1
  Al  Al34  1  0.30894432  0.94332302  0.07424750  1
  Al  Al35  1  0.82737921  0.93724749  0.58252666  1
  Al  Al36  1  0.05827475  0.15264315  0.11580009  1
  Al  Al37  1  0.56326802  0.16071831  0.62510865  1
  Al  Al38  1  0.63158976  0.24386226  0.46919995  1
  Al  Al39  1  0.12156809  0.23577095  0.97117870  1
  Al  Al40  1  0.50000000  0.00000000  0.50000000  1
  Al  Al41  1  0.29039746  0.35900256  0.21892942  1
  Al  Al42  1  0.79198404  0.35190819  0.72284525  1
  Al  Al43  1  0.39070371  0.44259647  0.03540104  1
  Al  Al44  1  0.88968470  0.44111244  0.53491577  1
  Al  Al45  1  0.62043102  0.07010538  0.17582974  1
  Al  Al46  1  0.11783157  0.07155298  0.67996992  1
  Al  Al47  1  0.20801596  0.64809181  0.27715475  1
  Al  Al48  1  0.70960254  0.64099744  0.78107058  1
  Al  Al49  1  0.11031530  0.55888756  0.46508423  1
  Al  Al50  1  0.60929629  0.55740353  0.96459896  1
  Al  Al51  1  0.88216843  0.92844702  0.32003008  1
  Al  Al52  1  0.37956898  0.92989462  0.82417026  1
  Fe  Fe53  1  0.31104598  0.20744646  0.10371202  1
  Fe  Fe54  1  0.80969634  0.20651408  0.60267265  1
  Fe  Fe55  1  0.19030366  0.79348592  0.39732735  1
  Fe  Fe56  1  0.68895402  0.79255354  0.89628798  1
  Fe  Fe57  1  0.00709100  0.59419326  0.17097987  1
  Fe  Fe58  1  0.50738453  0.59555607  0.67000653  1
  Fe  Fe59  1  0.01253464  0.34100187  0.41927295  1
  Fe  Fe60  1  0.51301552  0.34142973  0.91842799  1
  Fe  Fe61  1  0.63947942  0.83714662  0.29728290  1
  Fe  Fe62  1  0.13750689  0.83695341  0.79650575  1
  Fe  Fe63  1  0.49261547  0.40444393  0.32999347  1
  Fe  Fe64  1  0.99290900  0.40580674  0.82902013  1
  Fe  Fe65  1  0.48698448  0.65857027  0.08157201  1
  Fe  Fe66  1  0.98746536  0.65899813  0.58072705  1
  Fe  Fe67  1  0.86249311  0.16304659  0.20349425  1
  Fe  Fe68  1  0.36052058  0.16285338  0.70271710  1
  Fe  Fe69  1  -0.00000000  0.00000000  -0.00000000  1
  Si  Si70  1  0.09079276  0.45321825  0.07101110  1
  Si  Si71  1  0.59290432  0.45485236  0.57089881  1
  Si  Si72  1  0.46110146  0.14414492  0.00930414  1
  Si  Si73  1  0.96575520  0.14057620  0.51090993  1
  Si  Si74  1  0.36940016  0.01898646  0.22437929  1
  Si  Si75  1  0.86789726  0.02223975  0.72912194  1
  Si  Si76  1  0.40709568  0.54514764  0.42910119  1
  Si  Si77  1  0.90920724  0.54678175  0.92898890  1
  Si  Si78  1  0.03424480  0.85942380  0.48909007  1
  Si  Si79  1  0.53889854  0.85585508  0.99069586  1
  Si  Si80  1  0.13210274  0.97776025  0.27087806  1
  Si  Si81  1  0.63059984  0.98101354  0.77562071  1
