# generated using pymatgen
data_Ba(Cr5S8)2
_symmetry_space_group_name_H-M   'P 1'
_cell_length_a   6.94750954
_cell_length_b   9.15290803
_cell_length_c   9.31252763
_cell_angle_alpha   107.58017737
_cell_angle_beta   68.22577468
_cell_angle_gamma   100.88080689
_symmetry_Int_Tables_number   1
_chemical_formula_structural   Ba(Cr5S8)2
_chemical_formula_sum   'Ba1 Cr10 S16'
_cell_volume   522.27521933
_cell_formula_units_Z   1
loop_
 _symmetry_equiv_pos_site_id
 _symmetry_equiv_pos_as_xyz
  1  'x, y, z'
loop_
 _atom_site_type_symbol
 _atom_site_label
 _atom_site_symmetry_multiplicity
 _atom_site_fract_x
 _atom_site_fract_y
 _atom_site_fract_z
 _atom_site_occupancy
  Ba  Ba0  1  -0.00000000  0.00000000  0.00000000  1
  Cr  Cr1  1  0.15948872  0.68334476  0.52404850  1
  Cr  Cr2  1  0.65757771  0.68220441  0.52660703  1
  Cr  Cr3  1  0.34242229  0.31779559  0.47339297  1
  Cr  Cr4  1  0.84051128  0.31665524  0.47595150  1
  Cr  Cr5  1  0.18423684  0.40882853  0.83560498  1
  Cr  Cr6  1  0.68323182  0.40303038  0.83606177  1
  Cr  Cr7  1  0.31676818  0.59696962  0.16393823  1
  Cr  Cr8  1  0.81576316  0.59117147  0.16439502  1
  Cr  Cr9  1  0.50000000  0.00000000  0.50000000  1
  Cr  Cr10  1  -0.00000000  0.00000000  0.50000000  1
  S  S11  1  0.21211011  0.15102522  0.65231362  1
  S  S12  1  0.71256541  0.15163155  0.65088139  1
  S  S13  1  0.28743459  0.84836845  0.34911861  1
  S  S14  1  0.78788989  0.84897478  0.34768638  1
  S  S15  1  0.04141062  0.47411282  0.65590557  1
  S  S16  1  0.53986541  0.47438402  0.65600589  1
  S  S17  1  0.46013459  0.52561598  0.34399411  1
  S  S18  1  0.95858938  0.52588718  0.34409443  1
  S  S19  1  0.36986229  0.82773956  0.67288145  1
  S  S20  1  0.87284841  0.82728073  0.67237299  1
  S  S21  1  0.12715159  0.17271927  0.32762701  1
  S  S22  1  0.63013771  0.17226044  0.32711855  1
  S  S23  1  0.66129332  0.65486247  0.00784753  1
  S  S24  1  0.15618987  0.65813472  0.00960830  1
  S  S25  1  0.84381013  0.34186528  0.99039170  1
  S  S26  1  0.33870668  0.34513753  0.99215247  1
