# generated using pymatgen
data_LaSiP3
_symmetry_space_group_name_H-M   'P 1'
_cell_length_a   5.97680311
_cell_length_b   5.78509158
_cell_length_c   25.58578010
_cell_angle_alpha   90.00000000
_cell_angle_beta   90.00000000
_cell_angle_gamma   90.00000000
_symmetry_Int_Tables_number   1
_chemical_formula_structural   LaSiP3
_chemical_formula_sum   'La8 Si8 P24'
_cell_volume   884.66297340
_cell_formula_units_Z   8
loop_
 _symmetry_equiv_pos_site_id
 _symmetry_equiv_pos_as_xyz
  1  'x, y, z'
loop_
 _atom_site_type_symbol
 _atom_site_label
 _atom_site_symmetry_multiplicity
 _atom_site_fract_x
 _atom_site_fract_y
 _atom_site_fract_z
 _atom_site_occupancy
  La  La0  1  0.01836956  0.25124252  0.90961812  1
  La  La1  1  0.98163044  0.75124252  0.09038188  1
  La  La2  1  0.48163044  0.75124252  0.40961812  1
  La  La3  1  0.51836956  0.25124252  0.59038188  1
  La  La4  1  0.51958505  0.75172698  0.90120049  1
  La  La5  1  0.48041495  0.25172698  0.09879951  1
  La  La6  1  0.98041495  0.25172698  0.40120049  1
  La  La7  1  0.01958505  0.75172698  0.59879951  1
  Si  Si8  1  0.93488624  0.67020960  0.79402929  1
  Si  Si9  1  0.06511376  0.17020960  0.20597071  1
  Si  Si10  1  0.56511376  0.17020960  0.29402929  1
  Si  Si11  1  0.43488624  0.67020960  0.70597071  1
  Si  Si12  1  0.61290737  0.17284452  0.79127870  1
  Si  Si13  1  0.38709263  0.67284452  0.20872130  1
  Si  Si14  1  0.88709263  0.67284452  0.29127870  1
  Si  Si15  1  0.11290737  0.17284452  0.70872130  1
  P  P16  1  0.51365100  0.25356888  0.87250138  1
  P  P17  1  0.48634900  0.75356888  0.12749862  1
  P  P18  1  0.98634900  0.75356888  0.37250138  1
  P  P19  1  0.01365100  0.25356888  0.62749862  1
  P  P20  1  0.02167982  0.75362179  0.87583480  1
  P  P21  1  0.97832018  0.25362179  0.12416520  1
  P  P22  1  0.47832018  0.25362179  0.37583480  1
  P  P23  1  0.52167982  0.75362179  0.62416520  1
  P  P24  1  0.31909644  0.54866433  0.99805373  1
  P  P25  1  0.68090356  0.04866433  0.00194627  1
  P  P26  1  0.18090356  0.04866433  0.49805373  1
  P  P27  1  0.81909644  0.54866433  0.50194627  1
  P  P28  1  0.68258096  0.44423734  0.00158192  1
  P  P29  1  0.31741904  0.94423734  0.99841808  1
  P  P30  1  0.81741904  0.94423734  0.50158192  1
  P  P31  1  0.18258096  0.44423734  0.49841808  1
  P  P32  1  0.57835648  0.78342632  0.78365907  1
  P  P33  1  0.42164352  0.28342632  0.21634093  1
  P  P34  1  0.92164352  0.28342632  0.28365907  1
  P  P35  1  0.07835648  0.78342632  0.71634093  1
  P  P36  1  0.97270416  0.28145673  0.78797467  1
  P  P37  1  0.02729584  0.78145673  0.21202533  1
  P  P38  1  0.52729584  0.78145673  0.28797467  1
  P  P39  1  0.47270416  0.28145673  0.71202533  1
