# generated using pymatgen
data_ICl
_symmetry_space_group_name_H-M   'P 1'
_cell_length_a   4.86698890
_cell_length_b   13.29843838
_cell_length_c   12.94520733
_cell_angle_alpha   105.17335223
_cell_angle_beta   90.00000000
_cell_angle_gamma   90.00000000
_symmetry_Int_Tables_number   1
_chemical_formula_structural   ICl
_chemical_formula_sum   'I8 Cl8'
_cell_volume   808.64811060
_cell_formula_units_Z   8
loop_
 _symmetry_equiv_pos_site_id
 _symmetry_equiv_pos_as_xyz
  1  'x, y, z'
loop_
 _atom_site_type_symbol
 _atom_site_label
 _atom_site_symmetry_multiplicity
 _atom_site_fract_x
 _atom_site_fract_y
 _atom_site_fract_z
 _atom_site_occupancy
  I  I0  1  0.62499045  0.81490609  0.19510513  1
  I  I1  1  0.12499045  0.68509391  0.80489487  1
  I  I2  1  0.59558868  0.34470394  0.70377365  1
  I  I3  1  0.90441132  0.84470394  0.70377365  1
  I  I4  1  0.09558868  0.15529606  0.29622635  1
  I  I5  1  0.87500955  0.31490609  0.19510513  1
  I  I6  1  0.40441132  0.65529606  0.29622635  1
  I  I7  1  0.37500955  0.18509391  0.80489487  1
  Cl  Cl8  1  0.17551445  0.57601165  0.92723454  1
  Cl  Cl9  1  0.82448555  0.42398835  0.07276546  1
  Cl  Cl10  1  0.60064331  0.61094335  0.44650887  1
  Cl  Cl11  1  0.67551445  0.92398835  0.07276546  1
  Cl  Cl12  1  0.89935669  0.11094335  0.44650887  1
  Cl  Cl13  1  0.32448555  0.07601165  0.92723454  1
  Cl  Cl14  1  0.39935669  0.38905665  0.55349113  1
  Cl  Cl15  1  0.10064331  0.88905665  0.55349113  1
