# generated using pymatgen
data_AlNi4Ge
_symmetry_space_group_name_H-M   'P 1'
_cell_length_a   3.82839523
_cell_length_b   5.01917334
_cell_length_c   7.34021901
_cell_angle_alpha   90.00000000
_cell_angle_beta   90.00000000
_cell_angle_gamma   90.00000000
_symmetry_Int_Tables_number   1
_chemical_formula_structural   AlNi4Ge
_chemical_formula_sum   'Al2 Ni8 Ge2'
_cell_volume   141.04509223
_cell_formula_units_Z   2
loop_
 _symmetry_equiv_pos_site_id
 _symmetry_equiv_pos_as_xyz
  1  'x, y, z'
loop_
 _atom_site_type_symbol
 _atom_site_label
 _atom_site_symmetry_multiplicity
 _atom_site_fract_x
 _atom_site_fract_y
 _atom_site_fract_z
 _atom_site_occupancy
  Al  Al0  1  0.75000000  0.81098079  0.89017776  1
  Al  Al1  1  0.75000000  0.31098079  0.60982224  1
  Ni  Ni2  1  0.75000000  0.44686029  0.28317271  1
  Ni  Ni3  1  0.75000000  0.94686029  0.21682729  1
  Ni  Ni4  1  0.25000000  0.56495594  0.72673073  1
  Ni  Ni5  1  0.25000000  0.06495594  0.77326927  1
  Ni  Ni6  1  0.75000000  0.33509486  0.93838147  1
  Ni  Ni7  1  0.75000000  0.83509486  0.56161853  1
  Ni  Ni8  1  0.25000000  0.65944202  0.06959474  1
  Ni  Ni9  1  0.25000000  0.15944202  0.43040526  1
  Ge  Ge10  1  0.25000000  0.18266609  0.09994785  1
  Ge  Ge11  1  0.25000000  0.68266609  0.40005215  1
