# generated using pymatgen
data_Ba2V2CuF12
_symmetry_space_group_name_H-M   'P 1'
_cell_length_a   5.47874912
_cell_length_b   7.02532864
_cell_length_c   7.52745836
_cell_angle_alpha   65.49771419
_cell_angle_beta   70.32552400
_cell_angle_gamma   73.17287036
_symmetry_Int_Tables_number   1
_chemical_formula_structural   Ba2V2CuF12
_chemical_formula_sum   'Ba2 V2 Cu1 F12'
_cell_volume   244.42261149
_cell_formula_units_Z   1
loop_
 _symmetry_equiv_pos_site_id
 _symmetry_equiv_pos_as_xyz
  1  'x, y, z'
loop_
 _atom_site_type_symbol
 _atom_site_label
 _atom_site_symmetry_multiplicity
 _atom_site_fract_x
 _atom_site_fract_y
 _atom_site_fract_z
 _atom_site_occupancy
  Ba  Ba0  1  0.29824311  0.20282867  0.23549899  1
  Ba  Ba1  1  0.71620132  0.79658749  0.75969289  1
  V  V2  1  0.49362634  0.50039951  0.50507959  1
  V  V3  1  0.05411937  0.77972294  0.16354879  1
  Cu  Cu4  1  0.94793909  0.22848293  0.82830741  1
  F  F5  1  0.53404968  0.21881764  0.50302457  1
  F  F6  1  0.46912585  0.78911573  0.48801435  1
  F  F7  1  0.38951520  0.60984183  0.24006008  1
  F  F8  1  0.58461004  0.39473002  0.76398654  1
  F  F9  1  0.87819529  0.51864396  0.34391070  1
  F  F10  1  0.11766932  0.49860383  0.64537368  1
  F  F11  1  0.82706695  0.34325843  0.03485710  1
  F  F12  1  0.17838446  0.65207186  0.96090081  1
  F  F13  1  0.75006584  0.94530620  0.05648032  1
  F  F14  1  0.25902158  0.01830188  0.96929731  1
  F  F15  1  0.97912457  0.90751070  0.36155199  1
  F  F16  1  0.02304202  0.09577638  0.64041487  1
