# generated using pymatgen
data_Na5GeP3
_symmetry_space_group_name_H-M   'P 1'
_cell_length_a   7.40148667
_cell_length_b   8.10447488
_cell_length_c   13.20985784
_cell_angle_alpha   90.22243563
_cell_angle_beta   90.00000000
_cell_angle_gamma   90.00000000
_symmetry_Int_Tables_number   1
_chemical_formula_structural   Na5GeP3
_chemical_formula_sum   'Na20 Ge4 P12'
_cell_volume   792.38950153
_cell_formula_units_Z   4
loop_
 _symmetry_equiv_pos_site_id
 _symmetry_equiv_pos_as_xyz
  1  'x, y, z'
loop_
 _atom_site_type_symbol
 _atom_site_label
 _atom_site_symmetry_multiplicity
 _atom_site_fract_x
 _atom_site_fract_y
 _atom_site_fract_z
 _atom_site_occupancy
  Na  Na0  1  0.14883532  0.07485392  0.24191650  1
  Na  Na1  1  0.83715827  0.92243904  0.08140439  1
  Na  Na2  1  0.33715827  0.57756096  0.41859561  1
  Na  Na3  1  0.16284173  0.07756096  0.91859561  1
  Na  Na4  1  0.49334962  0.17841545  0.74212854  1
  Na  Na5  1  0.99334962  0.32158455  0.75787146  1
  Na  Na6  1  0.50665038  0.82158455  0.25787146  1
  Na  Na7  1  0.00665038  0.67841545  0.24212854  1
  Na  Na8  1  0.01868501  0.67288854  0.58692539  1
  Na  Na9  1  0.51868501  0.82711146  0.91307461  1
  Na  Na10  1  0.98131499  0.32711146  0.41307461  1
  Na  Na11  1  0.48131499  0.17288854  0.08692539  1
  Na  Na12  1  0.46623986  0.16750438  0.41574501  1
  Na  Na13  1  0.96623986  0.33249562  0.08425499  1
  Na  Na14  1  0.53376014  0.83249562  0.58425499  1
  Na  Na15  1  0.64883532  0.42514608  0.25808350  1
  Na  Na16  1  0.85116468  0.92514608  0.75808350  1
  Na  Na17  1  0.35116468  0.57485392  0.74191650  1
  Na  Na18  1  0.03376014  0.66750438  0.91574501  1
  Na  Na19  1  0.66284173  0.42243904  0.58140439  1
  P  P20  1  0.23739690  0.84314605  0.08092785  1
  P  P21  1  0.23621080  0.91428976  0.72655930  1
  P  P22  1  0.73621080  0.58571024  0.77344070  1
  P  P23  1  0.76378920  0.08571024  0.27344070  1
  P  P24  1  0.81360888  0.08850109  0.56660793  1
  P  P25  1  0.31360888  0.41149891  0.93339207  1
  P  P26  1  0.18639112  0.91149891  0.43339207  1
  P  P27  1  0.68639112  0.58850109  0.06660793  1
  P  P28  1  0.26378920  0.41428976  0.22655930  1
  P  P29  1  0.76260310  0.15685395  0.91907215  1
  P  P30  1  0.73739690  0.65685395  0.41907215  1
  P  P31  1  0.26260310  0.34314605  0.58092785  1
  Ge  Ge32  1  0.35763203  0.57132709  0.08618199  1
  Ge  Ge33  1  0.85763203  0.92867291  0.41381801  1
  Ge  Ge34  1  0.64236797  0.42867291  0.91381801  1
  Ge  Ge35  1  0.14236797  0.07132709  0.58618199  1
