# generated using pymatgen
data_NaGd3Ti2(SbO7)2
_symmetry_space_group_name_H-M   'P 1'
_cell_length_a   7.35683763
_cell_length_b   14.71639687
_cell_length_c   12.76500226
_cell_angle_alpha   29.84636012
_cell_angle_beta   54.39300393
_cell_angle_gamma   59.66703167
_symmetry_Int_Tables_number   1
_chemical_formula_structural   NaGd3Ti2(SbO7)2
_chemical_formula_sum   'Na2 Gd6 Ti4 Sb4 O28'
_cell_volume   559.19927452
_cell_formula_units_Z   2
loop_
 _symmetry_equiv_pos_site_id
 _symmetry_equiv_pos_as_xyz
  1  'x, y, z'
loop_
 _atom_site_type_symbol
 _atom_site_label
 _atom_site_symmetry_multiplicity
 _atom_site_fract_x
 _atom_site_fract_y
 _atom_site_fract_z
 _atom_site_occupancy
  Gd  Gd0  1  -0.00001439  0.98298386  0.01704343  1
  Gd  Gd1  1  1.00001439  0.51701614  0.98295657  1
  Gd  Gd2  1  0.49993420  0.99526517  0.00477382  1
  Gd  Gd3  1  0.50006580  0.50473483  0.99522618  1
  Gd  Gd4  1  0.00000000  0.25000000  0.00000000  1
  Gd  Gd5  1  0.00000000  0.25000000  0.50000000  1
  Na  Na6  1  0.00000000  0.75000000  0.00000000  1
  Na  Na7  1  0.00000000  0.75000000  0.50000000  1
  O  O8  1  0.12969110  0.01018861  0.10862405  1
  O  O9  1  0.18208286  0.19651883  0.17579577  1
  O  O10  1  0.17709998  0.01771244  0.55458625  1
  O  O11  1  0.12966134  0.48972803  0.12912920  1
  O  O12  1  0.57719647  0.00071535  0.17237310  1
  O  O13  1  0.57854867  0.20450261  0.16813279  1
  O  O14  1  0.17843993  0.69971755  0.18244832  1
  O  O15  1  0.42144900  0.20450639  0.42289359  1
  O  O16  1  0.18208685  0.30344627  0.56885430  1
  O  O17  1  0.42282870  0.00074758  0.82615356  1
  O  O18  1  0.57717130  0.49925242  0.17384644  1
  O  O19  1  0.17721954  0.48226830  0.58993856  1
  O  O20  1  0.81791315  0.19655373  0.43114570  1
  O  O21  1  0.57855100  0.29549361  0.57710641  1
  O  O22  1  0.57225787  0.70516688  0.17342289  1
  O  O23  1  0.42145133  0.29549739  0.83186721  1
  O  O24  1  0.42769391  0.70513212  0.41629722  1
  O  O25  1  0.17843217  0.80030382  0.58185944  1
  O  O26  1  0.82290002  0.48228756  0.44541375  1
  O  O27  1  0.42280353  0.49928465  0.82762690  1
  O  O28  1  0.81791714  0.30348117  0.82420423  1
  O  O29  1  0.57230609  0.79486788  0.58370278  1
  O  O30  1  0.82156783  0.69969618  0.41814056  1
  O  O31  1  0.42774213  0.79483312  0.82657711  1
  O  O32  1  0.87030890  0.48981139  0.89137595  1
  O  O33  1  0.82278046  0.01773170  0.41006144  1
  O  O34  1  0.82156007  0.80028245  0.81755168  1
  O  O35  1  0.87033866  0.01027197  0.87087080  1
  Sb  Sb36  1  0.49995477  0.00410194  0.49589743  1
  Sb  Sb37  1  0.50000000  0.75000000  0.00000000  1
  Sb  Sb38  1  0.50004523  0.49589806  0.50410257  1
  Sb  Sb39  1  0.50000000  0.75000000  0.50000000  1
  Ti  Ti40  1  0.50000000  0.25000000  0.00000000  1
  Ti  Ti41  1  0.50000000  0.25000000  0.50000000  1
  Ti  Ti42  1  0.99994405  0.01081826  0.48918210  1
  Ti  Ti43  1  0.00005595  0.48918174  0.51081790  1
