# generated using pymatgen
data_Li2ZnSnS4
_symmetry_space_group_name_H-M   'P 1'
_cell_length_a   6.45917561
_cell_length_b   6.79704959
_cell_length_c   8.02525883
_cell_angle_alpha   90.00000000
_cell_angle_beta   89.89589451
_cell_angle_gamma   90.00000000
_symmetry_Int_Tables_number   1
_chemical_formula_structural   Li2ZnSnS4
_chemical_formula_sum   'Li4 Zn2 Sn2 S8'
_cell_volume   352.33506089
_cell_formula_units_Z   2
loop_
 _symmetry_equiv_pos_site_id
 _symmetry_equiv_pos_as_xyz
  1  'x, y, z'
loop_
 _atom_site_type_symbol
 _atom_site_label
 _atom_site_symmetry_multiplicity
 _atom_site_fract_x
 _atom_site_fract_y
 _atom_site_fract_z
 _atom_site_occupancy
  Li  Li0  1  0.61645611  0.66341093  0.31785176  1
  Li  Li1  1  0.60842455  0.16221465  0.57400397  1
  Li  Li2  1  0.11645611  0.33658907  0.81785176  1
  Li  Li3  1  0.10842455  0.83778535  0.07400397  1
  Zn  Zn4  1  0.61233428  0.67508796  0.82015052  1
  Zn  Zn5  1  0.11233428  0.32491204  0.32015052  1
  Sn  Sn6  1  0.11314324  0.82847235  0.57044746  1
  Sn  Sn7  1  0.61314324  0.17152765  0.07044746  1
  S  S8  1  0.49446517  0.34467054  0.82348949  1
  S  S9  1  0.98971717  0.18035236  0.07338783  1
  S  S10  1  0.47925541  0.32759594  0.31949032  1
  S  S11  1  0.49190407  0.83382131  0.06397865  1
  S  S12  1  0.99190407  0.16617869  0.56397865  1
  S  S13  1  0.48971717  0.81964764  0.57338783  1
  S  S14  1  0.97925541  0.67240406  0.81949032  1
  S  S15  1  0.99446517  0.65532946  0.32348949  1
