# generated using pymatgen
data_NaAlAsO4F
_symmetry_space_group_name_H-M   'P 1'
_cell_length_a   5.45665338
_cell_length_b   5.45665338
_cell_length_c   7.14089424
_cell_angle_alpha   105.47409362
_cell_angle_beta   105.47409361
_cell_angle_gamma   104.34096051
_symmetry_Int_Tables_number   1
_chemical_formula_structural   NaAlAsO4F
_chemical_formula_sum   'Na2 Al2 As2 O8 F2'
_cell_volume   185.48247965
_cell_formula_units_Z   2
loop_
 _symmetry_equiv_pos_site_id
 _symmetry_equiv_pos_as_xyz
  1  'x, y, z'
loop_
 _atom_site_type_symbol
 _atom_site_label
 _atom_site_symmetry_multiplicity
 _atom_site_fract_x
 _atom_site_fract_y
 _atom_site_fract_z
 _atom_site_occupancy
  O  O0  1  0.10068552  0.69635860  0.39007088  1
  O  O1  1  0.30364140  0.89931448  0.10992912  1
  O  O2  1  0.89931448  0.30364140  0.60992912  1
  O  O3  1  0.69635860  0.10068552  0.89007088  1
  O  O4  1  0.36266134  0.23683523  0.58579078  1
  O  O5  1  0.63733866  0.76316477  0.41420922  1
  O  O6  1  0.76316477  0.63733866  0.91420922  1
  O  O7  1  0.23683523  0.36266134  0.08579078  1
  F  F8  1  0.06516215  0.93483785  0.75000000  1
  F  F9  1  0.93483785  0.06516215  0.25000000  1
  Na  Na10  1  0.32857764  0.67142236  0.75000000  1
  Na  Na11  1  0.67142236  0.32857764  0.25000000  1
  Al  Al12  1  0.00000000  0.00000000  0.00000000  1
  Al  Al13  1  0.00000000  0.00000000  0.50000000  1
  As  As14  1  0.31351584  0.68648416  0.25000000  1
  As  As15  1  0.68648416  0.31351584  0.75000000  1
