# generated using pymatgen
data_Rb2WS4
_symmetry_space_group_name_H-M   'P 1'
_cell_length_a   7.18286451
_cell_length_b   9.95350187
_cell_length_c   12.79735313
_cell_angle_alpha   90.00000000
_cell_angle_beta   90.00000000
_cell_angle_gamma   90.00000000
_symmetry_Int_Tables_number   1
_chemical_formula_structural   Rb2WS4
_chemical_formula_sum   'Rb8 W4 S16'
_cell_volume   914.94235119
_cell_formula_units_Z   4
loop_
 _symmetry_equiv_pos_site_id
 _symmetry_equiv_pos_as_xyz
  1  'x, y, z'
loop_
 _atom_site_type_symbol
 _atom_site_label
 _atom_site_symmetry_multiplicity
 _atom_site_fract_x
 _atom_site_fract_y
 _atom_site_fract_z
 _atom_site_occupancy
  S  S0  1  0.25000000  0.52759113  0.89515670  1
  S  S1  1  0.75000000  0.47240887  0.10484330  1
  S  S2  1  0.25000000  0.02759113  0.60484330  1
  S  S3  1  0.75000000  0.97240887  0.39515670  1
  S  S4  1  0.99897684  0.16032579  0.14031589  1
  S  S5  1  0.49897684  0.83967421  0.85968411  1
  S  S6  1  0.50102316  0.66032579  0.35968411  1
  S  S7  1  0.00102316  0.33967421  0.64031589  1
  S  S8  1  0.00102316  0.83967421  0.85968411  1
  S  S9  1  0.50102316  0.16032579  0.14031589  1
  S  S10  1  0.49897684  0.33967421  0.64031589  1
  S  S11  1  0.99897684  0.66032579  0.35968411  1
  S  S12  1  0.75000000  0.71692308  0.59927928  1
  S  S13  1  0.25000000  0.28307692  0.40072072  1
  S  S14  1  0.75000000  0.21692308  0.90072072  1
  S  S15  1  0.25000000  0.78307692  0.09927928  1
  Rb  Rb16  1  0.25000000  0.15467371  0.89434319  1
  Rb  Rb17  1  0.75000000  0.84532629  0.10565681  1
  Rb  Rb18  1  0.25000000  0.65467371  0.60565681  1
  Rb  Rb19  1  0.75000000  0.34532629  0.39434319  1
  Rb  Rb20  1  0.25000000  0.96048000  0.33203062  1
  Rb  Rb21  1  0.75000000  0.03952000  0.66796938  1
  Rb  Rb22  1  0.25000000  0.46048000  0.16796938  1
  Rb  Rb23  1  0.75000000  0.53952000  0.83203062  1
  W  W24  1  0.25000000  0.74587751  0.92894949  1
  W  W25  1  0.75000000  0.25412249  0.07105051  1
  W  W26  1  0.25000000  0.24587751  0.57105051  1
  W  W27  1  0.75000000  0.75412249  0.42894949  1
