# generated using pymatgen
data_Ba6V4S11O5
_symmetry_space_group_name_H-M   'P 1'
_cell_length_a   7.68888516
_cell_length_b   14.07960328
_cell_length_c   23.61650173
_cell_angle_alpha   90.00000000
_cell_angle_beta   90.00000000
_cell_angle_gamma   90.00000000
_symmetry_Int_Tables_number   1
_chemical_formula_structural   Ba6V4S11O5
_chemical_formula_sum   'Ba24 V16 S44 O20'
_cell_volume   2556.63870290
_cell_formula_units_Z   4
loop_
 _symmetry_equiv_pos_site_id
 _symmetry_equiv_pos_as_xyz
  1  'x, y, z'
loop_
 _atom_site_type_symbol
 _atom_site_label
 _atom_site_symmetry_multiplicity
 _atom_site_fract_x
 _atom_site_fract_y
 _atom_site_fract_z
 _atom_site_occupancy
  Ba  Ba0  1  0.78710969  0.25000000  0.84948271  1
  Ba  Ba1  1  0.29040131  0.98323832  0.92632542  1
  Ba  Ba2  1  0.42074219  0.41964599  0.72439250  1
  Ba  Ba3  1  0.92074219  0.91964599  0.77560750  1
  Ba  Ba4  1  0.28710969  0.75000000  0.65051729  1
  Ba  Ba5  1  0.70959869  0.48323832  0.07367458  1
  Ba  Ba6  1  0.20959869  0.51676168  0.42632542  1
  Ba  Ba7  1  0.29040131  0.51676168  0.92632542  1
  Ba  Ba8  1  0.07925781  0.08035401  0.22439250  1
  Ba  Ba9  1  0.70959869  0.01676168  0.07367458  1
  Ba  Ba10  1  0.18852369  0.25000000  0.04249293  1
  Ba  Ba11  1  0.57925781  0.58035401  0.27560750  1
  Ba  Ba12  1  0.79040131  0.48323832  0.57367458  1
  Ba  Ba13  1  0.21289031  0.75000000  0.15051729  1
  Ba  Ba14  1  0.68852369  0.75000000  0.45750707  1
  Ba  Ba15  1  0.81147631  0.75000000  0.95750707  1
  Ba  Ba16  1  0.31147631  0.25000000  0.54249293  1
  Ba  Ba17  1  0.42074219  0.08035401  0.72439250  1
  Ba  Ba18  1  0.57925781  0.91964599  0.27560750  1
  Ba  Ba19  1  0.92074219  0.58035401  0.77560750  1
  Ba  Ba20  1  0.79040131  0.01676168  0.57367458  1
  Ba  Ba21  1  0.07925781  0.41964599  0.22439250  1
  Ba  Ba22  1  0.20959869  0.98323832  0.42632542  1
  Ba  Ba23  1  0.71289031  0.25000000  0.34948271  1
  V  V24  1  0.20032306  0.25000000  0.33809360  1
  V  V25  1  0.70517615  0.99448522  0.41957013  1
  V  V26  1  0.79967694  0.75000000  0.66190640  1
  V  V27  1  0.08355770  0.75000000  0.33391049  1
  V  V28  1  0.29482385  0.00551478  0.58042987  1
  V  V29  1  0.41644230  0.75000000  0.83391049  1
  V  V30  1  0.29482385  0.49448522  0.58042987  1
  V  V31  1  0.79482385  0.99448522  0.91957013  1
  V  V32  1  0.20517615  0.00551478  0.08042987  1
  V  V33  1  0.70517615  0.50551478  0.41957013  1
  V  V34  1  0.29967694  0.25000000  0.83809360  1
  V  V35  1  0.91644230  0.25000000  0.66608951  1
  V  V36  1  0.79482385  0.50551478  0.91957013  1
  V  V37  1  0.70032306  0.75000000  0.16190640  1
  V  V38  1  0.58355770  0.25000000  0.16608951  1
  V  V39  1  0.20517615  0.49448522  0.08042987  1
  S  S40  1  0.30156015  0.25000000  0.17159728  1
  S  S41  1  0.13805314  0.53876390  0.65367237  1
  S  S42  1  0.13805314  0.96123610  0.65367237  1
  S  S43  1  0.41157731  0.88301645  0.53838486  1
  S  S44  1  0.19843985  0.25000000  0.67159728  1
  S  S45  1  0.90689785  0.75000000  0.57711181  1
  S  S46  1  0.18213750  0.62322555  0.29289514  1
  S  S47  1  0.84833965  0.25000000  0.57737599  1
  S  S48  1  0.85705245  0.62228430  0.17643708  1
  S  S49  1  0.08842269  0.88301645  0.03838486  1
  S  S50  1  0.36194686  0.96123610  0.15367237  1
  S  S51  1  0.68213750  0.12322555  0.20710486  1
  S  S52  1  0.58842269  0.38301645  0.46161514  1
  S  S53  1  0.64294755  0.62228430  0.67643708  1
  S  S54  1  0.86194686  0.03876390  0.34632763  1
  S  S55  1  0.35705245  0.37771570  0.32356292  1
  S  S56  1  0.14294755  0.37771570  0.82356292  1
  S  S57  1  0.91157731  0.11698355  0.96161514  1
  S  S58  1  0.34833965  0.75000000  0.92262401  1
  S  S59  1  0.59310215  0.75000000  0.07711181  1
  S  S60  1  0.86194686  0.46123610  0.34632763  1
  S  S61  1  0.58842269  0.11698355  0.46161514  1
  S  S62  1  0.68213750  0.37677445  0.20710486  1
  S  S63  1  0.81786250  0.12322555  0.70710486  1
  S  S64  1  0.63805314  0.03876390  0.84632763  1
  S  S65  1  0.14294755  0.12228430  0.82356292  1
  S  S66  1  0.31786250  0.87677445  0.79289514  1
  S  S67  1  0.18213750  0.87677445  0.29289514  1
  S  S68  1  0.08842269  0.61698355  0.03838486  1
  S  S69  1  0.65166035  0.25000000  0.07737599  1
  S  S70  1  0.81786250  0.37677445  0.70710486  1
  S  S71  1  0.91157731  0.38301645  0.96161514  1
  S  S72  1  0.40689785  0.25000000  0.92288819  1
  S  S73  1  0.80156015  0.75000000  0.32840272  1
  S  S74  1  0.63805314  0.46123610  0.84632763  1
  S  S75  1  0.35705245  0.12228430  0.32356292  1
  S  S76  1  0.15166035  0.75000000  0.42262401  1
  S  S77  1  0.09310215  0.25000000  0.42288819  1
  S  S78  1  0.85705245  0.87771570  0.17643708  1
  S  S79  1  0.41157731  0.61698355  0.53838486  1
  S  S80  1  0.64294755  0.87771570  0.67643708  1
  S  S81  1  0.31786250  0.62322555  0.79289514  1
  S  S82  1  0.36194686  0.53876390  0.15367237  1
  S  S83  1  0.69843985  0.75000000  0.82840272  1
  O  O84  1  0.45310250  0.41723277  0.60378585  1
  O  O85  1  0.16172291  0.43613583  0.53316017  1
  O  O86  1  0.04689750  0.08276723  0.10378585  1
  O  O87  1  0.95310250  0.91723277  0.89621415  1
  O  O88  1  0.53199068  0.75000000  0.20980896  1
  O  O89  1  0.66172291  0.56386417  0.96683983  1
  O  O90  1  0.83827709  0.56386417  0.46683983  1
  O  O91  1  0.16172291  0.06386417  0.53316017  1
  O  O92  1  0.33827709  0.06386417  0.03316017  1
  O  O93  1  0.45310250  0.08276723  0.60378585  1
  O  O94  1  0.33827709  0.43613583  0.03316017  1
  O  O95  1  0.54689750  0.58276723  0.39621415  1
  O  O96  1  0.95310250  0.58276723  0.89621415  1
  O  O97  1  0.03199068  0.25000000  0.29019104  1
  O  O98  1  0.04689750  0.41723277  0.10378585  1
  O  O99  1  0.66172291  0.93613583  0.96683983  1
  O  O100  1  0.96800932  0.75000000  0.70980896  1
  O  O101  1  0.54689750  0.91723277  0.39621415  1
  O  O102  1  0.83827709  0.93613583  0.46683983  1
  O  O103  1  0.46800932  0.25000000  0.79019104  1
