# generated using pymatgen
data_Mn3As(HO2)4
_symmetry_space_group_name_H-M   'P 1'
_cell_length_a   9.62566504
_cell_length_b   13.34383481
_cell_length_c   5.43925902
_cell_angle_alpha   90.00000000
_cell_angle_beta   90.00000000
_cell_angle_gamma   90.00000000
_symmetry_Int_Tables_number   1
_chemical_formula_structural   Mn3As(HO2)4
_chemical_formula_sum   'Mn12 As4 H16 O32'
_cell_volume   698.63629231
_cell_formula_units_Z   4
loop_
 _symmetry_equiv_pos_site_id
 _symmetry_equiv_pos_as_xyz
  1  'x, y, z'
loop_
 _atom_site_type_symbol
 _atom_site_label
 _atom_site_symmetry_multiplicity
 _atom_site_fract_x
 _atom_site_fract_y
 _atom_site_fract_z
 _atom_site_occupancy
  Mn  Mn0  1  0.02191447  0.12970695  0.48328204  1
  Mn  Mn1  1  0.02191447  0.37029305  0.48328204  1
  Mn  Mn2  1  0.47808553  0.62970695  0.98328204  1
  Mn  Mn3  1  0.47808553  0.87029305  0.98328204  1
  Mn  Mn4  1  0.52191447  0.12970695  0.01671796  1
  Mn  Mn5  1  0.52191447  0.37029305  0.01671796  1
  Mn  Mn6  1  0.97808553  0.87029305  0.51671796  1
  Mn  Mn7  1  0.97808553  0.62970695  0.51671796  1
  Mn  Mn8  1  0.00000000  0.00000000  0.00000000  1
  Mn  Mn9  1  0.00000000  0.50000000  0.00000000  1
  Mn  Mn10  1  0.50000000  0.50000000  0.50000000  1
  Mn  Mn11  1  0.50000000  0.00000000  0.50000000  1
  As  As12  1  0.15191447  0.75000000  0.02543992  1
  As  As13  1  0.34808553  0.25000000  0.52543992  1
  As  As14  1  0.65191447  0.75000000  0.47456008  1
  As  As15  1  0.84808553  0.25000000  0.97456008  1
  H  H16  1  0.17150976  0.13517631  0.04671445  1
  H  H17  1  0.17150976  0.36482369  0.04671445  1
  H  H18  1  0.20064789  0.52253531  0.69341397  1
  H  H19  1  0.20064789  0.97746469  0.69341397  1
  H  H20  1  0.29935211  0.02253531  0.19341397  1
  H  H21  1  0.29935211  0.47746469  0.19341397  1
  H  H22  1  0.32849024  0.63517631  0.54671445  1
  H  H23  1  0.32849024  0.86482369  0.54671445  1
  H  H24  1  0.67150976  0.13517631  0.45328555  1
  H  H25  1  0.67150976  0.36482369  0.45328555  1
  H  H26  1  0.70064789  0.52253531  0.80658603  1
  H  H27  1  0.70064789  0.97746469  0.80658603  1
  H  H28  1  0.79935211  0.02253531  0.30658603  1
  H  H29  1  0.79935211  0.47746469  0.30658603  1
  H  H30  1  0.82849024  0.86482369  0.95328555  1
  H  H31  1  0.82849024  0.63517631  0.95328555  1
  O  O32  1  0.09079007  0.64407205  0.17271127  1
  O  O33  1  0.09079007  0.85592795  0.17271127  1
  O  O34  1  0.09918884  0.50521535  0.68638603  1
  O  O35  1  0.09918884  0.99478465  0.68638603  1
  O  O36  1  0.09983799  0.75000000  0.71970729  1
  O  O37  1  0.14379954  0.08158968  0.15883169  1
  O  O38  1  0.14379954  0.41841032  0.15883169  1
  O  O39  1  0.16831421  0.25000000  0.55462549  1
  O  O40  1  0.33168579  0.75000000  0.05462549  1
  O  O41  1  0.35620046  0.58158968  0.65883169  1
  O  O42  1  0.35620046  0.91841032  0.65883169  1
  O  O43  1  0.40016201  0.25000000  0.21970729  1
  O  O44  1  0.40081116  0.00521535  0.18638603  1
  O  O45  1  0.40081116  0.49478465  0.18638603  1
  O  O46  1  0.40920993  0.14407205  0.67271127  1
  O  O47  1  0.40920993  0.35592795  0.67271127  1
  O  O48  1  0.59079007  0.85592795  0.32728873  1
  O  O49  1  0.59079007  0.64407205  0.32728873  1
  O  O50  1  0.59918884  0.50521535  0.81361397  1
  O  O51  1  0.59918884  0.99478465  0.81361397  1
  O  O52  1  0.59983799  0.75000000  0.78029271  1
  O  O53  1  0.64379954  0.08158968  0.34116831  1
  O  O54  1  0.64379954  0.41841032  0.34116831  1
  O  O55  1  0.66831421  0.25000000  0.94537451  1
  O  O56  1  0.83168579  0.75000000  0.44537451  1
  O  O57  1  0.85620046  0.58158968  0.84116831  1
  O  O58  1  0.85620046  0.91841032  0.84116831  1
  O  O59  1  0.90016201  0.25000000  0.28029271  1
  O  O60  1  0.90081116  0.00521535  0.31361397  1
  O  O61  1  0.90081116  0.49478465  0.31361397  1
  O  O62  1  0.90920993  0.14407205  0.82728873  1
  O  O63  1  0.90920993  0.35592795  0.82728873  1
