# generated using pymatgen
data_CsGa3S5
_symmetry_space_group_name_H-M   'P 1'
_cell_length_a   7.06610457
_cell_length_b   10.95900407
_cell_length_c   12.95880959
_cell_angle_alpha   90.00000000
_cell_angle_beta   90.00000000
_cell_angle_gamma   91.29805818
_symmetry_Int_Tables_number   1
_chemical_formula_structural   CsGa3S5
_chemical_formula_sum   'Cs4 Ga12 S20'
_cell_volume   1003.23989279
_cell_formula_units_Z   4
loop_
 _symmetry_equiv_pos_site_id
 _symmetry_equiv_pos_as_xyz
  1  'x, y, z'
loop_
 _atom_site_type_symbol
 _atom_site_label
 _atom_site_symmetry_multiplicity
 _atom_site_fract_x
 _atom_site_fract_y
 _atom_site_fract_z
 _atom_site_occupancy
  Cs  Cs0  1  0.13495772  0.35883562  0.58317410  1
  Cs  Cs1  1  0.63495772  0.35883562  0.91682590  1
  Cs  Cs2  1  0.36504228  0.64116438  0.08317410  1
  Cs  Cs3  1  0.86504228  0.64116438  0.41682590  1
  Ga  Ga4  1  0.01691728  0.32806514  0.19992094  1
  Ga  Ga5  1  0.98308272  0.67193486  0.80007906  1
  Ga  Ga6  1  0.48308272  0.67193486  0.69992094  1
  Ga  Ga7  1  0.60344617  0.12849060  0.53734797  1
  Ga  Ga8  1  0.51691728  0.32806514  0.30007906  1
  Ga  Ga9  1  0.73570209  0.01525805  0.27459680  1
  Ga  Ga10  1  0.89655383  0.87150940  0.03734797  1
  Ga  Ga11  1  0.10344617  0.12849060  0.96265203  1
  Ga  Ga12  1  0.23570209  0.01525805  0.22540320  1
  Ga  Ga13  1  0.26429791  0.98474195  0.72540320  1
  Ga  Ga14  1  0.39655383  0.87150940  0.46265203  1
  Ga  Ga15  1  0.76429791  0.98474195  0.77459680  1
  S  S16  1  0.99589745  0.86089052  0.70988878  1
  S  S17  1  0.70751227  0.95584692  0.44694574  1
  S  S18  1  0.00410255  0.13910948  0.29011122  1
  S  S19  1  0.26184525  0.56852842  0.79810916  1
  S  S20  1  0.23815475  0.43147158  0.29810916  1
  S  S21  1  0.76184525  0.56852842  0.70189084  1
  S  S22  1  0.50410255  0.13910948  0.20988878  1
  S  S23  1  0.49589745  0.86089052  0.79011122  1
  S  S24  1  0.12507235  0.31506768  0.03392700  1
  S  S25  1  0.62507235  0.31506768  0.46607300  1
  S  S26  1  0.87492765  0.68493232  0.96607300  1
  S  S27  1  0.29248773  0.04415308  0.55305426  1
  S  S28  1  0.20751227  0.95584692  0.05305426  1
  S  S29  1  0.79248773  0.04415308  0.94694574  1
  S  S30  1  0.73815475  0.43147158  0.20189084  1
  S  S31  1  0.74687178  0.83829090  0.18878443  1
  S  S32  1  0.24687178  0.83829090  0.31121557  1
  S  S33  1  0.75312822  0.16170910  0.68878443  1
  S  S34  1  0.25312822  0.16170910  0.81121557  1
  S  S35  1  0.37492765  0.68493232  0.53392700  1
