# generated using pymatgen
data_KNaGdTaO5
_symmetry_space_group_name_H-M   'P 1'
_cell_length_a   5.72299318
_cell_length_b   5.72299318
_cell_length_c   8.30706944
_cell_angle_alpha   90.00000000
_cell_angle_beta   90.00000000
_cell_angle_gamma   90.00000000
_symmetry_Int_Tables_number   1
_chemical_formula_structural   KNaGdTaO5
_chemical_formula_sum   'K2 Na2 Gd2 Ta2 O10'
_cell_volume   272.07854569
_cell_formula_units_Z   2
loop_
 _symmetry_equiv_pos_site_id
 _symmetry_equiv_pos_as_xyz
  1  'x, y, z'
loop_
 _atom_site_type_symbol
 _atom_site_label
 _atom_site_symmetry_multiplicity
 _atom_site_fract_x
 _atom_site_fract_y
 _atom_site_fract_z
 _atom_site_occupancy
  K  K0  1  0.75000000  0.25000100  0.00000000  1
  K  K1  1  0.25000100  0.75000000  0.00000000  1
  Na  Na2  1  0.75000000  0.75000000  0.24093289  1
  Na  Na3  1  0.25000100  0.25000100  0.75906711  1
  Gd  Gd4  1  0.75000000  0.25000100  0.50000000  1
  Gd  Gd5  1  0.25000100  0.75000000  0.50000000  1
  Ta  Ta6  1  0.25000100  0.25000100  0.26076220  1
  Ta  Ta7  1  0.75000000  0.75000000  0.73923880  1
  O  O8  1  0.25000100  0.25000100  0.03679905  1
  O  O9  1  0.01822752  0.01822752  0.33292017  1
  O  O10  1  0.48177248  0.01822752  0.33292017  1
  O  O11  1  0.01822752  0.48177248  0.33292017  1
  O  O12  1  0.48177248  0.48177248  0.33292017  1
  O  O13  1  0.51822652  0.51822652  0.66707983  1
  O  O14  1  0.98177248  0.51822652  0.66707983  1
  O  O15  1  0.51822652  0.98177248  0.66707983  1
  O  O16  1  0.98177248  0.98177248  0.66707983  1
  O  O17  1  0.75000000  0.75000000  0.96320095  1
