# generated using pymatgen
data_Ge7H8N2O15
_symmetry_space_group_name_H-M   'P 1'
_cell_length_a   7.36824482
_cell_length_b   7.56625027
_cell_length_c   15.42241580
_cell_angle_alpha   77.96549726
_cell_angle_beta   90.00000000
_cell_angle_gamma   60.86197126
_symmetry_Int_Tables_number   1
_chemical_formula_structural   Ge7H8N2O15
_chemical_formula_sum   'Ge14 H16 N4 O30'
_cell_volume   729.28076766
_cell_formula_units_Z   2
loop_
 _symmetry_equiv_pos_site_id
 _symmetry_equiv_pos_as_xyz
  1  'x, y, z'
loop_
 _atom_site_type_symbol
 _atom_site_label
 _atom_site_symmetry_multiplicity
 _atom_site_fract_x
 _atom_site_fract_y
 _atom_site_fract_z
 _atom_site_occupancy
  Ge  Ge0  1  0.43793984  0.91215782  0.85285310  1
  Ge  Ge1  1  0.64990234  0.91215782  0.35285310  1
  Ge  Ge2  1  0.63426332  0.63200159  0.62406227  1
  Ge  Ge3  1  0.78323162  0.48222196  0.83661293  1
  Ge  Ge4  1  0.26545258  0.51777804  0.66338707  1
  Ge  Ge5  1  0.26626492  0.36799841  0.87593773  1
  Ge  Ge6  1  0.00000000  0.50000000  0.50000000  1
  Ge  Ge7  1  0.73373508  0.63200159  0.12406227  1
  Ge  Ge8  1  0.73454742  0.48222196  0.33661293  1
  Ge  Ge9  1  0.21676838  0.51777804  0.16338707  1
  Ge  Ge10  1  0.36573668  0.36799841  0.37593773  1
  Ge  Ge11  1  0.50000000  0.50000000  0.00000000  1
  Ge  Ge12  1  0.35009766  0.08784218  0.64714690  1
  Ge  Ge13  1  0.56206016  0.08784218  0.14714690  1
  H  H14  1  0.07061909  0.87631241  0.91106221  1
  H  H15  1  0.84819769  0.87588293  0.87508975  1
  H  H16  1  0.93984508  0.79848897  0.98293157  1
  H  H17  1  0.87563535  0.94603830  0.56929472  1
  H  H18  1  0.05306849  0.87631241  0.41106221  1
  H  H19  1  0.27591938  0.87588293  0.37508975  1
  H  H20  1  0.26166495  0.79848897  0.48293157  1
  H  H21  1  0.17832635  0.94603830  0.06929472  1
  H  H22  1  0.82167365  0.05396170  0.93070528  1
  H  H23  1  0.73833505  0.20151103  0.51706843  1
  H  H24  1  0.72408062  0.12411707  0.62491025  1
  H  H25  1  0.94693151  0.12368759  0.58893779  1
  H  H26  1  0.12436465  0.05396170  0.43070528  1
  H  H27  1  0.06015492  0.20151103  0.01706843  1
  H  H28  1  0.15180231  0.12411707  0.12491025  1
  H  H29  1  0.92938091  0.12368759  0.08893779  1
  N  N30  1  0.91980866  0.90400700  0.92380822  1
  N  N31  1  0.17618434  0.90400700  0.42380822  1
  N  N32  1  0.82381566  0.09599300  0.57619178  1
  N  N33  1  0.08019134  0.09599300  0.07619178  1
  O  O34  1  0.33999162  0.79009579  0.93127206  1
  O  O35  1  0.58214939  0.89008871  0.61752801  1
  O  O36  1  0.70270167  0.74849681  0.83261538  1
  O  O37  1  0.86991259  0.79009579  0.43127206  1
  O  O38  1  0.36792434  0.67954867  0.61433400  1
  O  O39  1  0.27364441  0.46393189  0.96837144  1
  O  O40  1  0.21499482  0.55207664  0.77325669  1
  O  O41  1  0.52776189  0.89008871  0.11752801  1
  O  O42  1  0.02774925  0.60352894  0.60026862  1
  O  O43  1  0.54880151  0.74849681  0.33261538  1
  O  O44  1  0.63127819  0.39647106  0.89973138  1
  O  O45  1  0.76707146  0.44792336  0.72674331  1
  O  O46  1  0.73757630  0.53606811  0.53162856  1
  O  O47  1  0.04747301  0.32045133  0.88566600  1
  O  O48  1  0.95252699  0.67954867  0.11433400  1
  O  O49  1  0.26242370  0.46393189  0.46837144  1
  O  O50  1  0.23292854  0.55207664  0.27325669  1
  O  O51  1  0.36872181  0.60352894  0.10026862  1
  O  O52  1  0.45119849  0.25150319  0.66738462  1
  O  O53  1  0.97225075  0.39647106  0.39973138  1
  O  O54  1  0.47223811  0.10991129  0.88247199  1
  O  O55  1  0.78500518  0.44792336  0.22674331  1
  O  O56  1  0.72635559  0.53606811  0.03162856  1
  O  O57  1  0.63207566  0.32045133  0.38566600  1
  O  O58  1  0.13008741  0.20990421  0.56872794  1
  O  O59  1  0.27622336  0.00000000  0.75000000  1
  O  O60  1  0.29729833  0.25150319  0.16738462  1
  O  O61  1  0.41785061  0.10991129  0.38247199  1
  O  O62  1  0.66000838  0.20990421  0.06872794  1
  O  O63  1  0.72377664  0.00000000  0.25000000  1
