# generated using pymatgen
data_TaTl2AgS4
_symmetry_space_group_name_H-M   'P 1'
_cell_length_a   8.12681757
_cell_length_b   10.29554431
_cell_length_c   10.62038951
_cell_angle_alpha   90.00000000
_cell_angle_beta   90.00000000
_cell_angle_gamma   90.99868057
_symmetry_Int_Tables_number   1
_chemical_formula_structural   TaTl2AgS4
_chemical_formula_sum   'Ta4 Tl8 Ag4 S16'
_cell_volume   888.47311821
_cell_formula_units_Z   4
loop_
 _symmetry_equiv_pos_site_id
 _symmetry_equiv_pos_as_xyz
  1  'x, y, z'
loop_
 _atom_site_type_symbol
 _atom_site_label
 _atom_site_symmetry_multiplicity
 _atom_site_fract_x
 _atom_site_fract_y
 _atom_site_fract_z
 _atom_site_occupancy
  Ta  Ta0  1  0.62297565  0.54655249  0.72569169  1
  Ta  Ta1  1  0.87702435  0.95344751  0.22569169  1
  Ta  Ta2  1  0.12297565  0.04655249  0.77430831  1
  Ta  Ta3  1  0.37702435  0.45344751  0.27430831  1
  Tl  Tl4  1  0.10604679  0.50262666  0.77091824  1
  Tl  Tl5  1  0.61392175  0.27445737  0.99473137  1
  Tl  Tl6  1  0.38607825  0.72554263  0.00526863  1
  Tl  Tl7  1  0.89395321  0.49737334  0.22908176  1
  Tl  Tl8  1  0.11392175  0.77445737  0.50526863  1
  Tl  Tl9  1  0.88607825  0.22554263  0.49473137  1
  Tl  Tl10  1  0.60604679  0.00262666  0.72908176  1
  Tl  Tl11  1  0.39395321  0.99737334  0.27091824  1
  Ag  Ag12  1  0.62301170  0.71197779  0.48786342  1
  Ag  Ag13  1  0.37698830  0.28802221  0.51213658  1
  Ag  Ag14  1  0.87698830  0.78802221  0.98786342  1
  Ag  Ag15  1  0.12301170  0.21197779  0.01213658  1
  S  S16  1  0.97574111  0.85580053  0.76533331  1
  S  S17  1  0.75098549  0.56494203  0.91857469  1
  S  S18  1  0.52425889  0.64419947  0.26533331  1
  S  S19  1  0.55611939  0.28543033  0.31041498  1
  S  S20  1  0.74901451  0.93505797  0.41857469  1
  S  S21  1  0.31872884  0.03410300  0.92922676  1
  S  S22  1  0.18127116  0.46589700  0.42922676  1
  S  S23  1  0.02425889  0.14419947  0.23466669  1
  S  S24  1  0.25098549  0.06494203  0.58142531  1
  S  S25  1  0.05611939  0.78543033  0.18958502  1
  S  S26  1  0.94388061  0.21456967  0.81041498  1
  S  S27  1  0.24901451  0.43505797  0.08142531  1
  S  S28  1  0.44388061  0.71456967  0.68958502  1
  S  S29  1  0.47574111  0.35580053  0.73466669  1
  S  S30  1  0.68127116  0.96589700  0.07077324  1
  S  S31  1  0.81872884  0.53410300  0.57077324  1
