# generated using pymatgen
data_Pr(Al2Cu)4
_symmetry_space_group_name_H-M   'P 1'
_cell_length_a   5.20189024
_cell_length_b   6.81688381
_cell_length_c   6.81688381
_cell_angle_alpha   98.37065124
_cell_angle_beta   67.57060919
_cell_angle_gamma   112.42939081
_symmetry_Int_Tables_number   1
_chemical_formula_structural   Pr(Al2Cu)4
_chemical_formula_sum   'Pr1 Al8 Cu4'
_cell_volume   206.54099675
_cell_formula_units_Z   1
loop_
 _symmetry_equiv_pos_site_id
 _symmetry_equiv_pos_as_xyz
  1  'x, y, z'
loop_
 _atom_site_type_symbol
 _atom_site_label
 _atom_site_symmetry_multiplicity
 _atom_site_fract_x
 _atom_site_fract_y
 _atom_site_fract_z
 _atom_site_occupancy
  Pr  Pr0  1  0.00000000  0.00000000  0.00000000  1
  Al  Al1  1  0.50000000  0.22181086  0.22181086  1
  Al  Al2  1  0.27818814  0.77818814  0.22181186  1
  Al  Al3  1  0.00000000  0.34924864  0.34924864  1
  Al  Al4  1  0.65075136  0.65075236  0.34924864  1
  Al  Al5  1  0.00000000  0.65075136  0.65075136  1
  Al  Al6  1  0.34924764  0.34924864  0.65075236  1
  Al  Al7  1  0.50000000  0.77818814  0.77818814  1
  Al  Al8  1  0.72181086  0.22181186  0.77818814  1
  Cu  Cu9  1  0.00000000  0.50000000  0.00000000  1
  Cu  Cu10  1  0.50000000  0.50000000  0.00000000  1
  Cu  Cu11  1  0.99999900  0.00000000  0.50000000  1
  Cu  Cu12  1  0.49999900  0.00000000  0.50000000  1
