# generated using pymatgen
data_SnH6(NF2)2
_symmetry_space_group_name_H-M   'P 1'
_cell_length_a   7.96300290
_cell_length_b   6.38352953
_cell_length_c   5.24624253
_cell_angle_alpha   90.00000000
_cell_angle_beta   103.36398013
_cell_angle_gamma   90.00000000
_symmetry_Int_Tables_number   1
_chemical_formula_structural   SnH6(NF2)2
_chemical_formula_sum   'Sn2 H12 N4 F8'
_cell_volume   259.45608191
_cell_formula_units_Z   2
loop_
 _symmetry_equiv_pos_site_id
 _symmetry_equiv_pos_as_xyz
  1  'x, y, z'
loop_
 _atom_site_type_symbol
 _atom_site_label
 _atom_site_symmetry_multiplicity
 _atom_site_fract_x
 _atom_site_fract_y
 _atom_site_fract_z
 _atom_site_occupancy
  Sn  Sn0  1  0.50000000  0.50000000  0.50000000  1
  Sn  Sn1  1  0.00000000  0.00000000  0.00000000  1
  H  H2  1  0.57175081  0.73517915  0.11033158  1
  H  H3  1  0.07175081  0.76482085  0.61033158  1
  H  H4  1  0.42824919  0.26482085  0.88966842  1
  H  H5  1  0.92824919  0.23517915  0.38966842  1
  H  H6  1  0.45504141  0.87707025  0.27101605  1
  H  H7  1  0.95504141  0.62292975  0.77101605  1
  H  H8  1  0.54495859  0.12292975  0.72898395  1
  H  H9  1  0.04495859  0.37707025  0.22898395  1
  H  H10  1  0.66877212  0.84914638  0.39683934  1
  H  H11  1  0.16877212  0.65085362  0.89683934  1
  H  H12  1  0.33122788  0.15085362  0.60316066  1
  H  H13  1  0.83122788  0.34914638  0.10316066  1
  N  N14  1  0.55850000  0.77593517  0.29509748  1
  N  N15  1  0.05850000  0.72406483  0.79509748  1
  N  N16  1  0.44150000  0.22406483  0.70490252  1
  N  N17  1  0.94150000  0.27593517  0.20490252  1
  F  F18  1  0.57568800  0.31268278  0.23884432  1
  F  F19  1  0.07568800  0.18731722  0.73884432  1
  F  F20  1  0.42431200  0.68731722  0.76115568  1
  F  F21  1  0.92431200  0.81268278  0.26115568  1
  F  F22  1  0.25901096  0.50130793  0.26757522  1
  F  F23  1  0.75901096  0.99869207  0.76757522  1
  F  F24  1  0.74098904  0.49869207  0.73242478  1
  F  F25  1  0.24098904  0.00130793  0.23242478  1
