# generated using pymatgen
data_VAgSeO5
_symmetry_space_group_name_H-M   'P 1'
_cell_length_a   4.34565378
_cell_length_b   5.28927077
_cell_length_c   20.28161583
_cell_angle_alpha   90.00000000
_cell_angle_beta   90.00000000
_cell_angle_gamma   90.00000000
_symmetry_Int_Tables_number   1
_chemical_formula_structural   VAgSeO5
_chemical_formula_sum   'V4 Ag4 Se4 O20'
_cell_volume   466.17982577
_cell_formula_units_Z   4
loop_
 _symmetry_equiv_pos_site_id
 _symmetry_equiv_pos_as_xyz
  1  'x, y, z'
loop_
 _atom_site_type_symbol
 _atom_site_label
 _atom_site_symmetry_multiplicity
 _atom_site_fract_x
 _atom_site_fract_y
 _atom_site_fract_z
 _atom_site_occupancy
  V  V0  1  0.58392766  0.75000000  0.30842411  1
  V  V1  1  0.41607234  0.25000000  0.69157589  1
  V  V2  1  0.41607234  0.75000000  0.80842411  1
  V  V3  1  0.58392766  0.25000000  0.19157589  1
  Ag  Ag4  1  0.65619208  0.25000000  0.51468443  1
  Ag  Ag5  1  0.34380792  0.25000000  0.01468443  1
  Ag  Ag6  1  0.34380792  0.75000000  0.48531557  1
  Ag  Ag7  1  0.65619208  0.75000000  0.98531557  1
  Se  Se8  1  0.22842372  0.25000000  0.37843673  1
  Se  Se9  1  0.77157628  0.25000000  0.87843673  1
  Se  Se10  1  0.22842372  0.75000000  0.12156327  1
  Se  Se11  1  0.77157628  0.75000000  0.62156327  1
  O  O12  1  0.51196721  0.99389307  0.88171354  1
  O  O13  1  0.48803279  0.00610693  0.11828646  1
  O  O14  1  0.86094476  0.75000000  0.53939751  1
  O  O15  1  0.04095495  0.25000000  0.68631131  1
  O  O16  1  0.13905524  0.25000000  0.46060249  1
  O  O17  1  0.50631738  0.50000000  0.75000000  1
  O  O18  1  0.49368262  0.00000000  0.25000000  1
  O  O19  1  0.48803279  0.50610693  0.38171354  1
  O  O20  1  0.48803279  0.49389307  0.11828646  1
  O  O21  1  0.04095495  0.75000000  0.81368869  1
  O  O22  1  0.51196721  0.50610693  0.88171354  1
  O  O23  1  0.49368262  0.50000000  0.25000000  1
  O  O24  1  0.51196721  0.00610693  0.61828646  1
  O  O25  1  0.13905524  0.75000000  0.03939751  1
  O  O26  1  0.50631738  0.00000000  0.75000000  1
  O  O27  1  0.95904505  0.75000000  0.31368869  1
  O  O28  1  0.51196721  0.49389307  0.61828646  1
  O  O29  1  0.86094476  0.25000000  0.96060249  1
  O  O30  1  0.48803279  0.99389307  0.38171354  1
  O  O31  1  0.95904505  0.25000000  0.18631131  1
