# generated using pymatgen
data_CsCu2ICl2
_symmetry_space_group_name_H-M   'P 1'
_cell_length_a   5.55818212
_cell_length_b   7.76227321
_cell_length_c   8.83039707
_cell_angle_alpha   110.20336140
_cell_angle_beta   90.00000000
_cell_angle_gamma   90.00000000
_symmetry_Int_Tables_number   1
_chemical_formula_structural   CsCu2ICl2
_chemical_formula_sum   'Cs2 Cu4 I2 Cl4'
_cell_volume   357.53914991
_cell_formula_units_Z   2
loop_
 _symmetry_equiv_pos_site_id
 _symmetry_equiv_pos_as_xyz
  1  'x, y, z'
loop_
 _atom_site_type_symbol
 _atom_site_label
 _atom_site_symmetry_multiplicity
 _atom_site_fract_x
 _atom_site_fract_y
 _atom_site_fract_z
 _atom_site_occupancy
  Cs  Cs0  1  0.75000000  0.67196267  0.36586112  1
  Cs  Cs1  1  0.25000000  0.32803733  0.63413888  1
  Cu  Cu2  1  0.49586616  0.88567828  0.85321435  1
  Cu  Cu3  1  0.00413384  0.88567828  0.85321435  1
  Cu  Cu4  1  0.99586616  0.11432172  0.14678565  1
  Cu  Cu5  1  0.50413384  0.11432172  0.14678565  1
  I  I6  1  0.25000000  0.80553662  0.08167326  1
  I  I7  1  0.75000000  0.19446338  0.91832674  1
  Cl  Cl8  1  0.25000000  0.86878894  0.62795032  1
  Cl  Cl9  1  0.25000000  0.37588005  0.25327803  1
  Cl  Cl10  1  0.75000000  0.13121106  0.37204968  1
  Cl  Cl11  1  0.75000000  0.62411995  0.74672197  1
