# generated using pymatgen
data_K2SrCdSb2
_symmetry_space_group_name_H-M   'P 1'
_cell_length_a   4.99711917
_cell_length_b   9.97313906
_cell_length_c   8.32600616
_cell_angle_alpha   90.00000000
_cell_angle_beta   90.00000000
_cell_angle_gamma   90.00000000
_symmetry_Int_Tables_number   1
_chemical_formula_structural   K2SrCdSb2
_chemical_formula_sum   'K4 Sr2 Cd2 Sb4'
_cell_volume   414.94287244
_cell_formula_units_Z   2
loop_
 _symmetry_equiv_pos_site_id
 _symmetry_equiv_pos_as_xyz
  1  'x, y, z'
loop_
 _atom_site_type_symbol
 _atom_site_label
 _atom_site_symmetry_multiplicity
 _atom_site_fract_x
 _atom_site_fract_y
 _atom_site_fract_z
 _atom_site_occupancy
  K  K0  1  0.50000100  0.42226894  0.02486702  1
  K  K1  1  0.00000000  0.33757037  0.34092001  1
  K  K2  1  0.50000100  0.57773006  0.52486802  1
  K  K3  1  0.00000000  0.66242963  0.84092001  1
  Sr  Sr4  1  0.00000000  0.95409745  0.49606882  1
  Sr  Sr5  1  0.00000000  0.04590255  0.99606982  1
  Cd  Cd6  1  0.50000100  0.82443256  0.15180420  1
  Cd  Cd7  1  0.50000100  0.17556744  0.65180420  1
  Sb  Sb8  1  0.00000000  0.68490198  0.24943716  1
  Sb  Sb9  1  0.50000100  0.10957111  0.28242279  1
  Sb  Sb10  1  0.00000000  0.31509802  0.74943616  1
  Sb  Sb11  1  0.50000100  0.89042789  0.78242179  1
