# generated using pymatgen
data_BaBSbS4
_symmetry_space_group_name_H-M   'P 1'
_cell_length_a   9.95329059
_cell_length_b   6.26393904
_cell_length_c   11.89801657
_cell_angle_alpha   90.00000000
_cell_angle_beta   90.00000000
_cell_angle_gamma   90.00000000
_symmetry_Int_Tables_number   1
_chemical_formula_structural   BaBSbS4
_chemical_formula_sum   'Ba4 B4 Sb4 S16'
_cell_volume   741.80332496
_cell_formula_units_Z   4
loop_
 _symmetry_equiv_pos_site_id
 _symmetry_equiv_pos_as_xyz
  1  'x, y, z'
loop_
 _atom_site_type_symbol
 _atom_site_label
 _atom_site_symmetry_multiplicity
 _atom_site_fract_x
 _atom_site_fract_y
 _atom_site_fract_z
 _atom_site_occupancy
  Ba  Ba0  1  0.48398907  0.25000000  0.66695318  1
  Ba  Ba1  1  0.01601093  0.75000000  0.16695418  1
  Ba  Ba2  1  0.98398907  0.25000000  0.83304682  1
  Ba  Ba3  1  0.51601093  0.75000000  0.33304582  1
  B  B4  1  0.19218421  0.25000000  0.45051962  1
  B  B5  1  0.30781579  0.75000000  0.95052062  1
  B  B6  1  0.69218421  0.25000000  0.04948038  1
  B  B7  1  0.80781579  0.75000000  0.54948038  1
  Sb  Sb8  1  0.81013135  0.25000000  0.45967096  1
  Sb  Sb9  1  0.68986865  0.75000000  0.95967096  1
  Sb  Sb10  1  0.31013135  0.25000000  0.04032904  1
  Sb  Sb11  1  0.18986865  0.75000000  0.54033004  1
  S  S12  1  0.16985421  0.25000000  0.60009195  1
  S  S13  1  0.33014579  0.75000000  0.10009095  1
  S  S14  1  0.66985421  0.25000000  0.89990905  1
  S  S15  1  0.83014479  0.75000000  0.39990805  1
  S  S16  1  0.57527069  0.25000000  0.40860228  1
  S  S17  1  0.92473031  0.75000000  0.90860228  1
  S  S18  1  0.07527069  0.25000000  0.09139772  1
  S  S19  1  0.42473031  0.75000000  0.59139672  1
  S  S20  1  0.79216258  0.99756547  0.62835938  1
  S  S21  1  0.70783742  0.00243453  0.12835938  1
  S  S22  1  0.29216258  0.50243353  0.87164062  1
  S  S23  1  0.20783742  0.49756447  0.37164162  1
  S  S24  1  0.20783742  0.00243453  0.37164162  1
  S  S25  1  0.29216258  0.99756547  0.87164062  1
  S  S26  1  0.70783742  0.49756447  0.12835938  1
  S  S27  1  0.79216258  0.50243353  0.62835938  1
