# generated using pymatgen
data_NdCd2
_symmetry_space_group_name_H-M   'P 1'
_cell_length_a   5.11194105
_cell_length_b   5.11427168
_cell_length_c   3.45230345
_cell_angle_alpha   90.00000002
_cell_angle_beta   90.08146231
_cell_angle_gamma   120.01507832
_symmetry_Int_Tables_number   1
_chemical_formula_structural   NdCd2
_chemical_formula_sum   'Nd1 Cd2'
_cell_volume   78.15245654
_cell_formula_units_Z   1
loop_
 _symmetry_equiv_pos_site_id
 _symmetry_equiv_pos_as_xyz
  1  'x, y, z'
loop_
 _atom_site_type_symbol
 _atom_site_label
 _atom_site_symmetry_multiplicity
 _atom_site_fract_x
 _atom_site_fract_y
 _atom_site_fract_z
 _atom_site_occupancy
  Nd  Nd0  1  0.00000000  -0.00000000  0.00000000  1
  Cd  Cd1  1  0.66667202  0.33333601  0.50740941  1
  Cd  Cd2  1  0.33332798  0.66666399  0.49259059  1
