# generated using pymatgen
data_RbTi5Se8
_symmetry_space_group_name_H-M   'P 1'
_cell_length_a   3.64797528
_cell_length_b   9.23866906
_cell_length_c   9.68450541
_cell_angle_alpha   104.46312474
_cell_angle_beta   100.85596879
_cell_angle_gamma   90.00000000
_symmetry_Int_Tables_number   1
_chemical_formula_structural   RbTi5Se8
_chemical_formula_sum   'Rb1 Ti5 Se8'
_cell_volume   310.01159986
_cell_formula_units_Z   1
loop_
 _symmetry_equiv_pos_site_id
 _symmetry_equiv_pos_as_xyz
  1  'x, y, z'
loop_
 _atom_site_type_symbol
 _atom_site_label
 _atom_site_symmetry_multiplicity
 _atom_site_fract_x
 _atom_site_fract_y
 _atom_site_fract_z
 _atom_site_occupancy
  Rb  Rb0  1  0.50000000  0.50000000  -0.00000000  1
  Ti  Ti1  1  -0.00000000  -0.00000000  -0.00000000  1
  Ti  Ti2  1  0.65749150  0.00208493  0.31498200  1
  Ti  Ti3  1  0.70788515  0.34708956  0.41576930  1
  Ti  Ti4  1  0.29211485  0.65290944  0.58423070  1
  Ti  Ti5  1  0.34250950  0.99791407  0.68501800  1
  Se  Se6  1  0.57397928  0.17392880  0.14795757  1
  Se  Se7  1  0.08853706  0.82652984  0.17707513  1
  Se  Se8  1  0.16183455  0.49791479  0.32366911  1
  Se  Se9  1  0.24413656  0.16732442  0.48827312  1
  Se  Se10  1  0.75586444  0.83267558  0.51172688  1
  Se  Se11  1  0.83816645  0.50208621  0.67633089  1
  Se  Se12  1  0.91146294  0.17347016  0.82292487  1
  Se  Se13  1  0.42602072  0.82607120  0.85204143  1
