# generated using pymatgen
data_Eu(ScSe2)2
_symmetry_space_group_name_H-M   'P 1'
_cell_length_a   3.78364280
_cell_length_b   11.48988925
_cell_length_c   13.68667981
_cell_angle_alpha   90.00000000
_cell_angle_beta   90.00000000
_cell_angle_gamma   90.00000000
_symmetry_Int_Tables_number   1
_chemical_formula_structural   Eu(ScSe2)2
_chemical_formula_sum   'Eu4 Sc8 Se16'
_cell_volume   595.00974615
_cell_formula_units_Z   4
loop_
 _symmetry_equiv_pos_site_id
 _symmetry_equiv_pos_as_xyz
  1  'x, y, z'
loop_
 _atom_site_type_symbol
 _atom_site_label
 _atom_site_symmetry_multiplicity
 _atom_site_fract_x
 _atom_site_fract_y
 _atom_site_fract_z
 _atom_site_occupancy
  Eu  Eu0  1  0.25000000  0.73829037  0.83167945  1
  Eu  Eu1  1  0.75000000  0.76170963  0.33167945  1
  Eu  Eu2  1  0.25000000  0.23829037  0.66832055  1
  Eu  Eu3  1  0.75000000  0.26170963  0.16832055  1
  Sc  Sc4  1  0.25000000  0.58351840  0.09677667  1
  Sc  Sc5  1  0.25000000  0.55884614  0.61060188  1
  Sc  Sc6  1  0.75000000  0.91648160  0.59677667  1
  Sc  Sc7  1  0.75000000  0.44115386  0.38939812  1
  Sc  Sc8  1  0.75000000  0.94115386  0.11060188  1
  Sc  Sc9  1  0.25000000  0.05884614  0.88939812  1
  Sc  Sc10  1  0.75000000  0.41648160  0.90322333  1
  Sc  Sc11  1  0.25000000  0.08351840  0.40322333  1
  Se  Se12  1  0.25000000  0.37116522  0.03101561  1
  Se  Se13  1  0.25000000  0.29556902  0.33744680  1
  Se  Se14  1  0.25000000  0.47197273  0.78357698  1
  Se  Se15  1  0.75000000  0.90534446  0.92332420  1
  Se  Se16  1  0.25000000  0.97197273  0.71642302  1
  Se  Se17  1  0.25000000  0.59465554  0.42332420  1
  Se  Se18  1  0.75000000  0.70443098  0.66255320  1
  Se  Se19  1  0.75000000  0.52802727  0.21642302  1
  Se  Se20  1  0.25000000  0.09465554  0.07667580  1
  Se  Se21  1  0.75000000  0.20443098  0.83744680  1
  Se  Se22  1  0.25000000  0.79556902  0.16255320  1
  Se  Se23  1  0.25000000  0.87116522  0.46898439  1
  Se  Se24  1  0.75000000  0.12883478  0.53101561  1
  Se  Se25  1  0.75000000  0.02802727  0.28357698  1
  Se  Se26  1  0.75000000  0.62883478  0.96898439  1
  Se  Se27  1  0.75000000  0.40534446  0.57667580  1
