# generated using pymatgen
data_EuMg3SiN4
_symmetry_space_group_name_H-M   'P 1'
_cell_length_a   10.65987730
_cell_length_b   10.65987730
_cell_length_c   10.65987730
_cell_angle_alpha   100.79683690
_cell_angle_beta   113.97490357
_cell_angle_gamma   113.97490357
_symmetry_Int_Tables_number   1
_chemical_formula_structural   EuMg3SiN4
_chemical_formula_sum   'Eu8 Mg24 Si8 N32'
_cell_volume   916.79004298
_cell_formula_units_Z   8
loop_
 _symmetry_equiv_pos_site_id
 _symmetry_equiv_pos_as_xyz
  1  'x, y, z'
loop_
 _atom_site_type_symbol
 _atom_site_label
 _atom_site_symmetry_multiplicity
 _atom_site_fract_x
 _atom_site_fract_y
 _atom_site_fract_z
 _atom_site_occupancy
  Eu  Eu0  1  0.28033547  0.59825103  0.35598227  1
  Eu  Eu1  1  0.21966453  0.07564680  0.81791556  1
  Eu  Eu2  1  0.25773124  0.35598227  0.07564680  1
  Eu  Eu3  1  0.24226876  0.81791556  0.59825103  1
  Eu  Eu4  1  0.71966453  0.40174897  0.64401773  1
  Eu  Eu5  1  0.78033547  0.92435320  0.18208444  1
  Eu  Eu6  1  0.74226876  0.64401773  0.92435320  1
  Eu  Eu7  1  0.75773124  0.18208444  0.40174897  1
  Mg  Mg8  1  0.38766764  0.67899871  0.06749577  1
  Mg  Mg9  1  0.11233236  0.67982812  0.79133107  1
  Mg  Mg10  1  0.88849705  0.06749577  0.67982812  1
  Mg  Mg11  1  0.61150295  0.79133107  0.67899871  1
  Mg  Mg12  1  0.61233236  0.32100129  0.93250423  1
  Mg  Mg13  1  0.88766764  0.32017188  0.20866893  1
  Mg  Mg14  1  0.11150295  0.93250423  0.32017188  1
  Mg  Mg15  1  0.38849705  0.20866893  0.32100129  1
  Mg  Mg16  1  0.06988611  0.64961153  0.04008177  1
  Mg  Mg17  1  0.43011389  0.97019565  0.07972541  1
  Mg  Mg18  1  0.89047024  0.04008177  0.97019565  1
  Mg  Mg19  1  0.60952976  0.07972541  0.64961153  1
  Mg  Mg20  1  0.93011389  0.35038847  0.95991823  1
  Mg  Mg21  1  0.56988611  0.02980435  0.92027459  1
  Mg  Mg22  1  0.10952976  0.95991823  0.02980435  1
  Mg  Mg23  1  0.39047024  0.92027459  0.35038847  1
  Mg  Mg24  1  0.43210675  0.46596727  0.58898248  1
  Mg  Mg25  1  0.06789325  0.15687573  0.53386052  1
  Mg  Mg26  1  0.62301521  0.58898248  0.15687573  1
  Mg  Mg27  1  0.87698479  0.53386052  0.46596727  1
  Mg  Mg28  1  0.56789325  0.53403273  0.41101752  1
  Mg  Mg29  1  0.93210675  0.84312427  0.46613948  1
  Mg  Mg30  1  0.37698479  0.41101752  0.84312427  1
  Mg  Mg31  1  0.12301521  0.46613948  0.53403273  1
  Si  Si32  1  0.10846846  0.23168037  0.26643540  1
  Si  Si33  1  0.39153154  0.15796694  0.62321191  1
  Si  Si34  1  0.53475503  0.26643540  0.15796694  1
  Si  Si35  1  0.96524497  0.62321191  0.23168037  1
  Si  Si36  1  0.89153154  0.76831963  0.73356460  1
  Si  Si37  1  0.60846846  0.84203306  0.37678809  1
  Si  Si38  1  0.46524497  0.73356460  0.84203306  1
  Si  Si39  1  0.03475503  0.37678809  0.76831963  1
  N  N40  1  0.31963025  0.36512747  0.35524003  1
  N  N41  1  0.18036975  0.03560978  0.54549722  1
  N  N42  1  0.49011256  0.35524003  0.03560978  1
  N  N43  1  0.00988744  0.54549722  0.36512747  1
  N  N44  1  0.68036975  0.63487253  0.64475997  1
  N  N45  1  0.81963025  0.96439022  0.45450278  1
  N  N46  1  0.50988744  0.64475997  0.96439022  1
  N  N47  1  0.99011256  0.45450278  0.63487253  1
  N  N48  1  0.55393209  0.87187529  0.51246319  1
  N  N49  1  0.94606791  0.95853111  0.81794320  1
  N  N50  1  0.14058790  0.51246319  0.95853111  1
  N  N51  1  0.35941210  0.81794320  0.87187529  1
  N  N52  1  0.44606791  0.12812471  0.48753681  1
  N  N53  1  0.05393209  0.04146889  0.18205680  1
  N  N54  1  0.85941210  0.48753681  0.04146889  1
  N  N55  1  0.64058790  0.18205680  0.12812471  1
  N  N56  1  0.00755503  0.26774909  0.11022667  1
  N  N57  1  0.49244497  0.10267164  0.76019406  1
  N  N58  1  0.34247758  0.11022667  0.10267164  1
  N  N59  1  0.15752242  0.76019406  0.26774909  1
  N  N60  1  0.99244497  0.73225091  0.88977333  1
  N  N61  1  0.50755503  0.89732836  0.23980594  1
  N  N62  1  0.65752242  0.88977333  0.89732836  1
  N  N63  1  0.84247758  0.23980594  0.73225091  1
  N  N64  1  0.52016311  0.64524890  0.27380106  1
  N  N65  1  0.97983689  0.75363795  0.62508579  1
  N  N66  1  0.12855216  0.27380106  0.75363795  1
  N  N67  1  0.37144784  0.62508579  0.64524890  1
  N  N68  1  0.47983689  0.35475110  0.72619894  1
  N  N69  1  0.02016311  0.24636205  0.37491421  1
  N  N70  1  0.87144784  0.72619894  0.24636205  1
  N  N71  1  0.62855216  0.37491421  0.35475110  1
