# generated using pymatgen
data_Rb2LiYF6
_symmetry_space_group_name_H-M   'P 1'
_cell_length_a   6.16119986
_cell_length_b   6.16119997
_cell_length_c   6.16119997
_cell_angle_alpha   59.99999952
_cell_angle_beta   59.99999930
_cell_angle_gamma   59.99999934
_symmetry_Int_Tables_number   1
_chemical_formula_structural   Rb2LiYF6
_chemical_formula_sum   'Rb2 Li1 Y1 F6'
_cell_volume   165.37920591
_cell_formula_units_Z   1
loop_
 _symmetry_equiv_pos_site_id
 _symmetry_equiv_pos_as_xyz
  1  'x, y, z'
loop_
 _atom_site_type_symbol
 _atom_site_label
 _atom_site_symmetry_multiplicity
 _atom_site_fract_x
 _atom_site_fract_y
 _atom_site_fract_z
 _atom_site_occupancy
  Rb  Rb0  1  0.25000000  0.25000000  0.25000000  1
  Rb  Rb1  1  0.75000000  0.75000000  0.75000000  1
  Li  Li2  1  0.50000000  0.50000000  0.50000000  1
  Y  Y3  1  -0.00000000  -0.00000000  0.00000000  1
  F  F4  1  0.25180988  0.74819012  0.25180989  1
  F  F5  1  0.74819012  0.74819011  0.25180988  1
  F  F6  1  0.74819012  0.25180988  0.74819011  1
  F  F7  1  0.74819012  0.25180989  0.25180989  1
  F  F8  1  0.25180988  0.74819011  0.74819011  1
  F  F9  1  0.25180988  0.25180989  0.74819012  1
