# generated using pymatgen
data_BaWF7
_symmetry_space_group_name_H-M   'P 1'
_cell_length_a   5.74079940
_cell_length_b   10.60783144
_cell_length_c   10.13006054
_cell_angle_alpha   90.00000000
_cell_angle_beta   90.00000000
_cell_angle_gamma   93.22324374
_symmetry_Int_Tables_number   1
_chemical_formula_structural   BaWF7
_chemical_formula_sum   'Ba4 W4 F28'
_cell_volume   615.91877147
_cell_formula_units_Z   4
loop_
 _symmetry_equiv_pos_site_id
 _symmetry_equiv_pos_as_xyz
  1  'x, y, z'
loop_
 _atom_site_type_symbol
 _atom_site_label
 _atom_site_symmetry_multiplicity
 _atom_site_fract_x
 _atom_site_fract_y
 _atom_site_fract_z
 _atom_site_occupancy
  Ba  Ba0  1  0.30243812  0.49299201  0.33286887  1
  Ba  Ba1  1  0.69756188  0.00700799  0.83286887  1
  Ba  Ba2  1  0.69756188  0.50700799  0.66713113  1
  Ba  Ba3  1  0.30243812  0.99299201  0.16713113  1
  W  W4  1  0.18506593  0.81331687  0.61090853  1
  W  W5  1  0.81493407  0.18668313  0.38909147  1
  W  W6  1  0.18506593  0.31331687  0.88909147  1
  W  W7  1  0.81493407  0.68668313  0.11090853  1
  F  F8  1  0.09700923  0.12526043  0.45604492  1
  F  F9  1  0.32964185  0.36983494  0.05179948  1
  F  F10  1  0.46366387  0.75785906  0.69527311  1
  F  F11  1  0.53633613  0.24214094  0.30472689  1
  F  F12  1  0.88569100  0.36045952  0.45478456  1
  F  F13  1  0.26049370  0.47745364  0.80539994  1
  F  F14  1  0.00102911  0.75810128  0.76490073  1
  F  F15  1  0.11430900  0.13954048  0.95478456  1
  F  F16  1  0.32964185  0.86983494  0.44820052  1
  F  F17  1  0.53633613  0.74214094  0.19527311  1
  F  F18  1  0.09700923  0.62526043  0.04395508  1
  F  F19  1  0.90299077  0.87473957  0.54395508  1
  F  F20  1  0.99897089  0.74189872  0.26490073  1
  F  F21  1  0.38787547  0.88688172  0.95844273  1
  F  F22  1  0.11430900  0.63954048  0.54521544  1
  F  F23  1  0.88569100  0.86045952  0.04521544  1
  F  F24  1  0.99897089  0.24189872  0.23509927  1
  F  F25  1  0.90299077  0.37473957  0.95604492  1
  F  F26  1  0.61212453  0.61311828  0.45844273  1
  F  F27  1  0.67035815  0.63016506  0.94820052  1
  F  F28  1  0.61212453  0.11311828  0.04155727  1
  F  F29  1  0.00102911  0.25810128  0.73509927  1
  F  F30  1  0.38787547  0.38688172  0.54155727  1
  F  F31  1  0.73950630  0.02254636  0.30539994  1
  F  F32  1  0.73950630  0.52254636  0.19460006  1
  F  F33  1  0.26049370  0.97745364  0.69460006  1
  F  F34  1  0.67035815  0.13016506  0.55179948  1
  F  F35  1  0.46366387  0.25785906  0.80472689  1
