# generated using pymatgen
data_CaMn(PO3)4
_symmetry_space_group_name_H-M   'P 1'
_cell_length_a   7.61903701
_cell_length_b   7.62613356
_cell_length_c   10.25705876
_cell_angle_alpha   98.95765386
_cell_angle_beta   109.91798781
_cell_angle_gamma   109.46760263
_symmetry_Int_Tables_number   1
_chemical_formula_structural   CaMn(PO3)4
_chemical_formula_sum   'Ca2 Mn2 P8 O24'
_cell_volume   503.33127436
_cell_formula_units_Z   2
loop_
 _symmetry_equiv_pos_site_id
 _symmetry_equiv_pos_as_xyz
  1  'x, y, z'
loop_
 _atom_site_type_symbol
 _atom_site_label
 _atom_site_symmetry_multiplicity
 _atom_site_fract_x
 _atom_site_fract_y
 _atom_site_fract_z
 _atom_site_occupancy
  Ca  Ca0  1  0.70856764  0.95859039  0.75042768  1
  Ca  Ca1  1  0.29237217  0.04221759  0.25014991  1
  Mn  Mn2  1  0.50043456  0.49992993  0.50010843  1
  Mn  Mn3  1  0.50048701  0.00058528  0.00038427  1
  P  P4  1  0.50493753  0.31942461  0.80822686  1
  P  P5  1  0.01126170  0.69624140  0.69235799  1
  P  P6  1  0.49805266  0.68223390  0.19255088  1
  P  P7  1  0.98960262  0.30395311  0.30847804  1
  P  P8  1  0.75325281  0.72021963  0.02070784  1
  P  P9  1  0.19613150  0.73119026  0.47815115  1
  P  P10  1  0.24803418  0.28230474  0.97871929  1
  P  P11  1  0.80461127  0.26860722  0.52249461  1
  O  O12  1  0.32109868  0.32293735  0.85138494  1
  O  O13  1  0.97269566  0.46956294  0.64946066  1
  O  O14  1  0.68204945  0.68016167  0.14888758  1
  O  O15  1  0.02740366  0.53028992  0.35141749  1
  O  O16  1  0.70485214  0.50408509  0.93220481  1
  O  O17  1  0.06952579  0.77158358  0.56752291  1
  O  O18  1  0.29800051  0.49869979  0.06776347  1
  O  O19  1  0.93174321  0.22866752  0.43338178  1
  O  O20  1  0.46228409  0.34787056  0.66226190  1
  O  O21  1  0.18720308  0.80061467  0.83768007  1
  O  O22  1  0.54083119  0.65129034  0.33779649  1
  O  O23  1  0.81396083  0.19938969  0.16306466  1
  O  O24  1  0.54110821  0.14041427  0.83203354  1
  O  O25  1  0.80821919  0.70787628  0.66971624  1
  O  O26  1  0.46186449  0.86171091  0.17019419  1
  O  O27  1  0.19291389  0.29290684  0.33107494  1
  O  O28  1  0.62147703  0.80269972  0.92473776  1
  O  O29  1  0.37679845  0.69779843  0.57371323  1
  O  O30  1  0.37755610  0.19786728  0.07444159  1
  O  O31  1  0.62389607  0.30182958  0.42684063  1
  O  O32  1  0.97896639  0.83244748  0.08591261  1
  O  O33  1  0.23928729  0.88962004  0.41079836  1
  O  O34  1  0.02198446  0.17206912  0.91223514  1
  O  O35  1  0.76139448  0.10949289  0.58917809  1
