# generated using pymatgen
data_CaCo(PO3)4
_symmetry_space_group_name_H-M   'P 1'
_cell_length_a   7.53111372
_cell_length_b   7.53127013
_cell_length_c   10.12214433
_cell_angle_alpha   98.33022092
_cell_angle_beta   111.01610984
_cell_angle_gamma   108.81964349
_symmetry_Int_Tables_number   1
_chemical_formula_structural   CaCo(PO3)4
_chemical_formula_sum   'Ca2 Co2 P8 O24'
_cell_volume   484.71475377
_cell_formula_units_Z   2
loop_
 _symmetry_equiv_pos_site_id
 _symmetry_equiv_pos_as_xyz
  1  'x, y, z'
loop_
 _atom_site_type_symbol
 _atom_site_label
 _atom_site_symmetry_multiplicity
 _atom_site_fract_x
 _atom_site_fract_y
 _atom_site_fract_z
 _atom_site_occupancy
  Ca  Ca0  1  0.70388953  0.95278978  0.75100001  1
  Ca  Ca1  1  0.29672299  0.04605932  0.25072955  1
  Co  Co2  1  0.50047858  0.49963812  0.50118552  1
  Co  Co3  1  0.50107399  0.99959594  0.00131793  1
  P  P4  1  0.50189618  0.31748328  0.80576556  1
  P  P5  1  0.01478165  0.69682300  0.69640485  1
  P  P6  1  0.49775312  0.68016423  0.19579260  1
  P  P7  1  0.98696631  0.30298011  0.30609237  1
  P  P8  1  0.75183342  0.71850978  0.02552355  1
  P  P9  1  0.19643161  0.72739280  0.47668790  1
  P  P10  1  0.24841998  0.27908037  0.97659474  1
  P  P11  1  0.80477920  0.27278539  0.52548616  1
  O  O12  1  0.31248511  0.32070657  0.84424177  1
  O  O13  1  0.97926272  0.46896111  0.65770868  1
  O  O14  1  0.68682350  0.67589423  0.15733065  1
  O  O15  1  0.02252899  0.53090021  0.34454186  1
  O  O16  1  0.70175272  0.50206609  0.93391699  1
  O  O17  1  0.07117084  0.76853597  0.56813751  1
  O  O18  1  0.29774804  0.49568980  0.06751246  1
  O  O19  1  0.93010518  0.23131276  0.43419359  1
  O  O20  1  0.46264595  0.34831820  0.65783001  1
  O  O21  1  0.19367683  0.80508808  0.84423864  1
  O  O22  1  0.53656572  0.64943178  0.34370148  1
  O  O23  1  0.80841841  0.19451852  0.15810493  1
  O  O24  1  0.53737812  0.13576840  0.83214912  1
  O  O25  1  0.80675734  0.70597448  0.67035497  1
  O  O26  1  0.46319789  0.86233543  0.16964120  1
  O  O27  1  0.19491289  0.29353326  0.33237669  1
  O  O28  1  0.61456044  0.80398834  0.92954594  1
  O  O29  1  0.37759923  0.68579458  0.57268239  1
  O  O30  1  0.38662874  0.19459179  0.07286990  1
  O  O31  1  0.62409118  0.31478145  0.42926499  1
  O  O32  1  0.98002402  0.82963519  0.08901669  1
  O  O33  1  0.24443165  0.89250656  0.41362508  1
  O  O34  1  0.02042581  0.16724340  0.91381817  1
  O  O35  1  0.75591907  0.10778569  0.58854356  1
