# generated using pymatgen
data_Eu(GePt)2
_symmetry_space_group_name_H-M   'P 1'
_cell_length_a   4.72310049
_cell_length_b   9.37373520
_cell_length_c   10.30099913
_cell_angle_alpha   91.25640606
_cell_angle_beta   90.00000000
_cell_angle_gamma   90.00000000
_symmetry_Int_Tables_number   1
_chemical_formula_structural   Eu(GePt)2
_chemical_formula_sum   'Eu4 Ge8 Pt8'
_cell_volume   455.94745125
_cell_formula_units_Z   4
loop_
 _symmetry_equiv_pos_site_id
 _symmetry_equiv_pos_as_xyz
  1  'x, y, z'
loop_
 _atom_site_type_symbol
 _atom_site_label
 _atom_site_symmetry_multiplicity
 _atom_site_fract_x
 _atom_site_fract_y
 _atom_site_fract_z
 _atom_site_occupancy
  Eu  Eu0  1  0.24151988  0.37015476  0.75490639  1
  Eu  Eu1  1  0.25848012  0.87015476  0.75490639  1
  Eu  Eu2  1  0.74151988  0.12984524  0.24509361  1
  Eu  Eu3  1  0.75848012  0.62984524  0.24509361  1
  Ge  Ge4  1  0.26448939  0.62599755  0.99938680  1
  Ge  Ge5  1  0.31142445  0.89152331  0.38217827  1
  Ge  Ge6  1  0.68857555  0.10847669  0.61782173  1
  Ge  Ge7  1  0.73551061  0.37400245  0.00061320  1
  Ge  Ge8  1  0.23551061  0.12599755  0.99938680  1
  Ge  Ge9  1  0.81142445  0.60847669  0.61782173  1
  Ge  Ge10  1  0.76448939  0.87400245  0.00061320  1
  Ge  Ge11  1  0.18857555  0.39152331  0.38217827  1
  Pt  Pt12  1  0.82373603  0.85919198  0.49993415  1
  Pt  Pt13  1  0.76307475  0.62107594  0.87521982  1
  Pt  Pt14  1  0.23692525  0.37892406  0.12478018  1
  Pt  Pt15  1  0.17626397  0.14080802  0.50006585  1
  Pt  Pt16  1  0.32373603  0.64080802  0.50006585  1
  Pt  Pt17  1  0.26307475  0.87892406  0.12478018  1
  Pt  Pt18  1  0.67626397  0.35919198  0.49993415  1
  Pt  Pt19  1  0.73692525  0.12107594  0.87521982  1
