# generated using pymatgen
data_Nb4Pb3O13
_symmetry_space_group_name_H-M   'P 1'
_cell_length_a   7.57428911
_cell_length_b   15.17371399
_cell_length_c   13.13662766
_cell_angle_alpha   30.03165875
_cell_angle_beta   54.78979437
_cell_angle_gamma   60.05478461
_symmetry_Int_Tables_number   1
_chemical_formula_structural   Nb4Pb3O13
_chemical_formula_sum   'Nb8 Pb6 O26'
_cell_volume   617.37286087
_cell_formula_units_Z   2
loop_
 _symmetry_equiv_pos_site_id
 _symmetry_equiv_pos_as_xyz
  1  'x, y, z'
loop_
 _atom_site_type_symbol
 _atom_site_label
 _atom_site_symmetry_multiplicity
 _atom_site_fract_x
 _atom_site_fract_y
 _atom_site_fract_z
 _atom_site_occupancy
  Nb  Nb0  1  0.50544774  -0.00000000  0.49604980  1
  Nb  Nb1  1  0.50000000  0.25000000  0.50000000  1
  Nb  Nb2  1  0.49455226  0.50000000  0.50395020  1
  Nb  Nb3  1  0.50000000  0.25000000  0.00000000  1
  Nb  Nb4  1  0.50000000  0.75000000  0.50000000  1
  Nb  Nb5  1  0.99754735  0.50000000  0.50395020  1
  Nb  Nb6  1  0.50000000  0.75000000  0.00000000  1
  Nb  Nb7  1  0.00245265  -0.00000000  0.49604980  1
  Pb  Pb8  1  0.99118130  -0.00000000  0.01054478  1
  Pb  Pb9  1  0.48772914  -0.00000000  0.01054478  1
  Pb  Pb10  1  0.00881870  0.50000000  0.98945522  1
  Pb  Pb11  1  0.00000000  0.25000000  0.50000000  1
  Pb  Pb12  1  0.00000000  0.75000000  0.00000000  1
  Pb  Pb13  1  0.51227086  0.50000000  0.98945522  1
  O  O14  1  0.18865374  0.18974226  0.18778689  1
  O  O15  1  0.18032861  -0.00000000  0.56967139  1
  O  O16  1  0.15224455  0.50000000  0.09775545  1
  O  O17  1  0.56496036  -0.00000000  0.18503964  1
  O  O18  1  0.55628796  0.18974226  0.18778689  1
  O  O19  1  0.18411373  0.69265356  0.18232559  1
  O  O20  1  0.43407203  0.19265356  0.43236729  1
  O  O21  1  0.18411373  0.30734644  0.56763271  1
  O  O22  1  0.19726510  0.50000000  0.55273490  1
  O  O23  1  0.43638129  0.00000000  0.81361871  1
  O  O24  1  0.80273490  -0.00000000  0.44726510  1
  O  O25  1  0.56361871  0.50000000  0.18638129  1
  O  O26  1  0.81588627  0.19265356  0.43236729  1
  O  O27  1  0.56592797  0.69265356  0.18232559  1
  O  O28  1  0.56592797  0.30734644  0.56763271  1
  O  O29  1  0.44371204  0.68974226  0.43272859  1
  O  O30  1  0.18865374  0.81025774  0.56727141  1
  O  O31  1  0.44371204  0.31025774  0.81221311  1
  O  O32  1  0.43503964  0.50000000  0.81496036  1
  O  O33  1  0.81967139  0.50000000  0.43032861  1
  O  O34  1  0.84775545  0.00000000  0.90224455  1
  O  O35  1  0.81134626  0.31025774  0.81221311  1
  O  O36  1  0.81134626  0.68974226  0.43272859  1
  O  O37  1  0.55628796  0.81025774  0.56727141  1
  O  O38  1  0.43407203  0.80734644  0.81767441  1
  O  O39  1  0.81588627  0.80734644  0.81767441  1
