# generated using pymatgen
data_Re3Se2Br5
_symmetry_space_group_name_H-M   'P 1'
_cell_length_a   9.90215419
_cell_length_b   9.89098870
_cell_length_c   13.13405510
_cell_angle_alpha   83.30097791
_cell_angle_beta   84.22460845
_cell_angle_gamma   82.79544263
_symmetry_Int_Tables_number   1
_chemical_formula_structural   Re3Se2Br5
_chemical_formula_sum   'Re12 Se8 Br20'
_cell_volume   1262.67038627
_cell_formula_units_Z   4
loop_
 _symmetry_equiv_pos_site_id
 _symmetry_equiv_pos_as_xyz
  1  'x, y, z'
loop_
 _atom_site_type_symbol
 _atom_site_label
 _atom_site_symmetry_multiplicity
 _atom_site_fract_x
 _atom_site_fract_y
 _atom_site_fract_z
 _atom_site_occupancy
  Re  Re0  1  0.07166895  0.05368578  0.11270228  1
  Re  Re1  1  0.02941862  0.81620203  0.05509060  1
  Re  Re2  1  0.17741835  0.98010662  0.93147896  1
  Re  Re3  1  0.32693217  0.60028805  0.49833107  1
  Re  Re4  1  0.41952452  0.33614686  0.50505419  1
  Re  Re5  1  0.48630964  0.49042629  0.64424353  1
  Re  Re6  1  0.51342914  0.50940940  0.35606967  1
  Re  Re7  1  0.58005983  0.66360194  0.49527292  1
  Re  Re8  1  0.67278703  0.39958536  0.50203267  1
  Re  Re9  1  0.82347368  0.01854807  0.06450860  1
  Re  Re10  1  0.97341110  0.18210274  0.93994463  1
  Re  Re11  1  0.93218669  0.94546922  0.88357914  1
  Se  Se12  1  0.07503246  0.10305455  0.77119833  1
  Se  Se13  1  0.13029159  0.75535687  0.88138011  1
  Se  Se14  1  0.27446404  0.44898204  0.36667321  1
  Se  Se15  1  0.25899176  0.85939461  0.09884964  1
  Se  Se16  1  0.40094009  0.74016784  0.63089477  1
  Se  Se17  1  0.59862620  0.25954087  0.36964855  1
  Se  Se18  1  0.74143439  0.14072231  0.90037240  1
  Se  Se19  1  0.72516834  0.55114563  0.63359960  1
  Br  Br20  1  0.06547400  0.57076381  0.13328127  1
  Br  Br21  1  0.16666949  0.12794158  0.26388076  1
  Br  Br22  1  0.09381554  0.73599196  0.49509692  1
  Br  Br23  1  0.23064535  0.43352073  0.64681364  1
  Br  Br24  1  0.21899723  0.21751879  0.99300211  1
  Br  Br25  1  0.30870516  0.11988057  0.51901576  1
  Br  Br26  1  0.41719570  0.77378866  0.35146864  1
  Br  Br27  1  0.58436217  0.04383799  0.15193223  1
  Br  Br28  1  0.46565540  0.47216857  0.83853800  1
  Br  Br29  1  0.53367145  0.52729860  0.16155736  1
  Br  Br30  1  0.41893363  0.95560755  0.84523486  1
  Br  Br31  1  0.58272438  0.22585567  0.64861354  1
  Br  Br32  1  0.69075716  0.88024562  0.48064810  1
  Br  Br33  1  0.77891949  0.78377520  0.01338206  1
  Br  Br34  1  0.76923915  0.56610058  0.35322327  1
  Br  Br35  1  0.86212484  0.25137153  0.12289438  1
  Br  Br36  1  0.90593921  0.26409872  0.50508887  1
  Br  Br37  1  0.83371006  0.87016519  0.73342074  1
  Br  Br38  1  0.92457390  0.89755052  0.23717484  1
  Br  Br39  1  0.93631811  0.42858111  0.86480777  1
