# generated using pymatgen
data_Sr2RhO4
_symmetry_space_group_name_H-M   'P 1'
_cell_length_a   5.55280943
_cell_length_b   5.55280943
_cell_length_c   13.50376786
_cell_angle_alpha   101.13933249
_cell_angle_beta   101.13933352
_cell_angle_gamma   90.06093058
_symmetry_Int_Tables_number   1
_chemical_formula_structural   Sr2RhO4
_chemical_formula_sum   'Sr8 Rh4 O16'
_cell_volume   400.51136372
_cell_formula_units_Z   4
loop_
 _symmetry_equiv_pos_site_id
 _symmetry_equiv_pos_as_xyz
  1  'x, y, z'
loop_
 _atom_site_type_symbol
 _atom_site_label
 _atom_site_symmetry_multiplicity
 _atom_site_fract_x
 _atom_site_fract_y
 _atom_site_fract_z
 _atom_site_occupancy
  Sr  Sr0  1  0.83203872  0.83452065  0.64752507  1
  Sr  Sr1  1  0.08452065  0.58203872  0.14752507  1
  Sr  Sr2  1  0.16919455  0.16770920  0.35224073  1
  Sr  Sr3  1  0.41770920  0.91919455  0.85224073  1
  Sr  Sr4  1  0.33229080  0.33080545  0.64775927  1
  Sr  Sr5  1  0.58080545  0.08229080  0.14775927  1
  Sr  Sr6  1  0.66547935  0.66796128  0.35247493  1
  Sr  Sr7  1  0.91796128  0.41547935  0.85247493  1
  Rh  Rh8  1  -0.00010088  -0.00076912  -0.00001661  1
  Rh  Rh9  1  0.24923088  0.74989913  0.49998339  1
  Rh  Rh10  1  0.50076912  0.50010087  0.00001661  1
  Rh  Rh11  1  0.75010088  0.25076912  0.50001661  1
  O  O12  1  0.05331173  0.44668827  0.50000000  1
  O  O13  1  0.91590660  0.93405477  0.83994741  1
  O  O14  1  0.08106948  0.06226958  0.16000183  1
  O  O15  1  0.18405477  0.66590660  0.33994741  1
  O  O16  1  0.31226958  0.83106948  0.66000183  1
  O  O17  1  0.19337346  0.69365964  0.98943660  1
  O  O18  1  0.30150141  0.19849859  1.00000000  1
  O  O19  1  0.44849859  0.05150141  0.50000000  1
  O  O20  1  0.55662654  0.55634036  0.51056340  1
  O  O21  1  0.43773042  0.41893052  0.83999817  1
  O  O22  1  0.56594523  0.58409340  0.16005259  1
  O  O23  1  0.66893052  0.18773042  0.33999817  1
  O  O24  1  0.83409340  0.31594523  0.66005259  1
  O  O25  1  0.69668827  0.80331173  0.00000000  1
  O  O26  1  0.80634036  0.30662654  0.01056340  1
  O  O27  1  0.94365964  0.94337346  0.48943660  1
