# generated using pymatgen
data_Rb2NaDyCl6
_symmetry_space_group_name_H-M   'P 1'
_cell_length_a   7.63275420
_cell_length_b   7.63275453
_cell_length_c   7.63275452
_cell_angle_alpha   59.99999885
_cell_angle_beta   59.99999834
_cell_angle_gamma   59.99999842
_symmetry_Int_Tables_number   1
_chemical_formula_structural   Rb2NaDyCl6
_chemical_formula_sum   'Rb2 Na1 Dy1 Cl6'
_cell_volume   314.43353294
_cell_formula_units_Z   1
loop_
 _symmetry_equiv_pos_site_id
 _symmetry_equiv_pos_as_xyz
  1  'x, y, z'
loop_
 _atom_site_type_symbol
 _atom_site_label
 _atom_site_symmetry_multiplicity
 _atom_site_fract_x
 _atom_site_fract_y
 _atom_site_fract_z
 _atom_site_occupancy
  Rb  Rb0  1  0.25000000  0.25000000  0.25000000  1
  Rb  Rb1  1  0.75000000  0.75000000  0.75000000  1
  Na  Na2  1  0.50000000  0.50000000  0.50000000  1
  Dy  Dy3  1  -0.00000000  -0.00000000  0.00000000  1
  Cl  Cl4  1  0.24396091  0.75603909  0.24396091  1
  Cl  Cl5  1  0.75603909  0.75603909  0.24396091  1
  Cl  Cl6  1  0.75603909  0.24396091  0.75603909  1
  Cl  Cl7  1  0.75603909  0.24396091  0.24396091  1
  Cl  Cl8  1  0.24396091  0.75603909  0.75603909  1
  Cl  Cl9  1  0.24396091  0.24396091  0.75603909  1
