# generated using pymatgen
data_CsLiWO4
_symmetry_space_group_name_H-M   'P 1'
_cell_length_a   5.99695318
_cell_length_b   6.11641119
_cell_length_c   6.11743618
_cell_angle_alpha   58.70913876
_cell_angle_beta   60.63816031
_cell_angle_gamma   60.65523152
_symmetry_Int_Tables_number   1
_chemical_formula_structural   CsLiWO4
_chemical_formula_sum   'Cs1 Li1 W1 O4'
_cell_volume   158.54884481
_cell_formula_units_Z   1
loop_
 _symmetry_equiv_pos_site_id
 _symmetry_equiv_pos_as_xyz
  1  'x, y, z'
loop_
 _atom_site_type_symbol
 _atom_site_label
 _atom_site_symmetry_multiplicity
 _atom_site_fract_x
 _atom_site_fract_y
 _atom_site_fract_z
 _atom_site_occupancy
  Cs  Cs0  1  0.49997235  0.50002765  0.50002765  1
  Li  Li1  1  0.24992702  0.25007298  0.25007298  1
  W  W2  1  -0.00014641  0.00014641  0.00014641  1
  O  O3  1  0.63714681  0.07860709  0.15727809  1
  O  O4  1  0.12696701  0.15727809  0.07860709  1
  O  O5  1  0.15701735  0.63724677  0.12722001  1
  O  O6  1  0.07851587  0.12722001  0.63724677  1
