# generated using pymatgen
data_Na2CeO3
_symmetry_space_group_name_H-M   'P 1'
_cell_length_a   6.05012586
_cell_length_b   6.05012586
_cell_length_c   33.67972444
_cell_angle_alpha   94.99590634
_cell_angle_beta   94.99590690
_cell_angle_gamma   119.76280267
_symmetry_Int_Tables_number   1
_chemical_formula_structural   Na2CeO3
_chemical_formula_sum   'Na24 Ce12 O36'
_cell_volume   1053.95084768
_cell_formula_units_Z   12
loop_
 _symmetry_equiv_pos_site_id
 _symmetry_equiv_pos_as_xyz
  1  'x, y, z'
loop_
 _atom_site_type_symbol
 _atom_site_label
 _atom_site_symmetry_multiplicity
 _atom_site_fract_x
 _atom_site_fract_y
 _atom_site_fract_z
 _atom_site_occupancy
  Na  Na0  1  0.17556104  0.81739547  0.83285307  1
  Na  Na1  1  0.18777570  0.85118702  0.49913615  1
  Na  Na2  1  0.08162559  0.41837441  0.75000000  1
  Na  Na3  1  0.16627208  0.83017552  0.16668312  1
  Na  Na4  1  0.33017552  0.66627208  0.66668312  1
  Na  Na5  1  0.98002446  0.00083346  0.66577283  1
  Na  Na6  1  0.31739547  0.67556104  0.33285307  1
  Na  Na7  1  0.59022387  0.91366028  0.91682223  1
  Na  Na8  1  0.01997554  -0.00083346  0.33422717  1
  Na  Na9  1  0.35118702  0.68777570  0.99913615  1
  Na  Na10  1  0.58633972  0.90977613  0.58317777  1
  Na  Na11  1  -0.00000000  0.00000000  0.00000000  1
  Na  Na12  1  0.49916654  0.51997554  0.83422717  1
  Na  Na13  1  0.50000000  0.50000000  0.50000000  1
  Na  Na14  1  0.50083346  0.48002446  0.16577283  1
  Na  Na15  1  0.41366028  0.09022387  0.41682223  1
  Na  Na16  1  0.64881298  0.31222430  0.00086385  1
  Na  Na17  1  0.40977613  0.08633972  0.08317777  1
  Na  Na18  1  0.68260453  0.32443896  0.66714693  1
  Na  Na19  1  0.66982448  0.33372792  0.33331688  1
  Na  Na20  1  0.83372792  0.16982448  0.83331688  1
  Na  Na21  1  0.91837441  0.58162559  0.25000000  1
  Na  Na22  1  0.81222430  0.14881298  0.50086385  1
  Na  Na23  1  0.82443896  0.18260453  0.16714693  1
  Ce  Ce24  1  0.08004359  0.42217666  0.41724608  1
  Ce  Ce25  1  0.07782334  0.41995641  0.08275392  1
  Ce  Ce26  1  0.25575405  0.24587171  0.91621400  1
  Ce  Ce27  1  0.25412829  0.24424595  0.58378600  1
  Ce  Ce28  1  0.25166576  0.24833424  0.25000000  1
  Ce  Ce29  1  0.58659722  0.91340278  0.25000000  1
  Ce  Ce30  1  0.41340278  0.08659722  0.75000000  1
  Ce  Ce31  1  0.74833424  0.75166576  0.75000000  1
  Ce  Ce32  1  0.74587171  0.75575405  0.41621400  1
  Ce  Ce33  1  0.74424595  0.75412829  0.08378600  1
  Ce  Ce34  1  0.92217666  0.58004359  0.91724608  1
  Ce  Ce35  1  0.91995641  0.57782334  0.58275392  1
  O  O36  1  0.26139374  0.94988572  0.95386483  1
  O  O37  1  0.25517574  0.94411173  0.61926373  1
  O  O38  1  0.99251368  0.31485856  0.95265309  1
  O  O39  1  0.32022652  0.98256655  0.28710566  1
  O  O40  1  0.98478593  0.31066639  0.62034004  1
  O  O41  1  0.18933361  0.51521407  0.87965996  1
  O  O42  1  0.95261486  0.25074705  0.28595966  1
  O  O43  1  0.18514144  0.50748632  0.54734691  1
  O  O44  1  0.11445528  0.08701408  0.78597310  1
  O  O45  1  0.48256655  0.82022652  0.78710566  1
  O  O46  1  0.24925295  0.54738514  0.21404034  1
  O  O47  1  0.08241076  0.12157520  0.45265132  1
  O  O48  1  0.44988572  0.76139374  0.45386483  1
  O  O49  1  0.08079887  0.12246333  0.11902420  1
  O  O50  1  0.41298492  0.38554472  0.71402690  1
  O  O51  1  0.62157520  0.58241076  0.95265132  1
  O  O52  1  0.44411173  0.75517574  0.11926373  1
  O  O53  1  0.37753667  0.41920113  0.38097580  1
  O  O54  1  0.62246333  0.58079887  0.61902420  1
  O  O55  1  0.55588827  0.24482426  0.88073627  1
  O  O56  1  0.37842480  0.41758924  0.04734868  1
  O  O57  1  0.58701408  0.61445528  0.28597310  1
  O  O58  1  0.91920113  0.87753667  0.88097580  1
  O  O59  1  0.55011428  0.23860626  0.54613517  1
  O  O60  1  0.91758924  0.87842480  0.54734868  1
  O  O61  1  0.75074705  0.45261486  0.78595966  1
  O  O62  1  0.51743345  0.17977348  0.21289434  1
  O  O63  1  0.88554472  0.91298592  0.21402690  1
  O  O64  1  0.81485856  0.49251368  0.45265309  1
  O  O65  1  0.04738514  0.74925295  0.71404034  1
  O  O66  1  0.81066639  0.48478593  0.12034004  1
  O  O67  1  0.01521407  0.68933361  0.37965996  1
  O  O68  1  0.67977348  0.01743345  0.71289434  1
  O  O69  1  0.00748632  0.68514144  0.04734691  1
  O  O70  1  0.74482426  0.05588827  0.38073627  1
  O  O71  1  0.73860626  0.05011428  0.04613517  1
