# generated using pymatgen
data_RbMn6O12
_symmetry_space_group_name_H-M   'P 1'
_cell_length_a   8.89592245
_cell_length_b   10.24996868
_cell_length_c   8.37561231
_cell_angle_alpha   67.45228375
_cell_angle_beta   58.16172598
_cell_angle_gamma   43.83051036
_symmetry_Int_Tables_number   1
_chemical_formula_structural   RbMn6O12
_chemical_formula_sum   'Rb2 Mn12 O24'
_cell_volume   449.30977505
_cell_formula_units_Z   2
loop_
 _symmetry_equiv_pos_site_id
 _symmetry_equiv_pos_as_xyz
  1  'x, y, z'
loop_
 _atom_site_type_symbol
 _atom_site_label
 _atom_site_symmetry_multiplicity
 _atom_site_fract_x
 _atom_site_fract_y
 _atom_site_fract_z
 _atom_site_occupancy
  Rb  Rb0  1  0.20964059  0.99598012  0.99904663  1
  Rb  Rb1  1  0.79288241  0.00425693  0.00102132  1
  Mn  Mn2  1  0.00141893  0.48774585  0.18455326  1
  Mn  Mn3  1  0.25990766  0.18387503  0.51309924  1
  Mn  Mn4  1  0.33754007  0.48820949  0.18278932  1
  Mn  Mn5  1  0.07696510  0.81620362  0.48666274  1
  Mn  Mn6  1  0.59110966  0.18272433  0.51444954  1
  Mn  Mn7  1  0.33074160  0.51386181  0.81781026  1
  Mn  Mn8  1  0.67264831  0.48664916  0.18220905  1
  Mn  Mn9  1  0.40968725  0.81754848  0.48704349  1
  Mn  Mn10  1  0.92322045  0.18369893  0.51607749  1
  Mn  Mn11  1  0.66938013  0.51040612  0.81663503  1
  Mn  Mn12  1  0.74445728  0.81561302  0.48661606  1
  Mn  Mn13  1  0.00078472  0.51293427  0.81572614  1
  O  O14  1  0.00917391  0.36146295  0.04785932  1
  O  O15  1  0.14499861  0.04731383  0.64097033  1
  O  O16  1  0.06462485  0.29672504  0.38017455  1
  O  O17  1  0.99597089  0.62987411  0.28975374  1
  O  O18  1  0.33703678  0.36476235  0.05089014  1
  O  O19  1  0.47507866  0.05025217  0.64054287  1
  O  O20  1  0.40852499  0.28965456  0.37152473  1
  O  O21  1  0.33608162  0.37442708  0.70822438  1
  O  O22  1  0.33644964  0.63011642  0.28623691  1
  O  O23  1  0.68672575  0.35721118  0.04639823  1
  O  O24  1  0.25970607  0.71223611  0.62887561  1
  O  O25  1  0.19034660  0.95243593  0.36505979  1
  O  O26  1  0.80447293  0.04681548  0.63934074  1
  O  O27  1  0.73734909  0.29079831  0.37380273  1
  O  O28  1  0.32846326  0.64021135  0.95040722  1
  O  O29  1  0.66765403  0.37072085  0.71434106  1
  O  O30  1  0.66538711  0.62509069  0.29406249  1
  O  O31  1  0.59799813  0.70825983  0.62646287  1
  O  O32  1  0.52755653  0.95136543  0.36259862  1
  O  O33  1  0.66514719  0.63779594  0.94679620  1
  O  O34  1  0.00515940  0.37148719  0.70998271  1
  O  O35  1  0.94334406  0.69971931  0.61660586  1
  O  O36  1  0.86087017  0.95181269  0.35865513  1
  O  O37  1  0.99449556  0.63974408  0.94669417  1
