# generated using pymatgen
data_Na2BiAsCO7
_symmetry_space_group_name_H-M   'P 1'
_cell_length_a   9.53879901
_cell_length_b   7.26504241
_cell_length_c   5.45084933
_cell_angle_alpha   90.00000000
_cell_angle_beta   92.15053556
_cell_angle_gamma   90.00000000
_symmetry_Int_Tables_number   1
_chemical_formula_structural   Na2BiAsCO7
_chemical_formula_sum   'Na4 Bi2 As2 C2 O14'
_cell_volume   377.47660586
_cell_formula_units_Z   2
loop_
 _symmetry_equiv_pos_site_id
 _symmetry_equiv_pos_as_xyz
  1  'x, y, z'
loop_
 _atom_site_type_symbol
 _atom_site_label
 _atom_site_symmetry_multiplicity
 _atom_site_fract_x
 _atom_site_fract_y
 _atom_site_fract_z
 _atom_site_occupancy
  Na  Na0  1  0.21015994  0.00899349  0.23248008  1
  Na  Na1  1  0.21015994  0.49100651  0.23248008  1
  Na  Na2  1  0.78984006  0.50899349  0.76751992  1
  Na  Na3  1  0.78984006  0.99100651  0.76751992  1
  Bi  Bi4  1  0.36906579  0.75000000  0.78226573  1
  Bi  Bi5  1  0.63093421  0.25000000  0.21773427  1
  As  As6  1  0.40112824  0.25000000  0.71779616  1
  As  As7  1  0.59887176  0.75000000  0.28220384  1
  C  C8  1  0.07825308  0.75000000  0.72650649  1
  C  C9  1  0.92174692  0.25000000  0.27349351  1
  O  O10  1  0.05349166  0.25000000  0.28702614  1
  O  O11  1  0.14931971  0.75000000  0.94209785  1
  O  O12  1  0.15709430  0.75000000  0.53237754  1
  O  O13  1  0.32573349  0.06081458  0.84930161  1
  O  O14  1  0.32573349  0.43918542  0.84930161  1
  O  O15  1  0.41772923  0.75000000  0.20992301  1
  O  O16  1  0.38066581  0.25000000  0.40530726  1
  O  O17  1  0.61933419  0.75000000  0.59469274  1
  O  O18  1  0.58227077  0.25000000  0.79007699  1
  O  O19  1  0.67426651  0.56081458  0.15069839  1
  O  O20  1  0.67426651  0.93918542  0.15069839  1
  O  O21  1  0.84290570  0.25000000  0.46762246  1
  O  O22  1  0.85068029  0.25000000  0.05790215  1
  O  O23  1  0.94650834  0.75000000  0.71297386  1
