# generated using pymatgen
data_FeSnO3
_symmetry_space_group_name_H-M   'P 1'
_cell_length_a   5.37921694
_cell_length_b   5.70754139
_cell_length_c   5.43397693
_cell_angle_alpha   118.36988532
_cell_angle_beta   60.00943008
_cell_angle_gamma   116.64370094
_symmetry_Int_Tables_number   1
_chemical_formula_structural   FeSnO3
_chemical_formula_sum   'Fe2 Sn2 O6'
_cell_volume   122.17547980
_cell_formula_units_Z   2
loop_
 _symmetry_equiv_pos_site_id
 _symmetry_equiv_pos_as_xyz
  1  'x, y, z'
loop_
 _atom_site_type_symbol
 _atom_site_label
 _atom_site_symmetry_multiplicity
 _atom_site_fract_x
 _atom_site_fract_y
 _atom_site_fract_z
 _atom_site_occupancy
  Fe  Fe0  1  0.35840601  0.07661213  0.35585706  1
  Fe  Fe1  1  0.64157909  0.92312833  0.64260432  1
  Sn  Sn2  1  0.14979706  0.44942374  0.14913948  1
  Sn  Sn3  1  0.84968738  0.55052034  0.85100525  1
  O  O4  1  0.05558885  0.25770742  0.44041096  1
  O  O5  1  0.45400732  0.25431943  0.76198305  1
  O  O6  1  0.23158935  0.73964361  0.95279968  1
  O  O7  1  0.76828400  0.25910491  0.04671457  1
  O  O8  1  0.54599461  0.74714149  0.23895262  1
  O  O9  1  0.94506833  0.74239959  0.56053402  1
