# generated using pymatgen
data_TmWC2
_symmetry_space_group_name_H-M   'P 1'
_cell_length_a   5.68151785
_cell_length_b   3.33436793
_cell_length_c   10.74999715
_cell_angle_alpha   90.00000000
_cell_angle_beta   90.00000000
_cell_angle_gamma   90.00000000
_symmetry_Int_Tables_number   1
_chemical_formula_structural   TmWC2
_chemical_formula_sum   'Tm4 W4 C8'
_cell_volume   203.65085832
_cell_formula_units_Z   4
loop_
 _symmetry_equiv_pos_site_id
 _symmetry_equiv_pos_as_xyz
  1  'x, y, z'
loop_
 _atom_site_type_symbol
 _atom_site_label
 _atom_site_symmetry_multiplicity
 _atom_site_fract_x
 _atom_site_fract_y
 _atom_site_fract_z
 _atom_site_occupancy
  Tm  Tm0  1  0.58525271  0.25000000  0.36291146  1
  Tm  Tm1  1  0.08525271  0.25000000  0.13708854  1
  Tm  Tm2  1  0.41474729  0.75000000  0.63708854  1
  Tm  Tm3  1  0.91474729  0.75000000  0.86291146  1
  W  W4  1  0.90150480  0.25000000  0.61008657  1
  W  W5  1  0.40150480  0.25000000  0.88991343  1
  W  W6  1  0.09849520  0.75000000  0.38991343  1
  W  W7  1  0.59849520  0.75000000  0.11008657  1
  C  C8  1  0.65974451  0.25000000  0.74721680  1
  C  C9  1  0.15974451  0.25000000  0.75278320  1
  C  C10  1  0.34025549  0.75000000  0.25278320  1
  C  C11  1  0.84025549  0.75000000  0.24721680  1
  C  C12  1  0.22889945  0.25000000  0.48759376  1
  C  C13  1  0.72889945  0.25000000  0.01240624  1
  C  C14  1  0.77110055  0.75000000  0.51240624  1
  C  C15  1  0.27110055  0.75000000  0.98759376  1
