# generated using pymatgen
data_Na3Mg4InSi8(O11F)2
_symmetry_space_group_name_H-M   'P 1'
_cell_length_a   5.35144772
_cell_length_b   9.94088883
_cell_length_c   10.43900483
_cell_angle_alpha   118.42890817
_cell_angle_beta   96.38413558
_cell_angle_gamma   76.50220434
_symmetry_Int_Tables_number   1
_chemical_formula_structural   Na3Mg4InSi8(O11F)2
_chemical_formula_sum   'Na3 Mg4 In1 Si8 O22 F2'
_cell_volume   474.87770555
_cell_formula_units_Z   1
loop_
 _symmetry_equiv_pos_site_id
 _symmetry_equiv_pos_as_xyz
  1  'x, y, z'
loop_
 _atom_site_type_symbol
 _atom_site_label
 _atom_site_symmetry_multiplicity
 _atom_site_fract_x
 _atom_site_fract_y
 _atom_site_fract_z
 _atom_site_occupancy
  Na  Na0  1  0.49995205  0.72609895  0.45298692  1
  Na  Na1  1  0.50005691  0.27722185  0.55533182  1
  Na  Na2  1  0.92605126  0.52915902  0.99893288  1
  Mg  Mg3  1  0.00002395  0.99755117  0.99420346  1
  Mg  Mg4  1  0.49952816  0.91030207  0.81944828  1
  Mg  Mg5  1  0.49960880  0.08644863  0.17177438  1
  Mg  Mg6  1  0.00034530  0.81675488  0.63330355  1
  In  In7  1  0.00026970  0.18212633  0.36389139  1
  Si  Si8  1  0.20386813  0.11884808  0.66654131  1
  Si  Si9  1  0.20323544  0.46062555  0.33809471  1
  Si  Si10  1  0.79630860  0.87862103  0.33891825  1
  Si  Si11  1  0.79569489  0.54790613  0.66557172  1
  Si  Si12  1  0.70831292  0.19761111  0.83203425  1
  Si  Si13  1  0.70736418  0.36706035  0.16634056  1
  Si  Si14  1  0.29202855  0.79911192  0.16628864  1
  Si  Si15  1  0.29110615  0.63436760  0.83211487  1
  O  O16  1  0.70852177  0.34489637  0.99934878  1
  O  O17  1  0.29068206  0.65443774  0.99936780  1
  O  O18  1  0.21295758  0.11112147  0.50921719  1
  O  O19  1  0.20270708  0.60741548  0.49404308  1
  O  O20  1  0.79613622  0.88622412  0.49395289  1
  O  O21  1  0.78569929  0.39796855  0.50945016  1
  O  O22  1  0.91924166  0.22316836  0.74663328  1
  O  O23  1  0.92056516  0.47447763  0.25281815  1
  O  O24  1  0.07758882  0.77819611  0.25204782  1
  O  O25  1  0.07895321  0.52415164  0.74742718  1
  O  O26  1  0.26949009  0.95368317  0.67039973  1
  O  O27  1  0.27943370  0.28538374  0.32886075  1
  O  O28  1  0.71996292  0.04369652  0.32878178  1
  O  O29  1  0.72958537  0.71715122  0.67051859  1
  O  O30  1  0.78201207  0.03122950  0.83388069  1
  O  O31  1  0.78285055  0.19762771  0.16649671  1
  O  O32  1  0.21754016  0.96864304  0.16684042  1
  O  O33  1  0.21815136  0.80216312  0.83349877  1
  O  O34  1  0.42057929  0.22734995  0.76576732  1
  O  O35  1  0.42041632  0.46042611  0.23329935  1
  O  O36  1  0.58247201  0.77095488  0.23058739  1
  O  O37  1  0.58228368  0.53935586  0.76857726  1
  F  F38  1  0.28918746  0.10028453  0.00114938  1
  F  F39  1  0.71222719  0.89917852  0.00125854  1
