# generated using pymatgen
data_Lu7(TePd)2
_symmetry_space_group_name_H-M   'P 1'
_cell_length_a   3.89496411
_cell_length_b   9.23658267
_cell_length_c   9.23658268
_cell_angle_alpha   61.94144696
_cell_angle_beta   77.82815710
_cell_angle_gamma   77.82815717
_symmetry_Int_Tables_number   1
_chemical_formula_structural   Lu7(TePd)2
_chemical_formula_sum   'Lu7 Te2 Pd2'
_cell_volume   284.23693474
_cell_formula_units_Z   1
loop_
 _symmetry_equiv_pos_site_id
 _symmetry_equiv_pos_as_xyz
  1  'x, y, z'
loop_
 _atom_site_type_symbol
 _atom_site_label
 _atom_site_symmetry_multiplicity
 _atom_site_fract_x
 _atom_site_fract_y
 _atom_site_fract_z
 _atom_site_occupancy
  Pd  Pd0  1  0.23640328  0.69490509  0.83228834  1
  Pd  Pd1  1  0.76359672  0.16771166  0.30509491  1
  Te  Te2  1  0.00000000  0.66071671  0.33928329  1
  Te  Te3  1  0.50000000  0.26681636  0.73318364  1
  Lu  Lu4  1  0.68302425  0.94375632  0.69019517  1
  Lu  Lu5  1  0.31697575  0.30980483  0.05624368  1
  Lu  Lu6  1  0.00000000  0.00032243  0.99967757  1
  Lu  Lu7  1  0.13121409  0.28582769  0.45174412  1
  Lu  Lu8  1  0.86878591  0.54825588  0.71417231  1
  Lu  Lu9  1  0.35610598  0.91153553  0.37625251  1
  Lu  Lu10  1  0.64389402  0.62374749  0.08846447  1
