# generated using pymatgen
data_NaCo2H3(SeO5)2
_symmetry_space_group_name_H-M   'P 1'
_cell_length_a   5.58213173
_cell_length_b   5.58213173
_cell_length_c   7.76574722
_cell_angle_alpha   69.41588129
_cell_angle_beta   69.41588129
_cell_angle_gamma   71.84918111
_symmetry_Int_Tables_number   1
_chemical_formula_structural   NaCo2H3(SeO5)2
_chemical_formula_sum   'Na1 Co2 H3 Se2 O10'
_cell_volume   207.13866140
_cell_formula_units_Z   1
loop_
 _symmetry_equiv_pos_site_id
 _symmetry_equiv_pos_as_xyz
  1  'x, y, z'
loop_
 _atom_site_type_symbol
 _atom_site_label
 _atom_site_symmetry_multiplicity
 _atom_site_fract_x
 _atom_site_fract_y
 _atom_site_fract_z
 _atom_site_occupancy
  Na  Na0  1  0.50013275  0.50013275  0.50066049  1
  Co  Co1  1  0.99220973  0.49961970  0.99829481  1
  Co  Co2  1  0.49961970  0.99220973  0.99829481  1
  H  H3  1  0.30079240  0.30079240  0.22289410  1
  H  H4  1  0.68651107  0.68651107  0.78715307  1
  H  H5  1  0.47633111  0.47633111  0.01642310  1
  Se  Se6  1  0.91085599  0.91085599  0.28933404  1
  Se  Se7  1  0.08738202  0.08738202  0.71196191  1
  O  O8  1  0.24037947  0.81636382  0.24378618  1
  O  O9  1  0.81636382  0.24037947  0.24378618  1
  O  O10  1  0.75825166  0.18252052  0.75944630  1
  O  O11  1  0.18252052  0.75825166  0.75944630  1
  O  O12  1  0.81208795  0.81208795  0.14489860  1
  O  O13  1  0.18949350  0.18949350  0.85317601  1
  O  O14  1  0.34207038  0.34207038  0.08239665  1
  O  O15  1  0.64790821  0.64790821  0.92637374  1
  O  O16  1  0.76771264  0.76771264  0.51114753  1
  O  O17  1  0.23037708  0.23037708  0.48952621  1
