# generated using pymatgen
data_AgAsO3
_symmetry_space_group_name_H-M   'P 1'
_cell_length_a   5.00456921
_cell_length_b   6.44873344
_cell_length_c   5.00476842
_cell_angle_alpha   112.80260533
_cell_angle_beta   60.00098603
_cell_angle_gamma   112.80138458
_symmetry_Int_Tables_number   1
_chemical_formula_structural   AgAsO3
_chemical_formula_sum   'Ag2 As2 O6'
_cell_volume   125.09345181
_cell_formula_units_Z   2
loop_
 _symmetry_equiv_pos_site_id
 _symmetry_equiv_pos_as_xyz
  1  'x, y, z'
loop_
 _atom_site_type_symbol
 _atom_site_label
 _atom_site_symmetry_multiplicity
 _atom_site_fract_x
 _atom_site_fract_y
 _atom_site_fract_z
 _atom_site_occupancy
  Ag  Ag0  1  0.14386354  0.43150859  0.14369505  1
  Ag  Ag1  1  0.85614445  0.56848096  0.85630352  1
  As  As2  1  0.33562881  0.00687608  0.33560444  1
  As  As3  1  0.66439517  0.99321927  0.66442476  1
  O  O4  1  0.05749134  0.18416576  0.44877265  1
  O  O5  1  0.55118491  0.81579576  0.32232405  1
  O  O6  1  0.32222186  0.81585691  0.94253014  1
  O  O7  1  0.67776487  0.18411082  0.05746028  1
  O  O8  1  0.44880663  0.18417726  0.67766257  1
  O  O9  1  0.94249842  0.81580758  0.55122253  1
