# generated using pymatgen
data_Bi2Te3
_symmetry_space_group_name_H-M   'P 1'
_cell_length_a   29.20571934
_cell_length_b   10.26967098
_cell_length_c   14.88123691
_cell_angle_alpha   153.08849009
_cell_angle_beta   168.90022329
_cell_angle_gamma   24.67294447
_symmetry_Int_Tables_number   1
_chemical_formula_structural   Bi2Te3
_chemical_formula_sum   'Bi2 Te3'
_cell_volume   358.69649611
_cell_formula_units_Z   1
loop_
 _symmetry_equiv_pos_site_id
 _symmetry_equiv_pos_as_xyz
  1  'x, y, z'
loop_
 _atom_site_type_symbol
 _atom_site_label
 _atom_site_symmetry_multiplicity
 _atom_site_fract_x
 _atom_site_fract_y
 _atom_site_fract_z
 _atom_site_occupancy
  Bi  Bi0  1  0.24052248  0.52050374  1.00000000  1
  Bi  Bi1  1  0.75947752  0.47949626  0.00000000  1
  Te  Te2  1  0.00000000  -0.00000000  -0.00000000  1
  Te  Te3  1  0.40587156  0.32219857  0.00000000  1
  Te  Te4  1  0.59412844  0.67780143  1.00000000  1
