# generated using pymatgen
data_Na2Mg2NiH6
_symmetry_space_group_name_H-M   'P 1'
_cell_length_a   5.40767380
_cell_length_b   8.41891010
_cell_length_c   11.38246439
_cell_angle_alpha   90.00000000
_cell_angle_beta   90.00000000
_cell_angle_gamma   90.00000000
_symmetry_Int_Tables_number   1
_chemical_formula_structural   Na2Mg2NiH6
_chemical_formula_sum   'Na8 Mg8 Ni4 H24'
_cell_volume   518.20626433
_cell_formula_units_Z   4
loop_
 _symmetry_equiv_pos_site_id
 _symmetry_equiv_pos_as_xyz
  1  'x, y, z'
loop_
 _atom_site_type_symbol
 _atom_site_label
 _atom_site_symmetry_multiplicity
 _atom_site_fract_x
 _atom_site_fract_y
 _atom_site_fract_z
 _atom_site_occupancy
  Na  Na0  1  0.54715966  0.75000000  0.10852940  1
  Na  Na1  1  0.95284034  0.75000000  0.60852940  1
  Na  Na2  1  0.45284034  0.25000000  0.89147060  1
  Na  Na3  1  0.04715966  0.25000000  0.39147060  1
  Na  Na4  1  0.05532570  0.75000000  0.33151370  1
  Na  Na5  1  0.44467430  0.75000000  0.83151370  1
  Na  Na6  1  0.94467430  0.25000000  0.66848630  1
  Na  Na7  1  0.55532570  0.25000000  0.16848630  1
  Mg  Mg8  1  0.06022902  0.00693369  0.12791449  1
  Mg  Mg9  1  0.43977098  0.49306631  0.62791449  1
  Mg  Mg10  1  0.93977098  0.50693369  0.87208551  1
  Mg  Mg11  1  0.56022902  0.99306631  0.37208551  1
  Mg  Mg12  1  0.93977098  0.99306631  0.87208551  1
  Mg  Mg13  1  0.56022902  0.50693369  0.37208551  1
  Mg  Mg14  1  0.06022902  0.49306631  0.12791449  1
  Mg  Mg15  1  0.43977098  0.00693369  0.62791449  1
  Ni  Ni16  1  0.43871634  0.75000000  0.49886208  1
  Ni  Ni17  1  0.06128366  0.75000000  0.99886208  1
  Ni  Ni18  1  0.56128366  0.25000000  0.50113792  1
  Ni  Ni19  1  0.93871634  0.25000000  0.00113792  1
  H  H20  1  0.65180952  0.75000000  0.40375572  1
  H  H21  1  0.84819048  0.75000000  0.90375572  1
  H  H22  1  0.34819048  0.25000000  0.59624428  1
  H  H23  1  0.15180952  0.25000000  0.09624428  1
  H  H24  1  0.26364316  0.89909125  0.47804323  1
  H  H25  1  0.23635684  0.60090875  0.97804323  1
  H  H26  1  0.73635684  0.39909125  0.52195677  1
  H  H27  1  0.76364316  0.10090875  0.02195677  1
  H  H28  1  0.73635684  0.10090875  0.52195677  1
  H  H29  1  0.76364316  0.39909125  0.02195677  1
  H  H30  1  0.26364316  0.60090875  0.47804323  1
  H  H31  1  0.23635684  0.89909125  0.97804323  1
  H  H32  1  0.52545307  0.75000000  0.63110205  1
  H  H33  1  0.97454693  0.75000000  0.13110205  1
  H  H34  1  0.47454693  0.25000000  0.36889795  1
  H  H35  1  0.02545307  0.25000000  0.86889795  1
  H  H36  1  0.36384850  0.99389870  0.22497425  1
  H  H37  1  0.13615150  0.50610130  0.72497425  1
  H  H38  1  0.63615150  0.49389870  0.77502575  1
  H  H39  1  0.86384850  0.00610130  0.27502575  1
  H  H40  1  0.63615150  0.00610130  0.77502575  1
  H  H41  1  0.86384850  0.49389870  0.27502575  1
  H  H42  1  0.36384850  0.50610130  0.22497425  1
  H  H43  1  0.13615150  0.99389870  0.72497425  1
