# generated using pymatgen
data_Cs3CdH5
_symmetry_space_group_name_H-M   'P 1'
_cell_length_a   8.57664669
_cell_length_b   8.57664669
_cell_length_c   8.79584243
_cell_angle_alpha   119.17900830
_cell_angle_beta   119.17900830
_cell_angle_gamma   90.00000000
_symmetry_Int_Tables_number   1
_chemical_formula_structural   Cs3CdH5
_chemical_formula_sum   'Cs6 Cd2 H10'
_cell_volume   468.63066997
_cell_formula_units_Z   2
loop_
 _symmetry_equiv_pos_site_id
 _symmetry_equiv_pos_as_xyz
  1  'x, y, z'
loop_
 _atom_site_type_symbol
 _atom_site_label
 _atom_site_symmetry_multiplicity
 _atom_site_fract_x
 _atom_site_fract_y
 _atom_site_fract_z
 _atom_site_occupancy
  Cs  Cs0  1  0.68186366  0.18186366  0.00000000  1
  Cs  Cs1  1  0.18186366  0.31813634  0.00000000  1
  Cs  Cs2  1  0.81813634  0.68186366  0.00000000  1
  Cs  Cs3  1  0.31813634  0.81813634  0.00000000  1
  Cs  Cs4  1  0.25000000  0.25000000  0.50000100  1
  Cs  Cs5  1  0.75000000  0.75000000  0.50000100  1
  Cd  Cd6  1  0.75000000  0.25000000  0.50000100  1
  Cd  Cd7  1  0.25000000  0.75000000  0.50000100  1
  H  H8  1  0.00000000  0.00000000  0.00000000  1
  H  H9  1  0.50000000  0.50000000  0.00000000  1
  H  H10  1  0.78482081  0.04116366  0.32598347  1
  H  H11  1  0.54116366  0.28482081  0.32598347  1
  H  H12  1  0.04116366  0.54116366  0.32598347  1
  H  H13  1  0.28482081  0.78482081  0.32598347  1
  H  H14  1  0.71517919  0.21517919  0.67401553  1
  H  H15  1  0.95883634  0.45883634  0.67401553  1
  H  H16  1  0.45883634  0.71517919  0.67401553  1
  H  H17  1  0.21517919  0.95883634  0.67401553  1
