# generated using pymatgen
data_CdSn2H12(OF)6
_symmetry_space_group_name_H-M   'P 1'
_cell_length_a   6.93704592
_cell_length_b   7.37816051
_cell_length_c   7.33171035
_cell_angle_alpha   76.41718644
_cell_angle_beta   71.89403840
_cell_angle_gamma   78.42477742
_symmetry_Int_Tables_number   1
_chemical_formula_structural   CdSn2H12(OF)6
_chemical_formula_sum   'Cd1 Sn2 H12 O6 F6'
_cell_volume   343.37314739
_cell_formula_units_Z   1
loop_
 _symmetry_equiv_pos_site_id
 _symmetry_equiv_pos_as_xyz
  1  'x, y, z'
loop_
 _atom_site_type_symbol
 _atom_site_label
 _atom_site_symmetry_multiplicity
 _atom_site_fract_x
 _atom_site_fract_y
 _atom_site_fract_z
 _atom_site_occupancy
  Cd  Cd0  1  -0.00000000  0.00000000  -0.00000000  1
  Sn  Sn1  1  0.67375939  0.64447792  0.68018855  1
  Sn  Sn2  1  0.32624061  0.35552208  0.31981145  1
  H  H3  1  0.91634046  0.61730793  0.19426174  1
  H  H4  1  0.08365954  0.38269207  0.80573826  1
  H  H5  1  0.74530719  0.71188190  0.08498406  1
  H  H6  1  0.25469281  0.28811810  0.91501594  1
  H  H7  1  0.77076985  0.06383300  0.38193686  1
  H  H8  1  0.22923015  0.93616700  0.61806314  1
  H  H9  1  0.88572644  0.24194635  0.27586429  1
  H  H10  1  0.11427356  0.75805365  0.72413571  1
  H  H11  1  0.72871379  0.06564561  0.75215603  1
  H  H12  1  0.27128621  0.93435439  0.24784397  1
  H  H13  1  0.63558445  0.20463392  0.90519138  1
  H  H14  1  0.36441555  0.79536608  0.09480862  1
  O  O15  1  0.83326034  0.73863250  0.15693450  1
  O  O16  1  0.16673966  0.26136750  0.84306550  1
  O  O17  1  0.80362679  0.15572666  0.25682738  1
  O  O18  1  0.19637321  0.84427334  0.74317262  1
  O  O19  1  0.76541053  0.14515327  0.82525696  1
  O  O20  1  0.23458947  0.85484673  0.17474304  1
  F  F21  1  0.58129818  0.68705036  0.97258282  1
  F  F22  1  0.41870182  0.31294964  0.02741718  1
  F  F23  1  0.70567103  0.93180516  0.60135113  1
  F  F24  1  0.29432897  0.06819484  0.39864887  1
  F  F25  1  0.97528097  0.59403216  0.71077559  1
  F  F26  1  0.02471903  0.40596784  0.28922441  1
