# generated using pymatgen
data_Cs2SbCl6
_symmetry_space_group_name_H-M   'P 1'
_cell_length_a   13.11369082
_cell_length_b   13.11369082
_cell_length_c   13.11369082
_cell_angle_alpha   131.56453745
_cell_angle_beta   131.56453745
_cell_angle_gamma   70.91766831
_symmetry_Int_Tables_number   1
_chemical_formula_structural   Cs2SbCl6
_chemical_formula_sum   'Cs8 Sb4 Cl24'
_cell_volume   1236.36229943
_cell_formula_units_Z   4
loop_
 _symmetry_equiv_pos_site_id
 _symmetry_equiv_pos_as_xyz
  1  'x, y, z'
loop_
 _atom_site_type_symbol
 _atom_site_label
 _atom_site_symmetry_multiplicity
 _atom_site_fract_x
 _atom_site_fract_y
 _atom_site_fract_z
 _atom_site_occupancy
  Cs  Cs0  1  0.50000000  0.24681571  0.74681571  1
  Cs  Cs1  1  0.00000000  0.75318429  0.75318429  1
  Cs  Cs2  1  0.75318429  0.50000100  0.75318429  1
  Cs  Cs3  1  0.24681571  -0.00000000  0.74681571  1
  Cs  Cs4  1  0.50000000  0.75318429  0.25318429  1
  Cs  Cs5  1  -0.00000000  0.24681571  0.24681571  1
  Cs  Cs6  1  0.24681571  0.50000100  0.24681571  1
  Cs  Cs7  1  0.75318429  0.00000000  0.25318429  1
  Sb  Sb8  1  0.62500000  0.37500000  0.25000000  1
  Sb  Sb9  1  0.37500000  0.62500100  0.75000100  1
  Sb  Sb10  1  0.12499900  0.87500000  0.25000000  1
  Sb  Sb11  1  0.87500000  0.12500000  0.75000000  1
  Cl  Cl12  1  0.24547771  0.99547871  0.25000000  1
  Cl  Cl13  1  0.75452229  0.00452229  0.75000100  1
  Cl  Cl14  1  0.00452229  0.75452229  0.25000000  1
  Cl  Cl15  1  0.99547871  0.24547771  0.75000100  1
  Cl  Cl16  1  0.85765087  0.37530130  0.48234957  1
  Cl  Cl17  1  0.39295273  0.37530130  0.01765143  1
  Cl  Cl18  1  0.14235013  0.62469870  0.51765143  1
  Cl  Cl19  1  0.60704827  0.62469870  0.98234957  1
  Cl  Cl20  1  0.62469870  0.14234913  0.01765143  1
  Cl  Cl21  1  0.62469870  0.60704727  0.48234957  1
  Cl  Cl22  1  0.37530230  0.85765087  0.98234957  1
  Cl  Cl23  1  0.37530230  0.39295273  0.51765143  1
  Cl  Cl24  1  0.36430567  0.87488621  0.48942046  1
  Cl  Cl25  1  0.88546576  0.87488621  0.01058054  1
  Cl  Cl26  1  0.63569433  0.12511379  0.51058054  1
  Cl  Cl27  1  0.11453424  0.12511479  0.98942046  1
  Cl  Cl28  1  0.12511379  0.63569333  0.01057954  1
  Cl  Cl29  1  0.12511379  0.11453424  0.48942046  1
  Cl  Cl30  1  0.87488621  0.36430567  0.98942046  1
  Cl  Cl31  1  0.87488621  0.88546676  0.51058054  1
  Cl  Cl32  1  0.50781057  0.25781057  0.25000000  1
  Cl  Cl33  1  0.49218943  0.74218943  0.75000100  1
  Cl  Cl34  1  0.74218943  0.49218843  0.25000000  1
  Cl  Cl35  1  0.25781157  0.50781157  0.75000100  1
