# generated using pymatgen
data_DyLu3
_symmetry_space_group_name_H-M   'P 1'
_cell_length_a   7.07629467
_cell_length_b   7.07629670
_cell_length_c   5.53189951
_cell_angle_alpha   90.00000000
_cell_angle_beta   90.00000000
_cell_angle_gamma   120.00000150
_symmetry_Int_Tables_number   1
_chemical_formula_structural   DyLu3
_chemical_formula_sum   'Dy2 Lu6'
_cell_volume   239.89259974
_cell_formula_units_Z   2
loop_
 _symmetry_equiv_pos_site_id
 _symmetry_equiv_pos_as_xyz
  1  'x, y, z'
loop_
 _atom_site_type_symbol
 _atom_site_label
 _atom_site_symmetry_multiplicity
 _atom_site_fract_x
 _atom_site_fract_y
 _atom_site_fract_z
 _atom_site_occupancy
  Dy  Dy0  1  0.33333400  0.66666800  0.75000100  1
  Dy  Dy1  1  0.66666800  0.33333400  0.25000100  1
  Lu  Lu2  1  0.16597283  0.33194567  0.25000100  1
  Lu  Lu3  1  0.66805433  0.83402817  0.25000100  1
  Lu  Lu4  1  0.16597383  0.83402817  0.25000100  1
  Lu  Lu5  1  0.83402817  0.66805333  0.75000100  1
  Lu  Lu6  1  0.33194567  0.16597283  0.75000100  1
  Lu  Lu7  1  0.83402817  0.16597283  0.75000100  1
