# generated using pymatgen
data_ErTm3
_symmetry_space_group_name_H-M   'P 1'
_cell_length_a   7.10648395
_cell_length_b   7.10648404
_cell_length_c   5.55681177
_cell_angle_alpha   90.00000000
_cell_angle_beta   90.00000000
_cell_angle_gamma   120.00000497
_symmetry_Int_Tables_number   1
_chemical_formula_structural   ErTm3
_chemical_formula_sum   'Er2 Tm6'
_cell_volume   243.03334287
_cell_formula_units_Z   2
loop_
 _symmetry_equiv_pos_site_id
 _symmetry_equiv_pos_as_xyz
  1  'x, y, z'
loop_
 _atom_site_type_symbol
 _atom_site_label
 _atom_site_symmetry_multiplicity
 _atom_site_fract_x
 _atom_site_fract_y
 _atom_site_fract_z
 _atom_site_occupancy
  Er  Er0  1  0.33333400  0.66666800  0.75000000  1
  Er  Er1  1  0.66666600  0.33333400  0.25000000  1
  Tm  Tm2  1  0.16658888  0.33317776  0.25000000  1
  Tm  Tm3  1  0.66682324  0.83341212  0.25000000  1
  Tm  Tm4  1  0.16658888  0.83341212  0.25000000  1
  Tm  Tm5  1  0.83341312  0.66682324  0.75000000  1
  Tm  Tm6  1  0.33317676  0.16658888  0.75000000  1
  Tm  Tm7  1  0.83341212  0.16658888  0.75000000  1
