# generated using pymatgen
data_EuMg2
_symmetry_space_group_name_H-M   'P 1'
_cell_length_a   6.27082749
_cell_length_b   6.27082889
_cell_length_c   6.27401927
_cell_angle_alpha   119.98315059
_cell_angle_beta   60.01685219
_cell_angle_gamma   119.99997773
_symmetry_Int_Tables_number   1
_chemical_formula_structural   EuMg2
_chemical_formula_sum   'Eu2 Mg4'
_cell_volume   174.49833828
_cell_formula_units_Z   2
loop_
 _symmetry_equiv_pos_site_id
 _symmetry_equiv_pos_as_xyz
  1  'x, y, z'
loop_
 _atom_site_type_symbol
 _atom_site_label
 _atom_site_symmetry_multiplicity
 _atom_site_fract_x
 _atom_site_fract_y
 _atom_site_fract_z
 _atom_site_occupancy
  Eu  Eu0  1  0.87477777  0.45855623  0.37566770  1
  Eu  Eu1  1  0.12522323  0.20811077  0.62433130  1
  Mg  Mg2  1  -0.00000000  0.83275548  0.99999900  1
  Mg  Mg3  1  0.49942148  0.33333300  0.99999900  1
  Mg  Mg4  1  0.50057852  0.83391252  -0.00000000  1
  Mg  Mg5  1  0.50000000  0.83333300  0.50000000  1
