# generated using pymatgen
data_V3(HO4)2
_symmetry_space_group_name_H-M   'P 1'
_cell_length_a   17.22373269
_cell_length_b   9.42419869
_cell_length_c   3.69245330
_cell_angle_alpha   88.61503125
_cell_angle_beta   90.00000000
_cell_angle_gamma   90.00000000
_symmetry_Int_Tables_number   1
_chemical_formula_structural   V3(HO4)2
_chemical_formula_sum   'V12 H8 O32'
_cell_volume   599.18347952
_cell_formula_units_Z   4
loop_
 _symmetry_equiv_pos_site_id
 _symmetry_equiv_pos_as_xyz
  1  'x, y, z'
loop_
 _atom_site_type_symbol
 _atom_site_label
 _atom_site_symmetry_multiplicity
 _atom_site_fract_x
 _atom_site_fract_y
 _atom_site_fract_z
 _atom_site_occupancy
  V  V0  1  0.54171701  0.37340125  0.25251392  1
  V  V1  1  0.04171701  0.12659875  0.24748608  1
  V  V2  1  0.45828299  0.62659875  0.74748608  1
  V  V3  1  0.95828299  0.87340125  0.75251392  1
  V  V4  1  0.34660643  0.44609571  0.25495269  1
  V  V5  1  0.84660643  0.05390429  0.24504731  1
  V  V6  1  0.65339357  0.55390429  0.74504731  1
  V  V7  1  0.15339357  0.94609571  0.75495269  1
  V  V8  1  0.94746679  0.41506382  0.25327757  1
  V  V9  1  0.44746679  0.08493618  0.24672243  1
  V  V10  1  0.05253321  0.58493618  0.74672243  1
  V  V11  1  0.55253321  0.91506382  0.75327757  1
  H  H12  1  0.26444393  0.66492913  0.05358701  1
  H  H13  1  0.76444393  0.83507087  0.44641299  1
  H  H14  1  0.73555607  0.33507087  0.94641299  1
  H  H15  1  0.23555607  0.16492913  0.55358701  1
  H  H16  1  0.81531324  0.54575244  0.26494842  1
  H  H17  1  0.31531324  0.95424756  0.23505158  1
  H  H18  1  0.18468676  0.45424756  0.73505158  1
  H  H19  1  0.68468676  0.04575244  0.76494842  1
  O  O20  1  0.45672930  0.56977209  0.24935026  1
  O  O21  1  0.95672930  0.93022791  0.25064974  1
  O  O22  1  0.54327070  0.43022791  0.75064974  1
  O  O23  1  0.04327070  0.06977209  0.74935026  1
  O  O24  1  0.59329405  0.22807204  0.25610781  1
  O  O25  1  0.09329405  0.27192796  0.24389219  1
  O  O26  1  0.40670595  0.77192796  0.74389219  1
  O  O27  1  0.90670595  0.72807204  0.75610781  1
  O  O28  1  0.62518663  0.52898125  0.24693927  1
  O  O29  1  0.12518663  0.97101875  0.25306073  1
  O  O30  1  0.37481337  0.47101875  0.75306073  1
  O  O31  1  0.87481337  0.02898125  0.74693927  1
  O  O32  1  0.44510234  0.29139732  0.25058131  1
  O  O33  1  0.94510234  0.20860268  0.24941869  1
  O  O34  1  0.55489766  0.70860268  0.74941869  1
  O  O35  1  0.05489766  0.79139732  0.75058131  1
  O  O36  1  0.28520801  0.31354056  0.28874594  1
  O  O37  1  0.78520801  0.18645944  0.21125406  1
  O  O38  1  0.71479199  0.68645944  0.71125406  1
  O  O39  1  0.21479199  0.81354056  0.78874594  1
  O  O40  1  0.28353769  0.59578556  0.23801287  1
  O  O41  1  0.78353769  0.90421444  0.26198713  1
  O  O42  1  0.71646231  0.40421444  0.76198713  1
  O  O43  1  0.21646231  0.09578556  0.73801287  1
  O  O44  1  0.01848178  0.57527008  0.24711929  1
  O  O45  1  0.51848178  0.92472992  0.25288071  1
  O  O46  1  0.98151822  0.42472992  0.75288071  1
  O  O47  1  0.48151822  0.07527008  0.74711929  1
  O  O48  1  0.85034368  0.46457765  0.24670193  1
  O  O49  1  0.35034368  0.03542235  0.25329807  1
  O  O50  1  0.14965632  0.53542235  0.75329807  1
  O  O51  1  0.64965632  0.96457765  0.74670193  1
