# generated using pymatgen
data_ErLuRu2
_symmetry_space_group_name_H-M   'P 1'
_cell_length_a   4.74685072
_cell_length_b   4.74694496
_cell_length_c   4.74690369
_cell_angle_alpha   60.00042337
_cell_angle_beta   60.00107974
_cell_angle_gamma   60.00035340
_symmetry_Int_Tables_number   1
_chemical_formula_structural   ErLuRu2
_chemical_formula_sum   'Er1 Lu1 Ru2'
_cell_volume   75.63473434
_cell_formula_units_Z   1
loop_
 _symmetry_equiv_pos_site_id
 _symmetry_equiv_pos_as_xyz
  1  'x, y, z'
loop_
 _atom_site_type_symbol
 _atom_site_label
 _atom_site_symmetry_multiplicity
 _atom_site_fract_x
 _atom_site_fract_y
 _atom_site_fract_z
 _atom_site_occupancy
  Er  Er0  1  0.24999833  0.25000150  0.25000003  1
  Lu  Lu1  1  0.75000034  0.74999928  0.75000246  1
  Ru  Ru2  1  0.00000110  0.99999934  0.99999781  1
  Ru  Ru3  1  0.49999924  0.49999889  0.49999870  1
