# generated using pymatgen
data_NaC2N3
_symmetry_space_group_name_H-M   'P 1'
_cell_length_a   3.60717132
_cell_length_b   6.52947741
_cell_length_c   15.12810423
_cell_angle_alpha   90.00000000
_cell_angle_beta   90.00000000
_cell_angle_gamma   93.11150388
_symmetry_Int_Tables_number   1
_chemical_formula_structural   NaC2N3
_chemical_formula_sum   'Na4 C8 N12'
_cell_volume   355.78610906
_cell_formula_units_Z   4
loop_
 _symmetry_equiv_pos_site_id
 _symmetry_equiv_pos_as_xyz
  1  'x, y, z'
loop_
 _atom_site_type_symbol
 _atom_site_label
 _atom_site_symmetry_multiplicity
 _atom_site_fract_x
 _atom_site_fract_y
 _atom_site_fract_z
 _atom_site_occupancy
  Na  Na0  1  0.26111196  0.64173625  0.08751745  1
  Na  Na1  1  0.73888804  0.35826375  0.91248255  1
  Na  Na2  1  0.23888804  0.85826375  0.58751745  1
  Na  Na3  1  0.76111196  0.14173625  0.41248255  1
  C  C4  1  0.74538195  0.84583349  0.91683988  1
  C  C5  1  0.73325229  0.95722314  0.77351717  1
  C  C6  1  0.24538195  0.34583349  0.58316012  1
  C  C7  1  0.25461805  0.15416651  0.08316012  1
  C  C8  1  0.26674771  0.04277686  0.22648283  1
  C  C9  1  0.23325229  0.45722314  0.72648283  1
  C  C10  1  0.75461805  0.65416651  0.41683988  1
  C  C11  1  0.76674771  0.54277686  0.27351717  1
  N  N12  1  0.77098780  0.72469295  0.97457675  1
  N  N13  1  0.74526443  0.94191133  0.69574440  1
  N  N14  1  0.78376371  0.51098395  0.35835064  1
  N  N15  1  0.75473557  0.55808867  0.19574440  1
  N  N16  1  0.22901220  0.27530705  0.02542325  1
  N  N17  1  0.24526443  0.44191133  0.80425560  1
  N  N18  1  0.25473557  0.05808867  0.30425560  1
  N  N19  1  0.21623629  0.48901605  0.64164936  1
  N  N20  1  0.71623629  0.98901605  0.85835064  1
  N  N21  1  0.27098780  0.22469295  0.52542325  1
  N  N22  1  0.28376371  0.01098395  0.14164936  1
  N  N23  1  0.72901220  0.77530705  0.47457675  1
