# generated using pymatgen
data_Dy4Ga21Ni10
_symmetry_space_group_name_H-M   'P 1'
_cell_length_a   10.68444823
_cell_length_b   10.68444823
_cell_length_c   15.53075303
_cell_angle_alpha   55.70475220
_cell_angle_beta   124.29524780
_cell_angle_gamma   157.98206918
_symmetry_Int_Tables_number   1
_chemical_formula_structural   Dy4Ga21Ni10
_chemical_formula_sum   'Dy4 Ga21 Ni10'
_cell_volume   544.26161823
_cell_formula_units_Z   1
loop_
 _symmetry_equiv_pos_site_id
 _symmetry_equiv_pos_as_xyz
  1  'x, y, z'
loop_
 _atom_site_type_symbol
 _atom_site_label
 _atom_site_symmetry_multiplicity
 _atom_site_fract_x
 _atom_site_fract_y
 _atom_site_fract_z
 _atom_site_occupancy
  Dy  Dy0  1  0.22940886  0.77058914  0.32362215  1
  Dy  Dy1  1  0.77058914  0.22940886  0.67637885  1
  Dy  Dy2  1  0.87947881  0.12051919  0.16628163  1
  Dy  Dy3  1  0.12051919  0.87947881  0.83371837  1
  Ga  Ga4  1  0.60131797  0.39868003  0.49717151  1
  Ga  Ga5  1  0.39867903  0.60131897  0.50282749  1
  Ga  Ga6  1  0.61401034  0.38598766  0.20468372  1
  Ga  Ga7  1  0.38598666  0.61401134  0.79531528  1
  Ga  Ga8  1  0.75189237  0.24810563  0.20587601  1
  Ga  Ga9  1  0.24810463  0.75189337  0.79412399  1
  Ga  Ga10  1  0.99340038  0.00659762  0.40913970  1
  Ga  Ga11  1  0.00659762  0.99340038  0.59086130  1
  Ga  Ga12  1  0.37291773  0.62708027  0.30563727  1
  Ga  Ga13  1  0.62708027  0.37291773  0.69436273  1
  Ga  Ga14  1  0.06444390  0.93555410  0.29485133  1
  Ga  Ga15  1  0.93555410  0.06444390  0.70514867  1
  Ga  Ga16  1  0.46003335  0.53996465  0.13154288  1
  Ga  Ga17  1  0.53996565  0.46003235  0.86845712  1
  Ga  Ga18  1  0.11808341  0.88191459  0.05510229  1
  Ga  Ga19  1  0.88191459  0.11808341  0.94489771  1
  Ga  Ga20  1  0.49999900  0.49999900  -0.00000000  1
  Ga  Ga21  1  0.70246654  0.29753146  0.00317619  1
  Ga  Ga22  1  0.29753146  0.70246754  0.99682381  1
  Ga  Ga23  1  0.20008313  0.79991487  0.50164657  1
  Ga  Ga24  1  0.79991387  0.20008413  0.49835343  1
  Ni  Ni25  1  0.02426527  0.97573273  0.10594602  1
  Ni  Ni26  1  0.97573273  0.02426527  0.89405398  1
  Ni  Ni27  1  0.65286460  0.34713340  0.38926375  1
  Ni  Ni28  1  0.34713340  0.65286460  0.61073625  1
  Ni  Ni29  1  0.25059327  0.74940473  0.11538849  1
  Ni  Ni30  1  0.74940473  0.25059327  0.88461151  1
  Ni  Ni31  1  0.86779239  0.13220561  0.39742167  1
  Ni  Ni32  1  0.13220561  0.86779239  0.60257933  1
  Ni  Ni33  1  0.49728067  0.50271733  0.31442910  1
  Ni  Ni34  1  0.50271733  0.49728067  0.68556990  1
