# generated using pymatgen
data_MgHN
_symmetry_space_group_name_H-M   'P 1'
_cell_length_a   11.60703075
_cell_length_b   11.60703007
_cell_length_c   3.71497248
_cell_angle_alpha   90.00000000
_cell_angle_beta   90.00000000
_cell_angle_gamma   120.00000191
_symmetry_Int_Tables_number   1
_chemical_formula_structural   MgHN
_chemical_formula_sum   'Mg12 H12 N12'
_cell_volume   433.43948216
_cell_formula_units_Z   12
loop_
 _symmetry_equiv_pos_site_id
 _symmetry_equiv_pos_as_xyz
  1  'x, y, z'
loop_
 _atom_site_type_symbol
 _atom_site_label
 _atom_site_symmetry_multiplicity
 _atom_site_fract_x
 _atom_site_fract_y
 _atom_site_fract_z
 _atom_site_occupancy
  Mg  Mg0  1  0.41664652  0.13502993  0.00000000  1
  Mg  Mg1  1  0.86497007  0.28161759  0.00000000  1
  Mg  Mg2  1  0.28161759  0.41664752  0.00000000  1
  Mg  Mg3  1  0.71838341  0.58335348  0.00000000  1
  Mg  Mg4  1  0.13503093  0.71838341  0.00000000  1
  Mg  Mg5  1  0.58335348  0.86497007  0.00000000  1
  Mg  Mg6  1  0.64561071  0.07059556  0.50000100  1
  Mg  Mg7  1  0.42498485  0.35438929  0.50000100  1
  Mg  Mg8  1  0.07059556  0.42498485  0.50000100  1
  Mg  Mg9  1  0.92940444  0.57501515  0.50000100  1
  Mg  Mg10  1  0.57501515  0.64561071  0.50000100  1
  Mg  Mg11  1  0.35438929  0.92940444  0.50000100  1
  H  H12  1  0.80986075  0.05581885  -0.00000000  1
  H  H13  1  0.24595910  0.19013925  -0.00000000  1
  H  H14  1  0.05581885  0.24595910  -0.00000000  1
  H  H15  1  0.94418015  0.75404190  -0.00000000  1
  H  H16  1  0.75404190  0.80986075  -0.00000000  1
  H  H17  1  0.19013925  0.94418015  -0.00000000  1
  H  H18  1  0.57365679  0.23955812  0.50000100  1
  H  H19  1  0.76044188  0.33409867  0.50000100  1
  H  H20  1  0.66590133  0.42634321  0.50000100  1
  H  H21  1  0.33409867  0.57365679  0.50000100  1
  H  H22  1  0.23955812  0.66590133  0.50000100  1
  H  H23  1  0.42634321  0.76044188  0.50000100  1
  N  N24  1  0.73163843  0.07406713  -0.00000000  1
  N  N25  1  0.34242870  0.26836157  -0.00000000  1
  N  N26  1  0.07406813  0.34242970  -0.00000000  1
  N  N27  1  0.92593187  0.65757030  -0.00000000  1
  N  N28  1  0.65757130  0.73163843  -0.00000000  1
  N  N29  1  0.26836257  0.92593287  -0.00000000  1
  N  N30  1  0.50754884  0.13902047  0.50000100  1
  N  N31  1  0.86097953  0.36852838  0.50000100  1
  N  N32  1  0.63147162  0.49245116  0.50000100  1
  N  N33  1  0.36852838  0.50754884  0.50000100  1
  N  N34  1  0.13902147  0.63147162  0.50000100  1
  N  N35  1  0.49245116  0.86097953  0.50000100  1
