# generated using pymatgen
data_Mg(FeO2)2
_symmetry_space_group_name_H-M   'P 1'
_cell_length_a   2.92681881
_cell_length_b   9.72965872
_cell_length_c   9.91801592
_cell_angle_alpha   90.00008955
_cell_angle_beta   89.99719398
_cell_angle_gamma   90.00026366
_symmetry_Int_Tables_number   1
_chemical_formula_structural   Mg(FeO2)2
_chemical_formula_sum   'Mg4 Fe8 O16'
_cell_volume   282.43482501
_cell_formula_units_Z   4
loop_
 _symmetry_equiv_pos_site_id
 _symmetry_equiv_pos_as_xyz
  1  'x, y, z'
loop_
 _atom_site_type_symbol
 _atom_site_label
 _atom_site_symmetry_multiplicity
 _atom_site_fract_x
 _atom_site_fract_y
 _atom_site_fract_z
 _atom_site_occupancy
  Mg  Mg0  1  0.27620116  0.86079559  0.24997410  1
  Mg  Mg1  1  0.72381048  0.13921183  0.74997127  1
  Mg  Mg2  1  0.27614427  0.63921189  0.75000016  1
  Mg  Mg3  1  0.72383293  0.36078858  0.24999570  1
  Fe  Fe4  1  0.24121961  0.38292071  0.92566920  1
  Fe  Fe5  1  0.75878449  0.88290026  0.57433550  1
  Fe  Fe6  1  0.24110172  0.11709624  0.07432318  1
  Fe  Fe7  1  0.24111865  0.11708486  0.42566240  1
  Fe  Fe8  1  0.75882171  0.61709001  0.07433223  1
  Fe  Fe9  1  0.75897594  0.61708699  0.42566674  1
  Fe  Fe10  1  0.75882479  0.88291125  0.92565956  1
  Fe  Fe11  1  0.24117237  0.38291184  0.57434569  1
  O  O12  1  0.74544778  0.52249863  0.88471365  1
  O  O13  1  0.25452429  0.02248641  0.61528771  1
  O  O14  1  0.25939927  0.75000884  0.00001188  1
  O  O15  1  0.25472394  0.47750746  0.38471382  1
  O  O16  1  0.74534534  0.97750017  0.38470547  1
  O  O17  1  0.77270757  0.78706383  0.75000647  1
  O  O18  1  0.22725306  0.21293337  0.24999770  1
  O  O19  1  0.74532880  0.97751938  0.11528442  1
  O  O20  1  0.74058360  0.25000702  0.00000317  1
  O  O21  1  0.25460380  0.47751039  0.11529568  1
  O  O22  1  0.25942204  0.74998106  0.50002467  1
  O  O23  1  0.25460547  0.02249571  0.88470181  1
  O  O24  1  0.22726129  0.28706332  0.75000397  1
  O  O25  1  0.74058610  0.24999112  0.50000936  1
  O  O26  1  0.74543418  0.52248484  0.61530072  1
  O  O27  1  0.77276535  0.71293839  0.25000378  1
