# generated using pymatgen
data_YbHO2
_symmetry_space_group_name_H-M   'P 1'
_cell_length_a   5.89654729
_cell_length_b   3.66874766
_cell_length_c   4.38520260
_cell_angle_alpha   90.00000000
_cell_angle_beta   109.09662881
_cell_angle_gamma   90.00000000
_symmetry_Int_Tables_number   1
_chemical_formula_structural   YbHO2
_chemical_formula_sum   'Yb2 H2 O4'
_cell_volume   89.64425600
_cell_formula_units_Z   2
loop_
 _symmetry_equiv_pos_site_id
 _symmetry_equiv_pos_as_xyz
  1  'x, y, z'
loop_
 _atom_site_type_symbol
 _atom_site_label
 _atom_site_symmetry_multiplicity
 _atom_site_fract_x
 _atom_site_fract_y
 _atom_site_fract_z
 _atom_site_occupancy
  Yb  Yb0  1  0.20761226  0.75000000  0.33517195  1
  Yb  Yb1  1  0.79238774  0.25000000  0.66482805  1
  H  H2  1  0.58417591  0.75000000  0.98842583  1
  H  H3  1  0.41582409  0.25000000  0.01157417  1
  O  O4  1  0.05753223  0.75000000  0.76665623  1
  O  O5  1  0.94246777  0.25000000  0.23334377  1
  O  O6  1  0.57162290  0.75000000  0.76206818  1
  O  O7  1  0.42837710  0.25000000  0.23793182  1
