# generated using pymatgen
data_Re3Rh
_symmetry_space_group_name_H-M   'P 1'
_cell_length_a   5.57719030
_cell_length_b   5.57769706
_cell_length_c   4.39525252
_cell_angle_alpha   89.95034127
_cell_angle_beta   90.04178883
_cell_angle_gamma   120.00037527
_symmetry_Int_Tables_number   1
_chemical_formula_structural   Re3Rh
_chemical_formula_sum   'Re6 Rh2'
_cell_volume   118.40853793
_cell_formula_units_Z   2
loop_
 _symmetry_equiv_pos_site_id
 _symmetry_equiv_pos_as_xyz
  1  'x, y, z'
loop_
 _atom_site_type_symbol
 _atom_site_label
 _atom_site_symmetry_multiplicity
 _atom_site_fract_x
 _atom_site_fract_y
 _atom_site_fract_z
 _atom_site_occupancy
  Re  Re0  1  0.16060558  0.32121021  0.24999638  1
  Re  Re1  1  0.67875733  0.83938017  0.24999853  1
  Re  Re2  1  0.16062653  0.83939386  0.25033504  1
  Re  Re3  1  0.83934539  0.67871883  0.74999707  1
  Re  Re4  1  0.32132294  0.16067160  0.75000657  1
  Re  Re5  1  0.83935272  0.16061508  0.74963516  1
  Rh  Rh6  1  0.33332016  0.66666091  0.75003420  1
  Rh  Rh7  1  0.66666835  0.33334633  0.24999706  1
