# generated using pymatgen
data_Ce2Co3Ge5
_symmetry_space_group_name_H-M   'P 1'
_cell_length_a   5.83159108
_cell_length_b   8.15751676
_cell_length_c   8.15751676
_cell_angle_alpha   73.86183857
_cell_angle_beta   69.05714189
_cell_angle_gamma   69.05714189
_symmetry_Int_Tables_number   1
_chemical_formula_structural   Ce2Co3Ge5
_chemical_formula_sum   'Ce4 Co6 Ge10'
_cell_volume   333.42842441
_cell_formula_units_Z   2
loop_
 _symmetry_equiv_pos_site_id
 _symmetry_equiv_pos_as_xyz
  1  'x, y, z'
loop_
 _atom_site_type_symbol
 _atom_site_label
 _atom_site_symmetry_multiplicity
 _atom_site_fract_x
 _atom_site_fract_y
 _atom_site_fract_z
 _atom_site_occupancy
  Ce  Ce0  1  0.36668938  0.39467128  0.87194997  1
  Ce  Ce1  1  0.63331062  0.60532872  0.12805003  1
  Ce  Ce2  1  0.86668938  0.87194997  0.39467128  1
  Ce  Ce3  1  0.13331062  0.12805003  0.60532872  1
  Co  Co4  1  0.25000000  -0.00000000  -0.00000000  1
  Co  Co5  1  0.75000000  -0.00000000  -0.00000000  1
  Co  Co6  1  0.13621216  0.47793982  0.24963586  1
  Co  Co7  1  0.86378784  0.52206018  0.75036414  1
  Co  Co8  1  0.63621216  0.24963586  0.47793982  1
  Co  Co9  1  0.36378784  0.75036414  0.52206018  1
  Ge  Ge10  1  0.25000000  0.50000000  0.50000000  1
  Ge  Ge11  1  0.75000000  0.50000000  0.50000000  1
  Ge  Ge12  1  0.01293353  0.23706647  0.23706647  1
  Ge  Ge13  1  0.48706647  0.76293353  0.76293353  1
  Ge  Ge14  1  0.98706647  0.76293353  0.76293353  1
  Ge  Ge15  1  0.51293353  0.23706647  0.23706647  1
  Ge  Ge16  1  0.10031860  0.74569326  0.05366954  1
  Ge  Ge17  1  0.89968140  0.25430674  0.94633046  1
  Ge  Ge18  1  0.60031860  0.05366954  0.74569326  1
  Ge  Ge19  1  0.39968140  0.94633046  0.25430674  1
