# generated using pymatgen
data_Ce2Te3
_symmetry_space_group_name_H-M   'P 1'
_cell_length_a   4.44915020
_cell_length_b   11.94897182
_cell_length_c   12.32047182
_cell_angle_alpha   90.00000000
_cell_angle_beta   90.00000000
_cell_angle_gamma   90.00000000
_symmetry_Int_Tables_number   1
_chemical_formula_structural   Ce2Te3
_chemical_formula_sum   'Ce8 Te12'
_cell_volume   654.99041413
_cell_formula_units_Z   4
loop_
 _symmetry_equiv_pos_site_id
 _symmetry_equiv_pos_as_xyz
  1  'x, y, z'
loop_
 _atom_site_type_symbol
 _atom_site_label
 _atom_site_symmetry_multiplicity
 _atom_site_fract_x
 _atom_site_fract_y
 _atom_site_fract_z
 _atom_site_occupancy
  Ce  Ce0  1  0.25000000  0.18687319  0.48571383  1
  Ce  Ce1  1  0.25000000  0.31312681  0.98571383  1
  Ce  Ce2  1  0.75000000  0.81312681  0.51428617  1
  Ce  Ce3  1  0.75000000  0.68687319  0.01428617  1
  Ce  Ce4  1  0.25000000  0.99973310  0.80447847  1
  Ce  Ce5  1  0.25000000  0.50026690  0.30447847  1
  Ce  Ce6  1  0.75000000  0.00026690  0.19552153  1
  Ce  Ce7  1  0.75000000  0.49973310  0.69552153  1
  Te  Te8  1  0.25000000  0.62454683  0.54512041  1
  Te  Te9  1  0.25000000  0.87545317  0.04512041  1
  Te  Te10  1  0.75000000  0.37545317  0.45487959  1
  Te  Te11  1  0.75000000  0.12454683  0.95487959  1
  Te  Te12  1  0.25000000  0.94280108  0.37938620  1
  Te  Te13  1  0.25000000  0.55719892  0.87938620  1
  Te  Te14  1  0.75000000  0.05719892  0.62061380  1
  Te  Te15  1  0.75000000  0.44280108  0.12061380  1
  Te  Te16  1  0.25000000  0.29813146  0.72649376  1
  Te  Te17  1  0.25000000  0.20186854  0.22649376  1
  Te  Te18  1  0.75000000  0.70186854  0.27350624  1
  Te  Te19  1  0.75000000  0.79813146  0.77350624  1
