# generated using pymatgen
data_Tb6CoBr10
_symmetry_space_group_name_H-M   'P 1'
_cell_length_a   7.39397292
_cell_length_b   9.15238893
_cell_length_c   9.23941016
_cell_angle_alpha   108.32203791
_cell_angle_beta   97.23686068
_cell_angle_gamma   105.53486167
_symmetry_Int_Tables_number   1
_chemical_formula_structural   Tb6CoBr10
_chemical_formula_sum   'Tb6 Co1 Br10'
_cell_volume   556.57054486
_cell_formula_units_Z   1
loop_
 _symmetry_equiv_pos_site_id
 _symmetry_equiv_pos_as_xyz
  1  'x, y, z'
loop_
 _atom_site_type_symbol
 _atom_site_label
 _atom_site_symmetry_multiplicity
 _atom_site_fract_x
 _atom_site_fract_y
 _atom_site_fract_z
 _atom_site_occupancy
  Tb  Tb0  1  0.02719204  0.70905876  0.40867520  1
  Tb  Tb1  1  0.97280796  0.29094124  0.59132480  1
  Tb  Tb2  1  0.87901274  0.95587987  0.74225861  1
  Tb  Tb3  1  0.12098726  0.04412013  0.25774139  1
  Tb  Tb4  1  0.35975567  0.13575435  0.67807138  1
  Tb  Tb5  1  0.64024433  0.86424565  0.32192862  1
  Co  Co6  1  0.00000000  0.00000000  0.50000000  1
  Br  Br7  1  0.45153834  0.82154621  0.58546108  1
  Br  Br8  1  0.54846166  0.17845379  0.41453892  1
  Br  Br9  1  0.91463177  0.62992060  0.67276714  1
  Br  Br10  1  0.08536823  0.37007940  0.32723286  1
  Br  Br11  1  0.25387208  0.08502740  0.95839400  1
  Br  Br12  1  0.74612792  0.91497260  0.04160600  1
  Br  Br13  1  0.35766787  0.45861799  0.77411697  1
  Br  Br14  1  0.64233213  0.54138201  0.22588303  1
  Br  Br15  1  0.79192680  0.26062290  0.84997320  1
  Br  Br16  1  0.20807320  0.73937710  0.15002680  1
