# generated using pymatgen
data_K2Zn(CN)4
_symmetry_space_group_name_H-M   'P 1'
_cell_length_a   8.97873744
_cell_length_b   8.97873745
_cell_length_c   8.97873745
_cell_angle_alpha   60.00000003
_cell_angle_beta   60.00000001
_cell_angle_gamma   60.00000003
_symmetry_Int_Tables_number   1
_chemical_formula_structural   K2Zn(CN)4
_chemical_formula_sum   'K4 Zn2 C8 N8'
_cell_volume   511.83598869
_cell_formula_units_Z   2
loop_
 _symmetry_equiv_pos_site_id
 _symmetry_equiv_pos_as_xyz
  1  'x, y, z'
loop_
 _atom_site_type_symbol
 _atom_site_label
 _atom_site_symmetry_multiplicity
 _atom_site_fract_x
 _atom_site_fract_y
 _atom_site_fract_z
 _atom_site_occupancy
  C  C0  1  0.21651700  0.85044899  0.21651700  1
  C  C1  1  0.78348300  0.78348300  0.78348300  1
  C  C2  1  0.21651700  0.21651700  0.85044899  1
  C  C3  1  0.85044899  0.21651700  0.21651700  1
  C  C4  1  0.78348300  0.14955101  0.78348300  1
  C  C5  1  0.14955101  0.78348300  0.78348300  1
  C  C6  1  0.21651700  0.21651700  0.21651700  1
  C  C7  1  0.78348300  0.78348300  0.14955101  1
  N  N8  1  0.30961989  0.73012670  0.73012670  1
  N  N9  1  0.73012670  0.30961989  0.73012670  1
  N  N10  1  0.69038011  0.26987330  0.26987330  1
  N  N11  1  0.73012670  0.73012670  0.73012670  1
  N  N12  1  0.26987330  0.69038011  0.26987330  1
  N  N13  1  0.26987330  0.26987330  0.69038011  1
  N  N14  1  0.26987330  0.26987330  0.26987330  1
  N  N15  1  0.73012670  0.73012670  0.30961989  1
  K  K16  1  0.50000000  0.50000000  0.50000000  1
  K  K17  1  0.50000000  0.50000000  0.00000000  1
  K  K18  1  0.50000000  0.00000000  0.50000000  1
  K  K19  1  0.00000000  0.50000000  0.50000000  1
  Zn  Zn20  1  0.87500000  0.87500000  0.87500000  1
  Zn  Zn21  1  0.12500000  0.12500000  0.12500000  1
