# generated using pymatgen
data_Ce2Ge5Ir3
_symmetry_space_group_name_H-M   'P 1'
_cell_length_a   6.09545380
_cell_length_b   8.43364774
_cell_length_c   8.43364774
_cell_angle_alpha   75.00848025
_cell_angle_beta   68.81520573
_cell_angle_gamma   68.81520573
_symmetry_Int_Tables_number   1
_chemical_formula_structural   Ce2Ge5Ir3
_chemical_formula_sum   'Ce4 Ge10 Ir6'
_cell_volume   372.81645447
_cell_formula_units_Z   2
loop_
 _symmetry_equiv_pos_site_id
 _symmetry_equiv_pos_as_xyz
  1  'x, y, z'
loop_
 _atom_site_type_symbol
 _atom_site_label
 _atom_site_symmetry_multiplicity
 _atom_site_fract_x
 _atom_site_fract_y
 _atom_site_fract_z
 _atom_site_occupancy
  Ce  Ce0  1  0.36499044  0.40792520  0.86209391  1
  Ce  Ce1  1  0.63500956  0.59207480  0.13790609  1
  Ce  Ce2  1  0.86499044  0.86209391  0.40792520  1
  Ce  Ce3  1  0.13500956  0.13790609  0.59207480  1
  Ge  Ge4  1  0.25000000  0.50000000  0.50000000  1
  Ge  Ge5  1  0.75000000  0.50000000  0.50000000  1
  Ge  Ge6  1  0.02761488  0.22238512  0.22238512  1
  Ge  Ge7  1  0.47238512  0.77761488  0.77761488  1
  Ge  Ge8  1  0.97238512  0.77761488  0.77761488  1
  Ge  Ge9  1  0.52761488  0.22238512  0.22238512  1
  Ge  Ge10  1  0.09865504  0.74040201  0.06228792  1
  Ge  Ge11  1  0.90134496  0.25959799  0.93771208  1
  Ge  Ge12  1  0.59865504  0.06228792  0.74040201  1
  Ge  Ge13  1  0.40134496  0.93771208  0.25959799  1
  Ir  Ir14  1  0.25000000  0.00000000  -0.00000000  1
  Ir  Ir15  1  0.75000000  0.00000000  -0.00000000  1
  Ir  Ir16  1  0.14174719  0.46786939  0.24863622  1
  Ir  Ir17  1  0.85825281  0.53213061  0.75136378  1
  Ir  Ir18  1  0.64174719  0.24863622  0.46786939  1
  Ir  Ir19  1  0.35825281  0.75136378  0.53213061  1
