# generated using pymatgen
data_Er6NiI10
_symmetry_space_group_name_H-M   'P 1'
_cell_length_a   7.65149350
_cell_length_b   9.59602492
_cell_length_c   9.60447706
_cell_angle_alpha   107.35836000
_cell_angle_beta   97.00644037
_cell_angle_gamma   104.90870844
_symmetry_Int_Tables_number   1
_chemical_formula_structural   Er6NiI10
_chemical_formula_sum   'Er6 Ni1 I10'
_cell_volume   635.14481131
_cell_formula_units_Z   1
loop_
 _symmetry_equiv_pos_site_id
 _symmetry_equiv_pos_as_xyz
  1  'x, y, z'
loop_
 _atom_site_type_symbol
 _atom_site_label
 _atom_site_symmetry_multiplicity
 _atom_site_fract_x
 _atom_site_fract_y
 _atom_site_fract_z
 _atom_site_occupancy
  Er  Er0  1  0.34017351  0.12203970  0.16132164  1
  Er  Er1  1  0.65982649  0.87796030  0.83867836  1
  Er  Er2  1  0.97210100  0.27981846  0.08422787  1
  Er  Er3  1  0.02789900  0.72018154  0.91577213  1
  Er  Er4  1  0.88988888  0.96185937  0.23624936  1
  Er  Er5  1  0.11011112  0.03814063  0.76375064  1
  Ni  Ni6  1  -0.00000000  -0.00000000  0.00000000  1
  I  I7  1  0.35699794  0.45561018  0.27485080  1
  I  I8  1  0.64300206  0.54438982  0.72514920  1
  I  I9  1  0.77954759  0.26070513  0.34933333  1
  I  I10  1  0.22045241  0.73929487  0.65066667  1
  I  I11  1  0.54702953  0.18583839  0.90619123  1
  I  I12  1  0.45297047  0.81416161  0.09380877  1
  I  I13  1  0.73745727  0.91064167  0.53408041  1
  I  I14  1  0.26254273  0.08935833  0.46591959  1
  I  I15  1  0.91380938  0.62653909  0.18196280  1
  I  I16  1  0.08619062  0.37346091  0.81803720  1
