# generated using pymatgen
data_InAsH2O5
_symmetry_space_group_name_H-M   'P 1'
_cell_length_a   5.64483081
_cell_length_b   5.77198849
_cell_length_c   6.85735094
_cell_angle_alpha   97.98754999
_cell_angle_beta   94.29341107
_cell_angle_gamma   107.42313193
_symmetry_Int_Tables_number   1
_chemical_formula_structural   InAsH2O5
_chemical_formula_sum   'In2 As2 H4 O10'
_cell_volume   209.49645362
_cell_formula_units_Z   2
loop_
 _symmetry_equiv_pos_site_id
 _symmetry_equiv_pos_as_xyz
  1  'x, y, z'
loop_
 _atom_site_type_symbol
 _atom_site_label
 _atom_site_symmetry_multiplicity
 _atom_site_fract_x
 _atom_site_fract_y
 _atom_site_fract_z
 _atom_site_occupancy
  In  In0  1  0.63348130  0.72815449  0.21657699  1
  In  In1  1  0.36651870  0.27184551  0.78342301  1
  As  As2  1  0.73882074  0.88068848  0.73973511  1
  As  As3  1  0.26117926  0.11931152  0.26026489  1
  H  H4  1  0.88603602  0.36358469  0.25790000  1
  H  H5  1  0.11396398  0.63641531  0.74210000  1
  H  H6  1  0.07118563  0.62500311  0.21985255  1
  H  H7  1  0.92881437  0.37499689  0.78014745  1
  O  O8  1  0.63658558  0.65424589  0.88803207  1
  O  O9  1  0.36341442  0.34575411  0.11196793  1
  O  O10  1  0.68882000  0.14864629  0.84548773  1
  O  O11  1  0.31118000  0.85135371  0.15451227  1
  O  O12  1  0.56197408  0.76197689  0.51704141  1
  O  O13  1  0.43802592  0.23802311  0.48295859  1
  O  O14  1  0.05641206  0.93051478  0.74599766  1
  O  O15  1  0.94358794  0.06948522  0.25400234  1
  O  O16  1  0.91299728  0.54359962  0.27389114  1
  O  O17  1  0.08700272  0.45640038  0.72610886  1
