# generated using pymatgen
data_LiNdGe2
_symmetry_space_group_name_H-M   'P 1'
_cell_length_a   3.99158565
_cell_length_b   7.81551542
_cell_length_c   10.67222879
_cell_angle_alpha   90.00000000
_cell_angle_beta   90.00000000
_cell_angle_gamma   90.00000000
_symmetry_Int_Tables_number   1
_chemical_formula_structural   LiNdGe2
_chemical_formula_sum   'Li4 Nd4 Ge8'
_cell_volume   332.93404244
_cell_formula_units_Z   4
loop_
 _symmetry_equiv_pos_site_id
 _symmetry_equiv_pos_as_xyz
  1  'x, y, z'
loop_
 _atom_site_type_symbol
 _atom_site_label
 _atom_site_symmetry_multiplicity
 _atom_site_fract_x
 _atom_site_fract_y
 _atom_site_fract_z
 _atom_site_occupancy
  Li  Li0  1  0.75000000  0.00953276  0.10938197  1
  Li  Li1  1  0.75000000  0.50953276  0.39061803  1
  Li  Li2  1  0.25000000  0.99046724  0.89061803  1
  Li  Li3  1  0.25000000  0.49046724  0.60938197  1
  Nd  Nd4  1  0.75000000  0.36001762  0.86468173  1
  Nd  Nd5  1  0.75000000  0.86001762  0.63531827  1
  Nd  Nd6  1  0.25000000  0.63998238  0.13531827  1
  Nd  Nd7  1  0.25000000  0.13998238  0.36468173  1
  Ge  Ge8  1  0.75000000  0.27713714  0.56708030  1
  Ge  Ge9  1  0.75000000  0.77713714  0.93291970  1
  Ge  Ge10  1  0.25000000  0.72286286  0.43291970  1
  Ge  Ge11  1  0.25000000  0.22286286  0.06708030  1
  Ge  Ge12  1  0.75000000  0.34484744  0.18399813  1
  Ge  Ge13  1  0.75000000  0.84484744  0.31600187  1
  Ge  Ge14  1  0.25000000  0.65515256  0.81600187  1
  Ge  Ge15  1  0.25000000  0.15515256  0.68399813  1
