# generated using pymatgen
data_Na5Hf2F13
_symmetry_space_group_name_H-M   'P 1'
_cell_length_a   5.55518797
_cell_length_b   6.46737789
_cell_length_c   8.49837700
_cell_angle_alpha   96.56980345
_cell_angle_beta   90.00000000
_cell_angle_gamma   115.43441873
_symmetry_Int_Tables_number   1
_chemical_formula_structural   Na5Hf2F13
_chemical_formula_sum   'Na5 Hf2 F13'
_cell_volume   273.51066207
_cell_formula_units_Z   1
loop_
 _symmetry_equiv_pos_site_id
 _symmetry_equiv_pos_as_xyz
  1  'x, y, z'
loop_
 _atom_site_type_symbol
 _atom_site_label
 _atom_site_symmetry_multiplicity
 _atom_site_fract_x
 _atom_site_fract_y
 _atom_site_fract_z
 _atom_site_occupancy
  Na  Na0  1  0.22224620  0.44449240  0.15498049  1
  Na  Na1  1  0.77775380  0.55550760  0.84501951  1
  Na  Na2  1  0.50000000  0.00000000  -0.00000000  1
  Na  Na3  1  0.66264508  0.32529017  0.42914110  1
  Na  Na4  1  0.33735492  0.67470983  0.57085890  1
  Hf  Hf5  1  0.92701059  0.85402119  0.25656199  1
  Hf  Hf6  1  0.07298941  0.14597881  0.74343801  1
  F  F7  1  0.05492207  0.63909267  0.35567847  1
  F  F8  1  0.58417061  0.63909267  0.35567847  1
  F  F9  1  0.94507793  0.36090733  0.64432153  1
  F  F10  1  0.41582939  0.36090733  0.64432153  1
  F  F11  1  0.64363395  0.73372399  0.07118382  1
  F  F12  1  0.09009004  0.73372399  0.07118382  1
  F  F13  1  0.35636605  0.26627601  0.92881618  1
  F  F14  1  0.90990996  0.26627601  0.92881618  1
  F  F15  1  0.29684581  0.12118283  0.25004339  1
  F  F16  1  0.82433702  0.12118283  0.25004339  1
  F  F17  1  0.70315419  0.87881717  0.74995661  1
  F  F18  1  0.17566298  0.87881717  0.74995661  1
  F  F19  1  0.00000000  0.00000000  0.50000000  1
