# generated using pymatgen
data_KLiMn2(SiO3)4
_symmetry_space_group_name_H-M   'P 1'
_cell_length_a   5.24275948
_cell_length_b   5.24275948
_cell_length_c   10.35315186
_cell_angle_alpha   94.05856183
_cell_angle_beta   94.05856183
_cell_angle_gamma   118.68992863
_symmetry_Int_Tables_number   1
_chemical_formula_structural   KLiMn2(SiO3)4
_chemical_formula_sum   'K1 Li1 Mn2 Si4 O12'
_cell_volume   247.21862033
_cell_formula_units_Z   1
loop_
 _symmetry_equiv_pos_site_id
 _symmetry_equiv_pos_as_xyz
  1  'x, y, z'
loop_
 _atom_site_type_symbol
 _atom_site_label
 _atom_site_symmetry_multiplicity
 _atom_site_fract_x
 _atom_site_fract_y
 _atom_site_fract_z
 _atom_site_occupancy
  K  K0  1  0.50000000  0.50000000  0.00000000  1
  Li  Li1  1  0.00000000  0.00000000  0.50000000  1
  Mn  Mn2  1  0.65462865  0.34537135  0.50000000  1
  Mn  Mn3  1  0.34537135  0.65462865  0.50000000  1
  Si  Si4  1  0.89315105  0.23414518  0.22923335  1
  Si  Si5  1  0.23414518  0.89315105  0.22923335  1
  Si  Si6  1  0.10684895  0.76585482  0.77076665  1
  Si  Si7  1  0.76585482  0.10684895  0.77076665  1
  O  O8  1  0.04656697  0.04656697  0.17110694  1
  O  O9  1  0.95343303  0.95343303  0.82889306  1
  O  O10  1  0.04862246  0.54598548  0.16321091  1
  O  O11  1  0.54598548  0.04862246  0.16321091  1
  O  O12  1  0.95137754  0.45401452  0.83678909  1
  O  O13  1  0.45401452  0.95137754  0.83678909  1
  O  O14  1  0.92849926  0.28620879  0.38599448  1
  O  O15  1  0.28620879  0.92849926  0.38599448  1
  O  O16  1  0.07150074  0.71379121  0.61400552  1
  O  O17  1  0.71379121  0.07150074  0.61400552  1
  O  O18  1  0.61143032  0.61143032  0.39880208  1
  O  O19  1  0.38856968  0.38856968  0.60119792  1
