# generated using pymatgen
data_PuB2Os
_symmetry_space_group_name_H-M   'P 1'
_cell_length_a   5.36790149
_cell_length_b   5.75207628
_cell_length_c   6.45577576
_cell_angle_alpha   90.00000000
_cell_angle_beta   90.00000000
_cell_angle_gamma   90.00000000
_symmetry_Int_Tables_number   1
_chemical_formula_structural   PuB2Os
_chemical_formula_sum   'Pu4 B8 Os4'
_cell_volume   199.33226919
_cell_formula_units_Z   4
loop_
 _symmetry_equiv_pos_site_id
 _symmetry_equiv_pos_as_xyz
  1  'x, y, z'
loop_
 _atom_site_type_symbol
 _atom_site_label
 _atom_site_symmetry_multiplicity
 _atom_site_fract_x
 _atom_site_fract_y
 _atom_site_fract_z
 _atom_site_occupancy
  Pu  Pu0  1  0.75000000  0.49792173  0.16580762  1
  Pu  Pu1  1  0.75000000  0.99792173  0.33419238  1
  Pu  Pu2  1  0.25000000  0.50207827  0.83419238  1
  Pu  Pu3  1  0.25000000  0.00207827  0.66580762  1
  B  B4  1  0.91575586  0.13568786  0.96335021  1
  B  B5  1  0.58424414  0.63568786  0.53664979  1
  B  B6  1  0.41575586  0.86431214  0.03664979  1
  B  B7  1  0.08424414  0.36431214  0.46335021  1
  B  B8  1  0.08424414  0.86431214  0.03664979  1
  B  B9  1  0.41575586  0.36431214  0.46335021  1
  B  B10  1  0.58424414  0.13568786  0.96335021  1
  B  B11  1  0.91575586  0.63568786  0.53664979  1
  Os  Os12  1  0.75000000  0.31325954  0.68537232  1
  Os  Os13  1  0.75000000  0.81325954  0.81462768  1
  Os  Os14  1  0.25000000  0.68674046  0.31462768  1
  Os  Os15  1  0.25000000  0.18674046  0.18537232  1
