# generated using pymatgen
data_NaNdFeWO6
_symmetry_space_group_name_H-M   'P 1'
_cell_length_a   5.55606771
_cell_length_b   5.60151766
_cell_length_c   8.11166465
_cell_angle_alpha   90.00000000
_cell_angle_beta   90.31136600
_cell_angle_gamma   90.00000000
_symmetry_Int_Tables_number   1
_chemical_formula_structural   NaNdFeWO6
_chemical_formula_sum   'Na2 Nd2 Fe2 W2 O12'
_cell_volume   252.45083674
_cell_formula_units_Z   2
loop_
 _symmetry_equiv_pos_site_id
 _symmetry_equiv_pos_as_xyz
  1  'x, y, z'
loop_
 _atom_site_type_symbol
 _atom_site_label
 _atom_site_symmetry_multiplicity
 _atom_site_fract_x
 _atom_site_fract_y
 _atom_site_fract_z
 _atom_site_occupancy
  Na  Na0  1  0.74480943  0.99266453  0.49799098  1
  Na  Na1  1  0.25519057  0.49266453  0.50200902  1
  Nd  Nd2  1  0.75967489  0.06225320  0.00134511  1
  Nd  Nd3  1  0.24032511  0.56225320  0.99865489  1
  Fe  Fe4  1  0.75141263  0.51789778  0.25868452  1
  Fe  Fe5  1  0.24858737  0.01789778  0.74131548  1
  W  W6  1  0.74315084  0.51229961  0.73798212  1
  W  W7  1  0.25684916  0.01229961  0.26201788  1
  O  O8  1  0.95057686  0.78427469  0.80950923  1
  O  O9  1  0.04942314  0.28427469  0.19049077  1
  O  O10  1  0.97620856  0.80787325  0.19240302  1
  O  O11  1  0.02379144  0.30787325  0.80759698  1
  O  O12  1  0.46123589  0.70186044  0.72234376  1
  O  O13  1  0.53876411  0.20186044  0.27765624  1
  O  O14  1  0.56674264  0.21967112  0.71724208  1
  O  O15  1  0.43325736  0.71967112  0.28275792  1
  O  O16  1  0.66078709  0.48747476  0.98822393  1
  O  O17  1  0.33921291  0.98747476  0.01177607  1
  O  O18  1  0.83130388  0.53853063  0.51736747  1
  O  O19  1  0.16869612  0.03853063  0.48263253  1
