# generated using pymatgen
data_Gd5(AlCo)2
_symmetry_space_group_name_H-M   'P 1'
_cell_length_a   4.16086050
_cell_length_b   7.10530197
_cell_length_c   14.18934890
_cell_angle_alpha   90.00000000
_cell_angle_beta   90.00000000
_cell_angle_gamma   90.00000000
_symmetry_Int_Tables_number   1
_chemical_formula_structural   Gd5(AlCo)2
_chemical_formula_sum   'Gd10 Al4 Co4'
_cell_volume   419.49632743
_cell_formula_units_Z   2
loop_
 _symmetry_equiv_pos_site_id
 _symmetry_equiv_pos_as_xyz
  1  'x, y, z'
loop_
 _atom_site_type_symbol
 _atom_site_label
 _atom_site_symmetry_multiplicity
 _atom_site_fract_x
 _atom_site_fract_y
 _atom_site_fract_z
 _atom_site_occupancy
  Gd  Gd0  1  0.50000000  0.84751942  0.08942300  1
  Gd  Gd1  1  0.50000000  0.15248058  0.91057700  1
  Gd  Gd2  1  0.50000000  0.34751942  0.41057700  1
  Gd  Gd3  1  0.50000000  0.65248058  0.58942300  1
  Gd  Gd4  1  -0.00000000  0.50000000  0.00000000  1
  Gd  Gd5  1  -0.00000000  -0.00000000  0.50000000  1
  Gd  Gd6  1  -0.00000000  0.44213854  0.75690216  1
  Gd  Gd7  1  -0.00000000  0.55786146  0.24309784  1
  Gd  Gd8  1  0.00000000  0.94213854  0.74309784  1
  Gd  Gd9  1  0.00000000  0.05786146  0.25690216  1
  Al  Al10  1  0.50000000  0.70907340  0.86721289  1
  Al  Al11  1  0.50000000  0.29092660  0.13278711  1
  Al  Al12  1  0.50000000  0.20907340  0.63278711  1
  Al  Al13  1  0.50000000  0.79092660  0.36721289  1
  Co  Co14  1  -0.00000000  0.88029626  0.94118900  1
  Co  Co15  1  -0.00000000  0.11970374  0.05881100  1
  Co  Co16  1  -0.00000000  0.38029626  0.55881100  1
  Co  Co17  1  -0.00000000  0.61970374  0.44118900  1
