# generated using pymatgen
data_HfTl2PbSe4
_symmetry_space_group_name_H-M   'P 1'
_cell_length_a   7.11189359
_cell_length_b   8.59493258
_cell_length_c   9.14175198
_cell_angle_alpha   118.04027758
_cell_angle_beta   106.73214597
_cell_angle_gamma   90.00000000
_symmetry_Int_Tables_number   1
_chemical_formula_structural   HfTl2PbSe4
_chemical_formula_sum   'Hf2 Tl4 Pb2 Se8'
_cell_volume   466.23167247
_cell_formula_units_Z   2
loop_
 _symmetry_equiv_pos_site_id
 _symmetry_equiv_pos_as_xyz
  1  'x, y, z'
loop_
 _atom_site_type_symbol
 _atom_site_label
 _atom_site_symmetry_multiplicity
 _atom_site_fract_x
 _atom_site_fract_y
 _atom_site_fract_z
 _atom_site_occupancy
  Hf  Hf0  1  0.25000000  0.12383139  1.00000000  1
  Hf  Hf1  1  0.75000000  0.87616861  0.00000000  1
  Tl  Tl2  1  0.27063361  0.12556767  0.50352366  1
  Tl  Tl3  1  0.22936639  0.62204400  0.49647634  1
  Tl  Tl4  1  0.72936639  0.87443233  0.49647634  1
  Tl  Tl5  1  0.77063361  0.37795600  0.50352366  1
  Pb  Pb6  1  0.25000000  0.62329392  1.00000000  1
  Pb  Pb7  1  0.75000000  0.37670608  0.00000000  1
  Se  Se8  1  0.49612677  0.00432574  0.80540343  1
  Se  Se9  1  0.00387323  0.19892231  0.19459657  1
  Se  Se10  1  0.50387323  0.99567426  0.19459657  1
  Se  Se11  1  0.99612677  0.80107769  0.80540343  1
  Se  Se12  1  0.03551343  0.23315311  0.78511566  1
  Se  Se13  1  0.46448657  0.44803745  0.21488434  1
  Se  Se14  1  0.96448657  0.76684689  0.21488434  1
  Se  Se15  1  0.53551343  0.55196255  0.78511566  1
