# generated using pymatgen
data_Zr2Si4Ni3
_symmetry_space_group_name_H-M   'P 1'
_cell_length_a   5.19423745
_cell_length_b   6.90389948
_cell_length_c   7.35912597
_cell_angle_alpha   90.00000000
_cell_angle_beta   110.66549064
_cell_angle_gamma   90.00000000
_symmetry_Int_Tables_number   1
_chemical_formula_structural   Zr2Si4Ni3
_chemical_formula_sum   'Zr4 Si8 Ni6'
_cell_volume   246.92158452
_cell_formula_units_Z   2
loop_
 _symmetry_equiv_pos_site_id
 _symmetry_equiv_pos_as_xyz
  1  'x, y, z'
loop_
 _atom_site_type_symbol
 _atom_site_label
 _atom_site_symmetry_multiplicity
 _atom_site_fract_x
 _atom_site_fract_y
 _atom_site_fract_z
 _atom_site_occupancy
  Zr  Zr0  1  0.60443736  0.90160283  0.20887473  1
  Zr  Zr1  1  0.39556264  0.09839717  0.79112527  1
  Zr  Zr2  1  0.89556264  0.40160283  0.79112527  1
  Zr  Zr3  1  0.10443736  0.59839717  0.20887473  1
  Si  Si4  1  0.81152307  0.25000000  0.12304613  1
  Si  Si5  1  0.68847693  0.75000000  0.87695387  1
  Si  Si6  1  0.18847693  0.75000000  0.87695387  1
  Si  Si7  1  0.31152307  0.25000000  0.12304613  1
  Si  Si8  1  0.68246484  0.52312849  0.36492968  1
  Si  Si9  1  0.31753516  0.47687151  0.63507032  1
  Si  Si10  1  0.81753516  0.02312849  0.63507032  1
  Si  Si11  1  0.18246484  0.97687151  0.36492968  1
  Ni  Ni12  1  0.50000000  0.50000000  0.00000000  1
  Ni  Ni13  1  0.00000000  0.00000000  0.00000000  1
  Ni  Ni14  1  0.97710134  0.25000000  0.45420267  1
  Ni  Ni15  1  0.52289866  0.75000000  0.54579733  1
  Ni  Ni16  1  0.02289866  0.75000000  0.54579733  1
  Ni  Ni17  1  0.47710134  0.25000000  0.45420267  1
