# generated using pymatgen
data_ErB2Os
_symmetry_space_group_name_H-M   'P 1'
_cell_length_a   5.30362355
_cell_length_b   5.87597726
_cell_length_c   6.34814730
_cell_angle_alpha   90.00000000
_cell_angle_beta   90.00000000
_cell_angle_gamma   90.00000000
_symmetry_Int_Tables_number   1
_chemical_formula_structural   ErB2Os
_chemical_formula_sum   'Er4 B8 Os4'
_cell_volume   197.83348074
_cell_formula_units_Z   4
loop_
 _symmetry_equiv_pos_site_id
 _symmetry_equiv_pos_as_xyz
  1  'x, y, z'
loop_
 _atom_site_type_symbol
 _atom_site_label
 _atom_site_symmetry_multiplicity
 _atom_site_fract_x
 _atom_site_fract_y
 _atom_site_fract_z
 _atom_site_occupancy
  Er  Er0  1  0.75000000  0.48968003  0.16570085  1
  Er  Er1  1  0.75000000  0.98968003  0.33429915  1
  Er  Er2  1  0.25000000  0.51031997  0.83429915  1
  Er  Er3  1  0.25000000  0.01031997  0.66570085  1
  B  B4  1  0.91752942  0.13832050  0.96238359  1
  B  B5  1  0.58247058  0.63832050  0.53761641  1
  B  B6  1  0.41752942  0.86167950  0.03761641  1
  B  B7  1  0.08247058  0.36167950  0.46238359  1
  B  B8  1  0.08247058  0.86167950  0.03761641  1
  B  B9  1  0.41752942  0.36167950  0.46238359  1
  B  B10  1  0.58247058  0.13832050  0.96238359  1
  B  B11  1  0.91752942  0.63832050  0.53761641  1
  Os  Os12  1  0.75000000  0.32353051  0.68082761  1
  Os  Os13  1  0.75000000  0.82353051  0.81917239  1
  Os  Os14  1  0.25000000  0.67646949  0.31917239  1
  Os  Os15  1  0.25000000  0.17646949  0.18082761  1
