# generated using pymatgen
data_Nb3RhSe6
_symmetry_space_group_name_H-M   'P 1'
_cell_length_a   6.06763385
_cell_length_b   6.06750968
_cell_length_c   12.71735792
_cell_angle_alpha   89.99934133
_cell_angle_beta   90.00322204
_cell_angle_gamma   120.00274781
_symmetry_Int_Tables_number   1
_chemical_formula_structural   Nb3RhSe6
_chemical_formula_sum   'Nb6 Rh2 Se12'
_cell_volume   405.45750459
_cell_formula_units_Z   2
loop_
 _symmetry_equiv_pos_site_id
 _symmetry_equiv_pos_as_xyz
  1  'x, y, z'
loop_
 _atom_site_type_symbol
 _atom_site_label
 _atom_site_symmetry_multiplicity
 _atom_site_fract_x
 _atom_site_fract_y
 _atom_site_fract_z
 _atom_site_occupancy
  Nb  Nb0  1  0.00000096  0.99999624  0.50000280  1
  Nb  Nb1  1  0.00001462  0.99999724  0.00000042  1
  Nb  Nb2  1  0.66669031  0.33332372  0.00051311  1
  Nb  Nb3  1  0.33335767  0.66668193  0.99948328  1
  Nb  Nb4  1  0.33331528  0.66667081  0.50051275  1
  Nb  Nb5  1  0.66665278  0.33332073  0.49949074  1
  Rh  Rh6  1  0.66666499  0.33333575  0.75001136  1
  Rh  Rh7  1  0.33332236  0.66665528  0.24998687  1
  Se  Se8  1  0.66728195  0.99543014  0.63156334  1
  Se  Se9  1  0.32814347  0.33273263  0.63156299  1
  Se  Se10  1  0.00455888  0.67184566  0.63155594  1
  Se  Se11  1  0.67186371  0.00457925  0.36843549  1
  Se  Se12  1  0.99541334  0.66728050  0.36843966  1
  Se  Se13  1  0.33272306  0.32814374  0.36844145  1
  Se  Se14  1  0.33273308  0.00458436  0.13155221  1
  Se  Se15  1  0.67187682  0.66726287  0.13155502  1
  Se  Se16  1  0.99543947  0.32814820  0.13155415  1
  Se  Se17  1  0.32815870  0.99542462  0.86844609  1
  Se  Se18  1  0.00459838  0.33274021  0.86844397  1
  Se  Se19  1  0.66729017  0.67184613  0.86844835  1
