# generated using pymatgen
data_TaSiRu
_symmetry_space_group_name_H-M   'P 1'
_cell_length_a   6.51340505
_cell_length_b   7.33353583
_cell_length_c   7.44236305
_cell_angle_alpha   119.51744816
_cell_angle_beta   115.95020482
_cell_angle_gamma   90.00000000
_symmetry_Int_Tables_number   1
_chemical_formula_structural   TaSiRu
_chemical_formula_sum   'Ta6 Si6 Ru6'
_cell_volume   267.39513251
_cell_formula_units_Z   6
loop_
 _symmetry_equiv_pos_site_id
 _symmetry_equiv_pos_as_xyz
  1  'x, y, z'
loop_
 _atom_site_type_symbol
 _atom_site_label
 _atom_site_symmetry_multiplicity
 _atom_site_fract_x
 _atom_site_fract_y
 _atom_site_fract_z
 _atom_site_occupancy
  Ta  Ta0  1  0.90366032  0.94664171  0.39328342  1
  Ta  Ta1  1  0.51037690  0.05335829  0.60671658  1
  Ta  Ta2  1  0.50495256  0.53097637  0.56195274  1
  Ta  Ta3  1  0.94299982  0.46902363  0.43804726  1
  Ta  Ta4  1  0.08154376  0.74819094  0.99638187  1
  Ta  Ta5  1  0.08516189  0.25180906  0.00361813  1
  Si  Si6  1  0.47177142  0.72210732  0.94421463  1
  Si  Si7  1  0.52755678  0.27789268  0.05578537  1
  Si  Si8  1  0.17010736  0.67039912  0.33277854  1
  Si  Si9  1  0.83732882  0.32960088  0.66722146  1
  Si  Si10  1  0.17010736  0.16237942  0.33277854  1
  Si  Si11  1  0.83732882  0.83762058  0.66722146  1
  Ru  Ru12  1  0.75008201  0.50000000  -0.00000000  1
  Ru  Ru13  1  0.75008201  0.00000000  -0.00000000  1
  Ru  Ru14  1  0.25418027  0.90670323  0.75099044  1
  Ru  Ru15  1  0.50318983  0.09329677  0.24900956  1
  Ru  Ru16  1  0.25418027  0.34428721  0.75099044  1
  Ru  Ru17  1  0.50318983  0.65571279  0.24900956  1
