# generated using pymatgen
data_Ce(HoS2)3
_symmetry_space_group_name_H-M   'P 1'
_cell_length_a   3.97897481
_cell_length_b   11.32079447
_cell_length_c   11.08753990
_cell_angle_alpha   108.84275661
_cell_angle_beta   90.00000000
_cell_angle_gamma   90.00000000
_symmetry_Int_Tables_number   1
_chemical_formula_structural   Ce(HoS2)3
_chemical_formula_sum   'Ce2 Ho6 S12'
_cell_volume   472.67423189
_cell_formula_units_Z   2
loop_
 _symmetry_equiv_pos_site_id
 _symmetry_equiv_pos_as_xyz
  1  'x, y, z'
loop_
 _atom_site_type_symbol
 _atom_site_label
 _atom_site_symmetry_multiplicity
 _atom_site_fract_x
 _atom_site_fract_y
 _atom_site_fract_z
 _atom_site_occupancy
  Ce  Ce0  1  0.25000000  0.19403173  0.54956338  1
  Ce  Ce1  1  0.75000000  0.80596827  0.45043662  1
  Ho  Ho2  1  0.25000000  0.00029663  0.17983395  1
  Ho  Ho3  1  0.75000000  0.99970337  0.82016605  1
  Ho  Ho4  1  0.25000000  0.33328205  0.94278760  1
  Ho  Ho5  1  0.75000000  0.66671795  0.05721240  1
  Ho  Ho6  1  0.25000000  0.58624831  0.66018301  1
  Ho  Ho7  1  0.75000000  0.41375169  0.33981699  1
  S  S8  1  0.25000000  0.11189038  0.97903820  1
  S  S9  1  0.75000000  0.88810962  0.02096180  1
  S  S10  1  0.25000000  0.25010861  0.30424656  1
  S  S11  1  0.75000000  0.74989139  0.69575344  1
  S  S12  1  0.25000000  0.55730644  0.89292544  1
  S  S13  1  0.75000000  0.44269356  0.10707456  1
  S  S14  1  0.25000000  0.59539563  0.41858534  1
  S  S15  1  0.75000000  0.40460437  0.58141466  1
  S  S16  1  0.25000000  0.77021530  0.23366816  1
  S  S17  1  0.75000000  0.22978470  0.76633184  1
  S  S18  1  0.25000000  0.96305412  0.61770122  1
  S  S19  1  0.75000000  0.03694588  0.38229878  1
