# generated using pymatgen
data_Ba3NaSbO6
_symmetry_space_group_name_H-M   'P 1'
_cell_length_a   7.24058127
_cell_length_b   7.24058127
_cell_length_c   7.24058089
_cell_angle_alpha   91.80165720
_cell_angle_beta   91.80165720
_cell_angle_gamma   91.80166328
_symmetry_Int_Tables_number   1
_chemical_formula_structural   Ba3NaSbO6
_chemical_formula_sum   'Ba6 Na2 Sb2 O12'
_cell_volume   379.01976722
_cell_formula_units_Z   2
loop_
 _symmetry_equiv_pos_site_id
 _symmetry_equiv_pos_as_xyz
  1  'x, y, z'
loop_
 _atom_site_type_symbol
 _atom_site_label
 _atom_site_symmetry_multiplicity
 _atom_site_fract_x
 _atom_site_fract_y
 _atom_site_fract_z
 _atom_site_occupancy
  Ba  Ba0  1  0.60051958  0.25000068  0.89949845  1
  Ba  Ba1  1  0.25000068  0.89949845  0.60051958  1
  Ba  Ba2  1  0.89949845  0.60051958  0.25000068  1
  Ba  Ba3  1  0.10051958  0.39949845  0.75000068  1
  Ba  Ba4  1  0.39949845  0.75000068  0.10051958  1
  Ba  Ba5  1  0.75000068  0.10051958  0.39949845  1
  Na  Na6  1  0.25000068  0.25000068  0.25000068  1
  Na  Na7  1  0.75000068  0.75000068  0.75000068  1
  Sb  Sb8  1  0.00000068  0.00000068  0.00000068  1
  Sb  Sb9  1  0.50000068  0.50000068  0.50000068  1
  O  O10  1  0.08085376  0.94822608  0.26716416  1
  O  O11  1  0.94822608  0.26716416  0.08085376  1
  O  O12  1  0.26716416  0.08085376  0.94822608  1
  O  O13  1  0.58085376  0.76716416  0.44822608  1
  O  O14  1  0.76716416  0.44822608  0.58085376  1
  O  O15  1  0.44822608  0.58085376  0.76716416  1
  O  O16  1  0.91915077  0.05177845  0.73284071  1
  O  O17  1  0.05177845  0.73284071  0.91915077  1
  O  O18  1  0.73284071  0.91915077  0.05177845  1
  O  O19  1  0.41915077  0.23284071  0.55177845  1
  O  O20  1  0.23284071  0.55177845  0.41915077  1
  O  O21  1  0.55177845  0.41915077  0.23284071  1
