# generated using pymatgen
data_Na2NiH4(SeO5)2
_symmetry_space_group_name_H-M   'P 1'
_cell_length_a   5.61391343
_cell_length_b   6.00554106
_cell_length_c   7.50769789
_cell_angle_alpha   110.02338753
_cell_angle_beta   99.30938581
_cell_angle_gamma   106.19543006
_symmetry_Int_Tables_number   1
_chemical_formula_structural   Na2NiH4(SeO5)2
_chemical_formula_sum   'Na2 Ni1 H4 Se2 O10'
_cell_volume   218.90042662
_cell_formula_units_Z   1
loop_
 _symmetry_equiv_pos_site_id
 _symmetry_equiv_pos_as_xyz
  1  'x, y, z'
loop_
 _atom_site_type_symbol
 _atom_site_label
 _atom_site_symmetry_multiplicity
 _atom_site_fract_x
 _atom_site_fract_y
 _atom_site_fract_z
 _atom_site_occupancy
  Na  Na0  1  0.33649782  0.70775606  0.25111397  1
  Na  Na1  1  0.66350218  0.29224394  0.74888603  1
  Ni  Ni2  1  0.00000000  0.00000000  0.00000000  1
  H  H3  1  0.85394116  0.87393290  0.62100757  1
  H  H4  1  0.14605884  0.12606710  0.37899243  1
  H  H5  1  0.08196898  0.14162803  0.71625543  1
  H  H6  1  0.91803102  0.85837197  0.28374457  1
  Se  Se7  1  0.33880624  0.66689006  0.76277626  1
  Se  Se8  1  0.66119376  0.33310994  0.23722374  1
  O  O9  1  0.10396833  0.67897263  0.87755206  1
  O  O10  1  0.89603167  0.32102737  0.12244794  1
  O  O11  1  0.61943377  0.75862544  0.93734057  1
  O  O12  1  0.38056623  0.24137456  0.06265943  1
  O  O13  1  0.35630867  0.83409308  0.62725651  1
  O  O14  1  0.64369133  0.16590692  0.37274349  1
  O  O15  1  0.27489113  0.35762540  0.62871818  1
  O  O16  1  0.72510887  0.64237460  0.37128182  1
  O  O17  1  0.92692531  0.03888014  0.73856720  1
  O  O18  1  0.07307469  0.96111986  0.26143280  1
