# generated using pymatgen
data_SrAl2Au3
_symmetry_space_group_name_H-M   'P 1'
_cell_length_a   5.49379136
_cell_length_b   7.02270773
_cell_length_c   13.33228145
_cell_angle_alpha   90.00000000
_cell_angle_beta   90.00000000
_cell_angle_gamma   90.00000000
_symmetry_Int_Tables_number   1
_chemical_formula_structural   SrAl2Au3
_chemical_formula_sum   'Sr4 Al8 Au12'
_cell_volume   514.37663099
_cell_formula_units_Z   4
loop_
 _symmetry_equiv_pos_site_id
 _symmetry_equiv_pos_as_xyz
  1  'x, y, z'
loop_
 _atom_site_type_symbol
 _atom_site_label
 _atom_site_symmetry_multiplicity
 _atom_site_fract_x
 _atom_site_fract_y
 _atom_site_fract_z
 _atom_site_occupancy
  Sr  Sr0  1  0.25000000  0.65312896  0.91049218  1
  Sr  Sr1  1  0.25000000  0.84687104  0.41049218  1
  Sr  Sr2  1  0.75000000  0.34687104  0.08950782  1
  Sr  Sr3  1  0.75000000  0.15312896  0.58950782  1
  Al  Al4  1  0.99926997  0.14254112  0.84906396  1
  Al  Al5  1  0.50073003  0.35745888  0.34906396  1
  Al  Al6  1  0.49926997  0.85745888  0.15093604  1
  Al  Al7  1  0.00073003  0.64254112  0.65093604  1
  Al  Al8  1  0.00073003  0.85745888  0.15093604  1
  Al  Al9  1  0.49926997  0.64254112  0.65093604  1
  Al  Al10  1  0.50073003  0.14254112  0.84906396  1
  Al  Al11  1  0.99926997  0.35745888  0.34906396  1
  Au  Au12  1  0.25000000  0.34790146  0.71780855  1
  Au  Au13  1  0.25000000  0.15209854  0.21780855  1
  Au  Au14  1  0.75000000  0.65209854  0.28219145  1
  Au  Au15  1  0.75000000  0.84790146  0.78219145  1
  Au  Au16  1  0.25000000  0.94144960  0.69323995  1
  Au  Au17  1  0.25000000  0.55855040  0.19323995  1
  Au  Au18  1  0.75000000  0.05855040  0.30676005  1
  Au  Au19  1  0.75000000  0.44144960  0.80676005  1
  Au  Au20  1  0.25000000  0.40299347  0.50793193  1
  Au  Au21  1  0.25000000  0.09700653  0.00793193  1
  Au  Au22  1  0.75000000  0.59700653  0.49206807  1
  Au  Au23  1  0.75000000  0.90299347  0.99206807  1
