# generated using pymatgen
data_ZnSi(AgS2)2
_symmetry_space_group_name_H-M   'P 1'
_cell_length_a   6.46664994
_cell_length_b   6.62267161
_cell_length_c   7.98347089
_cell_angle_alpha   90.00000000
_cell_angle_beta   90.34974596
_cell_angle_gamma   90.00000000
_symmetry_Int_Tables_number   1
_chemical_formula_structural   ZnSi(AgS2)2
_chemical_formula_sum   'Zn2 Si2 Ag4 S8'
_cell_volume   341.89773816
_cell_formula_units_Z   2
loop_
 _symmetry_equiv_pos_site_id
 _symmetry_equiv_pos_as_xyz
  1  'x, y, z'
loop_
 _atom_site_type_symbol
 _atom_site_label
 _atom_site_symmetry_multiplicity
 _atom_site_fract_x
 _atom_site_fract_y
 _atom_site_fract_z
 _atom_site_occupancy
  Zn  Zn0  1  0.72225284  0.68614417  0.32078119  1
  Zn  Zn1  1  0.22225284  0.31385583  0.82078119  1
  Si  Si2  1  0.21913177  0.81560645  0.57434140  1
  Si  Si3  1  0.71913177  0.18439355  0.07434140  1
  Ag  Ag4  1  0.73446340  0.68121730  0.82753094  1
  Ag  Ag5  1  0.23446340  0.31878270  0.32753094  1
  Ag  Ag6  1  0.22005526  0.84745385  0.07886245  1
  Ag  Ag7  1  0.72005526  0.15254615  0.57886245  1
  S  S8  1  0.61620353  0.87480289  0.08581668  1
  S  S9  1  0.11620353  0.12519711  0.58581668  1
  S  S10  1  0.08785668  0.68353930  0.35206525  1
  S  S11  1  0.58785668  0.31646070  0.85206525  1
  S  S12  1  0.55091633  0.80060416  0.56128019  1
  S  S13  1  0.05091633  0.19939584  0.06128019  1
  S  S14  1  0.12383020  0.66024212  0.79737190  1
  S  S15  1  0.62383020  0.33975788  0.29737190  1
