# generated using pymatgen
data_Zr5Sn3N
_symmetry_space_group_name_H-M   'P 1'
_cell_length_a   5.81355806
_cell_length_b   8.48855552
_cell_length_c   8.48803141
_cell_angle_alpha   120.00203547
_cell_angle_beta   90.00000000
_cell_angle_gamma   90.00000000
_symmetry_Int_Tables_number   1
_chemical_formula_structural   Zr5Sn3N
_chemical_formula_sum   'Zr10 Sn6 N2'
_cell_volume   362.74756799
_cell_formula_units_Z   2
loop_
 _symmetry_equiv_pos_site_id
 _symmetry_equiv_pos_as_xyz
  1  'x, y, z'
loop_
 _atom_site_type_symbol
 _atom_site_label
 _atom_site_symmetry_multiplicity
 _atom_site_fract_x
 _atom_site_fract_y
 _atom_site_fract_z
 _atom_site_occupancy
  Zr  Zr0  1  0.49999958  0.33332819  0.66666309  1
  Zr  Zr1  1  0.49999958  0.66666510  0.33333691  1
  Zr  Zr2  1  0.99999958  0.66667181  0.33333691  1
  Zr  Zr3  1  0.99999958  0.33333490  0.66666309  1
  Zr  Zr4  1  0.74999774  0.22029559  0.00000000  1
  Zr  Zr5  1  0.75000120  0.77966796  0.77967722  1
  Zr  Zr6  1  0.75000120  0.99999074  0.22032278  1
  Zr  Zr7  1  0.24999774  0.77970441  1.00000000  1
  Zr  Zr8  1  0.25000120  0.22033204  0.22032278  1
  Zr  Zr9  1  0.25000120  0.00000926  0.77967722  1
  Sn  Sn10  1  0.74999713  0.59480741  1.00000000  1
  Sn  Sn11  1  0.75000134  0.40521561  0.40521368  1
  Sn  Sn12  1  0.75000134  0.00000193  0.59478632  1
  Sn  Sn13  1  0.24999713  0.40519259  0.00000000  1
  Sn  Sn14  1  0.25000134  0.59478439  0.59478632  1
  Sn  Sn15  1  0.25000134  -0.00000193  0.40521368  1
  N  N16  1  0.50000090  0.00000306  1.00000000  1
  N  N17  1  0.00000090  0.99999694  0.00000000  1
