# generated using pymatgen
data_Ba2GdGaSe5
_symmetry_space_group_name_H-M   'P 1'
_cell_length_a   7.40656565
_cell_length_b   8.82239606
_cell_length_c   9.56081446
_cell_angle_alpha   103.62672089
_cell_angle_beta   103.08246520
_cell_angle_gamma   107.47341408
_symmetry_Int_Tables_number   1
_chemical_formula_structural   Ba2GdGaSe5
_chemical_formula_sum   'Ba4 Gd2 Ga2 Se10'
_cell_volume   548.58886988
_cell_formula_units_Z   2
loop_
 _symmetry_equiv_pos_site_id
 _symmetry_equiv_pos_as_xyz
  1  'x, y, z'
loop_
 _atom_site_type_symbol
 _atom_site_label
 _atom_site_symmetry_multiplicity
 _atom_site_fract_x
 _atom_site_fract_y
 _atom_site_fract_z
 _atom_site_occupancy
  Ba  Ba0  1  0.63433716  0.97830671  0.29121223  1
  Ba  Ba1  1  0.36566284  0.02169329  0.70878777  1
  Ba  Ba2  1  0.34176765  0.51021910  0.70628895  1
  Ba  Ba3  1  0.65823235  0.48978090  0.29371105  1
  Gd  Gd4  1  0.99768498  0.73125696  0.99796944  1
  Gd  Gd5  1  0.00231502  0.26874304  0.00203056  1
  Ga  Ga6  1  0.80479340  0.87136053  0.68720617  1
  Ga  Ga7  1  0.19520660  0.12863947  0.31279383  1
  Se  Se8  1  0.98764842  0.68381018  0.68321806  1
  Se  Se9  1  0.01235158  0.31618982  0.31678194  1
  Se  Se10  1  0.98286501  0.15164877  0.68630576  1
  Se  Se11  1  0.01713499  0.84835123  0.31369424  1
  Se  Se12  1  0.71031687  0.90752413  0.92508711  1
  Se  Se13  1  0.28968313  0.09247587  0.07491289  1
  Se  Se14  1  0.70459816  0.41046244  0.94497412  1
  Se  Se15  1  0.29540184  0.58953756  0.05502588  1
  Se  Se16  1  0.48845745  0.74092696  0.49223050  1
  Se  Se17  1  0.51154255  0.25907304  0.50776950  1
