# generated using pymatgen
data_V2PbO6
_symmetry_space_group_name_H-M   'P 1'
_cell_length_a   8.28452404
_cell_length_b   8.28452382
_cell_length_c   9.54420611
_cell_angle_alpha   90.00000000
_cell_angle_beta   90.00000000
_cell_angle_gamma   119.55688474
_symmetry_Int_Tables_number   1
_chemical_formula_structural   V2PbO6
_chemical_formula_sum   'V6 Pb3 O18'
_cell_volume   569.80658908
_cell_formula_units_Z   3
loop_
 _symmetry_equiv_pos_site_id
 _symmetry_equiv_pos_as_xyz
  1  'x, y, z'
loop_
 _atom_site_type_symbol
 _atom_site_label
 _atom_site_symmetry_multiplicity
 _atom_site_fract_x
 _atom_site_fract_y
 _atom_site_fract_z
 _atom_site_occupancy
  V  V0  1  0.66503471  0.74330757  0.75340453  1
  V  V1  1  0.74330757  0.66503471  0.24659547  1
  V  V2  1  0.33496529  0.25669243  0.75340453  1
  V  V3  1  -0.00000000  0.50000000  0.22298833  1
  V  V4  1  0.50000000  -0.00000000  0.77701167  1
  V  V5  1  0.25669243  0.33496529  0.24659547  1
  Pb  Pb6  1  0.85307356  0.14692644  0.50000000  1
  Pb  Pb7  1  0.14692644  0.85307356  0.50000000  1
  Pb  Pb8  1  -0.00000000  -0.00000000  -0.00000000  1
  O  O9  1  0.38297799  0.10693114  0.87132937  1
  O  O10  1  0.87982100  0.78473929  0.79819350  1
  O  O11  1  0.50000000  0.50000000  0.77292608  1
  O  O12  1  0.17515368  0.32522207  0.40892696  1
  O  O13  1  0.32522207  0.17515368  0.59107304  1
  O  O14  1  0.67477793  0.82484632  0.59107304  1
  O  O15  1  0.78473929  0.87982100  0.20180650  1
  O  O16  1  0.12017900  0.21526071  0.79819350  1
  O  O17  1  0.82484632  0.67477793  0.40892696  1
  O  O18  1  0.10693114  0.38297799  0.12867063  1
  O  O19  1  0.66531635  0.17208157  0.67835436  1
  O  O20  1  0.21526071  0.12017900  0.20180650  1
  O  O21  1  0.17208157  0.66531635  0.32164564  1
  O  O22  1  0.50000000  0.50000000  0.22707392  1
  O  O23  1  0.61702201  0.89306886  0.87132937  1
  O  O24  1  0.82791843  0.33468365  0.32164564  1
  O  O25  1  0.33468365  0.82791843  0.67835436  1
  O  O26  1  0.89306886  0.61702201  0.12867063  1
