# generated using pymatgen
data_CdCu2SiSe4
_symmetry_space_group_name_H-M   'P 1'
_cell_length_a   6.62962222
_cell_length_b   6.85525423
_cell_length_c   8.10158533
_cell_angle_alpha   90.00000000
_cell_angle_beta   90.00000000
_cell_angle_gamma   90.00000000
_symmetry_Int_Tables_number   1
_chemical_formula_structural   CdCu2SiSe4
_chemical_formula_sum   'Cd2 Cu4 Si2 Se8'
_cell_volume   368.19879039
_cell_formula_units_Z   2
loop_
 _symmetry_equiv_pos_site_id
 _symmetry_equiv_pos_as_xyz
  1  'x, y, z'
loop_
 _atom_site_type_symbol
 _atom_site_label
 _atom_site_symmetry_multiplicity
 _atom_site_fract_x
 _atom_site_fract_y
 _atom_site_fract_z
 _atom_site_occupancy
  Cd  Cd0  1  0.62865469  0.34810179  0.50000000  1
  Cd  Cd1  1  0.12865469  0.65189821  0.00000000  1
  Cu  Cu2  1  0.13078630  0.17573529  0.24901049  1
  Cu  Cu3  1  0.13078630  0.17573529  0.75098951  1
  Cu  Cu4  1  0.63078630  0.82426471  0.25098951  1
  Cu  Cu5  1  0.63078630  0.82426471  0.74901049  1
  Si  Si6  1  0.12105753  0.67724448  0.50000000  1
  Si  Si7  1  0.62105753  0.32275552  0.00000000  1
  Se  Se8  1  0.03242919  0.35047851  0.50000000  1
  Se  Se9  1  0.53242919  0.64952149  0.00000000  1
  Se  Se10  1  0.47080420  0.70541022  0.50000000  1
  Se  Se11  1  0.97080420  0.29458978  0.00000000  1
  Se  Se12  1  0.49524089  0.15679188  0.22777280  1
  Se  Se13  1  0.49524089  0.15679188  0.77222720  1
  Se  Se14  1  0.99524089  0.84320812  0.27222720  1
  Se  Se15  1  0.99524089  0.84320812  0.72777280  1
