# generated using pymatgen
data_Ba3UAgS6
_symmetry_space_group_name_H-M   'P 1'
_cell_length_a   8.51861779
_cell_length_b   8.51861779
_cell_length_c   8.51861764
_cell_angle_alpha   92.69647640
_cell_angle_beta   92.69647640
_cell_angle_gamma   92.69647838
_symmetry_Int_Tables_number   1
_chemical_formula_structural   Ba3UAgS6
_chemical_formula_sum   'Ba6 U2 Ag2 S12'
_cell_volume   616.04900970
_cell_formula_units_Z   2
loop_
 _symmetry_equiv_pos_site_id
 _symmetry_equiv_pos_as_xyz
  1  'x, y, z'
loop_
 _atom_site_type_symbol
 _atom_site_label
 _atom_site_symmetry_multiplicity
 _atom_site_fract_x
 _atom_site_fract_y
 _atom_site_fract_z
 _atom_site_occupancy
  Ba  Ba0  1  0.12446439  0.37554903  0.75000164  1
  Ba  Ba1  1  0.37554903  0.75000164  0.12446439  1
  Ba  Ba2  1  0.75000164  0.12446439  0.37554903  1
  Ba  Ba3  1  0.62446439  0.25000164  0.87554903  1
  Ba  Ba4  1  0.25000164  0.87554903  0.62446439  1
  Ba  Ba5  1  0.87554903  0.62446439  0.25000164  1
  U  U6  1  0.50000367  0.50000367  0.50000367  1
  U  U7  1  0.00000367  0.00000367  0.00000367  1
  Ag  Ag8  1  0.25000019  0.25000019  0.25000019  1
  Ag  Ag9  1  0.75000019  0.75000019  0.75000019  1
  S  S10  1  0.41663725  0.20687265  0.54829292  1
  S  S11  1  0.20687265  0.54829292  0.41663725  1
  S  S12  1  0.54829292  0.41663725  0.20687265  1
  S  S13  1  0.91663725  0.04829292  0.70687265  1
  S  S14  1  0.04829292  0.70687265  0.91663725  1
  S  S15  1  0.70687265  0.91663725  0.04829292  1
  S  S16  1  0.58336839  0.79313485  0.45170903  1
  S  S17  1  0.79313485  0.45170903  0.58336839  1
  S  S18  1  0.45170903  0.58336839  0.79313485  1
  S  S19  1  0.08336839  0.95170903  0.29313485  1
  S  S20  1  0.95170903  0.29313485  0.08336839  1
  S  S21  1  0.29313485  0.08336839  0.95170903  1
