# generated using pymatgen
data_BaNp(HO2)3
_symmetry_space_group_name_H-M   'P 1'
_cell_length_a   6.90513132
_cell_length_b   7.08294837
_cell_length_c   7.44457502
_cell_angle_alpha   89.43092101
_cell_angle_beta   65.49978614
_cell_angle_gamma   66.54569456
_symmetry_Int_Tables_number   1
_chemical_formula_structural   BaNp(HO2)3
_chemical_formula_sum   'Ba2 Np2 H6 O12'
_cell_volume   298.65191507
_cell_formula_units_Z   2
loop_
 _symmetry_equiv_pos_site_id
 _symmetry_equiv_pos_as_xyz
  1  'x, y, z'
loop_
 _atom_site_type_symbol
 _atom_site_label
 _atom_site_symmetry_multiplicity
 _atom_site_fract_x
 _atom_site_fract_y
 _atom_site_fract_z
 _atom_site_occupancy
  Ba  Ba0  1  0.29199251  0.04148118  0.33169956  1
  Ba  Ba1  1  0.70800749  0.95851882  0.66830044  1
  Np  Np2  1  0.00000000  -0.00000000  -0.00000000  1
  Np  Np3  1  0.50000000  0.50000000  0.50000000  1
  H  H4  1  0.77007983  0.45226343  0.06116145  1
  H  H5  1  0.22992017  0.54773657  0.93883855  1
  H  H6  1  0.01598263  0.45605434  0.20479910  1
  H  H7  1  0.98401737  0.54394566  0.79520090  1
  H  H8  1  0.17392586  0.53631709  0.26366569  1
  H  H9  1  0.82607414  0.46368291  0.73633431  1
  O  O10  1  0.71218609  0.98949858  0.04146602  1
  O  O11  1  0.28781391  0.01050142  0.95853398  1
  O  O12  1  0.96529089  0.93964733  0.25740952  1
  O  O13  1  0.03470911  0.06035267  0.74259048  1
  O  O14  1  0.74285552  0.34352007  0.57758700  1
  O  O15  1  0.25714448  0.65647993  0.42241300  1
  O  O16  1  0.57907395  0.73225250  0.47639378  1
  O  O17  1  0.42092605  0.26774750  0.52360622  1
  O  O18  1  0.79132075  0.36348950  0.16146514  1
  O  O19  1  0.20867925  0.63651050  0.83853486  1
  O  O20  1  0.17910463  0.42837177  0.17617093  1
  O  O21  1  0.82089537  0.57162823  0.82382907  1
