# generated using pymatgen
data_Dy2CuTe2(SO7)2
_symmetry_space_group_name_H-M   'P 1'
_cell_length_a   5.20636634
_cell_length_b   7.97375042
_cell_length_c   8.22050986
_cell_angle_alpha   62.05746008
_cell_angle_beta   74.26155799
_cell_angle_gamma   85.23228634
_symmetry_Int_Tables_number   1
_chemical_formula_structural   Dy2CuTe2(SO7)2
_chemical_formula_sum   'Dy2 Cu1 Te2 S2 O14'
_cell_volume   289.79155151
_cell_formula_units_Z   1
loop_
 _symmetry_equiv_pos_site_id
 _symmetry_equiv_pos_as_xyz
  1  'x, y, z'
loop_
 _atom_site_type_symbol
 _atom_site_label
 _atom_site_symmetry_multiplicity
 _atom_site_fract_x
 _atom_site_fract_y
 _atom_site_fract_z
 _atom_site_occupancy
  Dy  Dy0  1  0.92938363  0.74841153  0.98217628  1
  Dy  Dy1  1  0.07061637  0.25158847  0.01782372  1
  Cu  Cu2  1  -0.00000000  -0.00000000  0.50000000  1
  Te  Te3  1  0.49050048  0.72852897  0.65456544  1
  Te  Te4  1  0.50949952  0.27147103  0.34543456  1
  S  S5  1  0.25516562  0.74695853  0.25126509  1
  S  S6  1  0.74483438  0.25304147  0.74873491  1
  O  O7  1  0.14468700  0.58630932  0.24086473  1
  O  O8  1  0.85531300  0.41369068  0.75913527  1
  O  O9  1  0.14199130  0.74559111  0.43582550  1
  O  O10  1  0.85800870  0.25440889  0.56417450  1
  O  O11  1  0.55065986  0.73866611  0.21470918  1
  O  O12  1  0.44934014  0.26133389  0.78529082  1
  O  O13  1  0.17591862  0.92141318  0.09279880  1
  O  O14  1  0.82408138  0.07858682  0.90720120  1
  O  O15  1  0.25041750  0.56040952  0.89043528  1
  O  O16  1  0.74958250  0.43959048  0.10956472  1
  O  O17  1  0.73094965  0.81228916  0.74503026  1
  O  O18  1  0.26905035  0.18771084  0.25496974  1
  O  O19  1  0.25069555  0.92796075  0.65845273  1
  O  O20  1  0.74930445  0.07203925  0.34154727  1
