# generated using pymatgen
data_K2V2CoO7
_symmetry_space_group_name_H-M   'P 1'
_cell_length_a   5.68625518
_cell_length_b   8.60187015
_cell_length_c   8.60187015
_cell_angle_alpha   90.00000000
_cell_angle_beta   90.00000000
_cell_angle_gamma   90.00000000
_symmetry_Int_Tables_number   1
_chemical_formula_structural   K2V2CoO7
_chemical_formula_sum   'K4 V4 Co2 O14'
_cell_volume   420.73836038
_cell_formula_units_Z   2
loop_
 _symmetry_equiv_pos_site_id
 _symmetry_equiv_pos_as_xyz
  1  'x, y, z'
loop_
 _atom_site_type_symbol
 _atom_site_label
 _atom_site_symmetry_multiplicity
 _atom_site_fract_x
 _atom_site_fract_y
 _atom_site_fract_z
 _atom_site_occupancy
  K  K0  1  0.50545058  0.16197635  0.66197635  1
  K  K1  1  0.49454942  0.33802365  0.16197635  1
  K  K2  1  0.50545058  0.83802365  0.33802365  1
  K  K3  1  0.49454942  0.66197635  0.83802365  1
  V  V4  1  0.05089871  0.14225117  0.35774883  1
  V  V5  1  0.94910129  0.35774883  0.85774883  1
  V  V6  1  0.05089871  0.85774883  0.64225117  1
  V  V7  1  0.94910129  0.64225117  0.14225117  1
  Co  Co8  1  0.00000000  0.50000000  0.50000000  1
  Co  Co9  1  0.00000000  -0.00000000  0.00000000  1
  O  O10  1  0.16963714  0.32087680  0.41220303  1
  O  O11  1  0.83036286  0.17912320  0.91220303  1
  O  O12  1  0.16963714  0.67912320  0.58779697  1
  O  O13  1  0.83036286  0.82087680  0.08779697  1
  O  O14  1  0.83036286  0.58779697  0.32087680  1
  O  O15  1  0.16963714  0.91220303  0.82087680  1
  O  O16  1  0.83036286  0.41220303  0.67912320  1
  O  O17  1  0.16963714  0.08779697  0.17912320  1
  O  O18  1  0.15330058  -0.00000000  0.50000000  1
  O  O19  1  0.84669942  0.50000000  0.00000000  1
  O  O20  1  0.75575725  0.14613107  0.35386893  1
  O  O21  1  0.24424275  0.35386893  0.85386893  1
  O  O22  1  0.75575725  0.85386893  0.64613107  1
  O  O23  1  0.24424275  0.64613107  0.14613107  1
