# generated using pymatgen
data_NaNbSe2O7
_symmetry_space_group_name_H-M   'P 1'
_cell_length_a   6.88792611
_cell_length_b   6.88792611
_cell_length_c   7.51635147
_cell_angle_alpha   90.00000000
_cell_angle_beta   90.00000000
_cell_angle_gamma   110.33691504
_symmetry_Int_Tables_number   1
_chemical_formula_structural   NaNbSe2O7
_chemical_formula_sum   'Na2 Nb2 Se4 O14'
_cell_volume   334.37349416
_cell_formula_units_Z   2
loop_
 _symmetry_equiv_pos_site_id
 _symmetry_equiv_pos_as_xyz
  1  'x, y, z'
loop_
 _atom_site_type_symbol
 _atom_site_label
 _atom_site_symmetry_multiplicity
 _atom_site_fract_x
 _atom_site_fract_y
 _atom_site_fract_z
 _atom_site_occupancy
  Na  Na0  1  0.97996614  0.97996614  0.36459075  1
  Na  Na1  1  0.02003386  0.02003386  0.86459075  1
  Nb  Nb2  1  0.51187504  0.51187504  0.90038958  1
  Nb  Nb3  1  0.48812496  0.48812496  0.40038958  1
  Se  Se4  1  0.96581280  0.56467964  0.62624343  1
  Se  Se5  1  0.56467964  0.96581280  0.62624343  1
  Se  Se6  1  0.03418720  0.43532036  0.12624343  1
  Se  Se7  1  0.43532036  0.03418720  0.12624343  1
  O  O8  1  0.79894132  0.54658513  0.81035896  1
  O  O9  1  0.54658513  0.79894132  0.81035896  1
  O  O10  1  0.20105868  0.45341487  0.31035896  1
  O  O11  1  0.45341487  0.20105868  0.31035896  1
  O  O12  1  0.79375804  0.54374187  0.44446793  1
  O  O13  1  0.54374187  0.79375804  0.44446793  1
  O  O14  1  0.20624196  0.45625813  0.94446793  1
  O  O15  1  0.45625813  0.20624196  0.94446793  1
  O  O16  1  0.09851490  0.81920543  0.62220831  1
  O  O17  1  0.81920543  0.09851490  0.62220831  1
  O  O18  1  0.90148510  0.18079457  0.12220831  1
  O  O19  1  0.18079457  0.90148510  0.12220831  1
  O  O20  1  0.41286992  0.41286992  0.63140240  1
  O  O21  1  0.58713008  0.58713008  0.13140240  1
