# generated using pymatgen
data_FeSeO3F
_symmetry_space_group_name_H-M   'P 1'
_cell_length_a   5.05116174
_cell_length_b   5.27528877
_cell_length_c   12.15455602
_cell_angle_alpha   90.00000000
_cell_angle_beta   97.74559198
_cell_angle_gamma   90.00000000
_symmetry_Int_Tables_number   1
_chemical_formula_structural   FeSeO3F
_chemical_formula_sum   'Fe4 Se4 O12 F4'
_cell_volume   320.91945040
_cell_formula_units_Z   4
loop_
 _symmetry_equiv_pos_site_id
 _symmetry_equiv_pos_as_xyz
  1  'x, y, z'
loop_
 _atom_site_type_symbol
 _atom_site_label
 _atom_site_symmetry_multiplicity
 _atom_site_fract_x
 _atom_site_fract_y
 _atom_site_fract_z
 _atom_site_occupancy
  Fe  Fe0  1  0.04284818  0.75374416  0.42863129  1
  Fe  Fe1  1  0.54284818  0.74625584  0.92863129  1
  Fe  Fe2  1  0.95715182  0.24625584  0.57136871  1
  Fe  Fe3  1  0.45715182  0.25374416  0.07136871  1
  Se  Se4  1  0.98514169  0.85781645  0.16622916  1
  Se  Se5  1  0.48514169  0.64218355  0.66622916  1
  Se  Se6  1  0.01485831  0.14218355  0.83377084  1
  Se  Se7  1  0.51485831  0.35781645  0.33377084  1
  O  O8  1  0.17330479  0.12694432  0.15379139  1
  O  O9  1  0.67330479  0.37305568  0.65379139  1
  O  O10  1  0.82669521  0.87305568  0.84620861  1
  O  O11  1  0.32669521  0.62694432  0.34620861  1
  O  O12  1  0.68899466  0.93871965  0.07543191  1
  O  O13  1  0.18899466  0.56128035  0.57543191  1
  O  O14  1  0.31100534  0.06128035  0.92456809  1
  O  O15  1  0.81100534  0.43871965  0.42456809  1
  O  O16  1  0.87613277  0.92312375  0.29147662  1
  O  O17  1  0.37613277  0.57687625  0.79147662  1
  O  O18  1  0.12386723  0.07687625  0.70852338  1
  O  O19  1  0.62386723  0.42312375  0.20852338  1
  F  F20  1  0.23100138  0.06496330  0.49043063  1
  F  F21  1  0.73100138  0.43503670  0.99043063  1
  F  F22  1  0.76899862  0.93503670  0.50956937  1
  F  F23  1  0.26899862  0.56496330  0.00956937  1
