# generated using pymatgen
data_Ag2P2PdO7
_symmetry_space_group_name_H-M   'P 1'
_cell_length_a   5.81039116
_cell_length_b   8.34004962
_cell_length_c   8.52051718
_cell_angle_alpha   115.20408802
_cell_angle_beta   109.93565967
_cell_angle_gamma   90.00000000
_symmetry_Int_Tables_number   1
_chemical_formula_structural   Ag2P2PdO7
_chemical_formula_sum   'Ag4 P4 Pd2 O14'
_cell_volume   346.04473085
_cell_formula_units_Z   2
loop_
 _symmetry_equiv_pos_site_id
 _symmetry_equiv_pos_as_xyz
  1  'x, y, z'
loop_
 _atom_site_type_symbol
 _atom_site_label
 _atom_site_symmetry_multiplicity
 _atom_site_fract_x
 _atom_site_fract_y
 _atom_site_fract_z
 _atom_site_occupancy
  Ag  Ag0  1  0.37538538  0.29373265  0.46888806  1
  Ag  Ag1  1  0.90649732  0.20626735  0.53111194  1
  Ag  Ag2  1  0.62461462  0.70626735  0.53111194  1
  Ag  Ag3  1  0.09350268  0.79373265  0.46888806  1
  P  P4  1  0.75842834  0.34210060  0.20171330  1
  P  P5  1  0.55671504  0.15789940  0.79828670  1
  P  P6  1  0.24157166  0.65789940  0.79828670  1
  P  P7  1  0.44328496  0.84210060  0.20171330  1
  Pd  Pd8  1  -0.00000000  0.50000000  -0.00000000  1
  Pd  Pd9  1  -0.00000000  -0.00000000  -0.00000000  1
  O  O10  1  0.30118823  0.09528053  0.64259050  1
  O  O11  1  0.65859773  0.40471947  0.35740950  1
  O  O12  1  0.69881177  0.90471947  0.35740950  1
  O  O13  1  0.34140227  0.59528053  0.64259050  1
  O  O14  1  0.52618598  0.25000000  -0.00000000  1
  O  O15  1  0.47381402  0.75000000  -0.00000000  1
  O  O16  1  0.70784714  0.30500145  0.78870187  1
  O  O17  1  0.91914528  0.19499855  0.21129813  1
  O  O18  1  0.29215286  0.69499855  0.21129813  1
  O  O19  1  0.08085472  0.80500145  0.78870187  1
  O  O20  1  0.31103198  0.00502245  0.20775061  1
  O  O21  1  0.10328137  0.49497755  0.79224939  1
  O  O22  1  0.68896802  0.99497755  0.79224939  1
  O  O23  1  0.89671863  0.50502245  0.20775061  1
