# generated using pymatgen
data_TeAs(SeF3)2
_symmetry_space_group_name_H-M   'P 1'
_cell_length_a   8.80369465
_cell_length_b   15.33174804
_cell_length_c   24.19908511
_cell_angle_alpha   90.00000000
_cell_angle_beta   90.00000000
_cell_angle_gamma   90.00000000
_symmetry_Int_Tables_number   1
_chemical_formula_structural   TeAs(SeF3)2
_chemical_formula_sum   'Te16 As16 Se32 F96'
_cell_volume   3266.29639410
_cell_formula_units_Z   16
loop_
 _symmetry_equiv_pos_site_id
 _symmetry_equiv_pos_as_xyz
  1  'x, y, z'
loop_
 _atom_site_type_symbol
 _atom_site_label
 _atom_site_symmetry_multiplicity
 _atom_site_fract_x
 _atom_site_fract_y
 _atom_site_fract_z
 _atom_site_occupancy
  Te  Te0  1  0.07580904  0.74633347  0.75165360  1
  Te  Te1  1  0.17932019  0.59988210  0.68818716  1
  Te  Te2  1  0.81921914  0.52264432  0.06299763  1
  Te  Te3  1  0.18078086  0.02264432  0.93700237  1
  Te  Te4  1  0.94403529  0.38534859  0.99589584  1
  Te  Te5  1  0.92419096  0.24633347  0.24834640  1
  Te  Te6  1  0.32067981  0.59988210  0.18818716  1
  Te  Te7  1  0.31921914  0.02264432  0.43700237  1
  Te  Te8  1  0.82067981  0.09988210  0.31181284  1
  Te  Te9  1  0.42419096  0.74633347  0.25165360  1
  Te  Te10  1  0.44403529  0.88534859  0.50410416  1
  Te  Te11  1  0.68078086  0.52264432  0.56299763  1
  Te  Te12  1  0.05596471  0.88534859  0.00410416  1
  Te  Te13  1  0.55596471  0.38534859  0.49589584  1
  Te  Te14  1  0.57580904  0.24633347  0.74834640  1
  Te  Te15  1  0.67932019  0.09988210  0.81181284  1
  As  As16  1  0.74503904  0.50161708  0.73191085  1
  As  As17  1  0.23084710  0.33898243  0.62733708  1
  As  As18  1  0.75496096  0.50161708  0.23191085  1
  As  As19  1  0.26915290  0.33898243  0.12733708  1
  As  As20  1  0.20867883  0.29468548  0.38642403  1
  As  As21  1  0.25250862  0.62894071  0.52157134  1
  As  As22  1  0.24749138  0.62894071  0.02157134  1
  As  As23  1  0.70867883  0.79468548  0.11357597  1
  As  As24  1  0.79132117  0.79468548  0.61357597  1
  As  As25  1  0.25496096  0.00161708  0.26808915  1
  As  As26  1  0.29132117  0.29468548  0.88642403  1
  As  As27  1  0.24503904  0.00161708  0.76808915  1
  As  As28  1  0.74749138  0.12894071  0.47842866  1
  As  As29  1  0.75250862  0.12894071  0.97842866  1
  As  As30  1  0.73084710  0.83898243  0.87266292  1
  As  As31  1  0.76915290  0.83898243  0.37266292  1
  Se  Se32  1  0.64497732  0.10911326  0.17369187  1
  Se  Se33  1  0.81766118  0.38049128  0.54067971  1
  Se  Se34  1  0.62767595  0.50316887  0.92795052  1
  Se  Se35  1  0.27609517  0.11673288  0.01898761  1
  Se  Se36  1  0.35502268  0.60911326  0.82630813  1
  Se  Se37  1  0.65837626  0.23316724  0.28903696  1
  Se  Se38  1  0.74582463  0.00089153  0.72823575  1
  Se  Se39  1  0.13016011  0.68116700  0.84921010  1
  Se  Se40  1  0.72390483  0.61673288  0.98101239  1
  Se  Se41  1  0.34162374  0.73316724  0.71096304  1
  Se  Se42  1  0.13546569  0.94970988  0.09909143  1
  Se  Se43  1  0.12767595  0.00316887  0.57204948  1
  Se  Se44  1  0.36983989  0.68116700  0.34921010  1
  Se  Se45  1  0.87232405  0.50316887  0.42795052  1
  Se  Se46  1  0.24582463  0.50089153  0.77176425  1
  Se  Se47  1  0.18233882  0.88049128  0.45932029  1
  Se  Se48  1  0.68233882  0.38049128  0.04067971  1
  Se  Se49  1  0.63546569  0.44970988  0.40090857  1
  Se  Se50  1  0.86983989  0.18116700  0.15078990  1
  Se  Se51  1  0.77609517  0.61673288  0.48101239  1
  Se  Se52  1  0.14497732  0.60911326  0.32630813  1
  Se  Se53  1  0.15837626  0.73316724  0.21096304  1
  Se  Se54  1  0.36453431  0.94970988  0.59909143  1
  Se  Se55  1  0.37232405  0.00316887  0.07204948  1
  Se  Se56  1  0.85502268  0.10911326  0.67369187  1
  Se  Se57  1  0.31766118  0.88049128  0.95932029  1
  Se  Se58  1  0.63016011  0.18116700  0.65078990  1
  Se  Se59  1  0.25417537  0.50089153  0.27176425  1
  Se  Se60  1  0.86453431  0.44970988  0.90090857  1
  Se  Se61  1  0.75417537  0.00089153  0.22823575  1
  Se  Se62  1  0.22390483  0.11673288  0.51898761  1
  Se  Se63  1  0.84162374  0.23316724  0.78903696  1
  F  F64  1  0.90546531  0.75373800  0.37334763  1
  F  F65  1  0.88197358  0.80499877  0.54893562  1
  F  F66  1  0.16357635  0.37739644  0.56308991  1
  F  F67  1  0.87448765  0.47962439  0.28911475  1
  F  F68  1  0.30180950  0.28669323  0.32189792  1
  F  F69  1  0.77717791  0.22806788  0.44202147  1
  F  F70  1  0.14316708  0.23163805  0.91797735  1
  F  F71  1  0.13533502  0.27107650  0.09229569  1
  F  F72  1  0.58930753  0.17783106  0.51256822  1
  F  F73  1  0.86782219  0.92368824  0.87084714  1
  F  F74  1  0.10700005  0.19731191  0.37240517  1
  F  F75  1  0.06204930  0.35742748  0.35482360  1
  F  F76  1  0.89299995  0.69731191  0.62759483  1
  F  F77  1  0.31489635  0.39196076  0.40065578  1
  F  F78  1  0.66357635  0.87739644  0.93691009  1
  F  F79  1  0.72282209  0.22806788  0.94202147  1
  F  F80  1  0.18510365  0.39196076  0.90065578  1
  F  F81  1  0.08930753  0.67783106  0.98743178  1
  F  F82  1  0.85683292  0.73163805  0.08202265  1
  F  F83  1  0.33321659  0.08813241  0.73175084  1
  F  F84  1  0.39173434  0.07327780  0.29655026  1
  F  F85  1  0.33642365  0.37739644  0.06308991  1
  F  F86  1  0.36782219  0.42368824  0.62915286  1
  F  F87  1  0.63533502  0.77107650  0.40770431  1
  F  F88  1  0.21187888  0.53051304  0.98564435  1
  F  F89  1  0.36555889  0.02252364  0.82615536  1
  F  F90  1  0.10138654  0.40814257  0.66278550  1
  F  F91  1  0.22282209  0.72806788  0.55797853  1
  F  F92  1  0.93795070  0.85742748  0.64517640  1
  F  F93  1  0.83642365  0.87739644  0.43691009  1
  F  F94  1  0.80097064  0.79924367  0.80775102  1
  F  F95  1  0.60826566  0.57327780  0.70344974  1
  F  F96  1  0.33904867  0.91331099  0.30561257  1
  F  F97  1  0.19819050  0.28669323  0.82189792  1
  F  F98  1  0.28812112  0.53051304  0.48564435  1
  F  F99  1  0.12293708  0.59440869  0.07616445  1
  F  F100  1  0.86466498  0.77107650  0.90770431  1
  F  F101  1  0.83904867  0.41331099  0.19438743  1
  F  F102  1  0.39299995  0.19731191  0.87240517  1
  F  F103  1  0.09453469  0.25373800  0.62665237  1
  F  F104  1  0.66095133  0.41331099  0.69438743  1
  F  F105  1  0.40546531  0.25373800  0.12665237  1
  F  F106  1  0.10826566  0.07327780  0.79655026  1
  F  F107  1  0.69902936  0.79924367  0.30775102  1
  F  F108  1  0.56204930  0.85742748  0.14517640  1
  F  F109  1  0.87706292  0.09440869  0.92383555  1
  F  F110  1  0.71187888  0.03051304  0.51435565  1
  F  F111  1  0.19902936  0.29924367  0.19224898  1
  F  F112  1  0.61802642  0.80499877  0.04893562  1
  F  F113  1  0.78812112  0.03051304  0.01435565  1
  F  F114  1  0.89861346  0.90814257  0.33721450  1
  F  F115  1  0.86555889  0.52252364  0.67384464  1
  F  F116  1  0.62293708  0.09440869  0.42383555  1
  F  F117  1  0.11852981  0.92756692  0.24094168  1
  F  F118  1  0.35683292  0.23163805  0.41797735  1
  F  F119  1  0.38197358  0.30499877  0.95106438  1
  F  F120  1  0.39861346  0.40814257  0.16278550  1
  F  F121  1  0.90163768  0.08051702  0.44309808  1
  F  F122  1  0.80180950  0.78669323  0.17810208  1
  F  F123  1  0.62551235  0.47962439  0.78911475  1
  F  F124  1  0.88147019  0.42756692  0.75905832  1
  F  F125  1  0.16095133  0.91331099  0.80561257  1
  F  F126  1  0.60700005  0.69731191  0.12759483  1
  F  F127  1  0.37706292  0.59440869  0.57616445  1
  F  F128  1  0.63444111  0.52252364  0.17384464  1
  F  F129  1  0.91069247  0.17783106  0.01256822  1
  F  F130  1  0.89173434  0.57327780  0.20344974  1
  F  F131  1  0.09836232  0.58051702  0.55690192  1
  F  F132  1  0.59453469  0.75373800  0.87334763  1
  F  F133  1  0.36810056  0.66493442  0.96734442  1
  F  F134  1  0.69819050  0.78669323  0.67810208  1
  F  F135  1  0.60138654  0.90814257  0.83721450  1
  F  F136  1  0.12551235  0.97962439  0.71088525  1
  F  F137  1  0.63189944  0.16493442  0.03265558  1
  F  F138  1  0.36466498  0.27107650  0.59229569  1
  F  F139  1  0.37448765  0.97962439  0.21088525  1
  F  F140  1  0.81489635  0.89196076  0.09934422  1
  F  F141  1  0.13217781  0.42368824  0.12915286  1
  F  F142  1  0.43795070  0.35742748  0.85482360  1
  F  F143  1  0.68510365  0.89196076  0.59934422  1
  F  F144  1  0.27717791  0.72806788  0.05797853  1
  F  F145  1  0.13444111  0.02252364  0.32615536  1
  F  F146  1  0.40163768  0.58051702  0.05690192  1
  F  F147  1  0.30097064  0.29924367  0.69224898  1
  F  F148  1  0.59836232  0.08051702  0.94309808  1
  F  F149  1  0.83321659  0.58813241  0.76824916  1
  F  F150  1  0.63217781  0.92368824  0.37084714  1
  F  F151  1  0.16678341  0.08813241  0.23175084  1
  F  F152  1  0.64316708  0.73163805  0.58202265  1
  F  F153  1  0.66678341  0.58813241  0.26824916  1
  F  F154  1  0.61852981  0.42756692  0.25905832  1
  F  F155  1  0.11802642  0.30499877  0.45106438  1
  F  F156  1  0.13189944  0.66493442  0.46734442  1
  F  F157  1  0.41069247  0.67783106  0.48743178  1
  F  F158  1  0.38147019  0.92756692  0.74094168  1
  F  F159  1  0.86810056  0.16493442  0.53265558  1
