# generated using pymatgen
data_LaIn2Ni9
_symmetry_space_group_name_H-M   'P 1'
_cell_length_a   4.83240648
_cell_length_b   8.32598654
_cell_length_c   8.32598654
_cell_angle_alpha   90.00000000
_cell_angle_beta   90.00000000
_cell_angle_gamma   90.00000000
_symmetry_Int_Tables_number   1
_chemical_formula_structural   LaIn2Ni9
_chemical_formula_sum   'La2 In4 Ni18'
_cell_volume   334.99233264
_cell_formula_units_Z   2
loop_
 _symmetry_equiv_pos_site_id
 _symmetry_equiv_pos_as_xyz
  1  'x, y, z'
loop_
 _atom_site_type_symbol
 _atom_site_label
 _atom_site_symmetry_multiplicity
 _atom_site_fract_x
 _atom_site_fract_y
 _atom_site_fract_z
 _atom_site_occupancy
  La  La0  1  -0.00000000  0.50000000  0.50000000  1
  La  La1  1  -0.00000000  0.00000000  0.00000000  1
  In  In2  1  -0.00000000  0.62305870  0.12305870  1
  In  In3  1  -0.00000000  0.37694130  0.87694130  1
  In  In4  1  -0.00000000  0.87694130  0.62305870  1
  In  In5  1  -0.00000000  0.12305870  0.37694130  1
  Ni  Ni6  1  0.74989215  0.17732715  0.67732715  1
  Ni  Ni7  1  0.74989215  0.82267285  0.32267285  1
  Ni  Ni8  1  0.74989215  0.32267285  0.17732715  1
  Ni  Ni9  1  0.74989215  0.67732715  0.82267285  1
  Ni  Ni10  1  0.25010785  0.82267285  0.32267285  1
  Ni  Ni11  1  0.25010785  0.17732715  0.67732715  1
  Ni  Ni12  1  0.25010785  0.67732715  0.82267285  1
  Ni  Ni13  1  0.25010785  0.32267285  0.17732715  1
  Ni  Ni14  1  0.50000000  0.71056816  0.56455611  1
  Ni  Ni15  1  0.50000000  0.28943184  0.43544389  1
  Ni  Ni16  1  0.50000000  0.78943184  0.06455611  1
  Ni  Ni17  1  0.50000000  0.21056816  0.93544389  1
  Ni  Ni18  1  0.50000000  0.56455611  0.28943184  1
  Ni  Ni19  1  0.50000000  0.43544389  0.71056816  1
  Ni  Ni20  1  0.50000000  0.06455611  0.21056816  1
  Ni  Ni21  1  0.50000000  0.93544389  0.78943184  1
  Ni  Ni22  1  0.50000000  0.00000000  0.50000000  1
  Ni  Ni23  1  0.50000000  0.50000000  0.00000000  1
