# generated using pymatgen
data_TmNiB4
_symmetry_space_group_name_H-M   'P 1'
_cell_length_a   3.39112396
_cell_length_b   5.87906185
_cell_length_c   11.39325239
_cell_angle_alpha   90.00000000
_cell_angle_beta   90.00000000
_cell_angle_gamma   90.00000000
_symmetry_Int_Tables_number   1
_chemical_formula_structural   TmNiB4
_chemical_formula_sum   'Tm4 Ni4 B16'
_cell_volume   227.14302893
_cell_formula_units_Z   4
loop_
 _symmetry_equiv_pos_site_id
 _symmetry_equiv_pos_as_xyz
  1  'x, y, z'
loop_
 _atom_site_type_symbol
 _atom_site_label
 _atom_site_symmetry_multiplicity
 _atom_site_fract_x
 _atom_site_fract_y
 _atom_site_fract_z
 _atom_site_occupancy
  Tm  Tm0  1  -0.00000000  0.62717943  0.34965559  1
  Tm  Tm1  1  -0.00000000  0.37282057  0.65034441  1
  Tm  Tm2  1  -0.00000000  0.12717943  0.15034441  1
  Tm  Tm3  1  -0.00000000  0.87282057  0.84965559  1
  Ni  Ni4  1  0.00000000  0.63387740  0.08834886  1
  Ni  Ni5  1  -0.00000000  0.36612260  0.91165114  1
  Ni  Ni6  1  0.00000000  0.13387740  0.41165114  1
  Ni  Ni7  1  0.00000000  0.86612260  0.58834886  1
  B  B8  1  0.50000000  0.78502681  0.18499590  1
  B  B9  1  0.50000000  0.21497319  0.81500410  1
  B  B10  1  0.50000000  0.28502681  0.31500410  1
  B  B11  1  0.50000000  0.71497319  0.68499590  1
  B  B12  1  0.50000000  0.86260579  0.03287688  1
  B  B13  1  0.50000000  0.13739421  0.96712312  1
  B  B14  1  0.50000000  0.36260579  0.46712312  1
  B  B15  1  0.50000000  0.63739421  0.53287688  1
  B  B16  1  0.50000000  0.88655337  0.45218866  1
  B  B17  1  0.50000000  0.11344663  0.54781134  1
  B  B18  1  0.50000000  0.38655337  0.04781134  1
  B  B19  1  0.50000000  0.61344663  0.95218866  1
  B  B20  1  0.50000000  0.97859997  0.30801372  1
  B  B21  1  0.50000000  0.02140003  0.69198628  1
  B  B22  1  0.50000000  0.47859997  0.19198628  1
  B  B23  1  0.50000000  0.52140003  0.80801372  1
