# generated using pymatgen
data_BaSi9Rh2
_symmetry_space_group_name_H-M   'P 1'
_cell_length_a   6.26305049
_cell_length_b   6.27844991
_cell_length_c   11.21512988
_cell_angle_alpha   90.08051318
_cell_angle_beta   73.78614748
_cell_angle_gamma   90.28834817
_symmetry_Int_Tables_number   1
_chemical_formula_structural   BaSi9Rh2
_chemical_formula_sum   'Ba2 Si18 Rh4'
_cell_volume   423.45835721
_cell_formula_units_Z   2
loop_
 _symmetry_equiv_pos_site_id
 _symmetry_equiv_pos_as_xyz
  1  'x, y, z'
loop_
 _atom_site_type_symbol
 _atom_site_label
 _atom_site_symmetry_multiplicity
 _atom_site_fract_x
 _atom_site_fract_y
 _atom_site_fract_z
 _atom_site_occupancy
  Ba  Ba0  1  0.31306268  0.75000000  0.37387464  1
  Ba  Ba1  1  0.68693732  0.25000000  0.62612536  1
  Si  Si2  1  0.83988325  0.52407257  0.32061926  1
  Si  Si3  1  0.83949749  0.97592743  0.32061926  1
  Si  Si4  1  0.16011675  0.47592743  0.67938074  1
  Si  Si5  1  0.16050251  0.02407257  0.67938074  1
  Si  Si6  1  0.88598915  0.75287417  0.68183143  1
  Si  Si7  1  0.43217941  0.74712583  0.68183143  1
  Si  Si8  1  0.11401085  0.24712583  0.31816857  1
  Si  Si9  1  0.56782059  0.25287417  0.31816857  1
  Si  Si10  1  0.91608692  0.61102327  0.91106881  1
  Si  Si11  1  0.17284427  0.88897673  0.91106881  1
  Si  Si12  1  0.08391308  0.38897673  0.08893119  1
  Si  Si13  1  0.82715573  0.11102327  0.08893119  1
  Si  Si14  1  0.32796127  0.88857597  0.08854626  1
  Si  Si15  1  0.58349246  0.61142403  0.08854626  1
  Si  Si16  1  0.67203873  0.11142403  0.91145374  1
  Si  Si17  1  0.41650754  0.38857597  0.91145374  1
  Si  Si18  1  0.74949272  0.75000000  0.50101455  1
  Si  Si19  1  0.25050728  0.25000000  0.49898545  1
  Rh  Rh20  1  0.93039312  0.75000000  0.13921377  1
  Rh  Rh21  1  0.06960688  0.25000000  0.86078623  1
  Rh  Rh22  1  0.56819914  0.75000000  0.86360173  1
  Rh  Rh23  1  0.43180086  0.25000000  0.13639827  1
