# generated using pymatgen
data_Li8Pr7Ge10
_symmetry_space_group_name_H-M   'P 1'
_cell_length_a   4.47032419
_cell_length_b   6.96543855
_cell_length_c   17.25306976
_cell_angle_alpha   101.64579579
_cell_angle_beta   90.00000000
_cell_angle_gamma   90.00000000
_symmetry_Int_Tables_number   1
_chemical_formula_structural   Li8Pr7Ge10
_chemical_formula_sum   'Li8 Pr7 Ge10'
_cell_volume   526.16295406
_cell_formula_units_Z   1
loop_
 _symmetry_equiv_pos_site_id
 _symmetry_equiv_pos_as_xyz
  1  'x, y, z'
loop_
 _atom_site_type_symbol
 _atom_site_label
 _atom_site_symmetry_multiplicity
 _atom_site_fract_x
 _atom_site_fract_y
 _atom_site_fract_z
 _atom_site_occupancy
  Li  Li0  1  0.50000000  0.11308247  0.85004543  1
  Li  Li1  1  0.50000000  0.88691753  0.14995457  1
  Li  Li2  1  0.50000000  0.26303704  0.14995457  1
  Li  Li3  1  0.50000000  0.73696296  0.85004543  1
  Li  Li4  1  -0.00000000  0.16912799  0.71187998  1
  Li  Li5  1  0.00000000  0.83087201  0.28812002  1
  Li  Li6  1  0.00000000  0.45724801  0.28812002  1
  Li  Li7  1  0.00000000  0.54275199  0.71187998  1
  Pr  Pr8  1  0.50000000  0.83918496  0.67836992  1
  Pr  Pr9  1  0.50000000  0.16081504  0.32163008  1
  Pr  Pr10  1  0.50000000  0.72096022  0.44192043  1
  Pr  Pr11  1  0.50000000  0.27903978  0.55807957  1
  Pr  Pr12  1  -0.00000000  0.55773752  0.11547504  1
  Pr  Pr13  1  0.00000000  0.44226248  0.88452496  1
  Pr  Pr14  1  0.00000000  -0.00000000  -0.00000000  1
  Ge  Ge15  1  -0.00000000  0.96656796  0.56905991  1
  Ge  Ge16  1  -0.00000000  0.03343204  0.43094009  1
  Ge  Ge17  1  0.00000000  0.39750805  0.43094009  1
  Ge  Ge18  1  0.00000000  0.60249195  0.56905991  1
  Ge  Ge19  1  0.50000000  0.62678667  0.25357335  1
  Ge  Ge20  1  0.50000000  0.37321333  0.74642665  1
  Ge  Ge21  1  0.00000000  0.90593705  0.81187410  1
  Ge  Ge22  1  -0.00000000  0.09406295  0.18812590  1
  Ge  Ge23  1  0.50000000  0.31583449  -0.00000000  1
  Ge  Ge24  1  0.50000000  0.68416551  0.00000000  1
