# generated using pymatgen
data_SrNdCuS3
_symmetry_space_group_name_H-M   'P 1'
_cell_length_a   4.02064655
_cell_length_b   10.67608269
_cell_length_c   12.99410780
_cell_angle_alpha   90.00000000
_cell_angle_beta   90.00000000
_cell_angle_gamma   90.00000000
_symmetry_Int_Tables_number   1
_chemical_formula_structural   SrNdCuS3
_chemical_formula_sum   'Sr4 Nd4 Cu4 S12'
_cell_volume   557.76889421
_cell_formula_units_Z   4
loop_
 _symmetry_equiv_pos_site_id
 _symmetry_equiv_pos_as_xyz
  1  'x, y, z'
loop_
 _atom_site_type_symbol
 _atom_site_label
 _atom_site_symmetry_multiplicity
 _atom_site_fract_x
 _atom_site_fract_y
 _atom_site_fract_z
 _atom_site_occupancy
  Sr  Sr0  1  0.75000000  0.28798022  0.50279569  1
  Sr  Sr1  1  0.75000000  0.78798022  0.99720431  1
  Sr  Sr2  1  0.25000000  0.71201978  0.49720431  1
  Sr  Sr3  1  0.25000000  0.21201978  0.00279569  1
  Nd  Nd4  1  0.75000000  0.01708902  0.26727626  1
  Nd  Nd5  1  0.75000000  0.51708902  0.23272374  1
  Nd  Nd6  1  0.25000000  0.98291098  0.73272374  1
  Nd  Nd7  1  0.25000000  0.48291098  0.76727626  1
  Cu  Cu8  1  0.75000000  0.23285355  0.77796638  1
  Cu  Cu9  1  0.75000000  0.73285355  0.72203362  1
  Cu  Cu10  1  0.25000000  0.76714645  0.22203362  1
  Cu  Cu11  1  0.25000000  0.26714645  0.27796638  1
  S  S12  1  0.75000000  0.25904830  0.17412190  1
  S  S13  1  0.75000000  0.75904830  0.32587810  1
  S  S14  1  0.25000000  0.74095170  0.82587810  1
  S  S15  1  0.25000000  0.24095170  0.67412190  1
  S  S16  1  0.75000000  0.05175067  0.88002891  1
  S  S17  1  0.75000000  0.55175067  0.61997109  1
  S  S18  1  0.25000000  0.94824933  0.11997109  1
  S  S19  1  0.25000000  0.44824933  0.38002891  1
  S  S20  1  0.75000000  0.39420360  0.89901757  1
  S  S21  1  0.75000000  0.89420360  0.60098243  1
  S  S22  1  0.25000000  0.60579640  0.10098243  1
  S  S23  1  0.25000000  0.10579640  0.39901757  1
