# generated using pymatgen
data_CsDy2Cu3S5
_symmetry_space_group_name_H-M   'P 1'
_cell_length_a   3.97839296
_cell_length_b   7.31865996
_cell_length_c   16.88658130
_cell_angle_alpha   90.00000000
_cell_angle_beta   90.00000000
_cell_angle_gamma   105.77128102
_symmetry_Int_Tables_number   1
_chemical_formula_structural   CsDy2Cu3S5
_chemical_formula_sum   'Cs2 Dy4 Cu6 S10'
_cell_volume   473.16868668
_cell_formula_units_Z   2
loop_
 _symmetry_equiv_pos_site_id
 _symmetry_equiv_pos_as_xyz
  1  'x, y, z'
loop_
 _atom_site_type_symbol
 _atom_site_label
 _atom_site_symmetry_multiplicity
 _atom_site_fract_x
 _atom_site_fract_y
 _atom_site_fract_z
 _atom_site_occupancy
  Cs  Cs0  1  0.93520271  0.87040541  0.25000000  1
  Cs  Cs1  1  0.06479729  0.12959459  0.75000000  1
  Dy  Dy2  1  0.19217981  0.38435963  0.09098434  1
  Dy  Dy3  1  0.80782019  0.61564037  0.90901566  1
  Dy  Dy4  1  0.19217981  0.38435963  0.40901566  1
  Dy  Dy5  1  0.80782019  0.61564037  0.59098434  1
  Cu  Cu6  1  0.65711688  0.31423477  0.25000000  1
  Cu  Cu7  1  0.34288312  0.68576523  0.75000000  1
  Cu  Cu8  1  0.41628121  0.83256142  0.46398923  1
  Cu  Cu9  1  0.58371879  0.16743858  0.53601077  1
  Cu  Cu10  1  0.41628121  0.83256142  0.03601077  1
  Cu  Cu11  1  0.58371879  0.16743858  0.96398923  1
  S  S12  1  0.22928000  0.45855901  0.25000000  1
  S  S13  1  0.77072000  0.54144099  0.75000000  1
  S  S14  1  0.43799170  0.87598441  0.89287110  1
  S  S15  1  0.56200830  0.12401559  0.10712890  1
  S  S16  1  0.43799170  0.87598441  0.60712890  1
  S  S17  1  0.56200830  0.12401559  0.39287110  1
  S  S18  1  0.16986480  0.33972960  0.93158803  1
  S  S19  1  0.83013520  0.66027040  0.06841197  1
  S  S20  1  0.16986480  0.33972960  0.56841197  1
  S  S21  1  0.83013520  0.66027040  0.43158803  1
