# generated using pymatgen
data_Pr5Ni19
_symmetry_space_group_name_H-M   'P 1'
_cell_length_a   5.02509946
_cell_length_b   5.02509946
_cell_length_c   16.45830408
_cell_angle_alpha   81.21880209
_cell_angle_beta   81.21880209
_cell_angle_gamma   60.00000081
_symmetry_Int_Tables_number   1
_chemical_formula_structural   Pr5Ni19
_chemical_formula_sum   'Pr5 Ni19'
_cell_volume   354.28301567
_cell_formula_units_Z   1
loop_
 _symmetry_equiv_pos_site_id
 _symmetry_equiv_pos_as_xyz
  1  'x, y, z'
loop_
 _atom_site_type_symbol
 _atom_site_label
 _atom_site_symmetry_multiplicity
 _atom_site_fract_x
 _atom_site_fract_y
 _atom_site_fract_z
 _atom_site_occupancy
  Pr  Pr0  1  -0.00000000  -0.00000000  0.00000000  1
  Pr  Pr1  1  0.07815927  0.07815927  0.76552218  1
  Pr  Pr2  1  0.92184073  0.92184073  0.23447782  1
  Pr  Pr3  1  0.15172423  0.15172423  0.54482730  1
  Pr  Pr4  1  0.84827577  0.84827577  0.45517270  1
  Ni  Ni5  1  0.50000000  0.50000000  0.50000000  1
  Ni  Ni6  1  0.25109050  0.25109050  0.24672850  1
  Ni  Ni7  1  0.74890950  0.74890950  0.75327150  1
  Ni  Ni8  1  0.33328130  0.33328130  0.00015611  1
  Ni  Ni9  1  0.66671870  0.66671870  0.99984389  1
  Ni  Ni10  1  0.41521428  0.41521428  0.75435716  1
  Ni  Ni11  1  0.58478572  0.58478572  0.24564284  1
  Ni  Ni12  1  0.12396974  0.62232562  0.63137902  1
  Ni  Ni13  1  0.62232562  0.62232562  0.63137902  1
  Ni  Ni14  1  0.62232562  0.12396974  0.63137902  1
  Ni  Ni15  1  0.87603026  0.37767438  0.36862098  1
  Ni  Ni16  1  0.37767438  0.37767438  0.36862098  1
  Ni  Ni17  1  0.37767438  0.87603026  0.36862098  1
  Ni  Ni18  1  0.04001027  0.54095301  0.87808372  1
  Ni  Ni19  1  0.54095301  0.54095301  0.87808372  1
  Ni  Ni20  1  0.54095301  0.04001027  0.87808372  1
  Ni  Ni21  1  0.95998973  0.45904699  0.12191628  1
  Ni  Ni22  1  0.45904699  0.45904699  0.12191628  1
  Ni  Ni23  1  0.45904699  0.95998973  0.12191628  1
