# generated using pymatgen
data_Hg4BiS2Cl5
_symmetry_space_group_name_H-M   'P 1'
_cell_length_a   8.29028950
_cell_length_b   9.03090760
_cell_length_c   10.69011081
_cell_angle_alpha   90.00000000
_cell_angle_beta   90.00000000
_cell_angle_gamma   113.19382641
_symmetry_Int_Tables_number   1
_chemical_formula_structural   Hg4BiS2Cl5
_chemical_formula_sum   'Hg8 Bi2 S4 Cl10'
_cell_volume   735.66961657
_cell_formula_units_Z   2
loop_
 _symmetry_equiv_pos_site_id
 _symmetry_equiv_pos_as_xyz
  1  'x, y, z'
loop_
 _atom_site_type_symbol
 _atom_site_label
 _atom_site_symmetry_multiplicity
 _atom_site_fract_x
 _atom_site_fract_y
 _atom_site_fract_z
 _atom_site_occupancy
  Hg  Hg0  1  0.07565128  0.67114836  0.31753555  1
  Hg  Hg1  1  0.92434872  0.32885164  0.81753555  1
  Hg  Hg2  1  0.05104806  0.64457144  0.83191597  1
  Hg  Hg3  1  0.94895194  0.35542856  0.33191597  1
  Hg  Hg4  1  0.50255141  0.01522776  0.31940946  1
  Hg  Hg5  1  0.49744859  0.98477224  0.81940946  1
  Hg  Hg6  1  0.19486300  0.98014707  0.06794933  1
  Hg  Hg7  1  0.80513700  0.01985293  0.56794933  1
  Bi  Bi8  1  0.49699450  0.49015108  0.06891313  1
  Bi  Bi9  1  0.50300550  0.50984892  0.56891313  1
  S  S10  1  0.19743710  0.97094373  0.29566296  1
  S  S11  1  0.80256290  0.02905627  0.79566296  1
  S  S12  1  0.80595900  0.05550056  0.34251192  1
  S  S13  1  0.19404100  0.94449944  0.84251192  1
  Cl  Cl14  1  0.16220374  0.31005119  0.57637878  1
  Cl  Cl15  1  0.83779626  0.68994881  0.07637878  1
  Cl  Cl16  1  0.14414873  0.28716785  0.06321278  1
  Cl  Cl17  1  0.85585127  0.71283215  0.56321278  1
  Cl  Cl18  1  0.59743937  0.23104299  0.04608045  1
  Cl  Cl19  1  0.40256063  0.76895701  0.54608045  1
  Cl  Cl20  1  0.40680573  0.74002209  0.10204625  1
  Cl  Cl21  1  0.59319427  0.25997791  0.60204625  1
  Cl  Cl22  1  0.50098587  0.43214898  0.31478341  1
  Cl  Cl23  1  0.49901413  0.56785102  0.81478341  1
