# generated using pymatgen
data_Li8TeN2
_symmetry_space_group_name_H-M   'P 1'
_cell_length_a   7.21800445
_cell_length_b   7.21800445
_cell_length_c   7.23611473
_cell_angle_alpha   119.91724368
_cell_angle_beta   119.91724368
_cell_angle_gamma   90.00000000
_symmetry_Int_Tables_number   1
_chemical_formula_structural   Li8TeN2
_chemical_formula_sum   'Li16 Te2 N4'
_cell_volume   267.24378234
_cell_formula_units_Z   2
loop_
 _symmetry_equiv_pos_site_id
 _symmetry_equiv_pos_as_xyz
  1  'x, y, z'
loop_
 _atom_site_type_symbol
 _atom_site_label
 _atom_site_symmetry_multiplicity
 _atom_site_fract_x
 _atom_site_fract_y
 _atom_site_fract_z
 _atom_site_occupancy
  Li  Li0  1  0.48551180  0.41650747  0.34406823  1
  Li  Li1  1  0.85855643  0.92756077  0.34406823  1
  Li  Li2  1  0.16650747  0.73551180  0.84406823  1
  Li  Li3  1  0.67756077  0.10855643  0.84406823  1
  Li  Li4  1  0.85855643  0.41650747  0.34406823  1
  Li  Li5  1  0.48551180  0.92756077  0.34406823  1
  Li  Li6  1  0.67756077  0.73551180  0.84406823  1
  Li  Li7  1  0.16650747  0.10855643  0.84406823  1
  Li  Li8  1  0.40391795  0.55851544  0.11703088  1
  Li  Li9  1  0.71311292  0.55851544  0.11703088  1
  Li  Li10  1  0.30851544  0.65391795  0.61703088  1
  Li  Li11  1  0.30851544  0.96311292  0.61703088  1
  Li  Li12  1  0.79129350  0.79129350  0.58258700  1
  Li  Li13  1  0.54129350  0.04129350  0.08258700  1
  Li  Li14  1  0.37278435  0.37278435  0.74556870  1
  Li  Li15  1  0.12278435  0.62278435  0.24556870  1
  Te  Te16  1  0.85323723  0.35323723  0.70647445  1
  Te  Te17  1  0.10323723  0.10323723  0.20647445  1
  N  N18  1  0.48066502  0.74990879  0.49981758  1
  N  N19  1  0.01915255  0.74990879  0.49981758  1
  N  N20  1  0.49990879  0.73066502  0.99981758  1
  N  N21  1  0.49990879  0.26915255  0.99981758  1
