# generated using pymatgen
data_Zr3(MnGa3)2
_symmetry_space_group_name_H-M   'P 1'
_cell_length_a   5.40315817
_cell_length_b   7.71834256
_cell_length_c   8.75473180
_cell_angle_alpha   90.00000000
_cell_angle_beta   90.00000000
_cell_angle_gamma   90.00000000
_symmetry_Int_Tables_number   1
_chemical_formula_structural   Zr3(MnGa3)2
_chemical_formula_sum   'Zr6 Mn4 Ga12'
_cell_volume   365.10230681
_cell_formula_units_Z   2
loop_
 _symmetry_equiv_pos_site_id
 _symmetry_equiv_pos_as_xyz
  1  'x, y, z'
loop_
 _atom_site_type_symbol
 _atom_site_label
 _atom_site_symmetry_multiplicity
 _atom_site_fract_x
 _atom_site_fract_y
 _atom_site_fract_z
 _atom_site_occupancy
  Zr  Zr0  1  0.75000000  0.84706298  0.03069441  1
  Zr  Zr1  1  0.75000000  0.84706298  0.46930559  1
  Zr  Zr2  1  0.25000000  0.15293702  0.96930559  1
  Zr  Zr3  1  0.25000000  0.15293702  0.53069441  1
  Zr  Zr4  1  0.75000000  0.28009998  0.75000000  1
  Zr  Zr5  1  0.25000000  0.71990002  0.25000000  1
  Mn  Mn6  1  0.50000000  0.50000000  0.50000000  1
  Mn  Mn7  1  0.50000000  0.50000000  0.00000000  1
  Mn  Mn8  1  0.00000000  0.50000000  0.50000000  1
  Mn  Mn9  1  0.00000000  0.50000000  0.00000000  1
  Ga  Ga10  1  0.75000000  0.23607192  0.43694215  1
  Ga  Ga11  1  0.75000000  0.23607192  0.06305785  1
  Ga  Ga12  1  0.25000000  0.76392808  0.56305785  1
  Ga  Ga13  1  0.25000000  0.76392808  0.93694215  1
  Ga  Ga14  1  0.75000000  0.63250926  0.75000000  1
  Ga  Ga15  1  0.25000000  0.36749074  0.25000000  1
  Ga  Ga16  1  0.25000000  0.43609009  0.75000000  1
  Ga  Ga17  1  0.75000000  0.56390991  0.25000000  1
  Ga  Ga18  1  0.51032074  0.95649141  0.75000000  1
  Ga  Ga19  1  0.98967926  0.95649141  0.75000000  1
  Ga  Ga20  1  0.48967926  0.04350859  0.25000000  1
  Ga  Ga21  1  0.01032074  0.04350859  0.25000000  1
