# generated using pymatgen
data_Sb2Te2O9
_symmetry_space_group_name_H-M   'P 1'
_cell_length_a   5.13034570
_cell_length_b   14.79299065
_cell_length_c   22.83245508
_cell_angle_alpha   110.65826258
_cell_angle_beta   90.00000000
_cell_angle_gamma   90.00000000
_symmetry_Int_Tables_number   1
_chemical_formula_structural   Sb2Te2O9
_chemical_formula_sum   'Sb16 Te16 O72'
_cell_volume   1621.40849988
_cell_formula_units_Z   8
loop_
 _symmetry_equiv_pos_site_id
 _symmetry_equiv_pos_as_xyz
  1  'x, y, z'
loop_
 _atom_site_type_symbol
 _atom_site_label
 _atom_site_symmetry_multiplicity
 _atom_site_fract_x
 _atom_site_fract_y
 _atom_site_fract_z
 _atom_site_occupancy
  Sb  Sb0  1  0.18782791  0.99189762  0.65208415  1
  Sb  Sb1  1  0.63222069  0.84830900  0.82293088  1
  Sb  Sb2  1  0.31043682  0.16666598  0.44901640  1
  Sb  Sb3  1  0.86777931  0.34830900  0.82293088  1
  Sb  Sb4  1  0.27384969  0.30676020  0.94490186  1
  Sb  Sb5  1  0.81217209  0.00810238  0.34791585  1
  Sb  Sb6  1  0.13222069  0.65169100  0.17706912  1
  Sb  Sb7  1  0.36777931  0.15169100  0.17706912  1
  Sb  Sb8  1  0.77384969  0.19323980  0.05509814  1
  Sb  Sb9  1  0.72615031  0.69323980  0.05509814  1
  Sb  Sb10  1  0.31217209  0.49189762  0.65208415  1
  Sb  Sb11  1  0.68956318  0.83333402  0.55098360  1
  Sb  Sb12  1  0.68782791  0.50810238  0.34791585  1
  Sb  Sb13  1  0.18956318  0.66666598  0.44901640  1
  Sb  Sb14  1  0.81043682  0.33333402  0.55098360  1
  Sb  Sb15  1  0.22615031  0.80676020  0.94490186  1
  Te  Te16  1  0.17651411  0.57709543  0.92104163  1
  Te  Te17  1  0.89532446  0.18997074  0.29019189  1
  Te  Te18  1  0.85988528  0.11150608  0.55546154  1
  Te  Te19  1  0.67651411  0.92290457  0.07895837  1
  Te  Te20  1  0.16023596  0.40786047  0.23426800  1
  Te  Te21  1  0.10467554  0.81002926  0.70980811  1
  Te  Te22  1  0.83976404  0.59213953  0.76573200  1
  Te  Te23  1  0.60467554  0.68997074  0.29019189  1
  Te  Te24  1  0.35988528  0.38849392  0.44453846  1
  Te  Te25  1  0.64011472  0.61150608  0.55546154  1
  Te  Te26  1  0.82348589  0.42290457  0.07895837  1
  Te  Te27  1  0.14011472  0.88849392  0.44453846  1
  Te  Te28  1  0.39532446  0.31002926  0.70980811  1
  Te  Te29  1  0.33976404  0.90786047  0.23426800  1
  Te  Te30  1  0.66023596  0.09213953  0.76573200  1
  Te  Te31  1  0.32348589  0.07709543  0.92104163  1
  O  O32  1  0.35565949  0.76983365  0.22017622  1
  O  O33  1  0.59052721  0.09222273  0.97929956  1
  O  O34  1  0.97475116  0.73187165  0.52588129  1
  O  O35  1  0.90294155  0.01915430  0.07887545  1
  O  O36  1  0.63297146  0.21670636  0.24007241  1
  O  O37  1  0.13297146  0.28329364  0.75992759  1
  O  O38  1  0.41937578  0.59255422  0.61733600  1
  O  O39  1  0.96722102  0.48284904  0.85047292  1
  O  O40  1  0.09052721  0.40777727  0.02070044  1
  O  O41  1  0.04487579  0.75448185  0.40592609  1
  O  O42  1  0.64434051  0.23016635  0.77982378  1
  O  O43  1  0.62372394  0.30499960  0.02856995  1
  O  O44  1  0.99363848  0.92728923  0.26735113  1
  O  O45  1  0.11359591  0.09843132  0.37030067  1
  O  O46  1  0.59705845  0.51915430  0.07887545  1
  O  O47  1  0.87627606  0.80499960  0.02856995  1
  O  O48  1  0.99531673  0.42217608  0.31311625  1
  O  O49  1  0.61359591  0.40156868  0.62969933  1
  O  O50  1  0.00468327  0.57782392  0.68688375  1
  O  O51  1  0.50636152  0.42728923  0.26735113  1
  O  O52  1  0.49363848  0.57271077  0.73264887  1
  O  O53  1  0.49531673  0.07782392  0.68688375  1
  O  O54  1  0.60627869  0.84530201  0.12850198  1
  O  O55  1  0.89088419  0.89883017  0.77419997  1
  O  O56  1  0.95512421  0.24551815  0.59407391  1
  O  O57  1  0.10627869  0.65469799  0.87149802  1
  O  O58  1  0.86702854  0.71670636  0.24007241  1
  O  O59  1  0.40294155  0.48084570  0.92112455  1
  O  O60  1  0.45512421  0.25448185  0.40592609  1
  O  O61  1  0.86578708  0.91903719  0.50775488  1
  O  O62  1  0.54487579  0.74551815  0.59407391  1
  O  O63  1  0.89539887  0.57295717  0.42507697  1
  O  O64  1  0.91937578  0.90744578  0.38266400  1
  O  O65  1  0.36702854  0.78329364  0.75992759  1
  O  O66  1  0.38640409  0.59843132  0.37030067  1
  O  O67  1  0.14434051  0.26983365  0.22017622  1
  O  O68  1  0.10911581  0.10116983  0.22580003  1
  O  O69  1  0.50468327  0.92217608  0.31311625  1
  O  O70  1  0.18092523  0.41128050  0.70120581  1
  O  O71  1  0.05780822  0.69797953  0.11082825  1
  O  O72  1  0.89372131  0.34530201  0.12850198  1
  O  O73  1  0.88640409  0.90156868  0.62969933  1
  O  O74  1  0.44219178  0.19797953  0.11082825  1
  O  O75  1  0.12372394  0.19500040  0.97143005  1
  O  O76  1  0.58062422  0.40744578  0.38266400  1
  O  O77  1  0.52524884  0.23187165  0.52588129  1
  O  O78  1  0.31907477  0.91128050  0.70120581  1
  O  O79  1  0.46722102  0.01715096  0.14952708  1
  O  O80  1  0.39372131  0.15469799  0.87149802  1
  O  O81  1  0.90947279  0.59222273  0.97929956  1
  O  O82  1  0.60911581  0.39883017  0.77419997  1
  O  O83  1  0.60460113  0.07295717  0.42507697  1
  O  O84  1  0.13421292  0.08096281  0.49224512  1
  O  O85  1  0.08062422  0.09255422  0.61733600  1
  O  O86  1  0.37627606  0.69500040  0.97143005  1
  O  O87  1  0.39539887  0.92704283  0.57492303  1
  O  O88  1  0.63421292  0.41903719  0.50775488  1
  O  O89  1  0.94219178  0.30202047  0.88917175  1
  O  O90  1  0.40947279  0.90777727  0.02070044  1
  O  O91  1  0.02524884  0.26812835  0.47411871  1
  O  O92  1  0.85565949  0.73016635  0.77982378  1
  O  O93  1  0.68092523  0.08871950  0.29879419  1
  O  O94  1  0.55780822  0.80202047  0.88917175  1
  O  O95  1  0.10460113  0.42704283  0.57492303  1
  O  O96  1  0.47475116  0.76812835  0.47411871  1
  O  O97  1  0.81907477  0.58871950  0.29879419  1
  O  O98  1  0.39088419  0.60116983  0.22580003  1
  O  O99  1  0.03277898  0.51715096  0.14952708  1
  O  O100  1  0.53277898  0.98284904  0.85047292  1
  O  O101  1  0.09705845  0.98084570  0.92112455  1
  O  O102  1  0.36578708  0.58096281  0.49224512  1
  O  O103  1  0.00636152  0.07271077  0.73264887  1
