# generated using pymatgen
data_CeNiB4
_symmetry_space_group_name_H-M   'P 1'
_cell_length_a   6.88199739
_cell_length_b   6.88199739
_cell_length_c   6.88199739
_cell_angle_alpha   102.94115703
_cell_angle_beta   112.83165692
_cell_angle_gamma   112.83165692
_symmetry_Int_Tables_number   1
_chemical_formula_structural   CeNiB4
_chemical_formula_sum   'Ce4 Ni4 B16'
_cell_volume   248.50610331
_cell_formula_units_Z   4
loop_
 _symmetry_equiv_pos_site_id
 _symmetry_equiv_pos_as_xyz
  1  'x, y, z'
loop_
 _atom_site_type_symbol
 _atom_site_label
 _atom_site_symmetry_multiplicity
 _atom_site_fract_x
 _atom_site_fract_y
 _atom_site_fract_z
 _atom_site_occupancy
  Ce  Ce0  1  -0.00000000  0.20056155  0.20056155  1
  Ce  Ce1  1  -0.00000000  0.79943845  0.79943845  1
  Ce  Ce2  1  0.50000000  0.75000000  0.25000000  1
  Ce  Ce3  1  0.50000000  0.25000000  0.75000000  1
  Ni  Ni4  1  0.22832977  0.50000000  0.72832977  1
  Ni  Ni5  1  0.77167023  0.50000000  0.27167023  1
  Ni  Ni6  1  0.77167023  0.27167023  0.50000000  1
  Ni  Ni7  1  0.22832977  0.72832977  0.50000000  1
  B  B8  1  0.61421541  0.88863723  0.72557819  1
  B  B9  1  0.38578459  0.11136277  0.27442181  1
  B  B10  1  0.83694096  0.11136277  0.72557819  1
  B  B11  1  0.16305904  0.88863723  0.27442181  1
  B  B12  1  0.16305904  0.27442181  0.88863723  1
  B  B13  1  0.83694096  0.72557819  0.11136277  1
  B  B14  1  0.61421541  0.72557819  0.88863723  1
  B  B15  1  0.38578459  0.27442181  0.11136277  1
  B  B16  1  0.46846657  0.88690317  0.88690317  1
  B  B17  1  0.53153343  0.41843660  0.41843660  1
  B  B18  1  0.00000000  0.41843660  0.88690317  1
  B  B19  1  -0.00000000  0.88690317  0.41843660  1
  B  B20  1  0.53153343  0.11309683  0.11309683  1
  B  B21  1  0.46846657  0.58156340  0.58156340  1
  B  B22  1  0.00000000  0.58156340  0.11309683  1
  B  B23  1  0.00000000  0.11309683  0.58156340  1
