# generated using pymatgen
data_DyCrB4
_symmetry_space_group_name_H-M   'P 1'
_cell_length_a   3.44492880
_cell_length_b   5.92674458
_cell_length_c   11.44924651
_cell_angle_alpha   90.00000000
_cell_angle_beta   90.00000000
_cell_angle_gamma   90.00000000
_symmetry_Int_Tables_number   1
_chemical_formula_structural   DyCrB4
_chemical_formula_sum   'Dy4 Cr4 B16'
_cell_volume   233.76170576
_cell_formula_units_Z   4
loop_
 _symmetry_equiv_pos_site_id
 _symmetry_equiv_pos_as_xyz
  1  'x, y, z'
loop_
 _atom_site_type_symbol
 _atom_site_label
 _atom_site_symmetry_multiplicity
 _atom_site_fract_x
 _atom_site_fract_y
 _atom_site_fract_z
 _atom_site_occupancy
  Dy  Dy0  1  0.00000000  0.62515680  0.34923305  1
  Dy  Dy1  1  0.00000000  0.37484320  0.65076695  1
  Dy  Dy2  1  -0.00000000  0.12515680  0.15076695  1
  Dy  Dy3  1  -0.00000000  0.87484320  0.84923305  1
  Cr  Cr4  1  -0.00000000  0.62222899  0.07928761  1
  Cr  Cr5  1  -0.00000000  0.37777101  0.92071239  1
  Cr  Cr6  1  0.00000000  0.12222899  0.42071239  1
  Cr  Cr7  1  0.00000000  0.87777101  0.57928761  1
  B  B8  1  0.50000000  0.78118447  0.18394736  1
  B  B9  1  0.50000000  0.21881553  0.81605264  1
  B  B10  1  0.50000000  0.28118447  0.31605264  1
  B  B11  1  0.50000000  0.71881553  0.68394736  1
  B  B12  1  0.50000000  0.86301047  0.03260839  1
  B  B13  1  0.50000000  0.13698953  0.96739161  1
  B  B14  1  0.50000000  0.36301047  0.46739161  1
  B  B15  1  0.50000000  0.63698953  0.53260839  1
  B  B16  1  0.50000000  0.88698938  0.45338433  1
  B  B17  1  0.50000000  0.11301062  0.54661567  1
  B  B18  1  0.50000000  0.38698938  0.04661567  1
  B  B19  1  0.50000000  0.61301062  0.95338433  1
  B  B20  1  0.50000000  0.97585152  0.30850128  1
  B  B21  1  0.50000000  0.02414848  0.69149872  1
  B  B22  1  0.50000000  0.47585152  0.19149872  1
  B  B23  1  0.50000000  0.52414848  0.80850128  1
