# generated using pymatgen
data_TmCrB4
_symmetry_space_group_name_H-M   'P 1'
_cell_length_a   3.40747073
_cell_length_b   5.88730960
_cell_length_c   11.37200738
_cell_angle_alpha   90.00000000
_cell_angle_beta   90.00000000
_cell_angle_gamma   90.00000000
_symmetry_Int_Tables_number   1
_chemical_formula_structural   TmCrB4
_chemical_formula_sum   'Tm4 Cr4 B16'
_cell_volume   228.13196527
_cell_formula_units_Z   4
loop_
 _symmetry_equiv_pos_site_id
 _symmetry_equiv_pos_as_xyz
  1  'x, y, z'
loop_
 _atom_site_type_symbol
 _atom_site_label
 _atom_site_symmetry_multiplicity
 _atom_site_fract_x
 _atom_site_fract_y
 _atom_site_fract_z
 _atom_site_occupancy
  Tm  Tm0  1  0.00000000  0.62564036  0.34927409  1
  Tm  Tm1  1  0.00000000  0.37435964  0.65072591  1
  Tm  Tm2  1  -0.00000000  0.12564036  0.15072591  1
  Tm  Tm3  1  0.00000000  0.87435964  0.84927409  1
  Cr  Cr4  1  -0.00000000  0.62321595  0.07987507  1
  Cr  Cr5  1  -0.00000000  0.37678405  0.92012493  1
  Cr  Cr6  1  -0.00000000  0.12321595  0.42012493  1
  Cr  Cr7  1  0.00000000  0.87678405  0.57987507  1
  B  B8  1  0.50000000  0.78270026  0.18453298  1
  B  B9  1  0.50000000  0.21729974  0.81546702  1
  B  B10  1  0.50000000  0.28270026  0.31546702  1
  B  B11  1  0.50000000  0.71729974  0.68453298  1
  B  B12  1  0.50000000  0.86425559  0.03255224  1
  B  B13  1  0.50000000  0.13574441  0.96744776  1
  B  B14  1  0.50000000  0.36425559  0.46744776  1
  B  B15  1  0.50000000  0.63574441  0.53255224  1
  B  B16  1  0.50000000  0.88624309  0.45297822  1
  B  B17  1  0.50000000  0.11375691  0.54702178  1
  B  B18  1  0.50000000  0.38624309  0.04702178  1
  B  B19  1  0.50000000  0.61375691  0.95297822  1
  B  B20  1  0.50000000  0.97587572  0.30768054  1
  B  B21  1  0.50000000  0.02412428  0.69231946  1
  B  B22  1  0.50000000  0.47587572  0.19231946  1
  B  B23  1  0.50000000  0.52412428  0.80768054  1
