# generated using pymatgen
data_LiY(WO4)2
_symmetry_space_group_name_H-M   'P 1'
_cell_length_a   5.08294894
_cell_length_b   5.98411589
_cell_length_c   10.07113957
_cell_angle_alpha   90.00000000
_cell_angle_beta   92.80181844
_cell_angle_gamma   90.00000000
_symmetry_Int_Tables_number   1
_chemical_formula_structural   LiY(WO4)2
_chemical_formula_sum   'Li2 Y2 W4 O16'
_cell_volume   305.96720930
_cell_formula_units_Z   2
loop_
 _symmetry_equiv_pos_site_id
 _symmetry_equiv_pos_as_xyz
  1  'x, y, z'
loop_
 _atom_site_type_symbol
 _atom_site_label
 _atom_site_symmetry_multiplicity
 _atom_site_fract_x
 _atom_site_fract_y
 _atom_site_fract_z
 _atom_site_occupancy
  Li  Li0  1  0.50000000  0.44676588  0.50000000  1
  Li  Li1  1  0.00000000  0.97099166  0.00000000  1
  Y  Y2  1  0.50000000  0.37524081  0.00000000  1
  Y  Y3  1  0.00000000  0.03370343  0.50000000  1
  W  W4  1  0.00085965  0.53420986  0.26116278  1
  W  W5  1  0.99914035  0.53420986  0.73883722  1
  W  W6  1  0.50485721  0.87744014  0.23708454  1
  W  W7  1  0.49514279  0.87744014  0.76291546  1
  O  O8  1  0.19464069  0.81703327  0.34666975  1
  O  O9  1  0.80535931  0.81703327  0.65333025  1
  O  O10  1  0.15346112  0.34459855  0.38502144  1
  O  O11  1  0.84653888  0.34459855  0.61497856  1
  O  O12  1  0.80206156  0.79377065  0.13943015  1
  O  O13  1  0.19793844  0.79377065  0.86056985  1
  O  O14  1  0.29591458  0.61944476  0.64082373  1
  O  O15  1  0.70408542  0.61944476  0.35917627  1
  O  O16  1  0.86104927  0.33681432  0.13855015  1
  O  O17  1  0.13895073  0.33681432  0.86144985  1
  O  O18  1  0.64560632  0.07555872  0.35937997  1
  O  O19  1  0.35439368  0.07555872  0.64062003  1
  O  O20  1  0.34752075  0.06661042  0.11489902  1
  O  O21  1  0.65247925  0.06661042  0.88510098  1
  O  O22  1  0.31177978  0.59486842  0.15272076  1
  O  O23  1  0.68822022  0.59486842  0.84727924  1
