# generated using pymatgen
data_Sr2FeCu(PbO3)2
_symmetry_space_group_name_H-M   'P 1'
_cell_length_a   5.55698957
_cell_length_b   5.63500850
_cell_length_c   12.33564814
_cell_angle_alpha   90.00000000
_cell_angle_beta   90.00000000
_cell_angle_gamma   90.00000000
_symmetry_Int_Tables_number   1
_chemical_formula_structural   Sr2FeCu(PbO3)2
_chemical_formula_sum   'Sr4 Fe2 Cu2 Pb4 O12'
_cell_volume   386.27458115
_cell_formula_units_Z   2
loop_
 _symmetry_equiv_pos_site_id
 _symmetry_equiv_pos_as_xyz
  1  'x, y, z'
loop_
 _atom_site_type_symbol
 _atom_site_label
 _atom_site_symmetry_multiplicity
 _atom_site_fract_x
 _atom_site_fract_y
 _atom_site_fract_z
 _atom_site_occupancy
  Sr  Sr0  1  0.50576677  0.50183449  0.35814054  1
  Sr  Sr1  1  0.50576677  0.49816551  0.64185946  1
  Sr  Sr2  1  0.00576677  0.00183449  0.64185946  1
  Sr  Sr3  1  0.00576677  0.99816551  0.35814054  1
  Fe  Fe4  1  0.00319663  0.50000000  0.50000000  1
  Fe  Fe5  1  0.50319663  0.00000000  0.50000000  1
  Cu  Cu6  1  0.54925916  0.50000000  -0.00000000  1
  Cu  Cu7  1  0.04925916  -0.00000000  -0.00000000  1
  Pb  Pb8  1  0.50158898  0.98933774  0.14609127  1
  Pb  Pb9  1  0.50158898  0.01066226  0.85390873  1
  Pb  Pb10  1  0.00158898  0.48933774  0.85390873  1
  Pb  Pb11  1  0.00158898  0.51066226  0.14609127  1
  O  O12  1  0.56762077  0.58283332  0.14564990  1
  O  O13  1  0.56762077  0.41716668  0.85435010  1
  O  O14  1  0.06762077  0.08283332  0.85435010  1
  O  O15  1  0.06762077  0.91716668  0.14564990  1
  O  O16  1  0.50485218  0.00547816  0.32401224  1
  O  O17  1  0.50485218  0.99452184  0.67598776  1
  O  O18  1  0.00485218  0.50547816  0.67598776  1
  O  O19  1  0.00485218  0.49452184  0.32401224  1
  O  O20  1  0.75194341  0.25085026  0.50107146  1
  O  O21  1  0.75194341  0.74914974  0.49892854  1
  O  O22  1  0.25194341  0.75085026  0.49892854  1
  O  O23  1  0.25194341  0.24914974  0.50107146  1
