# generated using pymatgen
data_TcC4IO4
_symmetry_space_group_name_H-M   'P 1'
_cell_length_a   10.16054089
_cell_length_b   12.44377723
_cell_length_c   13.31951363
_cell_angle_alpha   90.00000000
_cell_angle_beta   107.98488581
_cell_angle_gamma   90.00000000
_symmetry_Int_Tables_number   1
_chemical_formula_structural   TcC4IO4
_chemical_formula_sum   'Tc8 C32 I8 O32'
_cell_volume   1601.77295039
_cell_formula_units_Z   8
loop_
 _symmetry_equiv_pos_site_id
 _symmetry_equiv_pos_as_xyz
  1  'x, y, z'
loop_
 _atom_site_type_symbol
 _atom_site_label
 _atom_site_symmetry_multiplicity
 _atom_site_fract_x
 _atom_site_fract_y
 _atom_site_fract_z
 _atom_site_occupancy
  Tc  Tc0  1  0.83175338  0.86930891  0.28946122  1
  Tc  Tc1  1  0.16824662  0.13069109  0.71053878  1
  Tc  Tc2  1  0.39356133  0.62916954  0.68388895  1
  Tc  Tc3  1  0.60643867  0.37083046  0.31611105  1
  Tc  Tc4  1  0.83175338  0.63069109  0.78946122  1
  Tc  Tc5  1  0.39356133  0.87083046  0.18388895  1
  Tc  Tc6  1  0.16824662  0.36930891  0.21053878  1
  Tc  Tc7  1  0.60643867  0.12916954  0.81611105  1
  C  C8  1  0.02785814  0.04128352  0.73720896  1
  C  C9  1  0.82001844  0.53427483  0.90708018  1
  C  C10  1  0.82001844  0.96572517  0.40708018  1
  C  C11  1  0.40294891  0.53637673  0.80953066  1
  C  C12  1  0.59705109  0.03637673  0.69046934  1
  C  C13  1  0.03069441  0.28157317  0.11331294  1
  C  C14  1  0.16973353  0.27274723  0.33177459  1
  C  C15  1  0.25149880  0.71460361  0.71058335  1
  C  C16  1  0.60619552  0.27493464  0.43729940  1
  C  C17  1  0.17998156  0.46572517  0.09291982  1
  C  C18  1  0.74601650  0.03916338  0.90772807  1
  C  C19  1  0.02785814  0.45871648  0.23720896  1
  C  C20  1  0.97214186  0.95871648  0.26279104  1
  C  C21  1  0.39380448  0.72506536  0.56270060  1
  C  C22  1  0.39380448  0.77493464  0.06270060  1
  C  C23  1  0.96930559  0.71842683  0.88668706  1
  C  C24  1  0.96930559  0.78157317  0.38668706  1
  C  C25  1  0.97214186  0.54128352  0.76279104  1
  C  C26  1  0.74601650  0.46083662  0.40772807  1
  C  C27  1  0.17998156  0.03427483  0.59291982  1
  C  C28  1  0.25398350  0.96083662  0.09227193  1
  C  C29  1  0.60619552  0.22506536  0.93729940  1
  C  C30  1  0.83026647  0.72725277  0.66822541  1
  C  C31  1  0.40294891  0.96362327  0.30953066  1
  C  C32  1  0.74850120  0.21460361  0.78941665  1
  C  C33  1  0.25398350  0.53916338  0.59227193  1
  C  C34  1  0.83026647  0.77274723  0.16822541  1
  C  C35  1  0.16973353  0.22725277  0.83177459  1
  C  C36  1  0.03069441  0.21842683  0.61331294  1
  C  C37  1  0.74850120  0.28539639  0.28941665  1
  C  C38  1  0.59705109  0.46362327  0.19046934  1
  C  C39  1  0.25149880  0.78539639  0.21058335  1
  I  I40  1  0.61264728  0.75481319  0.82097978  1
  I  I41  1  0.38414925  0.00804549  0.84942857  1
  I  I42  1  0.38735272  0.24518681  0.17902022  1
  I  I43  1  0.38414925  0.49195451  0.34942857  1
  I  I44  1  0.61585075  0.50804549  0.65057143  1
  I  I45  1  0.61585075  0.99195451  0.15057143  1
  I  I46  1  0.38735272  0.25481319  0.67902022  1
  I  I47  1  0.61264728  0.74518681  0.32097978  1
  O  O48  1  0.60883389  0.21824031  0.50636833  1
  O  O49  1  0.05807112  0.48729313  0.74814485  1
  O  O50  1  0.83684469  0.26508636  0.77379524  1
  O  O51  1  0.83142401  0.78248260  0.59897463  1
  O  O52  1  0.94192888  0.51270687  0.25185515  1
  O  O53  1  0.81449774  0.47744016  0.97445009  1
  O  O54  1  0.05807112  0.01270687  0.24814485  1
  O  O55  1  0.94611914  0.26993994  0.55394719  1
  O  O56  1  0.83684469  0.23491364  0.27379524  1
  O  O57  1  0.83174652  0.98623999  0.96414656  1
  O  O58  1  0.39116611  0.78175969  0.49363167  1
  O  O59  1  0.81449774  0.02255984  0.47445009  1
  O  O60  1  0.39116611  0.71824031  0.99363167  1
  O  O61  1  0.05388086  0.73006006  0.44605281  1
  O  O62  1  0.16315531  0.73491364  0.22620476  1
  O  O63  1  0.59393018  0.98460248  0.61790019  1
  O  O64  1  0.16857599  0.28248260  0.90102537  1
  O  O65  1  0.59393018  0.51539752  0.11790019  1
  O  O66  1  0.18550226  0.52255984  0.02554991  1
  O  O67  1  0.83174652  0.51376001  0.46414656  1
  O  O68  1  0.94611914  0.23006006  0.05394719  1
  O  O69  1  0.16825348  0.48623999  0.53585344  1
  O  O70  1  0.40606982  0.01539752  0.38209981  1
  O  O71  1  0.16315531  0.76508636  0.72620476  1
  O  O72  1  0.18550226  0.97744016  0.52554991  1
  O  O73  1  0.16825348  0.01376001  0.03585344  1
  O  O74  1  0.40606982  0.48460248  0.88209981  1
  O  O75  1  0.94192888  0.98729313  0.75185515  1
  O  O76  1  0.05388086  0.76993994  0.94605281  1
  O  O77  1  0.83142401  0.71751740  0.09897463  1
  O  O78  1  0.16857599  0.21751740  0.40102537  1
  O  O79  1  0.60883389  0.28175969  0.00636833  1
