# generated using pymatgen
data_CuNiSbS3
_symmetry_space_group_name_H-M   'P 1'
_cell_length_a   4.89310931
_cell_length_b   7.48768326
_cell_length_c   12.44463270
_cell_angle_alpha   90.00000000
_cell_angle_beta   90.00000000
_cell_angle_gamma   90.00000000
_symmetry_Int_Tables_number   1
_chemical_formula_structural   CuNiSbS3
_chemical_formula_sum   'Cu4 Ni4 Sb4 S12'
_cell_volume   455.94710832
_cell_formula_units_Z   4
loop_
 _symmetry_equiv_pos_site_id
 _symmetry_equiv_pos_as_xyz
  1  'x, y, z'
loop_
 _atom_site_type_symbol
 _atom_site_label
 _atom_site_symmetry_multiplicity
 _atom_site_fract_x
 _atom_site_fract_y
 _atom_site_fract_z
 _atom_site_occupancy
  Cu  Cu0  1  0.52520673  0.61891117  0.93755220  1
  Cu  Cu1  1  0.02520673  0.88108883  0.06244780  1
  Cu  Cu2  1  0.47479327  0.11891117  0.56244780  1
  Cu  Cu3  1  0.97479327  0.38108883  0.43755220  1
  Ni  Ni4  1  0.99511885  0.87153605  0.74943664  1
  Ni  Ni5  1  0.49511885  0.62846395  0.25056336  1
  Ni  Ni6  1  0.00488115  0.37153605  0.75056336  1
  Ni  Ni7  1  0.50488115  0.12846395  0.24943664  1
  Sb  Sb8  1  0.55879970  0.62498399  0.63321431  1
  Sb  Sb9  1  0.05879970  0.87501601  0.36678569  1
  Sb  Sb10  1  0.44120030  0.12498399  0.86678569  1
  Sb  Sb11  1  0.94120030  0.37501601  0.13321431  1
  S  S12  1  0.77843193  0.87077191  0.90732752  1
  S  S13  1  0.27843193  0.62922809  0.09267248  1
  S  S14  1  0.22156807  0.37077191  0.59267248  1
  S  S15  1  0.72156807  0.12922809  0.40732752  1
  S  S16  1  0.22360514  0.62261627  0.79508382  1
  S  S17  1  0.72360514  0.87738373  0.20491618  1
  S  S18  1  0.77639486  0.12261627  0.70491618  1
  S  S19  1  0.27639486  0.37738373  0.29508382  1
  S  S20  1  0.21488118  0.87093137  0.59139348  1
  S  S21  1  0.71488118  0.62906863  0.40860652  1
  S  S22  1  0.78511882  0.37093137  0.90860652  1
  S  S23  1  0.28511882  0.12906863  0.09139348  1
