# generated using pymatgen
data_Gd3SbO7
_symmetry_space_group_name_H-M   'P 1'
_cell_length_a   6.55878782
_cell_length_b   6.55878782
_cell_length_c   7.61237641
_cell_angle_alpha   90.00000000
_cell_angle_beta   90.00000000
_cell_angle_gamma   109.62501378
_symmetry_Int_Tables_number   1
_chemical_formula_structural   Gd3SbO7
_chemical_formula_sum   'Gd6 Sb2 O14'
_cell_volume   308.44465320
_cell_formula_units_Z   2
loop_
 _symmetry_equiv_pos_site_id
 _symmetry_equiv_pos_as_xyz
  1  'x, y, z'
loop_
 _atom_site_type_symbol
 _atom_site_label
 _atom_site_symmetry_multiplicity
 _atom_site_fract_x
 _atom_site_fract_y
 _atom_site_fract_z
 _atom_site_occupancy
  Gd  Gd0  1  0.50000000  0.50000000  0.50000000  1
  Gd  Gd1  1  0.50000000  0.50000000  0.00000000  1
  Gd  Gd2  1  0.99902544  0.53153147  0.25000000  1
  Gd  Gd3  1  0.53153147  0.99902544  0.75000000  1
  Gd  Gd4  1  0.00097456  0.46846853  0.75000000  1
  Gd  Gd5  1  0.46846853  0.00097456  0.25000000  1
  Sb  Sb6  1  0.00000000  -0.00000000  0.50000000  1
  Sb  Sb7  1  0.00000000  -0.00000000  0.00000000  1
  O  O8  1  0.92899883  0.68087238  0.52913727  1
  O  O9  1  0.68087238  0.92899883  0.47086273  1
  O  O10  1  0.92899883  0.68087238  0.97086273  1
  O  O11  1  0.68087238  0.92899883  0.02913727  1
  O  O12  1  0.07100117  0.31912762  0.47086273  1
  O  O13  1  0.31912762  0.07100117  0.52913727  1
  O  O14  1  0.07100117  0.31912762  0.02913727  1
  O  O15  1  0.31912762  0.07100117  0.97086273  1
  O  O16  1  0.06689140  0.93310860  0.25000000  1
  O  O17  1  0.93310860  0.06689140  0.75000000  1
  O  O18  1  0.62776892  0.37223108  0.25000000  1
  O  O19  1  0.37223108  0.62776892  0.75000000  1
  O  O20  1  0.36173160  0.63826840  0.25000000  1
  O  O21  1  0.63826840  0.36173160  0.75000000  1
