# generated using pymatgen
data_Dy3B7W
_symmetry_space_group_name_H-M   'P 1'
_cell_length_a   3.47329859
_cell_length_b   8.19270628
_cell_length_c   9.49288556
_cell_angle_alpha   90.00000000
_cell_angle_beta   90.00000000
_cell_angle_gamma   102.23812014
_symmetry_Int_Tables_number   1
_chemical_formula_structural   Dy3B7W
_chemical_formula_sum   'Dy6 B14 W2'
_cell_volume   263.98823647
_cell_formula_units_Z   2
loop_
 _symmetry_equiv_pos_site_id
 _symmetry_equiv_pos_as_xyz
  1  'x, y, z'
loop_
 _atom_site_type_symbol
 _atom_site_label
 _atom_site_symmetry_multiplicity
 _atom_site_fract_x
 _atom_site_fract_y
 _atom_site_fract_z
 _atom_site_occupancy
  Dy  Dy0  1  0.10697179  0.21394359  0.43962385  1
  Dy  Dy1  1  0.89302821  0.78605641  0.56037615  1
  Dy  Dy2  1  0.10697179  0.21394359  0.06037615  1
  Dy  Dy3  1  0.89302821  0.78605641  0.93962385  1
  Dy  Dy4  1  0.75659275  0.51318550  0.25000000  1
  Dy  Dy5  1  0.24340725  0.48681450  0.75000000  1
  B  B6  1  0.27272010  0.54544019  0.46739030  1
  B  B7  1  0.72727990  0.45455981  0.53260970  1
  B  B8  1  0.27272010  0.54544019  0.03260970  1
  B  B9  1  0.72727990  0.45455981  0.96739030  1
  B  B10  1  0.36547119  0.73094238  0.14688416  1
  B  B11  1  0.63452881  0.26905762  0.85311584  1
  B  B12  1  0.36547119  0.73094238  0.35311584  1
  B  B13  1  0.63452881  0.26905762  0.64688416  1
  B  B14  1  0.48035732  0.96071464  0.09178339  1
  B  B15  1  0.51964268  0.03928536  0.90821661  1
  B  B16  1  0.48035732  0.96071464  0.40821661  1
  B  B17  1  0.51964268  0.03928536  0.59178339  1
  B  B18  1  0.54414722  0.08829444  0.25000000  1
  B  B19  1  0.45585278  0.91170556  0.75000000  1
  W  W20  1  0.94681294  0.89362588  0.25000000  1
  W  W21  1  0.05318706  0.10637412  0.75000000  1
