# generated using pymatgen
data_BaNp(PO4)2
_symmetry_space_group_name_H-M   'P 1'
_cell_length_a   5.43630220
_cell_length_b   6.96080238
_cell_length_c   9.53736895
_cell_angle_alpha   101.71150469
_cell_angle_beta   90.00000000
_cell_angle_gamma   112.98523686
_symmetry_Int_Tables_number   1
_chemical_formula_structural   BaNp(PO4)2
_chemical_formula_sum   'Ba2 Np2 P4 O16'
_cell_volume   324.07314612
_cell_formula_units_Z   2
loop_
 _symmetry_equiv_pos_site_id
 _symmetry_equiv_pos_as_xyz
  1  'x, y, z'
loop_
 _atom_site_type_symbol
 _atom_site_label
 _atom_site_symmetry_multiplicity
 _atom_site_fract_x
 _atom_site_fract_y
 _atom_site_fract_z
 _atom_site_occupancy
  Ba  Ba0  1  -0.00000000  0.50000000  0.50000000  1
  Ba  Ba1  1  0.50000000  0.50000000  -0.00000000  1
  Np  Np2  1  0.18177401  -0.00000000  0.25000000  1
  Np  Np3  1  0.81822599  -0.00000000  0.75000000  1
  P  P4  1  0.64829656  0.82460698  0.38896440  1
  P  P5  1  0.82368957  0.17539302  0.11103560  1
  P  P6  1  0.35170344  0.17539302  0.61103560  1
  P  P7  1  0.17631043  0.82460698  0.88896440  1
  O  O8  1  0.79187639  0.69637834  0.29447857  1
  O  O9  1  0.09549804  0.30362166  0.20552143  1
  O  O10  1  0.20812361  0.30362166  0.70552143  1
  O  O11  1  0.90450196  0.69637834  0.79447857  1
  O  O12  1  0.37194483  0.78430840  0.31598977  1
  O  O13  1  0.58763643  0.21569160  0.18401023  1
  O  O14  1  0.62805517  0.21569160  0.68401023  1
  O  O15  1  0.41236357  0.78430840  0.81598977  1
  O  O16  1  0.84570663  0.06145372  0.40993127  1
  O  O17  1  0.78425291  0.93854628  0.09006873  1
  O  O18  1  0.15429337  0.93854628  0.59006873  1
  O  O19  1  0.21574709  0.06145372  0.90993127  1
  O  O20  1  0.59640000  0.75603487  0.53576560  1
  O  O21  1  0.84036512  0.24396513  0.96423440  1
  O  O22  1  0.40360000  0.24396513  0.46423440  1
  O  O23  1  0.15963488  0.75603487  0.03576560  1
