# generated using pymatgen
data_TbMnB4
_symmetry_space_group_name_H-M   'P 1'
_cell_length_a   3.41967681
_cell_length_b   5.91870397
_cell_length_c   11.44778727
_cell_angle_alpha   90.00000000
_cell_angle_beta   90.00000000
_cell_angle_gamma   90.00000000
_symmetry_Int_Tables_number   1
_chemical_formula_structural   TbMnB4
_chemical_formula_sum   'Tb4 Mn4 B16'
_cell_volume   231.70384067
_cell_formula_units_Z   4
loop_
 _symmetry_equiv_pos_site_id
 _symmetry_equiv_pos_as_xyz
  1  'x, y, z'
loop_
 _atom_site_type_symbol
 _atom_site_label
 _atom_site_symmetry_multiplicity
 _atom_site_fract_x
 _atom_site_fract_y
 _atom_site_fract_z
 _atom_site_occupancy
  Tb  Tb0  1  -0.00000000  0.62636376  0.34935799  1
  Tb  Tb1  1  0.00000000  0.37363624  0.65064201  1
  Tb  Tb2  1  -0.00000000  0.12636376  0.15064201  1
  Tb  Tb3  1  -0.00000000  0.87363624  0.84935799  1
  Mn  Mn4  1  -0.00000000  0.62778500  0.08376092  1
  Mn  Mn5  1  -0.00000000  0.37221500  0.91623908  1
  Mn  Mn6  1  0.00000000  0.12778500  0.41623908  1
  Mn  Mn7  1  0.00000000  0.87221500  0.58376092  1
  B  B8  1  0.50000000  0.78108458  0.18354147  1
  B  B9  1  0.50000000  0.21891542  0.81645853  1
  B  B10  1  0.50000000  0.28108458  0.31645853  1
  B  B11  1  0.50000000  0.71891542  0.68354147  1
  B  B12  1  0.50000000  0.86178730  0.03232033  1
  B  B13  1  0.50000000  0.13821270  0.96767967  1
  B  B14  1  0.50000000  0.36178730  0.46767967  1
  B  B15  1  0.50000000  0.63821270  0.53232033  1
  B  B16  1  0.50000000  0.88807287  0.45395168  1
  B  B17  1  0.50000000  0.11192713  0.54604832  1
  B  B18  1  0.50000000  0.38807287  0.04604832  1
  B  B19  1  0.50000000  0.61192713  0.95395168  1
  B  B20  1  0.50000000  0.97585276  0.30963041  1
  B  B21  1  0.50000000  0.02414724  0.69036959  1
  B  B22  1  0.50000000  0.47585276  0.19036959  1
  B  B23  1  0.50000000  0.52414724  0.80963041  1
