# generated using pymatgen
data_Pb2OF2
_symmetry_space_group_name_H-M   'P 1'
_cell_length_a   6.12996088
_cell_length_b   8.27352537
_cell_length_c   8.16721665
_cell_angle_alpha   89.97768595
_cell_angle_beta   89.97829800
_cell_angle_gamma   90.32600570
_symmetry_Int_Tables_number   1
_chemical_formula_structural   Pb2OF2
_chemical_formula_sum   'Pb8 O4 F8'
_cell_volume   414.20495338
_cell_formula_units_Z   4
loop_
 _symmetry_equiv_pos_site_id
 _symmetry_equiv_pos_as_xyz
  1  'x, y, z'
loop_
 _atom_site_type_symbol
 _atom_site_label
 _atom_site_symmetry_multiplicity
 _atom_site_fract_x
 _atom_site_fract_y
 _atom_site_fract_z
 _atom_site_occupancy
  Pb  Pb0  1  0.78563405  0.99995666  0.25954194  1
  Pb  Pb1  1  0.30694332  0.74830294  0.49990229  1
  Pb  Pb2  1  0.30816207  0.24851689  0.49992811  1
  Pb  Pb3  1  0.78589973  0.00012747  0.74051033  1
  Pb  Pb4  1  0.71730450  0.49983533  0.75859038  1
  Pb  Pb5  1  0.71803153  0.49984131  0.24161520  1
  Pb  Pb6  1  0.25079412  0.74995666  0.99983269  1
  Pb  Pb7  1  0.24882212  0.25134125  0.99998762  1
  O  O8  1  0.42828436  0.99853399  0.49960373  1
  O  O9  1  0.83293489  0.99860377  0.00007370  1
  O  O10  1  0.37130764  0.50096250  0.99971770  1
  O  O11  1  0.58764579  0.49669516  0.49999920  1
  F  F12  1  0.52364035  0.22795826  0.77036148  1
  F  F13  1  0.52368240  0.77089685  0.22924917  1
  F  F14  1  0.52349251  0.22844666  0.22977709  1
  F  F15  1  0.01600955  0.28348682  0.74356049  1
  F  F16  1  0.01567883  0.72091116  0.73973436  1
  F  F17  1  0.01586618  0.72091713  0.26069185  1
  F  F18  1  0.01616132  0.28344749  0.25669084  1
  F  F19  1  0.52370372  0.77126170  0.77063184  1
