# generated using pymatgen
data_Ba2Ge4Pd5
_symmetry_space_group_name_H-M   'P 1'
_cell_length_a   5.93523449
_cell_length_b   9.09669221
_cell_length_c   9.09669221
_cell_angle_alpha   104.38750489
_cell_angle_beta   90.00000000
_cell_angle_gamma   90.00000000
_symmetry_Int_Tables_number   1
_chemical_formula_structural   Ba2Ge4Pd5
_chemical_formula_sum   'Ba4 Ge8 Pd10'
_cell_volume   475.73609603
_cell_formula_units_Z   2
loop_
 _symmetry_equiv_pos_site_id
 _symmetry_equiv_pos_as_xyz
  1  'x, y, z'
loop_
 _atom_site_type_symbol
 _atom_site_label
 _atom_site_symmetry_multiplicity
 _atom_site_fract_x
 _atom_site_fract_y
 _atom_site_fract_z
 _atom_site_occupancy
  Ba  Ba0  1  0.46487491  0.85770250  0.14229750  1
  Ba  Ba1  1  0.53512509  0.14229750  0.85770250  1
  Ba  Ba2  1  0.96487491  0.64229750  0.35770250  1
  Ba  Ba3  1  0.03512509  0.35770250  0.64229750  1
  Ge  Ge4  1  0.44196340  0.79255820  0.54406722  1
  Ge  Ge5  1  0.55803660  0.54406722  0.79255820  1
  Ge  Ge6  1  0.94196340  0.04406722  0.29255820  1
  Ge  Ge7  1  0.05803660  0.29255820  0.04406722  1
  Ge  Ge8  1  0.55803660  0.20744180  0.45593278  1
  Ge  Ge9  1  0.44196340  0.45593278  0.20744180  1
  Ge  Ge10  1  0.05803660  0.95593278  0.70744180  1
  Ge  Ge11  1  0.94196340  0.70744180  0.95593278  1
  Pd  Pd12  1  0.25000000  0.02285819  0.47714181  1
  Pd  Pd13  1  0.75000000  0.47714181  0.02285819  1
  Pd  Pd14  1  0.75000000  0.97714181  0.52285819  1
  Pd  Pd15  1  0.25000000  0.52285819  0.97714181  1
  Pd  Pd16  1  0.25000000  0.22659242  0.27340758  1
  Pd  Pd17  1  0.75000000  0.27340758  0.22659242  1
  Pd  Pd18  1  0.75000000  0.77340758  0.72659242  1
  Pd  Pd19  1  0.25000000  0.72659242  0.77340758  1
  Pd  Pd20  1  0.50000000  0.50000000  0.50000000  1
  Pd  Pd21  1  -0.00000000  0.00000000  -0.00000000  1
