# generated using pymatgen
data_Zr7As4
_symmetry_space_group_name_H-M   'P 1'
_cell_length_a   3.72309382
_cell_length_b   8.41442423
_cell_length_c   15.09402992
_cell_angle_alpha   104.50703752
_cell_angle_beta   90.00000000
_cell_angle_gamma   102.78145351
_symmetry_Int_Tables_number   1
_chemical_formula_structural   Zr7As4
_chemical_formula_sum   'Zr14 As8'
_cell_volume   445.67160872
_cell_formula_units_Z   2
loop_
 _symmetry_equiv_pos_site_id
 _symmetry_equiv_pos_as_xyz
  1  'x, y, z'
loop_
 _atom_site_type_symbol
 _atom_site_label
 _atom_site_symmetry_multiplicity
 _atom_site_fract_x
 _atom_site_fract_y
 _atom_site_fract_z
 _atom_site_occupancy
  Zr  Zr0  1  0.00000000  0.00000000  -0.00000000  1
  Zr  Zr1  1  0.50000000  0.00000000  0.50000000  1
  Zr  Zr2  1  0.43132160  0.86264319  0.83062119  1
  Zr  Zr3  1  0.56867840  0.13735681  0.16937881  1
  Zr  Zr4  1  0.19605924  0.39211847  0.30912942  1
  Zr  Zr5  1  0.80394076  0.60788153  0.69087058  1
  Zr  Zr6  1  0.20633514  0.41267029  0.79614633  1
  Zr  Zr7  1  0.79366486  0.58732971  0.20385367  1
  Zr  Zr8  1  0.33852258  0.67704516  0.03065562  1
  Zr  Zr9  1  0.66147742  0.32295484  0.96934438  1
  Zr  Zr10  1  0.00328976  0.00657952  0.66322090  1
  Zr  Zr11  1  0.99671024  0.99342048  0.33677910  1
  Zr  Zr12  1  0.17874983  0.35749966  0.54269492  1
  Zr  Zr13  1  0.82125017  0.64250034  0.45730508  1
  As  As14  1  0.17614416  0.35228832  0.11102358  1
  As  As15  1  0.82385584  0.64771168  0.88897642  1
  As  As16  1  0.37399637  0.74799273  0.60234800  1
  As  As17  1  0.62600363  0.25200727  0.39765200  1
  As  As18  1  0.36962711  0.73925423  0.33979715  1
  As  As19  1  0.63037289  0.26074577  0.66020285  1
  As  As20  1  0.06317488  0.12634975  0.85028123  1
  As  As21  1  0.93682512  0.87365025  0.14971877  1
