# generated using pymatgen
data_BaZnTe2O7
_symmetry_space_group_name_H-M   'P 1'
_cell_length_a   5.63447133
_cell_length_b   7.40901645
_cell_length_c   8.67883093
_cell_angle_alpha   115.26744468
_cell_angle_beta   90.00000000
_cell_angle_gamma   90.00000000
_symmetry_Int_Tables_number   1
_chemical_formula_structural   BaZnTe2O7
_chemical_formula_sum   'Ba2 Zn2 Te4 O14'
_cell_volume   327.64202905
_cell_formula_units_Z   2
loop_
 _symmetry_equiv_pos_site_id
 _symmetry_equiv_pos_as_xyz
  1  'x, y, z'
loop_
 _atom_site_type_symbol
 _atom_site_label
 _atom_site_symmetry_multiplicity
 _atom_site_fract_x
 _atom_site_fract_y
 _atom_site_fract_z
 _atom_site_occupancy
  Ba  Ba0  1  0.25000000  0.33887613  0.42070674  1
  Ba  Ba1  1  0.75000000  0.91816938  0.57929326  1
  Zn  Zn2  1  0.25000000  0.76050143  0.22855650  1
  Zn  Zn3  1  0.75000000  0.53194493  0.77144350  1
  Te  Te4  1  0.25000000  0.81248922  0.84540549  1
  Te  Te5  1  0.75000000  0.96708373  0.15459451  1
  Te  Te6  1  0.25000000  0.30039927  0.85273991  1
  Te  Te7  1  0.75000000  0.44765937  0.14726009  1
  O  O8  1  0.25000000  0.99583000  0.73126564  1
  O  O9  1  0.75000000  0.26456436  0.26873436  1
  O  O10  1  0.50694216  0.29375138  0.71196342  1
  O  O11  1  0.49305784  0.58178796  0.28803658  1
  O  O12  1  0.99305784  0.29375138  0.71196342  1
  O  O13  1  0.00694216  0.58178796  0.28803658  1
  O  O14  1  0.25000000  0.64464125  0.96792171  1
  O  O15  1  0.75000000  0.67671954  0.03207829  1
  O  O16  1  0.49350248  0.66432602  0.68845078  1
  O  O17  1  0.50649752  0.97587524  0.31154922  1
  O  O18  1  0.00649752  0.66432602  0.68845078  1
  O  O19  1  0.99350248  0.97587524  0.31154922  1
  O  O20  1  0.50000000  0.00168009  0.00000000  1
  O  O21  1  0.00000000  0.00168009  0.00000000  1
