# generated using pymatgen
data_Er3B7W
_symmetry_space_group_name_H-M   'P 1'
_cell_length_a   3.44568846
_cell_length_b   8.11793438
_cell_length_c   9.43608889
_cell_angle_alpha   90.00000000
_cell_angle_beta   90.00000000
_cell_angle_gamma   102.25288759
_symmetry_Int_Tables_number   1
_chemical_formula_structural   Er3B7W
_chemical_formula_sum   'Er6 B14 W2'
_cell_volume   257.93251816
_cell_formula_units_Z   2
loop_
 _symmetry_equiv_pos_site_id
 _symmetry_equiv_pos_as_xyz
  1  'x, y, z'
loop_
 _atom_site_type_symbol
 _atom_site_label
 _atom_site_symmetry_multiplicity
 _atom_site_fract_x
 _atom_site_fract_y
 _atom_site_fract_z
 _atom_site_occupancy
  Er  Er0  1  0.10698012  0.21396023  0.44020048  1
  Er  Er1  1  0.89301988  0.78603977  0.55979952  1
  Er  Er2  1  0.10698012  0.21396023  0.05979952  1
  Er  Er3  1  0.89301988  0.78603977  0.94020048  1
  Er  Er4  1  0.75642747  0.51285494  0.25000000  1
  Er  Er5  1  0.24357253  0.48714506  0.75000000  1
  B  B6  1  0.27233693  0.54467386  0.46713280  1
  B  B7  1  0.72766307  0.45532614  0.53286720  1
  B  B8  1  0.27233693  0.54467386  0.03286720  1
  B  B9  1  0.72766307  0.45532614  0.96713280  1
  B  B10  1  0.36526155  0.73052309  0.14653144  1
  B  B11  1  0.63473845  0.26947691  0.85346856  1
  B  B12  1  0.36526155  0.73052309  0.35346856  1
  B  B13  1  0.63473845  0.26947691  0.64653144  1
  B  B14  1  0.48089527  0.96179054  0.09137973  1
  B  B15  1  0.51910473  0.03820946  0.90862027  1
  B  B16  1  0.48089527  0.96179054  0.40862027  1
  B  B17  1  0.51910473  0.03820946  0.59137973  1
  B  B18  1  0.54606498  0.09212995  0.25000000  1
  B  B19  1  0.45393502  0.90787005  0.75000000  1
  W  W20  1  0.94718760  0.89437520  0.25000000  1
  W  W21  1  0.05281240  0.10562480  0.75000000  1
