# generated using pymatgen
data_Yb2Cu3Te4(ClO3)4
_symmetry_space_group_name_H-M   'P 1'
_cell_length_a   5.56939752
_cell_length_b   8.12196742
_cell_length_c   9.72528085
_cell_angle_alpha   99.99621688
_cell_angle_beta   88.06406739
_cell_angle_gamma   104.88019624
_symmetry_Int_Tables_number   1
_chemical_formula_structural   Yb2Cu3Te4(ClO3)4
_chemical_formula_sum   'Yb2 Cu3 Te4 Cl4 O12'
_cell_volume   418.68392059
_cell_formula_units_Z   1
loop_
 _symmetry_equiv_pos_site_id
 _symmetry_equiv_pos_as_xyz
  1  'x, y, z'
loop_
 _atom_site_type_symbol
 _atom_site_label
 _atom_site_symmetry_multiplicity
 _atom_site_fract_x
 _atom_site_fract_y
 _atom_site_fract_z
 _atom_site_occupancy
  Yb  Yb0  1  0.68949968  0.82951925  0.99014019  1
  Yb  Yb1  1  0.31050032  0.17048075  0.00985981  1
  Cu  Cu2  1  0.60364091  0.59637632  0.30104611  1
  Cu  Cu3  1  0.39635909  0.40362368  0.69895389  1
  Cu  Cu4  1  0.00000000  0.50000000  0.00000000  1
  Te  Te5  1  0.82801327  0.16328656  0.76469440  1
  Te  Te6  1  0.17198673  0.83671344  0.23530560  1
  Te  Te7  1  0.19814217  0.75726850  0.75592242  1
  Te  Te8  1  0.80185783  0.24273150  0.24407758  1
  Cl  Cl9  1  0.25326002  0.54533817  0.41870572  1
  Cl  Cl10  1  0.74673998  0.45466183  0.58129428  1
  Cl  Cl11  1  0.72144505  0.85622950  0.42524212  1
  Cl  Cl12  1  0.27855495  0.14377050  0.57475788  1
  O  O13  1  0.57390814  0.05097202  0.14151188  1
  O  O14  1  0.42609186  0.94902798  0.85848812  1
  O  O15  1  0.86815009  0.64530247  0.17896110  1
  O  O16  1  0.13184991  0.35469753  0.82103890  1
  O  O17  1  0.94742016  0.01969360  0.86273941  1
  O  O18  1  0.05257984  0.98030640  0.13726059  1
  O  O19  1  0.32485659  0.69475129  0.10150361  1
  O  O20  1  0.67514341  0.30524871  0.89849639  1
  O  O21  1  0.97029951  0.67466793  0.89462984  1
  O  O22  1  0.02970049  0.32533207  0.10537016  1
  O  O23  1  0.44679845  0.63598708  0.78059226  1
  O  O24  1  0.55320155  0.36401292  0.21940774  1
