# generated using pymatgen
data_Tb3(GaNi3)2
_symmetry_space_group_name_H-M   'P 1'
_cell_length_a   7.73126831
_cell_length_b   7.73126831
_cell_length_c   7.73126831
_cell_angle_alpha   109.47122063
_cell_angle_beta   109.47122063
_cell_angle_gamma   109.47122063
_symmetry_Int_Tables_number   1
_chemical_formula_structural   Tb3(GaNi3)2
_chemical_formula_sum   'Tb6 Ga4 Ni12'
_cell_volume   355.73807104
_cell_formula_units_Z   2
loop_
 _symmetry_equiv_pos_site_id
 _symmetry_equiv_pos_as_xyz
  1  'x, y, z'
loop_
 _atom_site_type_symbol
 _atom_site_label
 _atom_site_symmetry_multiplicity
 _atom_site_fract_x
 _atom_site_fract_y
 _atom_site_fract_z
 _atom_site_occupancy
  Tb  Tb0  1  0.00000000  0.28943835  0.28943835  1
  Tb  Tb1  1  0.71056165  -0.00000000  0.71056165  1
  Tb  Tb2  1  0.71056165  0.71056165  -0.00000000  1
  Tb  Tb3  1  -0.00000000  0.71056165  0.71056165  1
  Tb  Tb4  1  0.28943835  0.00000000  0.28943835  1
  Tb  Tb5  1  0.28943835  0.28943835  0.00000000  1
  Ga  Ga6  1  0.50000000  0.00000000  -0.00000000  1
  Ga  Ga7  1  -0.00000000  0.50000000  -0.00000000  1
  Ga  Ga8  1  -0.00000000  0.00000000  0.50000000  1
  Ga  Ga9  1  0.50000000  0.50000000  0.50000000  1
  Ni  Ni10  1  0.32448012  0.66224006  0.66224006  1
  Ni  Ni11  1  0.66224006  0.00000000  0.33775994  1
  Ni  Ni12  1  0.66224006  0.33775994  0.00000000  1
  Ni  Ni13  1  0.00000000  0.66224006  0.33775994  1
  Ni  Ni14  1  0.66224006  0.32448012  0.66224006  1
  Ni  Ni15  1  0.33775994  0.66224006  -0.00000000  1
  Ni  Ni16  1  -0.00000000  0.33775994  0.66224006  1
  Ni  Ni17  1  0.33775994  -0.00000000  0.66224006  1
  Ni  Ni18  1  0.66224006  0.66224006  0.32448012  1
  Ni  Ni19  1  0.67551988  0.33775994  0.33775994  1
  Ni  Ni20  1  0.33775994  0.67551988  0.33775994  1
  Ni  Ni21  1  0.33775994  0.33775994  0.67551988  1
