# generated using pymatgen
data_Gd6Co5
_symmetry_space_group_name_H-M   'P 1'
_cell_length_a   4.24205763
_cell_length_b   11.30190378
_cell_length_c   11.32485367
_cell_angle_alpha   120.07110176
_cell_angle_beta   90.00000000
_cell_angle_gamma   90.00000000
_symmetry_Int_Tables_number   1
_chemical_formula_structural   Gd6Co5
_chemical_formula_sum   'Gd12 Co10'
_cell_volume   469.87224924
_cell_formula_units_Z   2
loop_
 _symmetry_equiv_pos_site_id
 _symmetry_equiv_pos_as_xyz
  1  'x, y, z'
loop_
 _atom_site_type_symbol
 _atom_site_label
 _atom_site_symmetry_multiplicity
 _atom_site_fract_x
 _atom_site_fract_y
 _atom_site_fract_z
 _atom_site_occupancy
  Gd  Gd0  1  0.75000000  0.62168007  0.48594763  1
  Gd  Gd1  1  0.75000000  0.51408112  0.13611848  1
  Gd  Gd2  1  0.75000000  0.86532911  0.37964966  1
  Gd  Gd3  1  0.25000000  0.37831993  0.51405237  1
  Gd  Gd4  1  0.25000000  0.48591888  0.86388152  1
  Gd  Gd5  1  0.25000000  0.13467089  0.62035034  1
  Gd  Gd6  1  0.75000000  0.77562777  0.02302894  1
  Gd  Gd7  1  0.75000000  0.97535617  0.75109858  1
  Gd  Gd8  1  0.75000000  0.24882261  0.22521210  1
  Gd  Gd9  1  0.25000000  0.22437223  0.97697106  1
  Gd  Gd10  1  0.25000000  0.02464383  0.24890142  1
  Gd  Gd11  1  0.25000000  0.75117739  0.77478790  1
  Co  Co12  1  0.75000000  0.28188174  0.83976167  1
  Co  Co13  1  0.75000000  0.16053467  0.44269242  1
  Co  Co14  1  0.75000000  0.55749316  0.71782810  1
  Co  Co15  1  0.25000000  0.71811826  0.16023833  1
  Co  Co16  1  0.25000000  0.83946533  0.55730758  1
  Co  Co17  1  0.25000000  0.44250684  0.28217190  1
  Co  Co18  1  0.50000000  -0.00000000  0.00000000  1
  Co  Co19  1  -0.00000000  -0.00000000  0.00000000  1
  Co  Co20  1  0.25000000  0.66685014  0.33223714  1
  Co  Co21  1  0.75000000  0.33314986  0.66776286  1
