# generated using pymatgen
data_TmPS
_symmetry_space_group_name_H-M   'P 1'
_cell_length_a   5.24939391
_cell_length_b   5.29638694
_cell_length_c   16.53373519
_cell_angle_alpha   90.00000000
_cell_angle_beta   90.00000000
_cell_angle_gamma   90.00000000
_symmetry_Int_Tables_number   1
_chemical_formula_structural   TmPS
_chemical_formula_sum   'Tm8 P8 S8'
_cell_volume   459.68448570
_cell_formula_units_Z   8
loop_
 _symmetry_equiv_pos_site_id
 _symmetry_equiv_pos_as_xyz
  1  'x, y, z'
loop_
 _atom_site_type_symbol
 _atom_site_label
 _atom_site_symmetry_multiplicity
 _atom_site_fract_x
 _atom_site_fract_y
 _atom_site_fract_z
 _atom_site_occupancy
  Tm  Tm0  1  0.75000000  0.01601910  0.13755286  1
  Tm  Tm1  1  0.75000000  0.51601910  0.36244714  1
  Tm  Tm2  1  0.25000000  0.98398090  0.86244714  1
  Tm  Tm3  1  0.25000000  0.48398090  0.63755286  1
  Tm  Tm4  1  0.75000000  0.48508588  0.85384730  1
  Tm  Tm5  1  0.75000000  0.98508588  0.64615270  1
  Tm  Tm6  1  0.25000000  0.51491412  0.14615270  1
  Tm  Tm7  1  0.25000000  0.01491412  0.35384730  1
  P  P8  1  0.96685935  0.20834080  0.50274924  1
  P  P9  1  0.53314065  0.70834080  0.99725076  1
  P  P10  1  0.46685935  0.79165920  0.49725076  1
  P  P11  1  0.03314065  0.29165920  0.00274924  1
  P  P12  1  0.03314065  0.79165920  0.49725076  1
  P  P13  1  0.46685935  0.29165920  0.00274924  1
  P  P14  1  0.53314065  0.20834080  0.50274924  1
  P  P15  1  0.96685935  0.70834080  0.99725076  1
  S  S16  1  0.75000000  0.01530194  0.31072649  1
  S  S17  1  0.75000000  0.51530194  0.18927351  1
  S  S18  1  0.25000000  0.98469806  0.68927351  1
  S  S19  1  0.25000000  0.48469806  0.81072649  1
  S  S20  1  0.75000000  0.48865090  0.68391110  1
  S  S21  1  0.75000000  0.98865090  0.81608890  1
  S  S22  1  0.25000000  0.51134910  0.31608890  1
  S  S23  1  0.25000000  0.01134910  0.18391110  1
