# generated using pymatgen
data_Ta7(B4Ru3)2
_symmetry_space_group_name_H-M   'P 1'
_cell_length_a   3.12549800
_cell_length_b   9.58155730
_cell_length_c   9.59094720
_cell_angle_alpha   119.96544013
_cell_angle_beta   90.00000000
_cell_angle_gamma   90.00000000
_symmetry_Int_Tables_number   1
_chemical_formula_structural   Ta7(B4Ru3)2
_chemical_formula_sum   'Ta7 B8 Ru6'
_cell_volume   248.82762547
_cell_formula_units_Z   1
loop_
 _symmetry_equiv_pos_site_id
 _symmetry_equiv_pos_as_xyz
  1  'x, y, z'
loop_
 _atom_site_type_symbol
 _atom_site_label
 _atom_site_symmetry_multiplicity
 _atom_site_fract_x
 _atom_site_fract_y
 _atom_site_fract_z
 _atom_site_occupancy
  Ta  Ta0  1  0.00000000  -0.00000000  -0.00000000  1
  Ta  Ta1  1  -0.00000000  0.72457578  0.63859453  1
  Ta  Ta2  1  -0.00000000  0.36153259  0.08617159  1
  Ta  Ta3  1  -0.00000000  0.91408996  0.27555350  1
  Ta  Ta4  1  0.00000000  0.27542422  0.36140547  1
  Ta  Ta5  1  0.00000000  0.63846741  0.91382841  1
  Ta  Ta6  1  0.00000000  0.08591004  0.72444650  1
  B  B7  1  0.00000000  0.66667142  0.33346874  1
  B  B8  1  0.00000000  0.33332858  0.66653126  1
  B  B9  1  0.50000000  0.15320859  0.93445887  1
  B  B10  1  0.50000000  0.06545988  0.21802642  1
  B  B11  1  0.50000000  0.78184869  0.84653541  1
  B  B12  1  0.50000000  0.84679141  0.06554113  1
  B  B13  1  0.50000000  0.93454012  0.78197358  1
  B  B14  1  0.50000000  0.21815131  0.15346459  1
  Ru  Ru15  1  0.50000000  0.36010194  0.84664462  1
  Ru  Ru16  1  0.50000000  0.15340229  0.51375069  1
  Ru  Ru17  1  0.50000000  0.48599874  0.63987220  1
  Ru  Ru18  1  0.50000000  0.63989806  0.15335538  1
  Ru  Ru19  1  0.50000000  0.84659771  0.48624931  1
  Ru  Ru20  1  0.50000000  0.51400126  0.36012780  1
