# generated using pymatgen
data_PbCSNCl
_symmetry_space_group_name_H-M   'P 1'
_cell_length_a   4.32479994
_cell_length_b   9.82383710
_cell_length_c   10.26429131
_cell_angle_alpha   90.00000000
_cell_angle_beta   90.00000000
_cell_angle_gamma   90.00000000
_symmetry_Int_Tables_number   1
_chemical_formula_structural   PbCSNCl
_chemical_formula_sum   'Pb4 C4 S4 N4 Cl4'
_cell_volume   436.09001599
_cell_formula_units_Z   4
loop_
 _symmetry_equiv_pos_site_id
 _symmetry_equiv_pos_as_xyz
  1  'x, y, z'
loop_
 _atom_site_type_symbol
 _atom_site_label
 _atom_site_symmetry_multiplicity
 _atom_site_fract_x
 _atom_site_fract_y
 _atom_site_fract_z
 _atom_site_occupancy
  Pb  Pb0  1  0.25000000  0.91992642  0.80967315  1
  Pb  Pb1  1  0.75000000  0.41992642  0.69032685  1
  Pb  Pb2  1  0.25000000  0.58007358  0.30967315  1
  Pb  Pb3  1  0.75000000  0.08007358  0.19032685  1
  C  C4  1  0.25000000  0.14092878  0.48342789  1
  C  C5  1  0.75000000  0.85907122  0.51657211  1
  C  C6  1  0.25000000  0.35907122  0.98342789  1
  C  C7  1  0.75000000  0.64092878  0.01657211  1
  S  S8  1  0.25000000  0.30942616  0.13625691  1
  S  S9  1  0.75000000  0.69057384  0.86374309  1
  S  S10  1  0.25000000  0.19057384  0.63625691  1
  S  S11  1  0.75000000  0.80942616  0.36374309  1
  N  N12  1  0.75000000  0.89626048  0.62669062  1
  N  N13  1  0.25000000  0.10373952  0.37330938  1
  N  N14  1  0.25000000  0.39626048  0.87330938  1
  N  N15  1  0.75000000  0.60373952  0.12669062  1
  Cl  Cl16  1  0.75000000  0.10401481  0.90274230  1
  Cl  Cl17  1  0.75000000  0.39598519  0.40274230  1
  Cl  Cl18  1  0.25000000  0.89598519  0.09725770  1
  Cl  Cl19  1  0.25000000  0.60401481  0.59725770  1
