# generated using pymatgen
data_BaTh(PO4)2
_symmetry_space_group_name_H-M   'P 1'
_cell_length_a   5.48078962
_cell_length_b   7.05081172
_cell_length_c   9.62000050
_cell_angle_alpha   100.85499191
_cell_angle_beta   90.00000000
_cell_angle_gamma   112.87138340
_symmetry_Int_Tables_number   1
_chemical_formula_structural   BaTh(PO4)2
_chemical_formula_sum   'Ba2 Th2 P4 O16'
_cell_volume   335.29672997
_cell_formula_units_Z   2
loop_
 _symmetry_equiv_pos_site_id
 _symmetry_equiv_pos_as_xyz
  1  'x, y, z'
loop_
 _atom_site_type_symbol
 _atom_site_label
 _atom_site_symmetry_multiplicity
 _atom_site_fract_x
 _atom_site_fract_y
 _atom_site_fract_z
 _atom_site_occupancy
  Ba  Ba0  1  -0.00000000  0.50000000  0.50000000  1
  Ba  Ba1  1  0.50000000  0.50000000  0.00000000  1
  Th  Th2  1  0.17621918  1.00000000  0.25000000  1
  Th  Th3  1  0.82378082  0.00000000  0.75000000  1
  P  P4  1  0.64360823  0.81680378  0.39022640  1
  P  P5  1  0.82680445  0.18319622  0.10977360  1
  P  P6  1  0.35639177  0.18319622  0.60977360  1
  P  P7  1  0.17319555  0.81680378  0.89022640  1
  O  O8  1  0.78816805  0.69416245  0.29523539  1
  O  O9  1  0.09400560  0.30583755  0.20476461  1
  O  O10  1  0.21183195  0.30583755  0.70476461  1
  O  O11  1  0.90599440  0.69416245  0.79523539  1
  O  O12  1  0.37102718  0.77908204  0.31880764  1
  O  O13  1  0.59194514  0.22091796  0.18119236  1
  O  O14  1  0.62897282  0.22091796  0.68119236  1
  O  O15  1  0.40805486  0.77908204  0.81880764  1
  O  O16  1  0.83668157  0.05225111  0.41062236  1
  O  O17  1  0.78443046  0.94774889  0.08937764  1
  O  O18  1  0.16331843  0.94774889  0.58937764  1
  O  O19  1  0.21556954  0.05225111  0.91062236  1
  O  O20  1  0.59800595  0.74598279  0.53509556  1
  O  O21  1  0.85202317  0.25401721  0.96490444  1
  O  O22  1  0.40199405  0.25401721  0.46490444  1
  O  O23  1  0.14797683  0.74598279  0.03509556  1
