# generated using pymatgen
data_Na5Pr4Si4O16F
_symmetry_space_group_name_H-M   'P 1'
_cell_length_a   5.52302375
_cell_length_b   9.00863404
_cell_length_c   9.00863404
_cell_angle_alpha   84.60812755
_cell_angle_beta   72.14913065
_cell_angle_gamma   72.14913065
_symmetry_Int_Tables_number   1
_chemical_formula_structural   Na5Pr4Si4O16F
_chemical_formula_sum   'Na5 Pr4 Si4 O16 F1'
_cell_volume   406.10540805
_cell_formula_units_Z   1
loop_
 _symmetry_equiv_pos_site_id
 _symmetry_equiv_pos_as_xyz
  1  'x, y, z'
loop_
 _atom_site_type_symbol
 _atom_site_label
 _atom_site_symmetry_multiplicity
 _atom_site_fract_x
 _atom_site_fract_y
 _atom_site_fract_z
 _atom_site_occupancy
  Na  Na0  1  0.59724755  0.30598140  0.51557419  1
  Na  Na1  1  0.41880314  0.69401860  0.48442581  1
  Na  Na2  1  0.09677105  0.48442581  0.30598140  1
  Na  Na3  1  0.88717826  0.51557419  0.69401860  1
  Na  Na4  1  -0.00000000  0.00000000  0.00000000  1
  Pr  Pr5  1  0.63360478  0.69743823  0.06729395  1
  Pr  Pr6  1  0.39833696  0.30256177  0.93270605  1
  Pr  Pr7  1  0.66895699  0.93270605  0.69743823  1
  Pr  Pr8  1  0.29910127  0.06729395  0.30256177  1
  Si  Si9  1  0.74476520  0.34880858  0.14633625  1
  Si  Si10  1  0.23991004  0.65119142  0.85366375  1
  Si  Si11  1  0.90642621  0.85366375  0.34880858  1
  Si  Si12  1  0.10889854  0.14633625  0.65119142  1
  O  O13  1  0.63226646  0.48872181  0.27820132  1
  O  O14  1  0.39918960  0.51127819  0.72179868  1
  O  O15  1  0.87901173  0.72179868  0.48872181  1
  O  O16  1  0.08953221  0.27820132  0.51127819  1
  O  O17  1  0.04091666  0.23617274  0.14536705  1
  O  O18  1  0.42245645  0.76382726  0.85463295  1
  O  O19  1  0.72291060  0.85463295  0.23617274  1
  O  O20  1  0.81371629  0.14536705  0.76382726  1
  O  O21  1  0.53598524  0.24624472  0.17241362  1
  O  O22  1  0.95464359  0.75375528  0.82758638  1
  O  O23  1  0.21777004  0.82758638  0.24624472  1
  O  O24  1  0.29160114  0.17241362  0.75375528  1
  O  O25  1  0.75680206  0.43071179  0.97205229  1
  O  O26  1  0.15956613  0.56928821  0.02794771  1
  O  O27  1  0.81248615  0.02794771  0.43071179  1
  O  O28  1  0.27114566  0.97205229  0.56928821  1
  F  F29  1  0.50000000  0.00000000  0.00000000  1
