# generated using pymatgen
data_K3Tm(PO4)2
_symmetry_space_group_name_H-M   'P 1'
_cell_length_a   5.65178260
_cell_length_b   7.45266776
_cell_length_c   9.38546913
_cell_angle_alpha   90.99056341
_cell_angle_beta   90.00000000
_cell_angle_gamma   90.00000000
_symmetry_Int_Tables_number   1
_chemical_formula_structural   K3Tm(PO4)2
_chemical_formula_sum   'K6 Tm2 P4 O16'
_cell_volume   395.26493306
_cell_formula_units_Z   2
loop_
 _symmetry_equiv_pos_site_id
 _symmetry_equiv_pos_as_xyz
  1  'x, y, z'
loop_
 _atom_site_type_symbol
 _atom_site_label
 _atom_site_symmetry_multiplicity
 _atom_site_fract_x
 _atom_site_fract_y
 _atom_site_fract_z
 _atom_site_occupancy
  K  K0  1  0.75000000  0.20554656  0.08066553  1
  K  K1  1  0.25000000  0.79445344  0.91933447  1
  K  K2  1  0.75000000  0.63680048  0.41267471  1
  K  K3  1  0.25000000  0.36319952  0.58732529  1
  K  K4  1  0.75000000  0.49703900  0.80738320  1
  K  K5  1  0.25000000  0.50296100  0.19261680  1
  Tm  Tm6  1  0.75000000  0.99215679  0.71296105  1
  Tm  Tm7  1  0.25000000  0.00784321  0.28703895  1
  P  P8  1  0.75000000  0.18435385  0.42818027  1
  P  P9  1  0.25000000  0.81564615  0.57181973  1
  P  P10  1  0.25000000  0.22638116  0.90893396  1
  P  P11  1  0.75000000  0.77361884  0.09106604  1
  O  O12  1  0.75000000  0.98326767  0.46594342  1
  O  O13  1  0.25000000  0.01673233  0.53405658  1
  O  O14  1  0.75000000  0.28790898  0.57425353  1
  O  O15  1  0.25000000  0.71209102  0.42574647  1
  O  O16  1  0.52513352  0.23282228  0.33957175  1
  O  O17  1  0.02513352  0.76717772  0.66042825  1
  O  O18  1  0.47486648  0.76717772  0.66042825  1
  O  O19  1  0.97486648  0.23282228  0.33957175  1
  O  O20  1  0.47530612  0.14808522  0.83299313  1
  O  O21  1  0.97530612  0.85191478  0.16700687  1
  O  O22  1  0.52469388  0.85191478  0.16700687  1
  O  O23  1  0.02469388  0.14808522  0.83299313  1
  O  O24  1  0.25000000  0.16875732  0.06830579  1
  O  O25  1  0.75000000  0.83124268  0.93169421  1
  O  O26  1  0.25000000  0.43171425  0.89715487  1
  O  O27  1  0.75000000  0.56828575  0.10284513  1
