# generated using pymatgen
data_FeBi2Se2Cl3O7
_symmetry_space_group_name_H-M   'P 1'
_cell_length_a   7.24219589
_cell_length_b   8.71503088
_cell_length_c   8.75732874
_cell_angle_alpha   106.67065655
_cell_angle_beta   90.00000000
_cell_angle_gamma   90.00000000
_symmetry_Int_Tables_number   1
_chemical_formula_structural   FeBi2Se2Cl3O7
_chemical_formula_sum   'Fe2 Bi4 Se4 Cl6 O14'
_cell_volume   529.49583748
_cell_formula_units_Z   2
loop_
 _symmetry_equiv_pos_site_id
 _symmetry_equiv_pos_as_xyz
  1  'x, y, z'
loop_
 _atom_site_type_symbol
 _atom_site_label
 _atom_site_symmetry_multiplicity
 _atom_site_fract_x
 _atom_site_fract_y
 _atom_site_fract_z
 _atom_site_occupancy
  Fe  Fe0  1  0.50000000  0.50000000  0.50000000  1
  Fe  Fe1  1  0.00000000  0.50000000  0.50000000  1
  Bi  Bi2  1  0.75000000  0.20192397  0.24458434  1
  Bi  Bi3  1  0.25000000  0.79807603  0.75541566  1
  Bi  Bi4  1  0.75000000  0.27687845  0.73152091  1
  Bi  Bi5  1  0.25000000  0.72312155  0.26847909  1
  Se  Se6  1  0.75000000  0.73549883  0.82195478  1
  Se  Se7  1  0.25000000  0.26450117  0.17804522  1
  Se  Se8  1  0.75000000  0.60700048  0.21391923  1
  Se  Se9  1  0.25000000  0.39299952  0.78608077  1
  Cl  Cl10  1  0.75000000  0.02790576  0.47634610  1
  Cl  Cl11  1  0.25000000  0.97209424  0.52365390  1
  Cl  Cl12  1  0.51535472  0.11806730  0.88013756  1
  Cl  Cl13  1  0.01535472  0.88193270  0.11986244  1
  Cl  Cl14  1  0.48464528  0.88193270  0.11986244  1
  Cl  Cl15  1  0.98464528  0.11806730  0.88013756  1
  O  O16  1  0.43841620  0.29698782  0.31521827  1
  O  O17  1  0.93841620  0.70301218  0.68478173  1
  O  O18  1  0.56158380  0.70301218  0.68478173  1
  O  O19  1  0.06158380  0.29698782  0.31521827  1
  O  O20  1  0.43940499  0.37039155  0.65515242  1
  O  O21  1  0.93940499  0.62960845  0.34484758  1
  O  O22  1  0.56059501  0.62960845  0.34484758  1
  O  O23  1  0.06059501  0.37039155  0.65515242  1
  O  O24  1  0.75000000  0.39595830  0.47923543  1
  O  O25  1  0.25000000  0.60404170  0.52076457  1
  O  O26  1  0.75000000  0.40341793  0.12492249  1
  O  O27  1  0.25000000  0.59658207  0.87507751  1
  O  O28  1  0.75000000  0.56350488  0.87382561  1
  O  O29  1  0.25000000  0.43649512  0.12617439  1
