# generated using pymatgen
data_Hf9Re4S
_symmetry_space_group_name_H-M   'P 1'
_cell_length_a   8.55934649
_cell_length_b   8.56044629
_cell_length_c   8.56044629
_cell_angle_alpha   120.01156623
_cell_angle_beta   90.00000000
_cell_angle_gamma   90.00000000
_symmetry_Int_Tables_number   1
_chemical_formula_structural   Hf9Re4S
_chemical_formula_sum   'Hf18 Re8 S2'
_cell_volume   543.14204646
_cell_formula_units_Z   2
loop_
 _symmetry_equiv_pos_site_id
 _symmetry_equiv_pos_as_xyz
  1  'x, y, z'
loop_
 _atom_site_type_symbol
 _atom_site_label
 _atom_site_symmetry_multiplicity
 _atom_site_fract_x
 _atom_site_fract_y
 _atom_site_fract_z
 _atom_site_occupancy
  Hf  Hf0  1  0.55219970  0.80421277  0.60839729  1
  Hf  Hf1  1  0.55218378  0.80416986  0.19583014  1
  Hf  Hf2  1  0.55219970  0.39160271  0.19578723  1
  Hf  Hf3  1  0.44780030  0.19578723  0.39160271  1
  Hf  Hf4  1  0.44781622  0.19583014  0.80416986  1
  Hf  Hf5  1  0.44780030  0.60839729  0.80421277  1
  Hf  Hf6  1  0.05219970  0.19578723  0.39160271  1
  Hf  Hf7  1  0.05218378  0.19583014  0.80416986  1
  Hf  Hf8  1  0.05219970  0.60839729  0.80421277  1
  Hf  Hf9  1  0.94780030  0.80421277  0.60839729  1
  Hf  Hf10  1  0.94781622  0.80416986  0.19583014  1
  Hf  Hf11  1  0.94780030  0.39160271  0.19578723  1
  Hf  Hf12  1  0.75000000  0.45726294  0.91450304  1
  Hf  Hf13  1  0.75000000  0.45722939  0.54277061  1
  Hf  Hf14  1  0.75000000  0.08549696  0.54273706  1
  Hf  Hf15  1  0.25000000  0.54273706  0.08549696  1
  Hf  Hf16  1  0.25000000  0.54277061  0.45722939  1
  Hf  Hf17  1  0.25000000  0.91450304  0.45726294  1
  Re  Re18  1  0.75000000  0.10984686  0.21965983  1
  Re  Re19  1  0.75000000  0.10987538  0.89012462  1
  Re  Re20  1  0.75000000  0.78034017  0.89015314  1
  Re  Re21  1  0.25000000  0.89015314  0.78034017  1
  Re  Re22  1  0.25000000  0.89012462  0.10987538  1
  Re  Re23  1  0.25000000  0.21965983  0.10984686  1
  Re  Re24  1  0.50000000  0.00000000  -0.00000000  1
  Re  Re25  1  -0.00000000  0.00000000  -0.00000000  1
  S  S26  1  0.75000000  0.66670060  0.33329940  1
  S  S27  1  0.25000000  0.33329940  0.66670060  1
