# generated using pymatgen
data_Cs2V3O8
_symmetry_space_group_name_H-M   'P 1'
_cell_length_a   6.13845378
_cell_length_b   9.11081721
_cell_length_c   9.11081721
_cell_angle_alpha   90.00000000
_cell_angle_beta   90.00000000
_cell_angle_gamma   90.00000000
_symmetry_Int_Tables_number   1
_chemical_formula_structural   Cs2V3O8
_chemical_formula_sum   'Cs4 V6 O16'
_cell_volume   509.53457297
_cell_formula_units_Z   2
loop_
 _symmetry_equiv_pos_site_id
 _symmetry_equiv_pos_as_xyz
  1  'x, y, z'
loop_
 _atom_site_type_symbol
 _atom_site_label
 _atom_site_symmetry_multiplicity
 _atom_site_fract_x
 _atom_site_fract_y
 _atom_site_fract_z
 _atom_site_occupancy
  Cs  Cs0  1  0.49114901  0.17269315  0.32730685  1
  Cs  Cs1  1  0.49114901  0.82730685  0.67269315  1
  Cs  Cs2  1  0.49114901  0.32730685  0.82730685  1
  Cs  Cs3  1  0.49114901  0.67269315  0.17269315  1
  V  V4  1  0.01544547  0.86799098  0.36799098  1
  V  V5  1  0.01544547  0.13200902  0.63200902  1
  V  V6  1  0.01544547  0.63200902  0.86799098  1
  V  V7  1  0.01544547  0.36799098  0.13200902  1
  V  V8  1  0.01271236  0.50000000  0.50000000  1
  V  V9  1  0.01271236  0.00000000  -0.00000000  1
  O  O10  1  0.74481192  0.50000000  0.50000000  1
  O  O11  1  0.74481192  0.00000000  -0.00000000  1
  O  O12  1  0.74541865  0.87517838  0.37517838  1
  O  O13  1  0.74541865  0.12482162  0.62482162  1
  O  O14  1  0.74541865  0.62482162  0.87517838  1
  O  O15  1  0.74541865  0.37517838  0.12482162  1
  O  O16  1  0.10878609  0.69309683  0.41679114  1
  O  O17  1  0.10878609  0.30690317  0.58320886  1
  O  O18  1  0.10878609  0.80690317  0.91679114  1
  O  O19  1  0.10878609  0.19309683  0.08320886  1
  O  O20  1  0.10878609  0.41679114  0.30690317  1
  O  O21  1  0.10878609  0.58320886  0.69309683  1
  O  O22  1  0.10878609  0.91679114  0.19309683  1
  O  O23  1  0.10878609  0.08320886  0.80690317  1
  O  O24  1  0.12910511  0.00000000  0.50000000  1
  O  O25  1  0.12910511  0.50000000  -0.00000000  1
