# generated using pymatgen
data_Eu2BIN2
_symmetry_space_group_name_H-M   'P 1'
_cell_length_a   4.13402009
_cell_length_b   10.31057654
_cell_length_c   13.12721896
_cell_angle_alpha   92.14765609
_cell_angle_beta   90.00000000
_cell_angle_gamma   90.00000000
_symmetry_Int_Tables_number   1
_chemical_formula_structural   Eu2BIN2
_chemical_formula_sum   'Eu8 B4 I4 N8'
_cell_volume   559.14325914
_cell_formula_units_Z   4
loop_
 _symmetry_equiv_pos_site_id
 _symmetry_equiv_pos_as_xyz
  1  'x, y, z'
loop_
 _atom_site_type_symbol
 _atom_site_label
 _atom_site_symmetry_multiplicity
 _atom_site_fract_x
 _atom_site_fract_y
 _atom_site_fract_z
 _atom_site_occupancy
  Eu  Eu0  1  0.75000000  0.92185934  0.09576552  1
  Eu  Eu1  1  0.25000000  0.07814066  0.90423448  1
  Eu  Eu2  1  0.75000000  0.34748731  0.63095894  1
  Eu  Eu3  1  0.25000000  0.65251269  0.36904106  1
  Eu  Eu4  1  0.75000000  0.80413743  0.61651962  1
  Eu  Eu5  1  0.25000000  0.19586257  0.38348038  1
  Eu  Eu6  1  0.75000000  0.39773061  0.17363184  1
  Eu  Eu7  1  0.25000000  0.60226939  0.82636816  1
  B  B8  1  0.75000000  0.83925818  0.85158873  1
  B  B9  1  0.25000000  0.16074182  0.14841127  1
  B  B10  1  0.75000000  0.41905502  0.39553999  1
  B  B11  1  0.25000000  0.58094498  0.60446001  1
  I  I12  1  0.75000000  0.92179314  0.35820125  1
  I  I13  1  0.25000000  0.07820686  0.64179875  1
  I  I14  1  0.75000000  0.34670159  0.90415919  1
  I  I15  1  0.25000000  0.65329841  0.09584081  1
  N  N16  1  0.75000000  0.52479269  0.33791922  1
  N  N17  1  0.25000000  0.47520731  0.66208078  1
  N  N18  1  0.75000000  0.30740756  0.44571326  1
  N  N19  1  0.25000000  0.69259244  0.55428674  1
  N  N20  1  0.75000000  0.94953390  0.90958279  1
  N  N21  1  0.25000000  0.05046610  0.09041721  1
  N  N22  1  0.75000000  0.72906490  0.79249079  1
  N  N23  1  0.25000000  0.27093510  0.20750921  1
