# generated using pymatgen
data_La3IrBr3
_symmetry_space_group_name_H-M   'P 1'
_cell_length_a   10.61768952
_cell_length_b   10.61768952
_cell_length_c   10.61768952
_cell_angle_alpha   109.47122063
_cell_angle_beta   109.47122063
_cell_angle_gamma   109.47122063
_symmetry_Int_Tables_number   1
_chemical_formula_structural   La3IrBr3
_chemical_formula_sum   'La12 Ir4 Br12'
_cell_volume   921.44236035
_cell_formula_units_Z   4
loop_
 _symmetry_equiv_pos_site_id
 _symmetry_equiv_pos_as_xyz
  1  'x, y, z'
loop_
 _atom_site_type_symbol
 _atom_site_label
 _atom_site_symmetry_multiplicity
 _atom_site_fract_x
 _atom_site_fract_y
 _atom_site_fract_z
 _atom_site_occupancy
  La  La0  1  0.76591677  0.25000000  0.73408323  1
  La  La1  1  0.98408323  0.25000000  0.51591677  1
  La  La2  1  0.51591677  0.53183354  0.76591677  1
  La  La3  1  0.73408323  0.96816646  0.98408323  1
  La  La4  1  0.25000000  0.73408323  0.76591677  1
  La  La5  1  0.25000000  0.51591677  0.98408323  1
  La  La6  1  0.53183354  0.76591677  0.51591677  1
  La  La7  1  0.96816646  0.98408323  0.73408323  1
  La  La8  1  0.73408323  0.76591677  0.25000000  1
  La  La9  1  0.51591677  0.98408323  0.25000000  1
  La  La10  1  0.76591677  0.51591677  0.53183354  1
  La  La11  1  0.98408323  0.73408323  0.96816646  1
  Ir  Ir12  1  0.75000000  0.00000000  0.50000000  1
  Ir  Ir13  1  0.00000000  0.50000000  0.75000000  1
  Ir  Ir14  1  0.50000000  0.75000000  0.00000000  1
  Ir  Ir15  1  0.75000000  0.75000000  0.75000000  1
  Br  Br16  1  0.49377402  0.00622598  0.75000000  1
  Br  Br17  1  0.24377402  0.49377402  0.48754804  1
  Br  Br18  1  0.25622598  0.24377402  0.75000000  1
  Br  Br19  1  0.00622598  0.25622598  0.01245196  1
  Br  Br20  1  0.75000000  0.49377402  0.00622598  1
  Br  Br21  1  0.01245196  0.00622598  0.25622598  1
  Br  Br22  1  0.75000000  0.25622598  0.24377402  1
  Br  Br23  1  0.48754804  0.24377402  0.49377402  1
  Br  Br24  1  0.00622598  0.75000000  0.49377402  1
  Br  Br25  1  0.49377402  0.48754804  0.24377402  1
  Br  Br26  1  0.24377402  0.75000000  0.25622598  1
  Br  Br27  1  0.25622598  0.01245196  0.00622598  1
