# generated using pymatgen
data_CsOs2O9
_symmetry_space_group_name_H-M   'P 1'
_cell_length_a   6.00991068
_cell_length_b   7.97207375
_cell_length_c   11.01079263
_cell_angle_alpha   107.33880165
_cell_angle_beta   90.00000005
_cell_angle_gamma   112.14397498
_symmetry_Int_Tables_number   1
_chemical_formula_structural   CsOs2O9
_chemical_formula_sum   'Cs2 Os4 O18'
_cell_volume   462.64745479
_cell_formula_units_Z   2
loop_
 _symmetry_equiv_pos_site_id
 _symmetry_equiv_pos_as_xyz
  1  'x, y, z'
loop_
 _atom_site_type_symbol
 _atom_site_label
 _atom_site_symmetry_multiplicity
 _atom_site_fract_x
 _atom_site_fract_y
 _atom_site_fract_z
 _atom_site_occupancy
  Cs  Cs0  1  0.65460136  0.30117001  0.77161456  1
  Cs  Cs1  1  0.64656865  0.30117001  0.27161456  1
  Os  Os2  1  0.03296004  0.00142798  0.50015194  1
  Os  Os3  1  0.96846794  0.00142798  0.00015194  1
  Os  Os4  1  0.25637841  0.63860593  0.62577786  1
  Os  Os5  1  0.38222751  0.63860593  0.12577786  1
  O  O6  1  0.89804669  0.78106083  0.38127662  1
  O  O7  1  0.88301414  0.78106083  0.88127662  1
  O  O8  1  0.00849295  0.01062249  0.65952151  1
  O  O9  1  0.00212954  0.01062249  0.15952151  1
  O  O10  1  0.30990687  0.15338667  0.47243137  1
  O  O11  1  0.84347981  0.15338667  0.97243137  1
  O  O12  1  0.84779076  0.11743764  0.48049135  1
  O  O13  1  0.26964687  0.11743764  0.98049135  1
  O  O14  1  0.28224057  0.86104254  0.53979436  1
  O  O15  1  0.57880197  0.86104254  0.03979436  1
  O  O16  1  0.24682970  0.47960737  0.70847456  1
  O  O17  1  0.23277767  0.47960737  0.20847456  1
  O  O18  1  0.94788289  0.55945565  0.57796093  1
  O  O19  1  0.61157276  0.55945565  0.07796093  1
  O  O20  1  0.39723523  0.85588035  0.74888652  1
  O  O21  1  0.45864512  0.85588035  0.24888652  1
  O  O22  1  0.42759327  0.58350254  0.50491842  1
  O  O23  1  0.15590927  0.58350254  0.00491842  1
