# generated using pymatgen
data_Y(GeRh2)2
_symmetry_space_group_name_H-M   'P 1'
_cell_length_a   4.23300050
_cell_length_b   9.17392451
_cell_length_c   11.54820431
_cell_angle_alpha   90.00000000
_cell_angle_beta   90.00000000
_cell_angle_gamma   90.00000000
_symmetry_Int_Tables_number   1
_chemical_formula_structural   Y(GeRh2)2
_chemical_formula_sum   'Y4 Ge8 Rh16'
_cell_volume   448.45403985
_cell_formula_units_Z   4
loop_
 _symmetry_equiv_pos_site_id
 _symmetry_equiv_pos_as_xyz
  1  'x, y, z'
loop_
 _atom_site_type_symbol
 _atom_site_label
 _atom_site_symmetry_multiplicity
 _atom_site_fract_x
 _atom_site_fract_y
 _atom_site_fract_z
 _atom_site_occupancy
  Y  Y0  1  0.25000000  0.14898215  0.82540386  1
  Y  Y1  1  0.25000000  0.35101785  0.32540386  1
  Y  Y2  1  0.75000000  0.85101785  0.17459614  1
  Y  Y3  1  0.75000000  0.64898215  0.67459614  1
  Ge  Ge4  1  0.25000000  0.41432100  0.63882960  1
  Ge  Ge5  1  0.25000000  0.08567900  0.13882960  1
  Ge  Ge6  1  0.75000000  0.58567900  0.36117040  1
  Ge  Ge7  1  0.75000000  0.91432100  0.86117040  1
  Ge  Ge8  1  0.25000000  0.61798026  0.05940161  1
  Ge  Ge9  1  0.25000000  0.88201974  0.55940161  1
  Ge  Ge10  1  0.75000000  0.38201974  0.94059839  1
  Ge  Ge11  1  0.75000000  0.11798026  0.44059839  1
  Rh  Rh12  1  0.25000000  0.61504639  0.49837711  1
  Rh  Rh13  1  0.25000000  0.88495361  0.99837711  1
  Rh  Rh14  1  0.75000000  0.38495361  0.50162289  1
  Rh  Rh15  1  0.75000000  0.11504639  0.00162289  1
  Rh  Rh16  1  0.25000000  0.68783494  0.26914266  1
  Rh  Rh17  1  0.25000000  0.81216506  0.76914266  1
  Rh  Rh18  1  0.75000000  0.31216506  0.73085734  1
  Rh  Rh19  1  0.75000000  0.18783494  0.23085734  1
  Rh  Rh20  1  0.25000000  0.17110035  0.55982283  1
  Rh  Rh21  1  0.25000000  0.32889965  0.05982283  1
  Rh  Rh22  1  0.75000000  0.82889965  0.44017717  1
  Rh  Rh23  1  0.75000000  0.67110035  0.94017717  1
  Rh  Rh24  1  0.25000000  0.00309380  0.34493582  1
  Rh  Rh25  1  0.25000000  0.49690620  0.84493582  1
  Rh  Rh26  1  0.75000000  0.99690620  0.65506418  1
  Rh  Rh27  1  0.75000000  0.50309380  0.15506418  1
