# generated using pymatgen
data_Nb8PtSe20
_symmetry_space_group_name_H-M   'P 1'
_cell_length_a   3.47485223
_cell_length_b   10.51182091
_cell_length_c   19.69070448
_cell_angle_alpha   74.41833094
_cell_angle_beta   84.93787339
_cell_angle_gamma   80.48631789
_symmetry_Int_Tables_number   1
_chemical_formula_structural   Nb8PtSe20
_chemical_formula_sum   'Nb8 Pt1 Se20'
_cell_volume   682.55293345
_cell_formula_units_Z   1
loop_
 _symmetry_equiv_pos_site_id
 _symmetry_equiv_pos_as_xyz
  1  'x, y, z'
loop_
 _atom_site_type_symbol
 _atom_site_label
 _atom_site_symmetry_multiplicity
 _atom_site_fract_x
 _atom_site_fract_y
 _atom_site_fract_z
 _atom_site_occupancy
  Nb  Nb0  1  0.07720859  0.75509417  0.09048865  1
  Nb  Nb1  1  0.92279141  0.24490583  0.90951135  1
  Nb  Nb2  1  0.33068166  0.52774384  0.81089284  1
  Nb  Nb3  1  0.66931834  0.47225616  0.18910716  1
  Nb  Nb4  1  0.26668006  0.18659437  0.28004551  1
  Nb  Nb5  1  0.73331994  0.81340563  0.71995449  1
  Nb  Nb6  1  0.15236014  0.13798544  0.55729428  1
  Nb  Nb7  1  0.84763986  0.86201456  0.44270572  1
  Pt  Pt8  1  0.50000000  0.00000000  -0.00000000  1
  Se  Se9  1  0.44619620  0.71854367  0.38906393  1
  Se  Se10  1  0.55380380  0.28145633  0.61093607  1
  Se  Se11  1  0.40295365  0.68000495  0.51408775  1
  Se  Se12  1  0.59704635  0.31999505  0.48591225  1
  Se  Se13  1  0.14347511  0.01536131  0.69768847  1
  Se  Se14  1  0.85652489  0.98463869  0.30231153  1
  Se  Se15  1  0.37913241  0.23086016  0.01087501  1
  Se  Se16  1  0.62086759  0.76913984  0.98912499  1
  Se  Se17  1  0.20216925  0.77166059  0.82400091  1
  Se  Se18  1  0.79783075  0.22833941  0.17599909  1
  Se  Se19  1  0.25418016  0.06345555  0.42818414  1
  Se  Se20  1  0.74581984  0.93654445  0.57181586  1
  Se  Se21  1  0.33174009  0.66006184  0.67645798  1
  Se  Se22  1  0.66825991  0.33993816  0.32354202  1
  Se  Se23  1  0.47962496  0.91088671  0.12986337  1
  Se  Se24  1  0.52037504  0.08911329  0.87013663  1
  Se  Se25  1  0.20414105  0.50482949  0.08688842  1
  Se  Se26  1  0.79585895  0.49517051  0.91311158  1
  Se  Se27  1  0.07123505  0.63129804  0.22623186  1
  Se  Se28  1  0.92876495  0.36870196  0.77376814  1
