# generated using pymatgen
data_La3RuBr3
_symmetry_space_group_name_H-M   'P 1'
_cell_length_a   10.57664540
_cell_length_b   10.57664540
_cell_length_c   10.57664540
_cell_angle_alpha   109.47122063
_cell_angle_beta   109.47122063
_cell_angle_gamma   109.47122063
_symmetry_Int_Tables_number   1
_chemical_formula_structural   La3RuBr3
_chemical_formula_sum   'La12 Ru4 Br12'
_cell_volume   910.79773497
_cell_formula_units_Z   4
loop_
 _symmetry_equiv_pos_site_id
 _symmetry_equiv_pos_as_xyz
  1  'x, y, z'
loop_
 _atom_site_type_symbol
 _atom_site_label
 _atom_site_symmetry_multiplicity
 _atom_site_fract_x
 _atom_site_fract_y
 _atom_site_fract_z
 _atom_site_occupancy
  La  La0  1  0.76569737  0.25000000  0.73430263  1
  La  La1  1  0.98430263  0.25000000  0.51569737  1
  La  La2  1  0.51569737  0.53139474  0.76569737  1
  La  La3  1  0.73430263  0.96860526  0.98430263  1
  La  La4  1  0.25000000  0.73430263  0.76569737  1
  La  La5  1  0.25000000  0.51569737  0.98430263  1
  La  La6  1  0.53139474  0.76569737  0.51569737  1
  La  La7  1  0.96860526  0.98430263  0.73430263  1
  La  La8  1  0.73430263  0.76569737  0.25000000  1
  La  La9  1  0.51569737  0.98430263  0.25000000  1
  La  La10  1  0.76569737  0.51569737  0.53139474  1
  La  La11  1  0.98430263  0.73430263  0.96860526  1
  Ru  Ru12  1  0.75000000  0.00000000  0.50000000  1
  Ru  Ru13  1  -0.00000000  0.50000000  0.75000000  1
  Ru  Ru14  1  0.50000000  0.75000000  -0.00000000  1
  Ru  Ru15  1  0.75000000  0.75000000  0.75000000  1
  Br  Br16  1  0.49319467  0.00680533  0.75000000  1
  Br  Br17  1  0.24319467  0.49319467  0.48638933  1
  Br  Br18  1  0.25680533  0.24319467  0.75000000  1
  Br  Br19  1  0.00680533  0.25680533  0.01361067  1
  Br  Br20  1  0.75000000  0.49319467  0.00680533  1
  Br  Br21  1  0.01361067  0.00680533  0.25680533  1
  Br  Br22  1  0.75000000  0.25680533  0.24319467  1
  Br  Br23  1  0.48638933  0.24319467  0.49319467  1
  Br  Br24  1  0.00680533  0.75000000  0.49319467  1
  Br  Br25  1  0.49319467  0.48638933  0.24319467  1
  Br  Br26  1  0.24319467  0.75000000  0.25680533  1
  Br  Br27  1  0.25680533  0.01361067  0.00680533  1
