# generated using pymatgen
data_Sb8Cl27F13
_symmetry_space_group_name_H-M   'P 1'
_cell_length_a   9.76588537
_cell_length_b   9.90494876
_cell_length_c   18.75182401
_cell_angle_alpha   84.35188225
_cell_angle_beta   68.73799560
_cell_angle_gamma   64.19414065
_symmetry_Int_Tables_number   1
_chemical_formula_structural   Sb8Cl27F13
_chemical_formula_sum   'Sb8 Cl27 F13'
_cell_volume   1518.00631868
_cell_formula_units_Z   1
loop_
 _symmetry_equiv_pos_site_id
 _symmetry_equiv_pos_as_xyz
  1  'x, y, z'
loop_
 _atom_site_type_symbol
 _atom_site_label
 _atom_site_symmetry_multiplicity
 _atom_site_fract_x
 _atom_site_fract_y
 _atom_site_fract_z
 _atom_site_occupancy
  Sb  Sb0  1  0.04717789  0.77469427  0.08451902  1
  Sb  Sb1  1  0.00605847  0.73964017  0.59415711  1
  Sb  Sb2  1  0.30492061  0.81035289  0.34669874  1
  Sb  Sb3  1  0.60261314  0.27678082  0.18868487  1
  Sb  Sb4  1  0.29735705  0.76096243  0.85272701  1
  Sb  Sb5  1  0.64717906  0.27690980  0.69405267  1
  Sb  Sb6  1  0.91027527  0.24643042  0.39381842  1
  Sb  Sb7  1  0.93382913  0.25816034  0.90756710  1
  Cl  Cl8  1  0.07525454  0.16088084  0.15946976  1
  Cl  Cl9  1  0.97917522  0.37057166  0.20908534  1
  Cl  Cl10  1  0.26687381  0.54347259  0.01670574  1
  Cl  Cl11  1  0.09818477  0.07514975  0.68496832  1
  Cl  Cl12  1  0.47282323  0.21141853  0.12263231  1
  Cl  Cl13  1  0.14489567  0.30673904  0.51754935  1
  Cl  Cl14  1  0.24747104  0.85778110  0.08568240  1
  Cl  Cl15  1  0.02182343  0.28564754  0.72452081  1
  Cl  Cl16  1  0.23910415  0.44561115  0.52465646  1
  Cl  Cl17  1  0.45070750  0.88463950  0.23344903  1
  Cl  Cl18  1  0.36209749  0.40058546  0.30138522  1
  Cl  Cl19  1  0.58672238  0.50471807  0.13024595  1
  Cl  Cl20  1  0.54792129  0.07385551  0.36573685  1
  Cl  Cl21  1  0.45403369  0.23639180  0.66348297  1
  Cl  Cl22  1  0.13489260  0.32343699  0.90819433  1
  Cl  Cl23  1  0.25749489  0.72790797  0.58662931  1
  Cl  Cl24  1  0.85140852  0.71548340  0.06814688  1
  Cl  Cl25  1  0.63989872  0.85814805  0.39102101  1
  Cl  Cl26  1  0.45349076  0.83170009  0.73933179  1
  Cl  Cl27  1  0.46092725  0.44239396  0.81534076  1
  Cl  Cl28  1  0.65209196  0.47933976  0.61992560  1
  Cl  Cl29  1  0.63725128  0.97418557  0.85304485  1
  Cl  Cl30  1  0.85642193  0.50110371  0.41588983  1
  Cl  Cl31  1  0.02221412  0.68790253  0.20821736  1
  Cl  Cl32  1  0.47411234  0.92559801  0.94061071  1
  Cl  Cl33  1  0.75451734  0.50837282  0.90591245  1
  Cl  Cl34  1  0.96113324  0.63887858  0.71441174  1
  F  F35  1  0.23250370  0.99369855  0.40756278  1
  F  F36  1  0.10825332  0.06217179  0.86154366  1
  F  F37  1  0.05675610  0.79025762  0.48937672  1
  F  F38  1  0.86578212  0.20819821  0.00945899  1
  F  F39  1  0.68553270  0.29522360  0.41066572  1
  F  F40  1  0.07692159  0.86042853  0.97974881  1
  F  F41  1  0.88281435  0.19733471  0.50031195  1
  F  F42  1  0.88015242  0.97370864  0.12741249  1
  F  F43  1  0.80154951  0.19741841  0.87698919  1
  F  F44  1  0.84734217  0.69406818  0.58020382  1
  F  F45  1  0.10116644  0.89667083  0.32862001  1
  F  F46  1  0.86909520  0.94310659  0.63393637  1
  F  F47  1  0.14337658  0.76577020  0.81054744  1
