# generated using pymatgen
data_KNb2Cl11
_symmetry_space_group_name_H-M   'P 1'
_cell_length_a   7.05093797
_cell_length_b   7.11032797
_cell_length_c   17.66363700
_cell_angle_alpha   79.22639451
_cell_angle_beta   79.00202987
_cell_angle_gamma   87.46411966
_symmetry_Int_Tables_number   1
_chemical_formula_structural   KNb2Cl11
_chemical_formula_sum   'K2 Nb4 Cl22'
_cell_volume   853.93663084
_cell_formula_units_Z   2
loop_
 _symmetry_equiv_pos_site_id
 _symmetry_equiv_pos_as_xyz
  1  'x, y, z'
loop_
 _atom_site_type_symbol
 _atom_site_label
 _atom_site_symmetry_multiplicity
 _atom_site_fract_x
 _atom_site_fract_y
 _atom_site_fract_z
 _atom_site_occupancy
  K  K0  1  0.74696554  0.74742145  0.50341422  1
  K  K1  1  0.25303446  0.25257855  0.49658578  1
  Nb  Nb2  1  0.32505905  0.82244501  0.33782720  1
  Nb  Nb3  1  0.67494095  0.17755499  0.66217280  1
  Nb  Nb4  1  0.82743052  0.32603632  0.08874675  1
  Nb  Nb5  1  0.17256948  0.67396368  0.91125325  1
  Cl  Cl6  1  0.25372479  0.77272848  0.48626760  1
  Cl  Cl7  1  0.74627521  0.22727152  0.51373240  1
  Cl  Cl8  1  0.57525825  0.02703062  0.34609047  1
  Cl  Cl9  1  0.42474175  0.97296938  0.65390953  1
  Cl  Cl10  1  0.54222180  0.55614723  0.35227059  1
  Cl  Cl11  1  0.45777820  0.44385277  0.64772941  1
  Cl  Cl12  1  0.38596933  0.86031447  0.20301830  1
  Cl  Cl13  1  0.61403067  0.13968553  0.79698170  1
  Cl  Cl14  1  0.06514727  0.60609749  0.35341287  1
  Cl  Cl15  1  0.93485273  0.39390251  0.64658713  1
  Cl  Cl16  1  0.10400983  0.08309016  0.33993723  1
  Cl  Cl17  1  0.89599017  0.91690984  0.66006277  1
  Cl  Cl18  1  0.89742685  0.02474093  0.14998952  1
  Cl  Cl19  1  0.10257315  0.97525907  0.85001048  1
  Cl  Cl20  1  0.52019814  0.37616711  0.15276998  1
  Cl  Cl21  1  0.47980186  0.62383289  0.84723002  1
  Cl  Cl22  1  0.71924324  0.21516436  0.98827741  1
  Cl  Cl23  1  0.28075676  0.78483564  0.01172259  1
  Cl  Cl24  1  0.97013842  0.47659149  0.17010005  1
  Cl  Cl25  1  0.02986158  0.52340851  0.82989995  1
  Cl  Cl26  1  0.16933811  0.33841699  0.99941637  1
  Cl  Cl27  1  0.83066189  0.66158301  0.00058363  1
