# generated using pymatgen
data_Cs2ZnBr4
_symmetry_space_group_name_H-M   'P 1'
_cell_length_a   7.97273642
_cell_length_b   10.38966879
_cell_length_c   13.95435544
_cell_angle_alpha   90.00000000
_cell_angle_beta   90.00000000
_cell_angle_gamma   90.00000000
_symmetry_Int_Tables_number   1
_chemical_formula_structural   Cs2ZnBr4
_chemical_formula_sum   'Cs8 Zn4 Br16'
_cell_volume   1155.89634493
_cell_formula_units_Z   4
loop_
 _symmetry_equiv_pos_site_id
 _symmetry_equiv_pos_as_xyz
  1  'x, y, z'
loop_
 _atom_site_type_symbol
 _atom_site_label
 _atom_site_symmetry_multiplicity
 _atom_site_fract_x
 _atom_site_fract_y
 _atom_site_fract_z
 _atom_site_occupancy
  Cs  Cs0  1  0.75000000  0.86409019  0.89861645  1
  Cs  Cs1  1  0.75000000  0.36409019  0.60138355  1
  Cs  Cs2  1  0.25000000  0.13590981  0.10138355  1
  Cs  Cs3  1  0.25000000  0.63590981  0.39861645  1
  Cs  Cs4  1  0.75000000  0.02252255  0.32927943  1
  Cs  Cs5  1  0.75000000  0.52252255  0.17072057  1
  Cs  Cs6  1  0.25000000  0.97747745  0.67072057  1
  Cs  Cs7  1  0.25000000  0.47747745  0.82927943  1
  Zn  Zn8  1  0.75000000  0.26346358  0.92244153  1
  Zn  Zn9  1  0.75000000  0.76346358  0.57755847  1
  Zn  Zn10  1  0.25000000  0.73653642  0.07755847  1
  Zn  Zn11  1  0.25000000  0.23653642  0.42244153  1
  Br  Br12  1  0.75000000  0.49764671  0.90417930  1
  Br  Br13  1  0.75000000  -0.00235329  0.59582070  1
  Br  Br14  1  0.25000000  0.50235329  0.09582070  1
  Br  Br15  1  0.25000000  0.00235329  0.40417930  1
  Br  Br16  1  0.75000000  0.19185148  0.08904410  1
  Br  Br17  1  0.75000000  0.69185148  0.41095590  1
  Br  Br18  1  0.25000000  0.80814852  0.91095590  1
  Br  Br19  1  0.25000000  0.30814852  0.58904410  1
  Br  Br20  1  -0.00004671  0.17421302  0.84737997  1
  Br  Br21  1  0.50004671  0.67421302  0.65262003  1
  Br  Br22  1  0.49995329  0.82578698  0.15262003  1
  Br  Br23  1  0.00004671  0.32578698  0.34737997  1
  Br  Br24  1  0.00004671  0.82578698  0.15262003  1
  Br  Br25  1  0.49995329  0.32578698  0.34737997  1
  Br  Br26  1  0.50004671  0.17421302  0.84737997  1
  Br  Br27  1  -0.00004671  0.67421302  0.65262003  1
