# generated using pymatgen
data_Cs3GeSe3
_symmetry_space_group_name_H-M   'P 1'
_cell_length_a   9.84645622
_cell_length_b   10.79025095
_cell_length_c   10.79025095
_cell_angle_alpha   80.02601790
_cell_angle_beta   85.23977204
_cell_angle_gamma   85.23977204
_symmetry_Int_Tables_number   1
_chemical_formula_structural   Cs3GeSe3
_chemical_formula_sum   'Cs12 Ge4 Se12'
_cell_volume   1122.44440231
_cell_formula_units_Z   4
loop_
 _symmetry_equiv_pos_site_id
 _symmetry_equiv_pos_as_xyz
  1  'x, y, z'
loop_
 _atom_site_type_symbol
 _atom_site_label
 _atom_site_symmetry_multiplicity
 _atom_site_fract_x
 _atom_site_fract_y
 _atom_site_fract_z
 _atom_site_occupancy
  Cs  Cs0  1  0.30583182  0.24777210  0.20141027  1
  Cs  Cs1  1  0.19416818  0.79858973  0.75222790  1
  Cs  Cs2  1  0.69416818  0.75222790  0.79858973  1
  Cs  Cs3  1  0.80583182  0.20141027  0.24777210  1
  Cs  Cs4  1  0.62749114  0.60730684  0.20045498  1
  Cs  Cs5  1  0.87250886  0.79954502  0.39269316  1
  Cs  Cs6  1  0.37250886  0.39269316  0.79954502  1
  Cs  Cs7  1  0.12749114  0.20045498  0.60730684  1
  Cs  Cs8  1  0.75000000  0.40859624  0.59140376  1
  Cs  Cs9  1  0.25000000  0.59140376  0.40859624  1
  Cs  Cs10  1  0.25000000  0.92059904  0.07940096  1
  Cs  Cs11  1  0.75000000  0.07940096  0.92059904  1
  Ge  Ge12  1  0.53854139  0.07830091  0.56537229  1
  Ge  Ge13  1  0.96145861  0.43462771  0.92169909  1
  Ge  Ge14  1  0.46145861  0.92169909  0.43462771  1
  Ge  Ge15  1  0.03854139  0.56537229  0.07830091  1
  Se  Se16  1  0.78357435  0.05394687  0.58009158  1
  Se  Se17  1  0.71642565  0.41990842  0.94605313  1
  Se  Se18  1  0.21642565  0.94605313  0.41990842  1
  Se  Se19  1  0.28357435  0.58009158  0.05394687  1
  Se  Se20  1  0.47185332  0.29122744  0.46642569  1
  Se  Se21  1  0.02814668  0.53357431  0.70877256  1
  Se  Se22  1  0.52814668  0.70877256  0.53357431  1
  Se  Se23  1  0.97185332  0.46642569  0.29122744  1
  Se  Se24  1  0.42890652  0.04228645  0.77446537  1
  Se  Se25  1  0.07109348  0.22553463  0.95771355  1
  Se  Se26  1  0.57109348  0.95771355  0.22553463  1
  Se  Se27  1  0.92890652  0.77446537  0.04228645  1
