# generated using pymatgen
data_Cs3SbSe3
_symmetry_space_group_name_H-M   'P 1'
_cell_length_a   10.87273409
_cell_length_b   10.87273409
_cell_length_c   10.87273409
_cell_angle_alpha   90.00000000
_cell_angle_beta   90.00000000
_cell_angle_gamma   90.00000000
_symmetry_Int_Tables_number   1
_chemical_formula_structural   Cs3SbSe3
_chemical_formula_sum   'Cs12 Sb4 Se12'
_cell_volume   1285.33490158
_cell_formula_units_Z   4
loop_
 _symmetry_equiv_pos_site_id
 _symmetry_equiv_pos_as_xyz
  1  'x, y, z'
loop_
 _atom_site_type_symbol
 _atom_site_label
 _atom_site_symmetry_multiplicity
 _atom_site_fract_x
 _atom_site_fract_y
 _atom_site_fract_z
 _atom_site_occupancy
  Cs  Cs0  1  0.18656170  0.68656170  0.81343830  1
  Cs  Cs1  1  0.68656170  0.81343830  0.18656170  1
  Cs  Cs2  1  0.81343830  0.18656170  0.68656170  1
  Cs  Cs3  1  0.31343830  0.31343830  0.31343830  1
  Cs  Cs4  1  0.92523246  0.42523246  0.07476754  1
  Cs  Cs5  1  0.42523246  0.07476754  0.92523246  1
  Cs  Cs6  1  0.07476754  0.92523246  0.42523246  1
  Cs  Cs7  1  0.57476754  0.57476754  0.57476754  1
  Cs  Cs8  1  0.68961645  0.18961645  0.31038355  1
  Cs  Cs9  1  0.18961645  0.31038355  0.68961645  1
  Cs  Cs10  1  0.31038355  0.68961645  0.18961645  1
  Cs  Cs11  1  0.81038355  0.81038355  0.81038355  1
  Sb  Sb12  1  0.47503791  0.97503791  0.52496209  1
  Sb  Sb13  1  0.97503791  0.52496209  0.47503791  1
  Sb  Sb14  1  0.52496209  0.47503791  0.97503791  1
  Sb  Sb15  1  0.02496209  0.02496209  0.02496209  1
  Se  Se16  1  0.00699022  0.79721327  0.09576648  1
  Se  Se17  1  0.90423352  0.50699022  0.70278673  1
  Se  Se18  1  0.29721327  0.40423352  0.99300978  1
  Se  Se19  1  0.50699022  0.70278673  0.90423352  1
  Se  Se20  1  0.40423352  0.99300978  0.29721327  1
  Se  Se21  1  0.79721327  0.09576648  0.00699022  1
  Se  Se22  1  0.99300978  0.29721327  0.40423352  1
  Se  Se23  1  0.09576648  0.00699022  0.79721327  1
  Se  Se24  1  0.70278673  0.90423352  0.50699022  1
  Se  Se25  1  0.49300978  0.20278673  0.59576648  1
  Se  Se26  1  0.59576648  0.49300978  0.20278673  1
  Se  Se27  1  0.20278673  0.59576648  0.49300978  1
