# generated using pymatgen
data_Cs3Er2Br9
_symmetry_space_group_name_H-M   'P 1'
_cell_length_a   10.47526937
_cell_length_b   10.47526937
_cell_length_c   10.47526928
_cell_angle_alpha   83.18079026
_cell_angle_beta   83.18079026
_cell_angle_gamma   83.18078586
_symmetry_Int_Tables_number   1
_chemical_formula_structural   Cs3Er2Br9
_chemical_formula_sum   'Cs6 Er4 Br18'
_cell_volume   1126.85798678
_cell_formula_units_Z   2
loop_
 _symmetry_equiv_pos_site_id
 _symmetry_equiv_pos_as_xyz
  1  'x, y, z'
loop_
 _atom_site_type_symbol
 _atom_site_label
 _atom_site_symmetry_multiplicity
 _atom_site_fract_x
 _atom_site_fract_y
 _atom_site_fract_z
 _atom_site_occupancy
  Cs  Cs0  1  0.91023899  0.58976101  0.25000000  1
  Cs  Cs1  1  0.58976101  0.25000000  0.91023899  1
  Cs  Cs2  1  0.25000000  0.91023899  0.58976101  1
  Cs  Cs3  1  0.41023899  0.75000000  0.08976101  1
  Cs  Cs4  1  0.75000000  0.08976101  0.41023899  1
  Cs  Cs5  1  0.08976101  0.41023899  0.75000000  1
  Er  Er6  1  0.84643651  0.84643651  0.84643651  1
  Er  Er7  1  0.34643651  0.34643651  0.34643651  1
  Er  Er8  1  0.15356349  0.15356349  0.15356349  1
  Er  Er9  1  0.65356349  0.65356349  0.65356349  1
  Br  Br10  1  0.40353969  0.09646031  0.25000000  1
  Br  Br11  1  0.09646031  0.25000000  0.40353969  1
  Br  Br12  1  0.25000000  0.40353969  0.09646031  1
  Br  Br13  1  0.90353969  0.75000000  0.59646031  1
  Br  Br14  1  0.75000000  0.59646031  0.90353969  1
  Br  Br15  1  0.59646031  0.90353969  0.75000000  1
  Br  Br16  1  0.41525107  0.23622978  0.57727896  1
  Br  Br17  1  0.23622978  0.57727896  0.41525107  1
  Br  Br18  1  0.57727896  0.41525107  0.23622978  1
  Br  Br19  1  0.91525107  0.07727896  0.73622978  1
  Br  Br20  1  0.07727896  0.73622978  0.91525107  1
  Br  Br21  1  0.73622978  0.91525107  0.07727896  1
  Br  Br22  1  0.58474893  0.76377022  0.42272104  1
  Br  Br23  1  0.76377022  0.42272104  0.58474893  1
  Br  Br24  1  0.42272104  0.58474893  0.76377022  1
  Br  Br25  1  0.08474893  0.92272104  0.26377022  1
  Br  Br26  1  0.92272104  0.26377022  0.08474893  1
  Br  Br27  1  0.26377022  0.08474893  0.92272104  1
