# generated using pymatgen
data_CsPPbSe4
_symmetry_space_group_name_H-M   'P 1'
_cell_length_a   6.77186998
_cell_length_b   7.22126849
_cell_length_c   18.87772204
_cell_angle_alpha   90.00000000
_cell_angle_beta   90.00000000
_cell_angle_gamma   90.00000000
_symmetry_Int_Tables_number   1
_chemical_formula_structural   CsPPbSe4
_chemical_formula_sum   'Cs4 P4 Pb4 Se16'
_cell_volume   923.14876020
_cell_formula_units_Z   4
loop_
 _symmetry_equiv_pos_site_id
 _symmetry_equiv_pos_as_xyz
  1  'x, y, z'
loop_
 _atom_site_type_symbol
 _atom_site_label
 _atom_site_symmetry_multiplicity
 _atom_site_fract_x
 _atom_site_fract_y
 _atom_site_fract_z
 _atom_site_occupancy
  Cs  Cs0  1  0.45042025  0.75000000  0.79251278  1
  Cs  Cs1  1  0.04957975  0.75000000  0.29251278  1
  Cs  Cs2  1  0.54957975  0.25000000  0.20748722  1
  Cs  Cs3  1  0.95042025  0.25000000  0.70748722  1
  P  P4  1  0.28202924  0.75000000  0.09461150  1
  P  P5  1  0.21797076  0.75000000  0.59461150  1
  P  P6  1  0.71797076  0.25000000  0.90538850  1
  P  P7  1  0.78202924  0.25000000  0.40538850  1
  Pb  Pb8  1  0.79021759  0.75000000  0.01818268  1
  Pb  Pb9  1  0.70978241  0.75000000  0.51818268  1
  Pb  Pb10  1  0.20978241  0.25000000  0.98181732  1
  Pb  Pb11  1  0.29021759  0.25000000  0.48181732  1
  Se  Se12  1  0.55563548  0.75000000  0.15838403  1
  Se  Se13  1  0.94436452  0.75000000  0.65838403  1
  Se  Se14  1  0.44436452  0.25000000  0.84161597  1
  Se  Se15  1  0.05563548  0.25000000  0.34161597  1
  Se  Se16  1  0.90269392  0.49823065  0.88344561  1
  Se  Se17  1  0.59730608  0.00176935  0.38344561  1
  Se  Se18  1  0.09730608  -0.00176935  0.11655439  1
  Se  Se19  1  0.40269392  0.50176935  0.61655439  1
  Se  Se20  1  0.09730608  0.50176935  0.11655439  1
  Se  Se21  1  0.40269392  -0.00176935  0.61655439  1
  Se  Se22  1  0.90269392  0.00176935  0.88344561  1
  Se  Se23  1  0.59730608  0.49823065  0.38344561  1
  Se  Se24  1  0.35143194  0.75000000  0.97977699  1
  Se  Se25  1  0.14856806  0.75000000  0.47977699  1
  Se  Se26  1  0.64856806  0.25000000  0.02022301  1
  Se  Se27  1  0.85143194  0.25000000  0.52022301  1
