# generated using pymatgen
data_Cs2Mo3O10
_symmetry_space_group_name_H-M   'P 1'
_cell_length_a   8.58922999
_cell_length_b   8.58922999
_cell_length_c   9.71100600
_cell_angle_alpha   83.46252274
_cell_angle_beta   83.46252274
_cell_angle_gamma   60.43194240
_symmetry_Int_Tables_number   1
_chemical_formula_structural   Cs2Mo3O10
_chemical_formula_sum   'Cs4 Mo6 O20'
_cell_volume   617.69575137
_cell_formula_units_Z   2
loop_
 _symmetry_equiv_pos_site_id
 _symmetry_equiv_pos_as_xyz
  1  'x, y, z'
loop_
 _atom_site_type_symbol
 _atom_site_label
 _atom_site_symmetry_multiplicity
 _atom_site_fract_x
 _atom_site_fract_y
 _atom_site_fract_z
 _atom_site_occupancy
  Cs  Cs0  1  0.75662706  0.59945106  0.33969952  1
  Cs  Cs1  1  0.40054894  0.24337294  0.16030048  1
  Cs  Cs2  1  0.24337294  0.40054894  0.66030048  1
  Cs  Cs3  1  0.59945106  0.75662706  0.83969952  1
  Mo  Mo4  1  0.26856744  0.73143256  0.25000000  1
  Mo  Mo5  1  0.73143256  0.26856744  0.75000000  1
  Mo  Mo6  1  0.96520691  0.82695575  0.02552377  1
  Mo  Mo7  1  0.17304425  0.03479309  0.47447623  1
  Mo  Mo8  1  0.03479309  0.17304425  0.97447623  1
  Mo  Mo9  1  0.82695575  0.96520691  0.52552377  1
  O  O10  1  0.34976720  0.55630618  0.37827185  1
  O  O11  1  0.44369382  0.65023280  0.12172815  1
  O  O12  1  0.65023280  0.44369382  0.62172815  1
  O  O13  1  0.55630618  0.34976720  0.87827185  1
  O  O14  1  0.09376697  0.67313792  0.18429444  1
  O  O15  1  0.32686208  0.90623303  0.31570556  1
  O  O16  1  0.90623303  0.32686208  0.81570556  1
  O  O17  1  0.67313792  0.09376697  0.68429444  1
  O  O18  1  0.09404459  0.95258443  0.09497568  1
  O  O19  1  0.04741557  0.90595541  0.40502432  1
  O  O20  1  0.90595541  0.04741557  0.90502432  1
  O  O21  1  0.95258443  0.09404459  0.59497568  1
  O  O22  1  0.04926161  0.67269284  0.89837740  1
  O  O23  1  0.32730716  0.95073839  0.60162260  1
  O  O24  1  0.95073839  0.32730716  0.10162260  1
  O  O25  1  0.67269284  0.04926161  0.39837740  1
  O  O26  1  0.74703471  0.86757525  0.07847182  1
  O  O27  1  0.13242475  0.25296529  0.42152818  1
  O  O28  1  0.25296529  0.13242475  0.92152818  1
  O  O29  1  0.86757525  0.74703471  0.57847182  1
