# generated using pymatgen
data_Eu3InP3
_symmetry_space_group_name_H-M   'P 1'
_cell_length_a   4.28088415
_cell_length_b   12.63266019
_cell_length_c   13.45974970
_cell_angle_alpha   90.00000000
_cell_angle_beta   90.00000000
_cell_angle_gamma   90.00000000
_symmetry_Int_Tables_number   1
_chemical_formula_structural   Eu3InP3
_chemical_formula_sum   'Eu12 In4 P12'
_cell_volume   727.88919537
_cell_formula_units_Z   4
loop_
 _symmetry_equiv_pos_site_id
 _symmetry_equiv_pos_as_xyz
  1  'x, y, z'
loop_
 _atom_site_type_symbol
 _atom_site_label
 _atom_site_symmetry_multiplicity
 _atom_site_fract_x
 _atom_site_fract_y
 _atom_site_fract_z
 _atom_site_occupancy
  Eu  Eu0  1  0.75000000  0.22627282  0.79485765  1
  Eu  Eu1  1  0.75000000  0.72627282  0.70514235  1
  Eu  Eu2  1  0.25000000  0.77372718  0.20514235  1
  Eu  Eu3  1  0.25000000  0.27372718  0.29485765  1
  Eu  Eu4  1  0.75000000  0.92647138  0.89360999  1
  Eu  Eu5  1  0.75000000  0.42647138  0.60639001  1
  Eu  Eu6  1  0.25000000  0.07352862  0.10639001  1
  Eu  Eu7  1  0.25000000  0.57352862  0.39360999  1
  Eu  Eu8  1  0.75000000  0.14347852  0.50420607  1
  Eu  Eu9  1  0.75000000  0.64347852  0.99579393  1
  Eu  Eu10  1  0.25000000  0.85652148  0.49579393  1
  Eu  Eu11  1  0.25000000  0.35652148  0.00420607  1
  In  In12  1  0.75000000  0.95010056  0.30013885  1
  In  In13  1  0.75000000  0.45010056  0.19986115  1
  In  In14  1  0.25000000  0.04989944  0.69986115  1
  In  In15  1  0.25000000  0.54989944  0.80013885  1
  P  P16  1  0.75000000  0.90410551  0.11133415  1
  P  P17  1  0.75000000  0.40410551  0.38866585  1
  P  P18  1  0.25000000  0.09589449  0.88866585  1
  P  P19  1  0.25000000  0.59589449  0.61133415  1
  P  P20  1  0.75000000  0.75448762  0.37206743  1
  P  P21  1  0.75000000  0.25448762  0.12793257  1
  P  P22  1  0.25000000  0.24551238  0.62793257  1
  P  P23  1  0.25000000  0.74551238  0.87206743  1
  P  P24  1  0.75000000  0.44995648  0.85895064  1
  P  P25  1  0.75000000  0.94995648  0.64104936  1
  P  P26  1  0.25000000  0.55004352  0.14104936  1
  P  P27  1  0.25000000  0.05004352  0.35895064  1
