# generated using pymatgen
data_Ce3Se3N
_symmetry_space_group_name_H-M   'P 1'
_cell_length_a   4.10209117
_cell_length_b   12.69021422
_cell_length_c   13.24458041
_cell_angle_alpha   90.00000000
_cell_angle_beta   90.00000000
_cell_angle_gamma   90.00000000
_symmetry_Int_Tables_number   1
_chemical_formula_structural   Ce3Se3N
_chemical_formula_sum   'Ce12 Se12 N4'
_cell_volume   689.46538356
_cell_formula_units_Z   4
loop_
 _symmetry_equiv_pos_site_id
 _symmetry_equiv_pos_as_xyz
  1  'x, y, z'
loop_
 _atom_site_type_symbol
 _atom_site_label
 _atom_site_symmetry_multiplicity
 _atom_site_fract_x
 _atom_site_fract_y
 _atom_site_fract_z
 _atom_site_occupancy
  Ce  Ce0  1  0.75000000  0.42017335  0.12815213  1
  Ce  Ce1  1  0.75000000  0.92017335  0.37184787  1
  Ce  Ce2  1  0.25000000  0.57982665  0.87184787  1
  Ce  Ce3  1  0.25000000  0.07982665  0.62815213  1
  Ce  Ce4  1  0.75000000  0.77881969  0.13390305  1
  Ce  Ce5  1  0.75000000  0.27881969  0.36609695  1
  Ce  Ce6  1  0.25000000  0.22118031  0.86609695  1
  Ce  Ce7  1  0.25000000  0.72118031  0.63390305  1
  Ce  Ce8  1  0.75000000  0.96637505  0.84480864  1
  Ce  Ce9  1  0.75000000  0.46637505  0.65519136  1
  Ce  Ce10  1  0.25000000  0.03362495  0.15519136  1
  Ce  Ce11  1  0.25000000  0.53362495  0.34480864  1
  Se  Se12  1  0.75000000  0.63350696  0.49569833  1
  Se  Se13  1  0.75000000  0.13350696  0.00430167  1
  Se  Se14  1  0.25000000  0.36649304  0.50430167  1
  Se  Se15  1  0.25000000  0.86649304  0.99569833  1
  Se  Se16  1  0.75000000  0.41283242  0.89218719  1
  Se  Se17  1  0.75000000  0.91283242  0.60781281  1
  Se  Se18  1  0.25000000  0.58716758  0.10781281  1
  Se  Se19  1  0.25000000  0.08716758  0.39218719  1
  Se  Se20  1  0.75000000  0.73054160  0.80278070  1
  Se  Se21  1  0.75000000  0.23054160  0.69721930  1
  Se  Se22  1  0.25000000  0.26945840  0.19721930  1
  Se  Se23  1  0.25000000  0.76945840  0.30278070  1
  N  N24  1  0.75000000  0.44938806  0.29648358  1
  N  N25  1  0.75000000  0.94938806  0.20351642  1
  N  N26  1  0.25000000  0.55061194  0.70351642  1
  N  N27  1  0.25000000  0.05061194  0.79648358  1
