# generated using pymatgen
data_NiH4(NO4)2
_symmetry_space_group_name_H-M   'P 1'
_cell_length_a   5.91274359
_cell_length_b   6.25398853
_cell_length_c   8.55918947
_cell_angle_alpha   90.00000000
_cell_angle_beta   90.92560128
_cell_angle_gamma   90.00000000
_symmetry_Int_Tables_number   1
_chemical_formula_structural   NiH4(NO4)2
_chemical_formula_sum   'Ni2 H8 N4 O16'
_cell_volume   316.46238282
_cell_formula_units_Z   2
loop_
 _symmetry_equiv_pos_site_id
 _symmetry_equiv_pos_as_xyz
  1  'x, y, z'
loop_
 _atom_site_type_symbol
 _atom_site_label
 _atom_site_symmetry_multiplicity
 _atom_site_fract_x
 _atom_site_fract_y
 _atom_site_fract_z
 _atom_site_occupancy
  Ni  Ni0  1  0.00000000  0.50000000  0.00000000  1
  Ni  Ni1  1  0.00000000  0.00000000  0.50000000  1
  H  H2  1  0.39592382  0.69998156  0.99779647  1
  H  H3  1  0.60407618  0.19998156  0.50220353  1
  H  H4  1  0.60407618  0.30001844  0.00220353  1
  H  H5  1  0.39592382  0.80001844  0.49779647  1
  H  H6  1  0.23236956  0.80314212  0.11658218  1
  H  H7  1  0.76763044  0.30314212  0.38341782  1
  H  H8  1  0.76763044  0.19685788  0.88341782  1
  H  H9  1  0.23236956  0.69685788  0.61658218  1
  N  N10  1  0.23829891  0.16982890  0.79521691  1
  N  N11  1  0.76170109  0.66982890  0.70478309  1
  N  N12  1  0.76170109  0.83017110  0.20478309  1
  N  N13  1  0.23829891  0.33017110  0.29521691  1
  O  O14  1  0.04758629  0.13594710  0.72804098  1
  O  O15  1  0.95241371  0.63594710  0.77195902  1
  O  O16  1  0.95241371  0.86405290  0.27195902  1
  O  O17  1  0.04758629  0.36405290  0.22804098  1
  O  O18  1  0.41634966  0.09216403  0.74710603  1
  O  O19  1  0.58365034  0.59216403  0.75289397  1
  O  O20  1  0.58365034  0.90783597  0.25289397  1
  O  O21  1  0.41634966  0.40783597  0.24710603  1
  O  O22  1  0.24350411  0.28846378  0.91815037  1
  O  O23  1  0.75649589  0.78846378  0.58184963  1
  O  O24  1  0.75649589  0.71153622  0.08184963  1
  O  O25  1  0.24350411  0.21153622  0.41815037  1
  O  O26  1  0.23663081  0.73689599  0.01279246  1
  O  O27  1  0.76336919  0.23689599  0.48720754  1
  O  O28  1  0.76336919  0.26310401  0.98720754  1
  O  O29  1  0.23663081  0.76310401  0.51279246  1
