# generated using pymatgen
data_Nb4Si7Ni4
_symmetry_space_group_name_H-M   'P 1'
_cell_length_a   5.02342578
_cell_length_b   9.29046068
_cell_length_c   9.29046068
_cell_angle_alpha   85.80844110
_cell_angle_beta   74.31466903
_cell_angle_gamma   74.31466903
_symmetry_Int_Tables_number   1
_chemical_formula_structural   Nb4Si7Ni4
_chemical_formula_sum   'Nb8 Si14 Ni8'
_cell_volume   401.89394485
_cell_formula_units_Z   2
loop_
 _symmetry_equiv_pos_site_id
 _symmetry_equiv_pos_as_xyz
  1  'x, y, z'
loop_
 _atom_site_type_symbol
 _atom_site_label
 _atom_site_symmetry_multiplicity
 _atom_site_fract_x
 _atom_site_fract_y
 _atom_site_fract_z
 _atom_site_occupancy
  Nb  Nb0  1  0.13454147  -0.00000000  0.73091706  1
  Nb  Nb1  1  0.86545853  -0.00000000  0.26908294  1
  Nb  Nb2  1  0.86545853  0.26908294  -0.00000000  1
  Nb  Nb3  1  0.13454147  0.73091706  0.00000000  1
  Nb  Nb4  1  0.50000000  0.80856111  0.19143889  1
  Nb  Nb5  1  0.50000000  0.19143889  0.80856111  1
  Nb  Nb6  1  0.69143889  0.80856111  0.80856111  1
  Nb  Nb7  1  0.30856111  0.19143889  0.19143889  1
  Si  Si8  1  0.50000000  0.59298391  0.40701609  1
  Si  Si9  1  0.50000000  0.40701609  0.59298391  1
  Si  Si10  1  0.90701609  0.59298391  0.59298391  1
  Si  Si11  1  0.09298391  0.40701609  0.40701609  1
  Si  Si12  1  0.75050865  0.00000000  -0.00000000  1
  Si  Si13  1  0.24949135  0.00000000  -0.00000000  1
  Si  Si14  1  0.29229792  0.00000000  0.41540416  1
  Si  Si15  1  0.70770208  -0.00000000  0.58459584  1
  Si  Si16  1  0.70770208  0.58459584  -0.00000000  1
  Si  Si17  1  0.29229792  0.41540416  0.00000000  1
  Si  Si18  1  -0.00000000  0.29188185  0.70811815  1
  Si  Si19  1  0.00000000  0.70811815  0.29188185  1
  Si  Si20  1  0.70811815  0.29188185  0.29188185  1
  Si  Si21  1  0.29188185  0.70811815  0.70811815  1
  Ni  Ni22  1  0.39810009  0.50000000  0.20379982  1
  Ni  Ni23  1  0.10189991  0.50000000  0.79620018  1
  Ni  Ni24  1  0.10189991  0.79620018  0.50000000  1
  Ni  Ni25  1  0.39810009  0.20379982  0.50000000  1
  Ni  Ni26  1  0.60189991  0.79620018  0.50000000  1
  Ni  Ni27  1  0.89810009  0.20379982  0.50000000  1
  Ni  Ni28  1  0.89810009  0.50000000  0.20379982  1
  Ni  Ni29  1  0.60189991  0.50000000  0.79620018  1
