# generated using pymatgen
data_Ba3Cr2MoO9
_symmetry_space_group_name_H-M   'P 1'
_cell_length_a   5.80509876
_cell_length_b   5.80509876
_cell_length_c   14.28275757
_cell_angle_alpha   90.00000000
_cell_angle_beta   90.00000000
_cell_angle_gamma   119.99999471
_symmetry_Int_Tables_number   1
_chemical_formula_structural   Ba3Cr2MoO9
_chemical_formula_sum   'Ba6 Cr4 Mo2 O18'
_cell_volume   416.83285616
_cell_formula_units_Z   2
loop_
 _symmetry_equiv_pos_site_id
 _symmetry_equiv_pos_as_xyz
  1  'x, y, z'
loop_
 _atom_site_type_symbol
 _atom_site_label
 _atom_site_symmetry_multiplicity
 _atom_site_fract_x
 _atom_site_fract_y
 _atom_site_fract_z
 _atom_site_occupancy
  Ba  Ba0  1  0.00000063  0.99999937  0.75000000  1
  Ba  Ba1  1  0.99999937  0.00000063  0.25000000  1
  Ba  Ba2  1  0.66667112  0.33332888  0.60191985  1
  Ba  Ba3  1  0.33332888  0.66667112  0.39808015  1
  Ba  Ba4  1  0.33332888  0.66667112  0.10191985  1
  Ba  Ba5  1  0.66667112  0.33332888  0.89808015  1
  Cr  Cr6  1  0.66664738  0.33335262  0.34170670  1
  Cr  Cr7  1  0.33335262  0.66664738  0.65829330  1
  Cr  Cr8  1  0.33335262  0.66664738  0.84170670  1
  Cr  Cr9  1  0.66664738  0.33335262  0.15829330  1
  Mo  Mo10  1  0.00000000  -0.00000000  0.50000000  1
  Mo  Mo11  1  0.00000000  -0.00000000  -0.00000000  1
  O  O12  1  0.48334148  0.96669549  0.75000000  1
  O  O13  1  0.48334226  0.51665774  0.75000000  1
  O  O14  1  0.03330451  0.51665852  0.75000000  1
  O  O15  1  0.51665852  0.03330451  0.25000000  1
  O  O16  1  0.51665774  0.48334226  0.25000000  1
  O  O17  1  0.96669549  0.48334148  0.25000000  1
  O  O18  1  0.83997112  0.67993922  0.42172060  1
  O  O19  1  0.83996948  0.16003052  0.42171979  1
  O  O20  1  0.32006078  0.16002888  0.42172060  1
  O  O21  1  0.16002888  0.32006078  0.57827940  1
  O  O22  1  0.16003052  0.83996948  0.57828021  1
  O  O23  1  0.67993922  0.83997112  0.57827940  1
  O  O24  1  0.16002888  0.32006078  0.92172060  1
  O  O25  1  0.16003052  0.83996948  0.92171979  1
  O  O26  1  0.67993922  0.83997112  0.92172060  1
  O  O27  1  0.83997112  0.67993922  0.07827940  1
  O  O28  1  0.83996948  0.16003052  0.07828021  1
  O  O29  1  0.32006078  0.16002888  0.07827940  1
