# generated using pymatgen
data_Eu3O4
_symmetry_space_group_name_H-M   'P 1'
_cell_length_a   3.47370810
_cell_length_b   10.20336613
_cell_length_c   12.19199009
_cell_angle_alpha   90.00000000
_cell_angle_beta   90.00000000
_cell_angle_gamma   90.00000000
_symmetry_Int_Tables_number   1
_chemical_formula_structural   Eu3O4
_chemical_formula_sum   'Eu12 O16'
_cell_volume   432.12699062
_cell_formula_units_Z   4
loop_
 _symmetry_equiv_pos_site_id
 _symmetry_equiv_pos_as_xyz
  1  'x, y, z'
loop_
 _atom_site_type_symbol
 _atom_site_label
 _atom_site_symmetry_multiplicity
 _atom_site_fract_x
 _atom_site_fract_y
 _atom_site_fract_z
 _atom_site_occupancy
  Eu  Eu0  1  0.75000000  0.74079726  0.14877898  1
  Eu  Eu1  1  0.75000000  0.24079726  0.35122102  1
  Eu  Eu2  1  0.25000000  0.25920274  0.85122102  1
  Eu  Eu3  1  0.25000000  0.75920274  0.64877898  1
  Eu  Eu4  1  0.75000000  0.07874187  0.11294830  1
  Eu  Eu5  1  0.75000000  0.57874187  0.38705170  1
  Eu  Eu6  1  0.25000000  0.92125813  0.88705170  1
  Eu  Eu7  1  0.25000000  0.42125813  0.61294830  1
  Eu  Eu8  1  0.75000000  0.07779778  0.61210282  1
  Eu  Eu9  1  0.75000000  0.57779778  0.88789718  1
  Eu  Eu10  1  0.25000000  0.92220222  0.38789718  1
  Eu  Eu11  1  0.25000000  0.42220222  0.11210282  1
  O  O12  1  0.75000000  0.28200577  0.69775438  1
  O  O13  1  0.75000000  0.78200577  0.80224562  1
  O  O14  1  0.25000000  0.71799423  0.30224562  1
  O  O15  1  0.25000000  0.21799423  0.19775438  1
  O  O16  1  0.75000000  0.36291931  0.97434295  1
  O  O17  1  0.75000000  0.86291931  0.52565705  1
  O  O18  1  0.25000000  0.63708069  0.02565705  1
  O  O19  1  0.25000000  0.13708069  0.47434295  1
  O  O20  1  0.75000000  0.50288237  0.20891376  1
  O  O21  1  0.75000000  0.00288237  0.29108624  1
  O  O22  1  0.25000000  0.49711763  0.79108624  1
  O  O23  1  0.25000000  -0.00288237  0.70891376  1
  O  O24  1  0.75000000  0.08306830  0.91610893  1
  O  O25  1  0.75000000  0.58306830  0.58389107  1
  O  O26  1  0.25000000  0.91693170  0.08389107  1
  O  O27  1  0.25000000  0.41693170  0.41610893  1
