# generated using pymatgen
data_KAl3H6(SO7)2
_symmetry_space_group_name_H-M   'P 1'
_cell_length_a   7.05053865
_cell_length_b   7.05053865
_cell_length_c   7.32861589
_cell_angle_alpha   61.24743602
_cell_angle_beta   61.24743602
_cell_angle_gamma   59.99999899
_symmetry_Int_Tables_number   1
_chemical_formula_structural   KAl3H6(SO7)2
_chemical_formula_sum   'K1 Al3 H6 S2 O14'
_cell_volume   262.35410136
_cell_formula_units_Z   1
loop_
 _symmetry_equiv_pos_site_id
 _symmetry_equiv_pos_as_xyz
  1  'x, y, z'
loop_
 _atom_site_type_symbol
 _atom_site_label
 _atom_site_symmetry_multiplicity
 _atom_site_fract_x
 _atom_site_fract_y
 _atom_site_fract_z
 _atom_site_occupancy
  K  K0  1  0.00000000  -0.00000000  0.00000000  1
  Al  Al1  1  0.00000000  0.50000000  0.50000000  1
  Al  Al2  1  0.50000000  -0.00000000  0.50000000  1
  Al  Al3  1  0.00000000  -0.00000000  0.50000000  1
  H  H4  1  0.72522038  0.30611740  0.66254482  1
  H  H5  1  0.30611740  0.30611740  0.66254482  1
  H  H6  1  0.30611740  0.72522038  0.66254482  1
  H  H7  1  0.27477962  0.69388260  0.33745518  1
  H  H8  1  0.69388260  0.69388260  0.33745518  1
  H  H9  1  0.69388260  0.27477962  0.33745518  1
  S  S10  1  0.29701312  0.29701312  0.10896065  1
  S  S11  1  0.70298688  0.70298688  0.89103935  1
  O  O12  1  0.37672887  0.37672887  0.86981341  1
  O  O13  1  0.62327113  0.62327113  0.13018659  1
  O  O14  1  0.49903498  0.15314582  0.19467339  1
  O  O15  1  0.15314582  0.15314582  0.19467339  1
  O  O16  1  0.15314582  0.49903498  0.19467339  1
  O  O17  1  0.50096502  0.84685418  0.80532661  1
  O  O18  1  0.84685418  0.84685418  0.80532661  1
  O  O19  1  0.84685418  0.50096502  0.80532661  1
  O  O20  1  0.88861977  0.26858098  0.57421827  1
  O  O21  1  0.26858098  0.26858098  0.57421827  1
  O  O22  1  0.26858098  0.88861977  0.57421827  1
  O  O23  1  0.11138023  0.73141902  0.42578173  1
  O  O24  1  0.73141902  0.73141902  0.42578173  1
  O  O25  1  0.73141902  0.11138023  0.42578173  1
