# generated using pymatgen
data_Hf9FeMo4
_symmetry_space_group_name_H-M   'P 1'
_cell_length_a   8.42665137
_cell_length_b   8.66901597
_cell_length_c   8.66901597
_cell_angle_alpha   120.04062151
_cell_angle_beta   90.00000000
_cell_angle_gamma   90.00000000
_symmetry_Int_Tables_number   1
_chemical_formula_structural   Hf9FeMo4
_chemical_formula_sum   'Hf18 Fe2 Mo8'
_cell_volume   548.21049945
_cell_formula_units_Z   2
loop_
 _symmetry_equiv_pos_site_id
 _symmetry_equiv_pos_as_xyz
  1  'x, y, z'
loop_
 _atom_site_type_symbol
 _atom_site_label
 _atom_site_symmetry_multiplicity
 _atom_site_fract_x
 _atom_site_fract_y
 _atom_site_fract_z
 _atom_site_occupancy
  Hf  Hf0  1  0.55719971  0.79796629  0.59607888  1
  Hf  Hf1  1  0.55727279  0.79802336  0.20197664  1
  Hf  Hf2  1  0.55719971  0.40392112  0.20203371  1
  Hf  Hf3  1  0.44280029  0.20203371  0.40392112  1
  Hf  Hf4  1  0.44272721  0.20197664  0.79802336  1
  Hf  Hf5  1  0.44280029  0.59607888  0.79796629  1
  Hf  Hf6  1  0.05719971  0.20203371  0.40392112  1
  Hf  Hf7  1  0.05727279  0.20197664  0.79802336  1
  Hf  Hf8  1  0.05719971  0.59607888  0.79796629  1
  Hf  Hf9  1  0.94280029  0.79796629  0.59607888  1
  Hf  Hf10  1  0.94272721  0.79802336  0.20197664  1
  Hf  Hf11  1  0.94280029  0.40392112  0.20203371  1
  Hf  Hf12  1  0.75000000  0.45969658  0.91939470  1
  Hf  Hf13  1  0.75000000  0.45972073  0.54027927  1
  Hf  Hf14  1  0.75000000  0.08060530  0.54030342  1
  Hf  Hf15  1  0.25000000  0.54030342  0.08060530  1
  Hf  Hf16  1  0.25000000  0.54027927  0.45972073  1
  Hf  Hf17  1  0.25000000  0.91939470  0.45969658  1
  Fe  Fe18  1  0.75000000  0.66658442  0.33341558  1
  Fe  Fe19  1  0.25000000  0.33341558  0.66658442  1
  Mo  Mo20  1  0.75000000  0.11277348  0.22541920  1
  Mo  Mo21  1  0.75000000  0.11264615  0.88735385  1
  Mo  Mo22  1  0.75000000  0.77458080  0.88722652  1
  Mo  Mo23  1  0.25000000  0.88722652  0.77458080  1
  Mo  Mo24  1  0.25000000  0.88735385  0.11264615  1
  Mo  Mo25  1  0.25000000  0.22541920  0.11277348  1
  Mo  Mo26  1  0.50000000  -0.00000000  -0.00000000  1
  Mo  Mo27  1  -0.00000000  -0.00000000  -0.00000000  1
