# generated using pymatgen
data_NaMnVO4
_symmetry_space_group_name_H-M   'P 1'
_cell_length_a   5.39333442
_cell_length_b   6.98104624
_cell_length_c   9.71104664
_cell_angle_alpha   90.00000000
_cell_angle_beta   90.00000000
_cell_angle_gamma   90.00000000
_symmetry_Int_Tables_number   1
_chemical_formula_structural   NaMnVO4
_chemical_formula_sum   'Na4 Mn4 V4 O16'
_cell_volume   365.63175298
_cell_formula_units_Z   4
loop_
 _symmetry_equiv_pos_site_id
 _symmetry_equiv_pos_as_xyz
  1  'x, y, z'
loop_
 _atom_site_type_symbol
 _atom_site_label
 _atom_site_symmetry_multiplicity
 _atom_site_fract_x
 _atom_site_fract_y
 _atom_site_fract_z
 _atom_site_occupancy
  Na  Na0  1  0.01360231  0.25000000  0.35369171  1
  Na  Na1  1  0.48639769  0.25000000  0.85369171  1
  Na  Na2  1  0.98639769  0.75000000  0.64630829  1
  Na  Na3  1  0.51360231  0.75000000  0.14630829  1
  Mn  Mn4  1  0.00000000  -0.00000000  -0.00000000  1
  Mn  Mn5  1  0.50000000  0.50000000  0.50000000  1
  Mn  Mn6  1  0.00000000  0.50000000  -0.00000000  1
  Mn  Mn7  1  0.50000000  0.00000000  0.50000000  1
  V  V8  1  0.02001690  0.75000000  0.31911097  1
  V  V9  1  0.47998310  0.75000000  0.81911097  1
  V  V10  1  0.97998310  0.25000000  0.68088903  1
  V  V11  1  0.52001690  0.25000000  0.18088903  1
  O  O12  1  0.05887919  0.75000000  0.13598803  1
  O  O13  1  0.44112081  0.75000000  0.63598803  1
  O  O14  1  0.94112081  0.25000000  0.86401197  1
  O  O15  1  0.55887919  0.25000000  0.36401197  1
  O  O16  1  0.70981730  0.75000000  0.37726236  1
  O  O17  1  0.79018270  0.75000000  0.87726236  1
  O  O18  1  0.29018270  0.25000000  0.62273764  1
  O  O19  1  0.20981730  0.25000000  0.12273764  1
  O  O20  1  0.17346733  0.55365503  0.38438933  1
  O  O21  1  0.32653267  0.94634497  0.88438933  1
  O  O22  1  0.82653267  0.05365503  0.61561067  1
  O  O23  1  0.67346733  0.44634497  0.11561067  1
  O  O24  1  0.82653267  0.44634497  0.61561067  1
  O  O25  1  0.67346733  0.05365503  0.11561067  1
  O  O26  1  0.17346733  0.94634497  0.38438933  1
  O  O27  1  0.32653267  0.55365503  0.88438933  1
