# generated using pymatgen
data_Zr5Sc2O13
_symmetry_space_group_name_H-M   'P 1'
_cell_length_a   8.09928326
_cell_length_b   8.09928275
_cell_length_c   8.09928340
_cell_angle_alpha   73.39388785
_cell_angle_beta   73.39388896
_cell_angle_gamma   73.39388796
_symmetry_Int_Tables_number   1
_chemical_formula_structural   Zr5Sc2O13
_chemical_formula_sum   'Zr10 Sc4 O26'
_cell_volume   475.70062469
_cell_formula_units_Z   2
loop_
 _symmetry_equiv_pos_site_id
 _symmetry_equiv_pos_as_xyz
  1  'x, y, z'
loop_
 _atom_site_type_symbol
 _atom_site_label
 _atom_site_symmetry_multiplicity
 _atom_site_fract_x
 _atom_site_fract_y
 _atom_site_fract_z
 _atom_site_occupancy
  Zr  Zr0  1  0.00440699  0.00440699  0.00440699  1
  Zr  Zr1  1  0.13494949  0.28600353  0.54754558  1
  Zr  Zr2  1  0.28600353  0.54754558  0.13494949  1
  Zr  Zr3  1  0.09797189  0.60235101  0.78919607  1
  Zr  Zr4  1  0.54754558  0.13494949  0.28600353  1
  Zr  Zr5  1  0.60235101  0.78919607  0.09797189  1
  Zr  Zr6  1  0.44956383  0.86706200  0.71053240  1
  Zr  Zr7  1  0.78919607  0.09797189  0.60235101  1
  Zr  Zr8  1  0.71053240  0.44956383  0.86706200  1
  Zr  Zr9  1  0.86706200  0.71053240  0.44956383  1
  Sc  Sc10  1  0.21131188  0.90448185  0.39490642  1
  Sc  Sc11  1  0.39490642  0.21131188  0.90448185  1
  Sc  Sc12  1  0.50027523  0.50027523  0.50027523  1
  Sc  Sc13  1  0.90448185  0.39490642  0.21131188  1
  O  O14  1  0.02194184  0.17330273  0.40216019  1
  O  O15  1  0.04703549  0.50773117  0.33374899  1
  O  O16  1  0.17330273  0.40216019  0.02194184  1
  O  O17  1  0.04758036  0.86863078  0.25791119  1
  O  O18  1  0.40216019  0.02194184  0.17330273  1
  O  O19  1  0.33374899  0.04703549  0.50773117  1
  O  O20  1  0.25791119  0.04758036  0.86863078  1
  O  O21  1  0.35675028  0.35675028  0.35675028  1
  O  O22  1  0.28221235  0.38716631  0.68315551  1
  O  O23  1  0.50773117  0.33374899  0.04703549  1
  O  O24  1  0.12785419  0.74618441  0.95246449  1
  O  O25  1  0.38716631  0.68315551  0.28221235  1
  O  O26  1  0.31442698  0.71655057  0.61793989  1
  O  O27  1  0.68315551  0.28221235  0.38716631  1
  O  O28  1  0.61793989  0.31442698  0.71655057  1
  O  O29  1  0.86863078  0.25791119  0.04758036  1
  O  O30  1  0.48859188  0.66762340  0.95303511  1
  O  O31  1  0.71655057  0.61793989  0.31442698  1
  O  O32  1  0.64354117  0.64354117  0.64354117  1
  O  O33  1  0.74618441  0.95246449  0.12785419  1
  O  O34  1  0.66762340  0.95303511  0.48859188  1
  O  O35  1  0.60385518  0.97186911  0.82617822  1
  O  O36  1  0.95246449  0.12785419  0.74618441  1
  O  O37  1  0.82617822  0.60385518  0.97186911  1
  O  O38  1  0.95303511  0.48859188  0.66762340  1
  O  O39  1  0.97186911  0.82617822  0.60385518  1
