# generated using pymatgen
data_Eu11(ZnSb2)6
_symmetry_space_group_name_H-M   'P 1'
_cell_length_a   4.79712993
_cell_length_b   12.14964265
_cell_length_c   15.96000359
_cell_angle_alpha   109.46307844
_cell_angle_beta   98.64350053
_cell_angle_gamma   90.00000000
_symmetry_Int_Tables_number   1
_chemical_formula_structural   Eu11(ZnSb2)6
_chemical_formula_sum   'Eu11 Zn6 Sb12'
_cell_volume   865.83525657
_cell_formula_units_Z   1
loop_
 _symmetry_equiv_pos_site_id
 _symmetry_equiv_pos_as_xyz
  1  'x, y, z'
loop_
 _atom_site_type_symbol
 _atom_site_label
 _atom_site_symmetry_multiplicity
 _atom_site_fract_x
 _atom_site_fract_y
 _atom_site_fract_z
 _atom_site_occupancy
  Eu  Eu0  1  0.98169754  0.32336379  0.96339507  1
  Eu  Eu1  1  0.01830246  0.67663621  0.03660493  1
  Eu  Eu2  1  0.88554817  0.48964247  0.77109634  1
  Eu  Eu3  1  0.11445183  0.51035753  0.22890366  1
  Eu  Eu4  1  0.87373133  0.98044711  0.74746266  1
  Eu  Eu5  1  0.12626867  0.01955289  0.25253734  1
  Eu  Eu6  1  0.79951597  0.65344037  0.59903193  1
  Eu  Eu7  1  0.20048403  0.34655963  0.40096807  1
  Eu  Eu8  1  0.71902061  0.86067567  0.43804121  1
  Eu  Eu9  1  0.28097939  0.13932433  0.56195879  1
  Eu  Eu10  1  0.00000000  -0.00000000  0.00000000  1
  Zn  Zn11  1  0.78252087  0.32813994  0.56504173  1
  Zn  Zn12  1  0.21747913  0.67186006  0.43495827  1
  Zn  Zn13  1  0.59865531  0.74324026  0.19731062  1
  Zn  Zn14  1  0.40134469  0.25675974  0.80268938  1
  Zn  Zn15  1  0.45499243  0.75567464  0.90998486  1
  Zn  Zn16  1  0.54500757  0.24432536  0.09001514  1
  Sb  Sb17  1  0.91290661  0.76508017  0.82581321  1
  Sb  Sb18  1  0.08709339  0.23491983  0.17418679  1
  Sb  Sb19  1  0.85307960  0.21626100  0.70615919  1
  Sb  Sb20  1  0.14692040  0.78373900  0.29384081  1
  Sb  Sb21  1  0.69219844  0.54001819  0.38439687  1
  Sb  Sb22  1  0.30780156  0.45998181  0.61560313  1
  Sb  Sb23  1  0.54672522  0.88322156  0.09345045  1
  Sb  Sb24  1  0.45327478  0.11677844  0.90654955  1
  Sb  Sb25  1  0.54556531  0.50233677  0.09113061  1
  Sb  Sb26  1  0.45443469  0.49766323  0.90886939  1
  Sb  Sb27  1  0.29469415  0.85996506  0.58938829  1
  Sb  Sb28  1  0.70530585  0.14003494  0.41061171  1
