# generated using pymatgen
data_ZnC2(N2O)4
_symmetry_space_group_name_H-M   'P 1'
_cell_length_a   8.95742078
_cell_length_b   10.09557420
_cell_length_c   10.09019005
_cell_angle_alpha   70.53553130
_cell_angle_beta   90.00000000
_cell_angle_gamma   90.00000000
_symmetry_Int_Tables_number   1
_chemical_formula_structural   ZnC2(N2O)4
_chemical_formula_sum   'Zn2 C4 N16 O8'
_cell_volume   860.31040809
_cell_formula_units_Z   2
loop_
 _symmetry_equiv_pos_site_id
 _symmetry_equiv_pos_as_xyz
  1  'x, y, z'
loop_
 _atom_site_type_symbol
 _atom_site_label
 _atom_site_symmetry_multiplicity
 _atom_site_fract_x
 _atom_site_fract_y
 _atom_site_fract_z
 _atom_site_occupancy
  Zn  Zn0  1  0.00000000  -0.00000000  -0.00000000  1
  Zn  Zn1  1  0.50000000  0.50000000  0.50000000  1
  C  C2  1  0.38436663  0.81131865  0.97319037  1
  C  C3  1  0.88436663  0.68868135  0.52680963  1
  C  C4  1  0.61563337  0.18868135  0.02680963  1
  C  C5  1  0.11563337  0.31131865  0.47319037  1
  N  N6  1  0.16961634  0.94893593  0.69114656  1
  N  N7  1  0.66961634  0.55106407  0.80885344  1
  N  N8  1  0.83038366  0.05106407  0.30885344  1
  N  N9  1  0.33038366  0.44893593  0.19114656  1
  N  N10  1  0.05740348  0.99192785  0.70164248  1
  N  N11  1  0.55740348  0.50807215  0.79835752  1
  N  N12  1  0.94259652  0.00807215  0.29835752  1
  N  N13  1  0.44259652  0.49192785  0.20164248  1
  N  N14  1  0.80717482  0.71845808  0.08689881  1
  N  N15  1  0.30717482  0.78154192  0.41310119  1
  N  N16  1  0.19282518  0.28154192  0.91310119  1
  N  N17  1  0.69282518  0.21845808  0.58689881  1
  N  N18  1  0.86533721  0.62041725  0.08868186  1
  N  N19  1  0.36533721  0.87958275  0.41131814  1
  N  N20  1  0.13466279  0.37958275  0.91131814  1
  N  N21  1  0.63466279  0.12041725  0.58868186  1
  O  O22  1  0.29362973  0.81809939  0.05514644  1
  O  O23  1  0.79362973  0.68190061  0.44485356  1
  O  O24  1  0.70637027  0.18190061  0.94485356  1
  O  O25  1  0.20637027  0.31809939  0.55514644  1
  O  O26  1  0.47560692  0.80424616  0.89201554  1
  O  O27  1  0.97560692  0.69575384  0.60798446  1
  O  O28  1  0.52439308  0.19575384  0.10798446  1
  O  O29  1  0.02439308  0.30424616  0.39201554  1
