# generated using pymatgen
data_Ti4Co4Si7
_symmetry_space_group_name_H-M   'P 1'
_cell_length_a   4.92208769
_cell_length_b   9.17017360
_cell_length_c   9.17017360
_cell_angle_alpha   85.86969048
_cell_angle_beta   74.43241390
_cell_angle_gamma   74.43241390
_symmetry_Int_Tables_number   1
_chemical_formula_structural   Ti4Co4Si7
_chemical_formula_sum   'Ti8 Co8 Si14'
_cell_volume   384.09681002
_cell_formula_units_Z   2
loop_
 _symmetry_equiv_pos_site_id
 _symmetry_equiv_pos_as_xyz
  1  'x, y, z'
loop_
 _atom_site_type_symbol
 _atom_site_label
 _atom_site_symmetry_multiplicity
 _atom_site_fract_x
 _atom_site_fract_y
 _atom_site_fract_z
 _atom_site_occupancy
  Ti  Ti0  1  0.13539592  -0.00000000  0.72920816  1
  Ti  Ti1  1  0.86460408  0.00000000  0.27079184  1
  Ti  Ti2  1  0.86460408  0.27079184  0.00000000  1
  Ti  Ti3  1  0.13539592  0.72920816  -0.00000000  1
  Ti  Ti4  1  0.50000000  0.19292855  0.80707145  1
  Ti  Ti5  1  0.50000000  0.80707145  0.19292855  1
  Ti  Ti6  1  0.30707145  0.19292855  0.19292855  1
  Ti  Ti7  1  0.69292855  0.80707145  0.80707145  1
  Co  Co8  1  0.39950785  0.50000000  0.20098429  1
  Co  Co9  1  0.10049215  0.50000000  0.79901571  1
  Co  Co10  1  0.10049215  0.79901571  0.50000000  1
  Co  Co11  1  0.39950785  0.20098429  0.50000000  1
  Co  Co12  1  0.60049215  0.79901571  0.50000000  1
  Co  Co13  1  0.89950785  0.20098429  0.50000000  1
  Co  Co14  1  0.89950785  0.50000000  0.20098429  1
  Co  Co15  1  0.60049215  0.50000000  0.79901571  1
  Si  Si16  1  0.29361239  0.00000000  0.41277522  1
  Si  Si17  1  0.70638761  -0.00000000  0.58722478  1
  Si  Si18  1  0.70638761  0.58722478  -0.00000000  1
  Si  Si19  1  0.29361239  0.41277522  0.00000000  1
  Si  Si20  1  -0.00000000  0.29420205  0.70579795  1
  Si  Si21  1  0.00000000  0.70579795  0.29420205  1
  Si  Si22  1  0.70579795  0.29420205  0.29420205  1
  Si  Si23  1  0.29420205  0.70579795  0.70579795  1
  Si  Si24  1  0.50000000  0.40519983  0.59480017  1
  Si  Si25  1  0.50000000  0.59480017  0.40519983  1
  Si  Si26  1  0.09480017  0.40519983  0.40519983  1
  Si  Si27  1  0.90519983  0.59480017  0.59480017  1
  Si  Si28  1  0.74986251  1.00000000  1.00000000  1
  Si  Si29  1  0.25013749  0.00000000  0.00000000  1
