# generated using pymatgen
data_Ta3NO6
_symmetry_space_group_name_H-M   'P 1'
_cell_length_a   3.88920077
_cell_length_b   10.64147878
_cell_length_c   11.48315487
_cell_angle_alpha   110.35321692
_cell_angle_beta   99.74860028
_cell_angle_gamma   100.53029262
_symmetry_Int_Tables_number   1
_chemical_formula_structural   Ta3NO6
_chemical_formula_sum   'Ta9 N3 O18'
_cell_volume   423.86315761
_cell_formula_units_Z   3
loop_
 _symmetry_equiv_pos_site_id
 _symmetry_equiv_pos_as_xyz
  1  'x, y, z'
loop_
 _atom_site_type_symbol
 _atom_site_label
 _atom_site_symmetry_multiplicity
 _atom_site_fract_x
 _atom_site_fract_y
 _atom_site_fract_z
 _atom_site_occupancy
  Ta  Ta0  1  0.00038600  0.00109421  0.99973614  1
  Ta  Ta1  1  0.18380199  0.36825502  0.99931510  1
  Ta  Ta2  1  0.81579125  0.63350764  0.99808546  1
  Ta  Ta3  1  0.44789272  0.52802530  0.36773938  1
  Ta  Ta4  1  0.54531588  0.46432479  0.62641341  1
  Ta  Ta5  1  0.26873854  0.16455339  0.37280470  1
  Ta  Ta6  1  0.73428686  0.84314120  0.62550077  1
  Ta  Ta7  1  0.92181543  0.21263064  0.63094804  1
  Ta  Ta8  1  0.07702300  0.78714587  0.36691868  1
  N  N9  1  0.58136517  0.75296815  0.40979040  1
  N  N10  1  0.42275077  0.24927388  0.59620553  1
  N  N11  1  0.39458138  0.37007354  0.41908245  1
  O  O12  1  0.79024104  0.16233393  0.41806172  1
  O  O13  1  0.21078829  0.83611462  0.58552494  1
  O  O14  1  0.97209574  0.56988281  0.37434332  1
  O  O15  1  0.03056711  0.43147441  0.62967373  1
  O  O16  1  0.17489531  0.96912565  0.38067050  1
  O  O17  1  0.82462520  0.02986695  0.61934777  1
  O  O18  1  0.05513414  0.30066038  0.80946984  1
  O  O19  1  0.94266373  0.69660753  0.18880116  1
  O  O20  1  0.70769814  0.41714823  0.99824805  1
  O  O21  1  0.29251140  0.58390888  0.00108471  1
  O  O22  1  0.91253874  0.81487249  0.01028909  1
  O  O23  1  0.08918857  0.18789877  0.99036197  1
  O  O24  1  0.61021196  0.63347334  0.58706285  1
  O  O25  1  0.68323729  0.55536091  0.81109118  1
  O  O26  1  0.31651483  0.44559674  0.18743232  1
  O  O27  1  0.49894533  0.99983288  0.99805610  1
  O  O28  1  0.85435359  0.90472433  0.80390683  1
  O  O29  1  0.14511058  0.09626351  0.19403388  1
