# generated using pymatgen
data_LiNi9S10
_symmetry_space_group_name_H-M   'P 1'
_cell_length_a   17.22165249
_cell_length_b   5.99834281
_cell_length_c   8.60174260
_cell_angle_alpha   90.12094668
_cell_angle_beta   37.46091745
_cell_angle_gamma   90.05467776
_symmetry_Int_Tables_number   1
_chemical_formula_structural   LiNi9S10
_chemical_formula_sum   'Li2 Ni18 S20'
_cell_volume   540.44569324
_cell_formula_units_Z   2
loop_
 _symmetry_equiv_pos_site_id
 _symmetry_equiv_pos_as_xyz
  1  'x, y, z'
loop_
 _atom_site_type_symbol
 _atom_site_label
 _atom_site_symmetry_multiplicity
 _atom_site_fract_x
 _atom_site_fract_y
 _atom_site_fract_z
 _atom_site_occupancy
  Li  Li0  1  0.99762943  0.00154888  0.00499131  1
  Li  Li1  1  0.50003721  0.49969963  0.50119015  1
  Ni  Ni2  1  0.09599261  0.50456004  0.00009582  1
  Ni  Ni3  1  0.99902137  0.00076698  0.50227276  1
  Ni  Ni4  1  0.19291086  0.99269600  0.00956395  1
  Ni  Ni5  1  0.29801439  0.49859181  0.99721275  1
  Ni  Ni6  1  0.09701249  0.49812619  0.49610461  1
  Ni  Ni7  1  0.40192370  0.99813973  0.00775674  1
  Ni  Ni8  1  0.19994894  -0.00066532  0.50621443  1
  Ni  Ni9  1  0.30546110  0.49202185  0.49336879  1
  Ni  Ni10  1  0.49814707  0.49969114  0.00289095  1
  Ni  Ni11  1  0.59547942  0.00418878  0.99888949  1
  Ni  Ni12  1  0.40183640  0.00379466  0.50397030  1
  Ni  Ni13  1  0.70064124  0.50269622  0.00512282  1
  Ni  Ni14  1  0.80562221  0.00787010  -0.00553762  1
  Ni  Ni15  1  0.59517351  0.99662748  0.50255325  1
  Ni  Ni16  1  0.69259615  0.50854146  0.51086752  1
  Ni  Ni17  1  0.90237739  0.49869987  0.00253414  1
  Ni  Ni18  1  0.79664464  0.00292499  0.50158261  1
  Ni  Ni19  1  0.90131745  0.50436991  0.50607551  1
  S  S20  1  0.98782645  0.83626120  0.28118205  1
  S  S21  1  0.10406469  0.33563118  0.23334427  1
  S  S22  1  0.19262377  0.82422169  0.26370001  1
  S  S23  1  0.10577868  0.65342750  0.73307029  1
  S  S24  1  0.30568616  0.32279853  0.23924400  1
  S  S25  1  0.20936300  0.17102878  0.73517645  1
  S  S26  1  0.39401029  0.83673870  0.26997312  1
  S  S27  1  0.28839979  0.67092859  0.76979904  1
  S  S28  1  0.51112615  0.33589859  0.22174119  1
  S  S29  1  0.60671368  0.84891769  0.23228272  1
  S  S30  1  0.39143766  0.15235453  0.77254001  1
  S  S31  1  0.71096510  0.33073062  0.23122168  1
  S  S32  1  0.48658654  0.66534998  0.78374573  1
  S  S33  1  0.78721878  0.83086062  0.27253787  1
  S  S34  1  0.60317766  0.16565147  0.73600421  1
  S  S35  1  0.89143948  0.34958118  0.27188350  1
  S  S36  1  0.69133200  0.67920995  0.76718251  1
  S  S37  1  0.80590397  0.17866856  0.73895650  1
  S  S38  1  0.89473553  0.66694149  0.76822611  1
  S  S39  1  0.01044606  0.16601174  0.72228146  1
