# generated using pymatgen
data_CsAg2BiS3
_symmetry_space_group_name_H-M   'P 1'
_cell_length_a   7.06051307
_cell_length_b   8.30951168
_cell_length_c   13.61255363
_cell_angle_alpha   90.00000000
_cell_angle_beta   99.61572491
_cell_angle_gamma   90.00000000
_symmetry_Int_Tables_number   1
_chemical_formula_structural   CsAg2BiS3
_chemical_formula_sum   'Cs4 Ag8 Bi4 S12'
_cell_volume   787.41985235
_cell_formula_units_Z   4
loop_
 _symmetry_equiv_pos_site_id
 _symmetry_equiv_pos_as_xyz
  1  'x, y, z'
loop_
 _atom_site_type_symbol
 _atom_site_label
 _atom_site_symmetry_multiplicity
 _atom_site_fract_x
 _atom_site_fract_y
 _atom_site_fract_z
 _atom_site_occupancy
  Cs  Cs0  1  0.18487849  0.11490061  0.82071141  1
  Cs  Cs1  1  0.31512151  0.61490061  0.17928859  1
  Cs  Cs2  1  0.81512151  0.88509939  0.17928859  1
  Cs  Cs3  1  0.68487849  0.38509939  0.82071141  1
  Ag  Ag4  1  0.47028227  0.75189861  0.91297746  1
  Ag  Ag5  1  0.02971773  0.25189861  0.08702254  1
  Ag  Ag6  1  0.52971773  0.24810139  0.08702254  1
  Ag  Ag7  1  0.97028227  0.74810139  0.91297746  1
  Ag  Ag8  1  0.15100846  0.64016963  0.73179150  1
  Ag  Ag9  1  0.34899154  0.14016963  0.26820850  1
  Ag  Ag10  1  0.84899154  0.35983037  0.26820850  1
  Ag  Ag11  1  0.65100846  0.85983037  0.73179150  1
  Bi  Bi12  1  0.25680859  0.86802248  0.49865466  1
  Bi  Bi13  1  0.24319141  0.36802248  0.50134534  1
  Bi  Bi14  1  0.74319141  0.13197752  0.50134534  1
  Bi  Bi15  1  0.75680859  0.63197752  0.49865466  1
  S  S16  1  0.22247547  0.55379187  0.91029863  1
  S  S17  1  0.27752453  0.05379187  0.08970137  1
  S  S18  1  0.77752453  0.44620813  0.08970137  1
  S  S19  1  0.72247547  0.94620813  0.91029863  1
  S  S20  1  0.45134355  0.64400035  0.62229513  1
  S  S21  1  0.04865645  0.14400035  0.37770487  1
  S  S22  1  0.54865645  0.35599965  0.37770487  1
  S  S23  1  0.95134355  0.85599965  0.62229513  1
  S  S24  1  0.45578983  0.12808788  0.61744851  1
  S  S25  1  0.04421017  0.62808788  0.38255149  1
  S  S26  1  0.54421017  0.87191212  0.38255149  1
  S  S27  1  0.95578983  0.37191212  0.61744851  1
