# generated using pymatgen
data_LaMoBrO4
_symmetry_space_group_name_H-M   'P 1'
_cell_length_a   5.96591368
_cell_length_b   8.12948964
_cell_length_c   9.94161498
_cell_angle_alpha   89.81339435
_cell_angle_beta   90.00000000
_cell_angle_gamma   90.00000000
_symmetry_Int_Tables_number   1
_chemical_formula_structural   LaMoBrO4
_chemical_formula_sum   'La4 Mo4 Br4 O16'
_cell_volume   482.16411364
_cell_formula_units_Z   4
loop_
 _symmetry_equiv_pos_site_id
 _symmetry_equiv_pos_as_xyz
  1  'x, y, z'
loop_
 _atom_site_type_symbol
 _atom_site_label
 _atom_site_symmetry_multiplicity
 _atom_site_fract_x
 _atom_site_fract_y
 _atom_site_fract_z
 _atom_site_occupancy
  La  La0  1  0.95416518  0.37756649  0.21277156  1
  La  La1  1  0.04583482  0.87756649  0.21277156  1
  La  La2  1  0.54819372  0.62593012  0.77544127  1
  La  La3  1  0.45180628  0.12593012  0.77544127  1
  Mo  Mo4  1  0.49216808  0.65843571  0.35448090  1
  Mo  Mo5  1  0.50783192  0.15843571  0.35448090  1
  Mo  Mo6  1  0.99539673  0.40851808  0.63503415  1
  Mo  Mo7  1  0.00460327  0.90851808  0.63503415  1
  Br  Br8  1  0.99807243  0.62425994  0.96920502  1
  Br  Br9  1  0.00192757  0.12425994  0.96920502  1
  Br  Br10  1  0.50385102  0.37375996  0.02030494  1
  Br  Br11  1  0.49614898  0.87375996  0.02030494  1
  O  O12  1  0.48932294  0.61907159  0.53005058  1
  O  O13  1  0.51067706  0.11907159  0.53005058  1
  O  O14  1  0.56295697  0.37616762  0.34392879  1
  O  O15  1  0.43704303  0.87616762  0.34392879  1
  O  O16  1  0.76638310  0.64666486  0.27028519  1
  O  O17  1  0.23361690  0.14666486  0.27028519  1
  O  O18  1  0.76644622  0.09972802  0.26653311  1
  O  O19  1  0.23355378  0.59972802  0.26653311  1
  O  O20  1  0.00999063  0.37327845  0.45949628  1
  O  O21  1  0.99000937  0.87327845  0.45949628  1
  O  O22  1  0.94026503  0.62634436  0.64724373  1
  O  O23  1  0.05973497  0.12634436  0.64724373  1
  O  O24  1  0.73320264  0.34701083  0.71833982  1
  O  O25  1  0.26679736  0.84701083  0.71833982  1
  O  O26  1  0.73296596  0.89756397  0.72238467  1
  O  O27  1  0.26703404  0.39756397  0.72238467  1
