# generated using pymatgen
data_ZnAgPO4
_symmetry_space_group_name_H-M   'P 1'
_cell_length_a   5.24093879
_cell_length_b   7.43724529
_cell_length_c   10.57056042
_cell_angle_alpha   90.00000000
_cell_angle_beta   90.00000000
_cell_angle_gamma   90.42948490
_symmetry_Int_Tables_number   1
_chemical_formula_structural   ZnAgPO4
_chemical_formula_sum   'Zn4 Ag4 P4 O16'
_cell_volume   412.00928655
_cell_formula_units_Z   4
loop_
 _symmetry_equiv_pos_site_id
 _symmetry_equiv_pos_as_xyz
  1  'x, y, z'
loop_
 _atom_site_type_symbol
 _atom_site_label
 _atom_site_symmetry_multiplicity
 _atom_site_fract_x
 _atom_site_fract_y
 _atom_site_fract_z
 _atom_site_occupancy
  Zn  Zn0  1  0.69062803  0.02535120  0.65919504  1
  Zn  Zn1  1  0.19062803  0.52535120  0.84080496  1
  Zn  Zn2  1  0.30937197  0.97464880  0.34080496  1
  Zn  Zn3  1  0.80937197  0.47464880  0.15919504  1
  Ag  Ag4  1  0.70187403  0.52125194  0.60794890  1
  Ag  Ag5  1  0.20187403  0.02125194  0.89205110  1
  Ag  Ag6  1  0.29812597  0.47874806  0.39205110  1
  Ag  Ag7  1  0.79812597  0.97874806  0.10794890  1
  P  P8  1  0.19048138  0.79137680  0.60475208  1
  P  P9  1  0.69048138  0.29137680  0.89524792  1
  P  P10  1  0.80951862  0.20862320  0.39524792  1
  P  P11  1  0.30951862  0.70862320  0.10475208  1
  O  O12  1  0.89662615  0.81104864  0.62181562  1
  O  O13  1  0.39662615  0.31104864  0.87818438  1
  O  O14  1  0.10337385  0.18895136  0.37818438  1
  O  O15  1  0.60337385  0.68895136  0.12181562  1
  O  O16  1  0.26160690  0.77435679  0.46164640  1
  O  O17  1  0.76160690  0.27435679  0.03835360  1
  O  O18  1  0.73839310  0.22564321  0.53835360  1
  O  O19  1  0.23839310  0.72564321  0.96164640  1
  O  O20  1  0.32553587  0.95670103  0.66407058  1
  O  O21  1  0.82553587  0.45670103  0.83592942  1
  O  O22  1  0.67446413  0.04329897  0.33592942  1
  O  O23  1  0.17446413  0.54329897  0.16407058  1
  O  O24  1  0.27296500  0.61103433  0.66792562  1
  O  O25  1  0.77296500  0.11103433  0.83207438  1
  O  O26  1  0.72703500  0.38896567  0.33207438  1
  O  O27  1  0.22703500  0.88896567  0.16792562  1
