# generated using pymatgen
data_SrMn2V2O8
_symmetry_space_group_name_H-M   'P 1'
_cell_length_a   8.82542310
_cell_length_b   9.97121059
_cell_length_c   9.97121059
_cell_angle_alpha   78.70583552
_cell_angle_beta   63.73361093
_cell_angle_gamma   63.73361093
_symmetry_Int_Tables_number   1
_chemical_formula_structural   SrMn2V2O8
_chemical_formula_sum   'Sr4 Mn8 V8 O32'
_cell_volume   705.61920729
_cell_formula_units_Z   4
loop_
 _symmetry_equiv_pos_site_id
 _symmetry_equiv_pos_as_xyz
  1  'x, y, z'
loop_
 _atom_site_type_symbol
 _atom_site_label
 _atom_site_symmetry_multiplicity
 _atom_site_fract_x
 _atom_site_fract_y
 _atom_site_fract_z
 _atom_site_occupancy
  Sr  Sr0  1  0.74630952  0.50000000  0.50000000  1
  Sr  Sr1  1  0.24630952  0.50000000  0.50000000  1
  Sr  Sr2  1  0.49630952  -0.00000000  0.00000000  1
  Sr  Sr3  1  0.99630952  -0.00000000  0.00000000  1
  Mn  Mn4  1  0.87125298  0.50306112  0.83544669  1
  Mn  Mn5  1  0.70976080  0.16455331  0.49693888  1
  Mn  Mn6  1  0.62431411  0.33544669  0.99693888  1
  Mn  Mn7  1  0.12431411  0.99693888  0.33544669  1
  Mn  Mn8  1  0.20976080  0.49693888  0.16455331  1
  Mn  Mn9  1  0.37125298  0.83544669  0.50306112  1
  Mn  Mn10  1  0.95669967  0.66455331  0.00306112  1
  Mn  Mn11  1  0.45669967  0.00306112  0.66455331  1
  V  V12  1  0.93631319  0.31479932  0.15691472  1
  V  V13  1  0.90802722  0.84308528  0.68520068  1
  V  V14  1  0.50111250  0.65691472  0.18520068  1
  V  V15  1  0.00111250  0.18520068  0.65691472  1
  V  V16  1  0.40802722  0.68520068  0.84308528  1
  V  V17  1  0.43631319  0.15691472  0.31479932  1
  V  V18  1  0.34322790  0.34308528  0.81479932  1
  V  V19  1  0.84322790  0.81479932  0.34308528  1
  O  O20  1  0.89765213  0.85647480  0.86227397  1
  O  O21  1  0.11640089  0.13772603  0.14352520  1
  O  O22  1  0.00412693  0.36227397  0.64352520  1
  O  O23  1  0.50412693  0.64352520  0.36227397  1
  O  O24  1  0.61640089  0.14352520  0.13772603  1
  O  O25  1  0.39765213  0.86227397  0.85647480  1
  O  O26  1  0.00992610  0.63772603  0.35647480  1
  O  O27  1  0.50992610  0.35647480  0.63772603  1
  O  O28  1  0.62985464  0.82478153  0.48898225  1
  O  O29  1  0.44361842  0.51101775  0.17521847  1
  O  O30  1  0.70463617  0.98898225  0.67521847  1
  O  O31  1  0.20463617  0.67521847  0.98898225  1
  O  O32  1  0.94361842  0.17521847  0.51101775  1
  O  O33  1  0.12985464  0.48898225  0.82478153  1
  O  O34  1  0.36883689  0.01101775  0.32478153  1
  O  O35  1  0.86883689  0.32478153  0.01101775  1
  O  O36  1  0.20400078  0.03387886  0.65947031  1
  O  O37  1  0.39734995  0.34052969  0.96612114  1
  O  O38  1  0.48787964  0.15947031  0.46612114  1
  O  O39  1  0.98787964  0.46612114  0.15947031  1
  O  O40  1  0.89734995  0.96612114  0.34052969  1
  O  O41  1  0.70400078  0.65947031  0.03387886  1
  O  O42  1  0.11347109  0.84052969  0.53387886  1
  O  O43  1  0.61347109  0.53387886  0.84052969  1
  O  O44  1  0.90439379  0.67356990  0.67630198  1
  O  O45  1  0.75426568  0.32369802  0.32643010  1
  O  O46  1  0.82796370  0.17630198  0.82643010  1
  O  O47  1  0.32796370  0.82643010  0.17630198  1
  O  O48  1  0.25426568  0.32643010  0.32369802  1
  O  O49  1  0.40439379  0.67630198  0.67356990  1
  O  O50  1  0.83069578  0.82369802  0.17356990  1
  O  O51  1  0.33069578  0.17356990  0.82369802  1
