# generated using pymatgen
data_Zr4Co4Si7
_symmetry_space_group_name_H-M   'P 1'
_cell_length_a   5.07863809
_cell_length_b   9.49126523
_cell_length_c   9.49126523
_cell_angle_alpha   85.89530865
_cell_angle_beta   74.48190267
_cell_angle_gamma   74.48190267
_symmetry_Int_Tables_number   1
_chemical_formula_structural   Zr4Co4Si7
_chemical_formula_sum   'Zr8 Co8 Si14'
_cell_volume   424.75684540
_cell_formula_units_Z   2
loop_
 _symmetry_equiv_pos_site_id
 _symmetry_equiv_pos_as_xyz
  1  'x, y, z'
loop_
 _atom_site_type_symbol
 _atom_site_label
 _atom_site_symmetry_multiplicity
 _atom_site_fract_x
 _atom_site_fract_y
 _atom_site_fract_z
 _atom_site_occupancy
  Zr  Zr0  1  0.13765730  0.00000000  0.72468541  1
  Zr  Zr1  1  0.86234270  -0.00000000  0.27531459  1
  Zr  Zr2  1  0.86234270  0.27531459  0.00000000  1
  Zr  Zr3  1  0.13765730  0.72468541  0.00000000  1
  Zr  Zr4  1  0.50000000  0.80298043  0.19701957  1
  Zr  Zr5  1  0.50000000  0.19701957  0.80298043  1
  Zr  Zr6  1  0.69701957  0.80298043  0.80298043  1
  Zr  Zr7  1  0.30298043  0.19701957  0.19701957  1
  Co  Co8  1  0.39718840  0.50000000  0.20562320  1
  Co  Co9  1  0.10281160  0.50000000  0.79437680  1
  Co  Co10  1  0.10281160  0.79437680  0.50000000  1
  Co  Co11  1  0.39718840  0.20562320  0.50000000  1
  Co  Co12  1  0.60281160  0.79437680  0.50000000  1
  Co  Co13  1  0.89718840  0.20562320  0.50000000  1
  Co  Co14  1  0.89718840  0.50000000  0.20562320  1
  Co  Co15  1  0.60281160  0.50000000  0.79437680  1
  Si  Si16  1  0.50000000  0.59195035  0.40804965  1
  Si  Si17  1  0.50000000  0.40804965  0.59195035  1
  Si  Si18  1  0.90804965  0.59195035  0.59195035  1
  Si  Si19  1  0.09195035  0.40804965  0.40804965  1
  Si  Si20  1  0.74932672  0.00000000  0.00000000  1
  Si  Si21  1  0.25067328  0.00000000  0.00000000  1
  Si  Si22  1  0.28864170  -0.00000000  0.42271660  1
  Si  Si23  1  0.71135830  -0.00000000  0.57728340  1
  Si  Si24  1  0.71135830  0.57728340  -0.00000000  1
  Si  Si25  1  0.28864170  0.42271660  0.00000000  1
  Si  Si26  1  0.00000000  0.30337948  0.69662052  1
  Si  Si27  1  -0.00000000  0.69662052  0.30337948  1
  Si  Si28  1  0.69662052  0.30337948  0.30337948  1
  Si  Si29  1  0.30337948  0.69662052  0.69662052  1
