# generated using pymatgen
data_ZnSn2H12(OF)6
_symmetry_space_group_name_H-M   'P 1'
_cell_length_a   7.06189822
_cell_length_b   7.15177866
_cell_length_c   7.17175094
_cell_angle_alpha   76.19421245
_cell_angle_beta   72.45697125
_cell_angle_gamma   79.76039017
_symmetry_Int_Tables_number   1
_chemical_formula_structural   ZnSn2H12(OF)6
_chemical_formula_sum   'Zn1 Sn2 H12 O6 F6'
_cell_volume   333.18857340
_cell_formula_units_Z   1
loop_
 _symmetry_equiv_pos_site_id
 _symmetry_equiv_pos_as_xyz
  1  'x, y, z'
loop_
 _atom_site_type_symbol
 _atom_site_label
 _atom_site_symmetry_multiplicity
 _atom_site_fract_x
 _atom_site_fract_y
 _atom_site_fract_z
 _atom_site_occupancy
  Zn  Zn0  1  0.00000000  -0.00000000  -0.00000000  1
  Sn  Sn1  1  0.32305945  0.36524480  0.31060515  1
  Sn  Sn2  1  0.67694055  0.63475520  0.68939485  1
  H  H3  1  0.24891610  0.27213526  0.91511333  1
  H  H4  1  0.75108390  0.72786474  0.08488667  1
  H  H5  1  0.07271193  0.36801497  0.81406608  1
  H  H6  1  0.92728807  0.63198503  0.18593392  1
  H  H7  1  0.90197473  0.23912067  0.25221751  1
  H  H8  1  0.09802527  0.76087933  0.74778249  1
  H  H9  1  0.79034159  0.05191326  0.36022604  1
  H  H10  1  0.20965841  0.94808674  0.63977396  1
  H  H11  1  0.23533222  0.94500867  0.25703317  1
  H  H12  1  0.76466778  0.05499133  0.74296683  1
  H  H13  1  0.34938664  0.82793321  0.08478951  1
  H  H14  1  0.65061336  0.17206679  0.91521049  1
  O  O15  1  0.15539181  0.24392220  0.84916293  1
  O  O16  1  0.84460819  0.75607780  0.15083707  1
  O  O17  1  0.82710722  0.14439374  0.23073318  1
  O  O18  1  0.17289278  0.85560626  0.76926682  1
  O  O19  1  0.21555256  0.87092644  0.16472305  1
  O  O20  1  0.78444744  0.12907356  0.83527695  1
  F  F21  1  0.26937730  0.07247257  0.40919066  1
  F  F22  1  0.73062270  0.92752743  0.59080934  1
  F  F23  1  0.03174494  0.41405268  0.27157878  1
  F  F24  1  0.96825506  0.58594732  0.72842122  1
  F  F25  1  0.42108049  0.30257661  0.02023583  1
  F  F26  1  0.57891951  0.69742339  0.97976417  1
