# generated using pymatgen
data_Ca4ThF12
_symmetry_space_group_name_H-M   'P 1'
_cell_length_a   3.97016048
_cell_length_b   4.09507764
_cell_length_c   19.63576765
_cell_angle_alpha   59.67430881
_cell_angle_beta   60.86344950
_cell_angle_gamma   62.38687990
_symmetry_Int_Tables_number   1
_chemical_formula_structural   Ca4ThF12
_chemical_formula_sum   'Ca4 Th1 F12'
_cell_volume   230.44169626
_cell_formula_units_Z   1
loop_
 _symmetry_equiv_pos_site_id
 _symmetry_equiv_pos_as_xyz
  1  'x, y, z'
loop_
 _atom_site_type_symbol
 _atom_site_label
 _atom_site_symmetry_multiplicity
 _atom_site_fract_x
 _atom_site_fract_y
 _atom_site_fract_z
 _atom_site_occupancy
  Ca  Ca0  1  0.92769085  0.01061425  0.01793789  1
  Ca  Ca1  1  0.92537174  0.01838746  0.21038461  1
  Ca  Ca2  1  0.95839730  0.01873864  0.40139533  1
  Ca  Ca3  1  0.99855726  0.02674716  0.59408462  1
  Th  Th4  1  0.96565045  0.04073084  0.80510019  1
  F  F5  1  0.15652159  0.29058756  0.06583741  1
  F  F6  1  0.22203207  0.27131231  0.44785942  1
  F  F7  1  0.66681999  0.76962970  0.16375940  1
  F  F8  1  0.18705788  0.27186993  0.25597731  1
  F  F9  1  0.27423064  0.23377673  0.64703968  1
  F  F10  1  0.69537225  0.76518360  0.35530081  1
  F  F11  1  0.09890616  0.35192457  0.87560186  1
  F  F12  1  0.74353409  0.76210210  0.54642011  1
  F  F13  1  0.48897732  0.37998625  0.73594547  1
  F  F14  1  0.81977902  0.73281491  0.73751456  1
  F  F15  1  0.43174738  0.70997472  0.87631514  1
  F  F16  1  0.64335401  0.84561929  0.96352617  1
