# generated using pymatgen
data_Na5AgGe2S7
_symmetry_space_group_name_H-M   'P 1'
_cell_length_a   6.93373458
_cell_length_b   6.93373458
_cell_length_c   14.97882253
_cell_angle_alpha   99.19403757
_cell_angle_beta   99.19403757
_cell_angle_gamma   96.52505380
_symmetry_Int_Tables_number   1
_chemical_formula_structural   Na5AgGe2S7
_chemical_formula_sum   'Na10 Ag2 Ge4 S14'
_cell_volume   694.55452282
_cell_formula_units_Z   2
loop_
 _symmetry_equiv_pos_site_id
 _symmetry_equiv_pos_as_xyz
  1  'x, y, z'
loop_
 _atom_site_type_symbol
 _atom_site_label
 _atom_site_symmetry_multiplicity
 _atom_site_fract_x
 _atom_site_fract_y
 _atom_site_fract_z
 _atom_site_occupancy
  Na  Na0  1  0.02359527  0.73644254  0.91876992  1
  Na  Na1  1  0.26355746  0.97640473  0.58123008  1
  Na  Na2  1  0.97640473  0.26355746  0.08123008  1
  Na  Na3  1  0.73644254  0.02359527  0.41876992  1
  Na  Na4  1  0.50000000  0.50000000  0.00000000  1
  Na  Na5  1  0.50000000  0.50000000  0.50000000  1
  Na  Na6  1  0.96230818  0.51689907  0.35977426  1
  Na  Na7  1  0.48310093  0.03769182  0.14022574  1
  Na  Na8  1  0.03769182  0.48310093  0.64022574  1
  Na  Na9  1  0.51689907  0.96230818  0.85977426  1
  Ag  Ag10  1  0.41460170  0.58539830  0.25000000  1
  Ag  Ag11  1  0.58539830  0.41460170  0.75000000  1
  Ge  Ge12  1  0.91936239  0.76313582  0.14096229  1
  Ge  Ge13  1  0.23686418  0.08063761  0.35903771  1
  Ge  Ge14  1  0.08063761  0.23686418  0.85903771  1
  Ge  Ge15  1  0.76313582  0.91936239  0.64096229  1
  S  S16  1  0.73905714  0.87024624  0.02753153  1
  S  S17  1  0.12975376  0.26094286  0.47246847  1
  S  S18  1  0.26094286  0.12975376  0.97246847  1
  S  S19  1  0.87024624  0.73905714  0.52753153  1
  S  S20  1  0.20142930  0.67775996  0.10796206  1
  S  S21  1  0.32224004  0.79857070  0.39203794  1
  S  S22  1  0.79857070  0.32224004  0.89203794  1
  S  S23  1  0.67775996  0.20142930  0.60796206  1
  S  S24  1  0.74511406  0.51786025  0.18432006  1
  S  S25  1  0.48213975  0.25488594  0.31567994  1
  S  S26  1  0.25488594  0.48213975  0.81567994  1
  S  S27  1  0.51786025  0.74511406  0.68432006  1
  S  S28  1  0.95765646  0.04234354  0.25000000  1
  S  S29  1  0.04234354  0.95765646  0.75000000  1
