# generated using pymatgen
data_CsTmSiS4
_symmetry_space_group_name_H-M   'P 1'
_cell_length_a   6.36107658
_cell_length_b   6.71532773
_cell_length_c   18.00699767
_cell_angle_alpha   90.00000000
_cell_angle_beta   90.00000000
_cell_angle_gamma   90.00000000
_symmetry_Int_Tables_number   1
_chemical_formula_structural   CsTmSiS4
_chemical_formula_sum   'Cs4 Tm4 Si4 S16'
_cell_volume   769.19976857
_cell_formula_units_Z   4
loop_
 _symmetry_equiv_pos_site_id
 _symmetry_equiv_pos_as_xyz
  1  'x, y, z'
loop_
 _atom_site_type_symbol
 _atom_site_label
 _atom_site_symmetry_multiplicity
 _atom_site_fract_x
 _atom_site_fract_y
 _atom_site_fract_z
 _atom_site_occupancy
  Cs  Cs0  1  0.50242886  0.49349350  0.96748648  1
  Cs  Cs1  1  0.99757114  0.50650650  0.46748648  1
  Cs  Cs2  1  0.00242886  0.00650650  0.03251352  1
  Cs  Cs3  1  0.49757114  0.99349350  0.53251352  1
  Tm  Tm4  1  0.29215070  0.47875040  0.22872618  1
  Tm  Tm5  1  0.20784930  0.52124960  0.72872618  1
  Tm  Tm6  1  0.79215070  0.02124960  0.77127382  1
  Tm  Tm7  1  0.70784930  0.97875040  0.27127382  1
  Si  Si8  1  0.79159701  0.51791606  0.17065884  1
  Si  Si9  1  0.70840299  0.48208394  0.67065884  1
  Si  Si10  1  0.29159701  0.98208394  0.82934116  1
  Si  Si11  1  0.20840299  0.01791606  0.32934116  1
  S  S12  1  0.05622516  0.51107384  0.09964886  1
  S  S13  1  0.44377484  0.48892616  0.59964886  1
  S  S14  1  0.55622516  0.98892616  0.90035114  1
  S  S15  1  0.94377484  0.01107384  0.40035114  1
  S  S16  1  0.60044402  0.41907629  0.77998425  1
  S  S17  1  0.89955598  0.58092371  0.27998425  1
  S  S18  1  0.10044402  0.08092371  0.22001575  1
  S  S19  1  0.39955598  0.91907629  0.72001575  1
  S  S20  1  0.56646932  0.74847749  0.15015459  1
  S  S21  1  0.93353068  0.25152251  0.65015459  1
  S  S22  1  0.06646932  0.75152251  0.84984541  1
  S  S23  1  0.43353068  0.24847749  0.34984541  1
  S  S24  1  0.60245422  0.25429143  0.16020723  1
  S  S25  1  0.89754578  0.74570857  0.66020723  1
  S  S26  1  0.10245422  0.24570857  0.83979277  1
  S  S27  1  0.39754578  0.75429143  0.33979277  1
