# generated using pymatgen
data_GeH12N3F7
_symmetry_space_group_name_H-M   'P 1'
_cell_length_a   11.87930520
_cell_length_b   11.87930520
_cell_length_c   11.87930520
_cell_angle_alpha   90.00000000
_cell_angle_beta   90.00000000
_cell_angle_gamma   90.00000000
_symmetry_Int_Tables_number   1
_chemical_formula_structural   GeH12N3F7
_chemical_formula_sum   'Ge8 H96 N24 F56'
_cell_volume   1676.38250866
_cell_formula_units_Z   8
loop_
 _symmetry_equiv_pos_site_id
 _symmetry_equiv_pos_as_xyz
  1  'x, y, z'
loop_
 _atom_site_type_symbol
 _atom_site_label
 _atom_site_symmetry_multiplicity
 _atom_site_fract_x
 _atom_site_fract_y
 _atom_site_fract_z
 _atom_site_occupancy
  Ge  Ge0  1  0.50000000  0.50000000  0.00000000  1
  Ge  Ge1  1  0.50000000  -0.00000000  0.50000000  1
  Ge  Ge2  1  0.00000000  0.50000000  0.50000000  1
  Ge  Ge3  1  0.00000000  -0.00000000  0.00000000  1
  Ge  Ge4  1  0.50000000  -0.00000000  0.00000000  1
  Ge  Ge5  1  0.50000000  0.50000000  0.50000000  1
  Ge  Ge6  1  0.00000000  -0.00000000  0.50000000  1
  Ge  Ge7  1  0.00000000  0.50000000  0.00000000  1
  H  H8  1  0.99826593  0.78798483  0.15895742  1
  H  H9  1  0.00173407  0.28798483  0.34104258  1
  H  H10  1  0.50173407  0.21201517  0.65895742  1
  H  H11  1  0.49826593  0.71201517  0.84104258  1
  H  H12  1  0.15895742  0.99826593  0.78798483  1
  H  H13  1  0.34104258  0.00173407  0.28798483  1
  H  H14  1  0.65895742  0.50173407  0.21201517  1
  H  H15  1  0.84104258  0.49826593  0.71201517  1
  H  H16  1  0.78798483  0.15895742  0.99826593  1
  H  H17  1  0.28798483  0.34104258  0.00173407  1
  H  H18  1  0.21201517  0.65895742  0.50173407  1
  H  H19  1  0.71201517  0.84104258  0.49826593  1
  H  H20  1  0.00173407  0.21201517  0.84104258  1
  H  H21  1  0.99826593  0.71201517  0.65895742  1
  H  H22  1  0.49826593  0.78798483  0.34104258  1
  H  H23  1  0.50173407  0.28798483  0.15895742  1
  H  H24  1  0.84104258  0.00173407  0.21201517  1
  H  H25  1  0.65895742  0.99826593  0.71201517  1
  H  H26  1  0.34104258  0.49826593  0.78798483  1
  H  H27  1  0.15895742  0.50173407  0.28798483  1
  H  H28  1  0.21201517  0.84104258  0.00173407  1
  H  H29  1  0.71201517  0.65895742  0.99826593  1
  H  H30  1  0.78798483  0.34104258  0.49826593  1
  H  H31  1  0.28798483  0.15895742  0.50173407  1
  H  H32  1  0.10675433  0.74743458  0.24413163  1
  H  H33  1  0.89324567  0.24743458  0.25586837  1
  H  H34  1  0.39324567  0.25256542  0.74413163  1
  H  H35  1  0.60675433  0.75256542  0.75586837  1
  H  H36  1  0.24413163  0.10675433  0.74743458  1
  H  H37  1  0.25586837  0.89324567  0.24743458  1
  H  H38  1  0.74413163  0.39324567  0.25256542  1
  H  H39  1  0.75586837  0.60675433  0.75256542  1
  H  H40  1  0.74743458  0.24413163  0.10675433  1
  H  H41  1  0.24743458  0.25586837  0.89324567  1
  H  H42  1  0.25256542  0.74413163  0.39324567  1
  H  H43  1  0.75256542  0.75586837  0.60675433  1
  H  H44  1  0.89324567  0.25256542  0.75586837  1
  H  H45  1  0.10675433  0.75256542  0.74413163  1
  H  H46  1  0.60675433  0.74743458  0.25586837  1
  H  H47  1  0.39324567  0.24743458  0.24413163  1
  H  H48  1  0.75586837  0.89324567  0.25256542  1
  H  H49  1  0.74413163  0.10675433  0.75256542  1
  H  H50  1  0.25586837  0.60675433  0.74743458  1
  H  H51  1  0.24413163  0.39324567  0.24743458  1
  H  H52  1  0.25256542  0.75586837  0.89324567  1
  H  H53  1  0.75256542  0.74413163  0.10675433  1
  H  H54  1  0.74743458  0.25586837  0.60675433  1
  H  H55  1  0.24743458  0.24413163  0.39324567  1
  H  H56  1  -0.00622844  0.66055658  0.21863496  1
  H  H57  1  0.00622844  0.16055658  0.28136504  1
  H  H58  1  0.50622844  0.33944342  0.71863496  1
  H  H59  1  0.49377156  0.83944342  0.78136504  1
  H  H60  1  0.21863496  -0.00622844  0.66055658  1
  H  H61  1  0.28136504  0.00622844  0.16055658  1
  H  H62  1  0.71863496  0.50622844  0.33944342  1
  H  H63  1  0.78136504  0.49377156  0.83944342  1
  H  H64  1  0.66055658  0.21863496  -0.00622844  1
  H  H65  1  0.16055658  0.28136504  0.00622844  1
  H  H66  1  0.33944342  0.71863496  0.50622844  1
  H  H67  1  0.83944342  0.78136504  0.49377156  1
  H  H68  1  0.00622844  0.33944342  0.78136504  1
  H  H69  1  -0.00622844  0.83944342  0.71863496  1
  H  H70  1  0.49377156  0.66055658  0.28136504  1
  H  H71  1  0.50622844  0.16055658  0.21863496  1
  H  H72  1  0.78136504  0.00622844  0.33944342  1
  H  H73  1  0.71863496  -0.00622844  0.83944342  1
  H  H74  1  0.28136504  0.49377156  0.66055658  1
  H  H75  1  0.21863496  0.50622844  0.16055658  1
  H  H76  1  0.33944342  0.78136504  0.00622844  1
  H  H77  1  0.83944342  0.71863496  -0.00622844  1
  H  H78  1  0.66055658  0.28136504  0.49377156  1
  H  H79  1  0.16055658  0.21863496  0.50622844  1
  H  H80  1  0.97720448  0.77697757  0.29887289  1
  H  H81  1  0.02279552  0.27697757  0.20112711  1
  H  H82  1  0.52279552  0.22302243  0.79887289  1
  H  H83  1  0.47720448  0.72302243  0.70112711  1
  H  H84  1  0.29887289  0.97720448  0.77697757  1
  H  H85  1  0.20112711  0.02279552  0.27697757  1
  H  H86  1  0.79887289  0.52279552  0.22302243  1
  H  H87  1  0.70112711  0.47720448  0.72302243  1
  H  H88  1  0.77697757  0.29887289  0.97720448  1
  H  H89  1  0.27697757  0.20112711  0.02279552  1
  H  H90  1  0.22302243  0.79887289  0.52279552  1
  H  H91  1  0.72302243  0.70112711  0.47720448  1
  H  H92  1  0.02279552  0.22302243  0.70112711  1
  H  H93  1  0.97720448  0.72302243  0.79887289  1
  H  H94  1  0.47720448  0.77697757  0.20112711  1
  H  H95  1  0.52279552  0.27697757  0.29887289  1
  H  H96  1  0.70112711  0.02279552  0.22302243  1
  H  H97  1  0.79887289  0.97720448  0.72302243  1
  H  H98  1  0.20112711  0.47720448  0.77697757  1
  H  H99  1  0.29887289  0.52279552  0.27697757  1
  H  H100  1  0.22302243  0.70112711  0.02279552  1
  H  H101  1  0.72302243  0.79887289  0.97720448  1
  H  H102  1  0.77697757  0.20112711  0.47720448  1
  H  H103  1  0.27697757  0.29887289  0.52279552  1
  N  N104  1  0.01823057  0.74267175  0.23065851  1
  N  N105  1  0.98176943  0.24267175  0.26934149  1
  N  N106  1  0.48176943  0.25732825  0.73065851  1
  N  N107  1  0.51823057  0.75732825  0.76934149  1
  N  N108  1  0.23065851  0.01823057  0.74267175  1
  N  N109  1  0.26934149  0.98176943  0.24267175  1
  N  N110  1  0.73065851  0.48176943  0.25732825  1
  N  N111  1  0.76934149  0.51823057  0.75732825  1
  N  N112  1  0.74267175  0.23065851  0.01823057  1
  N  N113  1  0.24267175  0.26934149  0.98176943  1
  N  N114  1  0.25732825  0.73065851  0.48176943  1
  N  N115  1  0.75732825  0.76934149  0.51823057  1
  N  N116  1  0.98176943  0.25732825  0.76934149  1
  N  N117  1  0.01823057  0.75732825  0.73065851  1
  N  N118  1  0.51823057  0.74267175  0.26934149  1
  N  N119  1  0.48176943  0.24267175  0.23065851  1
  N  N120  1  0.76934149  0.98176943  0.25732825  1
  N  N121  1  0.73065851  0.01823057  0.75732825  1
  N  N122  1  0.26934149  0.51823057  0.74267175  1
  N  N123  1  0.23065851  0.48176943  0.24267175  1
  N  N124  1  0.25732825  0.76934149  0.98176943  1
  N  N125  1  0.75732825  0.73065851  0.01823057  1
  N  N126  1  0.74267175  0.26934149  0.51823057  1
  N  N127  1  0.24267175  0.23065851  0.48176943  1
  F  F128  1  0.48063254  0.65230822  0.98073697  1
  F  F129  1  0.51936746  0.15230822  0.51926303  1
  F  F130  1  0.01936746  0.34769178  0.48073697  1
  F  F131  1  0.98063254  0.84769178  0.01926303  1
  F  F132  1  0.98073697  0.48063254  0.65230822  1
  F  F133  1  0.51926303  0.51936746  0.15230822  1
  F  F134  1  0.48073697  0.01936746  0.34769178  1
  F  F135  1  0.01926303  0.98063254  0.84769178  1
  F  F136  1  0.65230822  0.98073697  0.48063254  1
  F  F137  1  0.15230822  0.51926303  0.51936746  1
  F  F138  1  0.34769178  0.48073697  0.01936746  1
  F  F139  1  0.84769178  0.01926303  0.98063254  1
  F  F140  1  0.51936746  0.34769178  0.01926303  1
  F  F141  1  0.48063254  0.84769178  0.48073697  1
  F  F142  1  0.98063254  0.65230822  0.51926303  1
  F  F143  1  0.01936746  0.15230822  0.98073697  1
  F  F144  1  0.01926303  0.51936746  0.34769178  1
  F  F145  1  0.48073697  0.48063254  0.84769178  1
  F  F146  1  0.51926303  0.98063254  0.65230822  1
  F  F147  1  0.98073697  0.01936746  0.15230822  1
  F  F148  1  0.34769178  0.01926303  0.51936746  1
  F  F149  1  0.84769178  0.48073697  0.48063254  1
  F  F150  1  0.65230822  0.51926303  0.98063254  1
  F  F151  1  0.15230822  0.98073697  0.01936746  1
  F  F152  1  0.44813121  0.88344633  0.08762686  1
  F  F153  1  0.55186879  0.38344633  0.41237314  1
  F  F154  1  0.05186879  0.11655367  0.58762686  1
  F  F155  1  0.94813121  0.61655367  0.91237314  1
  F  F156  1  0.08762686  0.44813121  0.88344633  1
  F  F157  1  0.41237314  0.55186879  0.38344633  1
  F  F158  1  0.58762686  0.05186879  0.11655367  1
  F  F159  1  0.91237314  0.94813121  0.61655367  1
  F  F160  1  0.88344633  0.08762686  0.44813121  1
  F  F161  1  0.38344633  0.41237314  0.55186879  1
  F  F162  1  0.11655367  0.58762686  0.05186879  1
  F  F163  1  0.61655367  0.91237314  0.94813121  1
  F  F164  1  0.55186879  0.11655367  0.91237314  1
  F  F165  1  0.44813121  0.61655367  0.58762686  1
  F  F166  1  0.94813121  0.88344633  0.41237314  1
  F  F167  1  0.05186879  0.38344633  0.08762686  1
  F  F168  1  0.91237314  0.55186879  0.11655367  1
  F  F169  1  0.58762686  0.44813121  0.61655367  1
  F  F170  1  0.41237314  0.94813121  0.88344633  1
  F  F171  1  0.08762686  0.05186879  0.38344633  1
  F  F172  1  0.11655367  0.91237314  0.55186879  1
  F  F173  1  0.61655367  0.58762686  0.44813121  1
  F  F174  1  0.88344633  0.41237314  0.94813121  1
  F  F175  1  0.38344633  0.08762686  0.05186879  1
  F  F176  1  0.23679290  0.76320710  0.26320710  1
  F  F177  1  0.76320710  0.26320710  0.23679290  1
  F  F178  1  0.26320710  0.23679290  0.76320710  1
  F  F179  1  0.73679290  0.73679290  0.73679290  1
  F  F180  1  0.76320710  0.23679290  0.73679290  1
  F  F181  1  0.23679290  0.73679290  0.76320710  1
  F  F182  1  0.73679290  0.76320710  0.23679290  1
  F  F183  1  0.26320710  0.26320710  0.26320710  1
