# generated using pymatgen
data_Na2Ni(SO4)2
_symmetry_space_group_name_H-M   'P 1'
_cell_length_a   10.37498755
_cell_length_b   12.87349211
_cell_length_c   17.51741494
_cell_angle_alpha   98.40233346
_cell_angle_beta   90.00000000
_cell_angle_gamma   113.76331138
_symmetry_Int_Tables_number   1
_chemical_formula_structural   Na2Ni(SO4)2
_chemical_formula_sum   'Na24 Ni12 S24 O96'
_cell_volume   2113.83632703
_cell_formula_units_Z   12
loop_
 _symmetry_equiv_pos_site_id
 _symmetry_equiv_pos_as_xyz
  1  'x, y, z'
loop_
 _atom_site_type_symbol
 _atom_site_label
 _atom_site_symmetry_multiplicity
 _atom_site_fract_x
 _atom_site_fract_y
 _atom_site_fract_z
 _atom_site_occupancy
  Na  Na0  1  0.38172468  0.52604103  0.26808164  1
  Na  Na1  1  0.85568365  0.47395897  0.23191836  1
  Na  Na2  1  0.61827532  0.47395897  0.73191836  1
  Na  Na3  1  0.14431635  0.52604103  0.76808164  1
  Na  Na4  1  0.28000729  0.78960239  0.39215202  1
  Na  Na5  1  0.49040490  0.21039761  0.10784798  1
  Na  Na6  1  0.71999271  0.21039761  0.60784798  1
  Na  Na7  1  0.50959510  0.78960239  0.89215202  1
  Na  Na8  1  0.80970193  0.86467665  0.42323939  1
  Na  Na9  1  0.94502528  0.13532335  0.07676061  1
  Na  Na10  1  0.19029807  0.13532335  0.57676061  1
  Na  Na11  1  0.05497472  0.86467665  0.92323939  1
  Na  Na12  1  0.39572059  -0.00000000  0.25000000  1
  Na  Na13  1  0.60427941  -0.00000000  0.75000000  1
  Na  Na14  1  0.85191638  -0.00000000  0.25000000  1
  Na  Na15  1  0.14808362  -0.00000000  0.75000000  1
  Na  Na16  1  0.17974240  0.67224969  0.57043384  1
  Na  Na17  1  0.50749271  0.32775031  0.92956616  1
  Na  Na18  1  0.82025760  0.32775031  0.42956616  1
  Na  Na19  1  0.49250729  0.67224969  0.07043384  1
  Na  Na20  1  0.76516608  0.67653650  0.56867479  1
  Na  Na21  1  0.08862958  0.32346350  0.93132521  1
  Na  Na22  1  0.23483392  0.32346350  0.43132521  1
  Na  Na23  1  0.91137042  0.67653650  0.06867479  1
  Ni  Ni24  1  0.00259898  0.79855131  0.27664540  1
  Ni  Ni25  1  0.20404767  0.20144869  0.22335460  1
  Ni  Ni26  1  0.99740102  0.20144869  0.72335460  1
  Ni  Ni27  1  0.79595233  0.79855131  0.77664540  1
  Ni  Ni28  1  0.63531338  0.52786741  0.37950695  1
  Ni  Ni29  1  0.10744597  0.47213259  0.12049305  1
  Ni  Ni30  1  0.36468662  0.47213259  0.62049305  1
  Ni  Ni31  1  0.89255403  0.52786741  0.87950695  1
  Ni  Ni32  1  0.53361925  0.86591482  0.56781192  1
  Ni  Ni33  1  0.66770443  0.13408518  0.93218808  1
  Ni  Ni34  1  0.46638075  0.13408518  0.43218808  1
  Ni  Ni35  1  0.33229557  0.86591482  0.06781192  1
  S  S36  1  0.08583920  0.94435846  0.12775164  1
  S  S37  1  0.14148074  0.05564154  0.37224836  1
  S  S38  1  0.91416080  0.05564154  0.87224836  1
  S  S39  1  0.85851926  0.94435846  0.62775164  1
  S  S40  1  0.91707645  0.63246083  0.41240750  1
  S  S41  1  0.28461562  0.36753917  0.08759250  1
  S  S42  1  0.08292355  0.36753917  0.58759250  1
  S  S43  1  0.71538438  0.63246083  0.91240750  1
  S  S44  1  0.57470313  0.38110481  0.53003100  1
  S  S45  1  0.19359832  0.61889519  0.96996900  1
  S  S46  1  0.42529687  0.61889519  0.46996900  1
  S  S47  1  0.80640168  0.38110481  0.03003100  1
  S  S48  1  0.72584769  0.67355082  0.23039048  1
  S  S49  1  0.05229686  0.32644918  0.26960952  1
  S  S50  1  0.27415231  0.32644918  0.76960952  1
  S  S51  1  0.94770314  0.67355082  0.73039048  1
  S  S52  1  0.47226962  0.72292472  0.71340622  1
  S  S53  1  0.74934490  0.27707528  0.78659378  1
  S  S54  1  0.52773038  0.27707528  0.28659378  1
  S  S55  1  0.25065510  0.72292472  0.21340622  1
  S  S56  1  0.63471462  0.01446293  0.41855791  1
  S  S57  1  0.62025168  0.98553707  0.08144209  1
  S  S58  1  0.36528538  0.98553707  0.58144209  1
  S  S59  1  0.37974832  0.01446293  0.91855791  1
  O  O60  1  0.63125804  0.48352853  0.48969119  1
  O  O61  1  0.14772951  0.51647147  0.01030881  1
  O  O62  1  0.36874196  0.51647147  0.51030881  1
  O  O63  1  0.85227049  0.48352853  0.98969119  1
  O  O64  1  0.80582939  0.67885054  0.43188219  1
  O  O65  1  0.12697885  0.32114946  0.06811781  1
  O  O66  1  0.19417061  0.32114946  0.56811781  1
  O  O67  1  0.87302115  0.67885054  0.93188219  1
  O  O68  1  0.63327444  0.57620138  0.26901813  1
  O  O69  1  0.05707305  0.42379862  0.23098187  1
  O  O70  1  0.36672556  0.42379862  0.73098187  1
  O  O71  1  0.94292695  0.57620138  0.76901813  1
  O  O72  1  0.85282889  0.64994867  0.20318179  1
  O  O73  1  0.20288021  0.35005133  0.29681821  1
  O  O74  1  0.14717111  0.35005133  0.79681821  1
  O  O75  1  0.79711979  0.64994867  0.70318179  1
  O  O76  1  0.66868175  0.13226533  0.46470881  1
  O  O77  1  0.53641641  0.86773467  0.03529119  1
  O  O78  1  0.33131825  0.86773467  0.53529119  1
  O  O79  1  0.46358359  0.13226533  0.96470881  1
  O  O80  1  0.01925346  0.70398024  0.36117468  1
  O  O81  1  0.31527322  0.29601976  0.13882532  1
  O  O82  1  0.98074654  0.29601976  0.63882532  1
  O  O83  1  0.68472678  0.70398024  0.86117468  1
  O  O84  1  0.47770301  0.58456260  0.39487951  1
  O  O85  1  0.89314041  0.41543740  0.10512049  1
  O  O86  1  0.52229699  0.41543740  0.60512049  1
  O  O87  1  0.10685959  0.58456260  0.89487951  1
  O  O88  1  0.42568084  0.78021450  0.65693707  1
  O  O89  1  0.64546633  0.21978550  0.84306293  1
  O  O90  1  0.57431916  0.21978550  0.34306293  1
  O  O91  1  0.35453367  0.78021450  0.15693707  1
  O  O92  1  0.98994913  0.62929458  0.48233167  1
  O  O93  1  0.36065455  0.37070542  0.01766833  1
  O  O94  1  0.01005087  0.37070542  0.51766833  1
  O  O95  1  0.63934545  0.62929458  0.98233167  1
  O  O96  1  0.49167265  0.37061291  0.32861456  1
  O  O97  1  0.12105973  0.62938709  0.17138544  1
  O  O98  1  0.50832735  0.62938709  0.67138544  1
  O  O99  1  0.87894027  0.37061291  0.82861456  1
  O  O100  1  0.99831959  0.89423435  0.19178617  1
  O  O101  1  0.10408524  0.10576565  0.30821383  1
  O  O102  1  0.00168041  0.10576565  0.80821383  1
  O  O103  1  0.89591476  0.89423435  0.69178617  1
  O  O104  1  0.63116942  0.93233628  0.47137738  1
  O  O105  1  0.69883314  0.06766372  0.02862262  1
  O  O106  1  0.36883058  0.06766372  0.52862262  1
  O  O107  1  0.30116686  0.93233628  0.97137738  1
  O  O108  1  0.45274642  0.28503311  0.48284753  1
  O  O109  1  0.16771331  0.71496689  0.01715247  1
  O  O110  1  0.54725358  0.71496689  0.51715247  1
  O  O111  1  0.83228669  0.28503311  0.98284753  1
  O  O112  1  0.64920662  0.68718060  0.16592484  1
  O  O113  1  0.96202602  0.31281940  0.33407516  1
  O  O114  1  0.35079338  0.31281940  0.83407516  1
  O  O115  1  0.03797398  0.68718060  0.66592484  1
  O  O116  1  0.31948762  0.68161998  0.26769670  1
  O  O117  1  0.63786764  0.31838002  0.23230330  1
  O  O118  1  0.68051238  0.31838002  0.73230330  1
  O  O119  1  0.36213236  0.68161998  0.76769670  1
  O  O120  1  0.68815849  0.34460959  0.54507361  1
  O  O121  1  0.34354890  0.65539041  0.95492639  1
  O  O122  1  0.31184151  0.65539041  0.45492639  1
  O  O123  1  0.65645110  0.34460959  0.04507361  1
  O  O124  1  0.20596129  0.81113719  0.25852041  1
  O  O125  1  0.39482409  0.18886281  0.24147959  1
  O  O126  1  0.79403871  0.18886281  0.74147959  1
  O  O127  1  0.60517591  0.81113719  0.75852041  1
  O  O128  1  0.04029573  0.93233823  0.36604906  1
  O  O129  1  0.10795751  0.06766177  0.13395094  1
  O  O130  1  0.95970427  0.06766177  0.63395094  1
  O  O131  1  0.89204249  0.93233823  0.86604906  1
  O  O132  1  0.86870453  0.88045534  0.55314716  1
  O  O133  1  0.98824919  0.11954466  0.94685284  1
  O  O134  1  0.13129547  0.11954466  0.44685284  1
  O  O135  1  0.01175081  0.88045534  0.05314716  1
  O  O136  1  0.83289688  0.51304081  0.36763024  1
  O  O137  1  0.31985607  0.48695919  0.13236976  1
  O  O138  1  0.16710312  0.48695919  0.63236976  1
  O  O139  1  0.68014393  0.51304081  0.86763024  1
  O  O140  1  0.78988846  0.78258901  0.28828705  1
  O  O141  1  0.00729945  0.21741099  0.21171295  1
  O  O142  1  0.21011154  0.21741099  0.71171295  1
  O  O143  1  0.99270055  0.78258901  0.78828705  1
  O  O144  1  0.73839388  0.01585958  0.36155455  1
  O  O145  1  0.72253430  0.98414042  0.13844545  1
  O  O146  1  0.26160612  0.98414042  0.63844545  1
  O  O147  1  0.27746570  0.01585958  0.86155455  1
  O  O148  1  0.48928519  0.97949155  0.38053388  1
  O  O149  1  0.50979364  0.02050845  0.11946612  1
  O  O150  1  0.51071481  0.02050845  0.61946612  1
  O  O151  1  0.49020636  0.97949155  0.88053388  1
  O  O152  1  0.22678870  0.94067756  0.13677372  1
  O  O153  1  0.28611115  0.05932244  0.36322628  1
  O  O154  1  0.77321130  0.05932244  0.86322628  1
  O  O155  1  0.71388885  0.94067756  0.63677372  1
