# generated using pymatgen
data_Rb2Th(Si2O5)3
_symmetry_space_group_name_H-M   'P 1'
_cell_length_a   7.42525104
_cell_length_b   12.43137172
_cell_length_c   17.78348484
_cell_angle_alpha   98.99696626
_cell_angle_beta   90.98445441
_cell_angle_gamma   106.35677980
_symmetry_Int_Tables_number   1
_chemical_formula_structural   Rb2Th(Si2O5)3
_chemical_formula_sum   'Rb8 Th4 Si24 O60'
_cell_volume   1552.45725321
_cell_formula_units_Z   4
loop_
 _symmetry_equiv_pos_site_id
 _symmetry_equiv_pos_as_xyz
  1  'x, y, z'
loop_
 _atom_site_type_symbol
 _atom_site_label
 _atom_site_symmetry_multiplicity
 _atom_site_fract_x
 _atom_site_fract_y
 _atom_site_fract_z
 _atom_site_occupancy
  Rb  Rb0  1  0.13953194  0.82340912  0.46784513  1
  Rb  Rb1  1  0.86046806  0.17659088  0.53215487  1
  Rb  Rb2  1  0.20443970  0.87723208  0.98669415  1
  Rb  Rb3  1  0.79556030  0.12276792  0.01330585  1
  Rb  Rb4  1  0.11797865  0.70719076  0.24816430  1
  Rb  Rb5  1  0.88202135  0.29280924  0.75183570  1
  Rb  Rb6  1  0.10491211  0.73854322  0.75828025  1
  Rb  Rb7  1  0.89508789  0.26145678  0.24171975  1
  Th  Th8  1  0.62487109  0.75791944  0.88902818  1
  Th  Th9  1  0.37512891  0.24208056  0.11097182  1
  Th  Th10  1  0.60411748  0.72373266  0.36492351  1
  Th  Th11  1  0.39588252  0.27626734  0.63507649  1
  Si  Si12  1  0.34187061  0.16512344  0.90331201  1
  Si  Si13  1  0.65812939  0.83487656  0.09668799  1
  Si  Si14  1  0.54220459  0.99715312  0.81145762  1
  Si  Si15  1  0.45779541  0.00284688  0.18854238  1
  Si  Si16  1  0.95277436  0.00875818  0.83035630  1
  Si  Si17  1  0.04722564  0.99124182  0.16964370  1
  Si  Si18  1  0.44032270  0.99345582  0.64096500  1
  Si  Si19  1  0.55967730  0.00654418  0.35903500  1
  Si  Si20  1  0.69191944  0.85963456  0.57187317  1
  Si  Si21  1  0.30808056  0.14036544  0.42812683  1
  Si  Si22  1  0.05722428  0.01840237  0.66433702  1
  Si  Si23  1  0.94277572  0.98159763  0.33566298  1
  Si  Si24  1  0.57874498  0.65982495  0.67078729  1
  Si  Si25  1  0.42125502  0.34017505  0.32921271  1
  Si  Si26  1  0.19755071  0.51002101  0.60091822  1
  Si  Si27  1  0.80244929  0.48997899  0.39908178  1
  Si  Si28  1  0.77491644  0.48218882  0.57935752  1
  Si  Si29  1  0.22508356  0.51781118  0.42064248  1
  Si  Si30  1  0.44261859  0.39527405  0.84286922  1
  Si  Si31  1  0.55738141  0.60472595  0.15713078  1
  Si  Si32  1  0.18782123  0.52832556  0.90279450  1
  Si  Si33  1  0.81217877  0.47167444  0.09720550  1
  Si  Si34  1  0.80762859  0.55565394  0.93425136  1
  Si  Si35  1  0.19237141  0.44434606  0.06574864  1
  O  O36  1  0.44996081  0.09971741  0.83979982  1
  O  O37  1  0.55003919  0.90028259  0.16020018  1
  O  O38  1  0.38282404  0.14406368  0.98831068  1
  O  O39  1  0.61717596  0.85593632  0.01168932  1
  O  O40  1  0.11540479  0.11882924  0.87660615  1
  O  O41  1  0.88459521  0.88117076  0.12339385  1
  O  O42  1  0.48297805  0.89193478  0.85738923  1
  O  O43  1  0.51702195  0.10806522  0.14261077  1
  O  O44  1  0.77214371  0.06013765  0.82061858  1
  O  O45  1  0.22785629  0.93986235  0.17938142  1
  O  O46  1  0.47729770  0.95026896  0.72089858  1
  O  O47  1  0.52270230  0.04973104  0.27910142  1
  O  O48  1  0.90111175  0.90180813  0.87483016  1
  O  O49  1  0.09888825  0.09819187  0.12516984  1
  O  O50  1  0.01916573  0.96932562  0.74507449  1
  O  O51  1  0.98083427  0.03067438  0.25492551  1
  O  O52  1  0.53281132  0.12746741  0.64199253  1
  O  O53  1  0.46718868  0.87253259  0.35800747  1
  O  O54  1  0.20907147  0.95652102  0.62321066  1
  O  O55  1  0.79092853  0.04347898  0.37678934  1
  O  O56  1  0.50618265  0.90852022  0.57304062  1
  O  O57  1  0.49381735  0.09147978  0.42695938  1
  O  O58  1  0.72479496  0.80886359  0.48627434  1
  O  O59  1  0.27520504  0.19113641  0.51372566  1
  O  O60  1  0.67675304  0.76881098  0.62982121  1
  O  O61  1  0.32324696  0.23118902  0.37017879  1
  O  O62  1  0.86697000  0.97280924  0.60690019  1
  O  O63  1  0.13303000  0.02719076  0.39309981  1
  O  O64  1  0.12920616  0.15510720  0.67530396  1
  O  O65  1  0.87079384  0.84489280  0.32469604  1
  O  O66  1  0.34828376  0.62389267  0.65142766  1
  O  O67  1  0.65171624  0.37610733  0.34857234  1
  O  O68  1  0.64693199  0.55211406  0.62831828  1
  O  O69  1  0.35306801  0.44788594  0.37168172  1
  O  O70  1  0.63525277  0.68898875  0.76110676  1
  O  O71  1  0.36474723  0.31101125  0.23889324  1
  O  O72  1  0.99493219  0.53952819  0.61442807  1
  O  O73  1  0.00506781  0.46047181  0.38557193  1
  O  O74  1  0.20342846  0.39416557  0.62933597  1
  O  O75  1  0.79657154  0.60583443  0.37066403  1
  O  O76  1  0.23518493  0.50204817  0.50995163  1
  O  O77  1  0.76481507  0.49795183  0.49004837  1
  O  O78  1  0.69244750  0.35136972  0.59048802  1
  O  O79  1  0.30755250  0.64863028  0.40951198  1
  O  O80  1  0.41841676  0.30088389  0.89931420  1
  O  O81  1  0.58158324  0.69911611  0.10068580  1
  O  O82  1  0.24397920  0.43109109  0.84035364  1
  O  O83  1  0.75602080  0.56890891  0.15964636  1
  O  O84  1  0.50127985  0.35190005  0.75950200  1
  O  O85  1  0.49872015  0.64809995  0.24049800  1
  O  O86  1  0.95938926  0.50516743  0.88245215  1
  O  O87  1  0.04061074  0.49483257  0.11754785  1
  O  O88  1  0.85721549  0.69202209  0.94424267  1
  O  O89  1  0.14278451  0.30797791  0.05575733  1
  O  O90  1  0.60097092  0.51205420  0.88578334  1
  O  O91  1  0.39902908  0.48794580  0.11421666  1
  O  O92  1  0.78759926  0.49974981  0.01155787  1
  O  O93  1  0.21240074  0.50025019  0.98844213  1
  O  O94  1  0.30939229  0.65528115  0.89497486  1
  O  O95  1  0.69060771  0.34471885  0.10502514  1
