# generated using pymatgen
data_RbNa2Mn3P4ClO14
_symmetry_space_group_name_H-M   'P 1'
_cell_length_a   5.31103868
_cell_length_b   11.04516768
_cell_length_c   13.08099669
_cell_angle_alpha   70.58382296
_cell_angle_beta   78.28721180
_cell_angle_gamma   76.08845781
_symmetry_Int_Tables_number   1
_chemical_formula_structural   RbNa2Mn3P4ClO14
_chemical_formula_sum   'Rb2 Na4 Mn6 P8 Cl2 O28'
_cell_volume   696.10260458
_cell_formula_units_Z   2
loop_
 _symmetry_equiv_pos_site_id
 _symmetry_equiv_pos_as_xyz
  1  'x, y, z'
loop_
 _atom_site_type_symbol
 _atom_site_label
 _atom_site_symmetry_multiplicity
 _atom_site_fract_x
 _atom_site_fract_y
 _atom_site_fract_z
 _atom_site_occupancy
  Rb  Rb0  1  0.50000000  0.50000000  0.50000000  1
  Rb  Rb1  1  0.50000000  0.00000000  -0.00000000  1
  Na  Na2  1  0.25434277  0.78761644  0.65326356  1
  Na  Na3  1  0.69522276  0.71238356  0.84673644  1
  Na  Na4  1  0.74565723  0.21238356  0.34673644  1
  Na  Na5  1  0.30477724  0.28761644  0.15326356  1
  Mn  Mn6  1  0.67088189  0.03128672  0.65527518  1
  Mn  Mn7  1  0.35744380  0.46871328  0.84472482  1
  Mn  Mn8  1  0.32911811  0.96871328  0.34472482  1
  Mn  Mn9  1  0.64255620  0.53128672  0.15527518  1
  Mn  Mn10  1  0.94757850  0.25000000  0.75000000  1
  Mn  Mn11  1  0.05242150  0.75000000  0.25000000  1
  P  P12  1  0.17357225  0.17804835  0.50700648  1
  P  P13  1  0.85862708  0.32195165  0.99299352  1
  P  P14  1  0.82642775  0.82195165  0.49299352  1
  P  P15  1  0.14137292  0.67804835  0.00700648  1
  P  P16  1  0.87675317  0.56608550  0.67075664  1
  P  P17  1  0.11359531  0.93391450  0.82924336  1
  P  P18  1  0.12324683  0.43391450  0.32924336  1
  P  P19  1  0.88640469  0.06608550  0.17075664  1
  Cl  Cl20  1  0.45812861  0.25000000  0.75000000  1
  Cl  Cl21  1  0.54187139  0.75000000  0.25000000  1
  O  O22  1  0.95457943  0.43583422  0.64579081  1
  O  O23  1  0.03620446  0.06416578  0.85420919  1
  O  O24  1  0.04542057  0.56416578  0.35420919  1
  O  O25  1  0.96379554  0.93583422  0.14579081  1
  O  O26  1  0.06138686  0.33305529  0.45126712  1
  O  O27  1  0.84570927  0.16694471  0.04873288  1
  O  O28  1  0.93861314  0.66694471  0.54873288  1
  O  O29  1  0.15429073  0.83305529  0.95126712  1
  O  O30  1  0.89628909  0.89749039  0.79018873  1
  O  O31  1  0.58396821  0.60250961  0.70981127  1
  O  O32  1  0.10371091  0.10250961  0.20981127  1
  O  O33  1  0.41603179  0.39749039  0.29018873  1
  O  O34  1  0.98858718  0.14755385  0.61591356  1
  O  O35  1  0.75205459  0.35244615  0.88408644  1
  O  O36  1  0.01141282  0.85244615  0.38408644  1
  O  O37  1  0.24794541  0.64755385  0.11591356  1
  O  O38  1  0.45879425  0.16343555  0.52293370  1
  O  O39  1  0.14516351  0.33656445  0.97706630  1
  O  O40  1  0.54120575  0.83656445  0.47706630  1
  O  O41  1  0.85483649  0.66343555  0.02293370  1
  O  O42  1  0.04813847  0.58572876  0.74356463  1
  O  O43  1  0.37743186  0.91427124  0.75643537  1
  O  O44  1  0.95186153  0.41427124  0.25643537  1
  O  O45  1  0.62256814  0.08572876  0.24356463  1
  O  O46  1  0.85945429  0.88992006  0.57235007  1
  O  O47  1  0.32172442  0.61007994  0.92764993  1
  O  O48  1  0.14054571  0.11007994  0.42764993  1
  O  O49  1  0.67827558  0.38992006  0.07235007  1
