# generated using pymatgen
data_Li11MnAs6
_symmetry_space_group_name_H-M   'P 1'
_cell_length_a   8.52909772
_cell_length_b   27.93614436
_cell_length_c   7.36569062
_cell_angle_alpha   28.43384426
_cell_angle_beta   54.62153004
_cell_angle_gamma   52.36609931
_symmetry_Int_Tables_number   1
_chemical_formula_structural   Li11MnAs6
_chemical_formula_sum   'Li22 Mn2 As12'
_cell_volume   657.64793220
_cell_formula_units_Z   2
loop_
 _symmetry_equiv_pos_site_id
 _symmetry_equiv_pos_as_xyz
  1  'x, y, z'
loop_
 _atom_site_type_symbol
 _atom_site_label
 _atom_site_symmetry_multiplicity
 _atom_site_fract_x
 _atom_site_fract_y
 _atom_site_fract_z
 _atom_site_occupancy
  Li  Li0  1  0.05276204  0.16766229  0.24049874  1
  Li  Li1  1  0.53504047  0.16724065  0.24936785  1
  Li  Li2  1  0.29641453  0.16999895  0.73792900  1
  Li  Li3  1  0.45228012  0.33275935  0.25280976  1
  Li  Li4  1  0.21641248  0.33000105  0.75792069  1
  Li  Li5  1  0.36708339  0.50000000  0.26583323  1
  Li  Li6  1  0.78500800  0.16995274  0.74075432  1
  Li  Li7  1  0.13209138  0.50000000  0.73581723  1
  Li  Li8  1  0.97042333  0.33233771  0.24647047  1
  Li  Li9  1  0.28609207  0.66766229  0.24049874  1
  Li  Li10  1  0.70495974  0.33004726  0.76046874  1
  Li  Li11  1  0.04442873  0.66995274  0.74075432  1
  Li  Li12  1  0.21387072  0.83275935  0.25280976  1
  Li  Li13  1  0.61868509  0.50000000  0.76262982  1
  Li  Li14  1  0.79663107  0.66724065  0.24936785  1
  Li  Li15  1  0.53566267  0.66999895  0.73792900  1
  Li  Li16  1  0.70375336  0.83233771  0.24647047  1
  Li  Li17  1  0.46438047  0.83004726  0.76046874  1
  Li  Li18  1  0.61708339  0.00000000  0.26583323  1
  Li  Li19  1  0.38209138  1.00000000  0.73581723  1
  Li  Li20  1  0.95566062  0.83000105  0.75792069  1
  Li  Li21  1  0.86868509  0.00000000  0.76262982  1
  Mn  Mn22  1  0.87623437  0.50000000  0.24753125  1
  Mn  Mn23  1  0.12623437  1.00000000  0.24753125  1
  As  As24  1  0.01249284  0.00020112  0.02842669  1
  As  As25  1  0.45847710  -0.00020112  0.02963343  1
  As  As26  1  0.42031023  0.16827385  0.99055969  1
  As  As27  1  0.33858308  0.33172615  0.00020080  1
  As  As28  1  0.93688845  0.14824431  0.03184220  1
  As  As29  1  0.20827598  0.50020112  0.02842669  1
  As  As30  1  0.16603667  0.66827385  0.99055969  1
  As  As31  1  0.83513176  0.35175569  0.92130608  1
  As  As32  1  0.76269396  0.49979888  0.02963343  1
  As  As33  1  0.08653741  0.85175569  0.92130608  1
  As  As34  1  0.68829410  0.64824431  0.03184220  1
  As  As35  1  0.58430952  0.83172615  0.00020080  1
