# generated using pymatgen
data_Na2Y2B2TeO10
_symmetry_space_group_name_H-M   'P 1'
_cell_length_a   6.38790189
_cell_length_b   6.81485670
_cell_length_c   10.07531851
_cell_angle_alpha   90.00000000
_cell_angle_beta   90.00000000
_cell_angle_gamma   104.23199752
_symmetry_Int_Tables_number   1
_chemical_formula_structural   Na2Y2B2TeO10
_chemical_formula_sum   'Na4 Y4 B4 Te2 O20'
_cell_volume   425.14359289
_cell_formula_units_Z   2
loop_
 _symmetry_equiv_pos_site_id
 _symmetry_equiv_pos_as_xyz
  1  'x, y, z'
loop_
 _atom_site_type_symbol
 _atom_site_label
 _atom_site_symmetry_multiplicity
 _atom_site_fract_x
 _atom_site_fract_y
 _atom_site_fract_z
 _atom_site_occupancy
  Na  Na0  1  0.41574185  0.33391527  0.11081961  1
  Na  Na1  1  0.58425815  0.16608473  0.61081961  1
  Na  Na2  1  0.58425815  0.66608473  0.88918039  1
  Na  Na3  1  0.41574185  0.83391527  0.38918039  1
  Y  Y4  1  0.87306798  0.47620554  0.33393874  1
  Y  Y5  1  0.12693202  0.02379446  0.83393874  1
  Y  Y6  1  0.12693202  0.52379446  0.66606126  1
  Y  Y7  1  0.87306798  0.97620554  0.16606126  1
  B  B8  1  0.66356383  0.12809982  0.89967108  1
  B  B9  1  0.33643617  0.37190018  0.39967108  1
  B  B10  1  0.33643617  0.87190018  0.10032892  1
  B  B11  1  0.66356383  0.62809982  0.60032892  1
  Te  Te12  1  0.00000000  0.50000000  0.00000000  1
  Te  Te13  1  0.00000000  0.00000000  0.50000000  1
  O  O14  1  0.51834653  0.44320504  0.32705822  1
  O  O15  1  0.48165347  0.05679496  0.82705822  1
  O  O16  1  0.48165347  0.55679496  0.67294178  1
  O  O17  1  0.51834653  0.94320504  0.17294178  1
  O  O18  1  0.00499730  0.32295779  0.15006790  1
  O  O19  1  0.99500270  0.17704221  0.65006790  1
  O  O20  1  0.99500270  0.67704221  0.84993210  1
  O  O21  1  0.00499730  0.82295779  0.34993210  1
  O  O22  1  0.70991996  0.33570063  0.93830852  1
  O  O23  1  0.29008004  0.16429937  0.43830852  1
  O  O24  1  0.29008004  0.66429937  0.06169148  1
  O  O25  1  0.70991996  0.83570063  0.56169148  1
  O  O26  1  0.20031519  0.49110442  0.43756726  1
  O  O27  1  0.79968481  0.00889558  0.93756726  1
  O  O28  1  0.79968481  0.50889558  0.56243274  1
  O  O29  1  0.20031519  0.99110442  0.06243274  1
  O  O30  1  0.16254591  0.36546411  0.88489583  1
  O  O31  1  0.83745409  0.13453589  0.38489583  1
  O  O32  1  0.83745409  0.63453589  0.11510417  1
  O  O33  1  0.16254591  0.86546411  0.61510417  1
