# generated using pymatgen
data_Sr3GaAs3
_symmetry_space_group_name_H-M   'P 1'
_cell_length_a   6.56193223
_cell_length_b   12.92205653
_cell_length_c   19.46619629
_cell_angle_alpha   90.00000000
_cell_angle_beta   90.00000000
_cell_angle_gamma   90.00000000
_symmetry_Int_Tables_number   1
_chemical_formula_structural   Sr3GaAs3
_chemical_formula_sum   'Sr24 Ga8 As24'
_cell_volume   1650.61001456
_cell_formula_units_Z   8
loop_
 _symmetry_equiv_pos_site_id
 _symmetry_equiv_pos_as_xyz
  1  'x, y, z'
loop_
 _atom_site_type_symbol
 _atom_site_label
 _atom_site_symmetry_multiplicity
 _atom_site_fract_x
 _atom_site_fract_y
 _atom_site_fract_z
 _atom_site_occupancy
  Sr  Sr0  1  0.22242465  0.51282774  0.57403232  1
  Sr  Sr1  1  0.27757535  0.01282774  0.92596768  1
  Sr  Sr2  1  0.77757535  0.48717226  0.07403232  1
  Sr  Sr3  1  0.72242465  0.98717226  0.42596768  1
  Sr  Sr4  1  0.77757535  0.48717226  0.42596768  1
  Sr  Sr5  1  0.72242465  0.98717226  0.07403232  1
  Sr  Sr6  1  0.22242465  0.51282774  0.92596768  1
  Sr  Sr7  1  0.27757535  0.01282774  0.57403232  1
  Sr  Sr8  1  0.19146029  0.76481066  0.07319593  1
  Sr  Sr9  1  0.30853971  0.26481066  0.42680407  1
  Sr  Sr10  1  0.80853971  0.23518934  0.57319593  1
  Sr  Sr11  1  0.69146029  0.73518934  0.92680407  1
  Sr  Sr12  1  0.80853971  0.23518934  0.92680407  1
  Sr  Sr13  1  0.69146029  0.73518934  0.57319593  1
  Sr  Sr14  1  0.19146029  0.76481066  0.42680407  1
  Sr  Sr15  1  0.30853971  0.26481066  0.07319593  1
  Sr  Sr16  1  0.81283476  0.76816741  0.25000000  1
  Sr  Sr17  1  0.68716524  0.26816741  0.25000000  1
  Sr  Sr18  1  0.18716524  0.23183259  0.75000000  1
  Sr  Sr19  1  0.31283476  0.73183259  0.75000000  1
  Sr  Sr20  1  0.33077343  0.98044636  0.25000000  1
  Sr  Sr21  1  0.16922657  0.48044636  0.25000000  1
  Sr  Sr22  1  0.66922657  0.01955364  0.75000000  1
  Sr  Sr23  1  0.83077343  0.51955364  0.75000000  1
  Ga  Ga24  1  0.48627907  0.62636497  0.16334465  1
  Ga  Ga25  1  0.01372093  0.12636497  0.33665535  1
  Ga  Ga26  1  0.51372093  0.37363503  0.66334465  1
  Ga  Ga27  1  0.98627907  0.87363503  0.83665535  1
  Ga  Ga28  1  0.51372093  0.37363503  0.83665535  1
  Ga  Ga29  1  0.98627907  0.87363503  0.66334465  1
  Ga  Ga30  1  0.48627907  0.62636497  0.33665535  1
  Ga  Ga31  1  0.01372093  0.12636497  0.16334465  1
  As  As32  1  0.28927033  0.73518317  0.25000000  1
  As  As33  1  0.21072967  0.23518317  0.25000000  1
  As  As34  1  0.71072967  0.26481683  0.75000000  1
  As  As35  1  0.78927033  0.76481683  0.75000000  1
  As  As36  1  0.68751015  0.51638875  0.25000000  1
  As  As37  1  0.81248985  0.01638875  0.25000000  1
  As  As38  1  0.31248985  0.48361125  0.75000000  1
  As  As39  1  0.18751015  0.98361125  0.75000000  1
  As  As40  1  0.26617989  0.51081502  0.08972518  1
  As  As41  1  0.23382011  0.01081502  0.41027482  1
  As  As42  1  0.73382011  0.48918498  0.58972518  1
  As  As43  1  0.76617989  0.98918498  0.91027482  1
  As  As44  1  0.73382011  0.48918498  0.91027482  1
  As  As45  1  0.76617989  0.98918498  0.58972518  1
  As  As46  1  0.26617989  0.51081502  0.41027482  1
  As  As47  1  0.23382011  0.01081502  0.08972518  1
  As  As48  1  0.20633308  0.75842917  0.58976237  1
  As  As49  1  0.29366692  0.25842917  0.91023763  1
  As  As50  1  0.79366692  0.24157083  0.08976237  1
  As  As51  1  0.70633308  0.74157083  0.41023763  1
  As  As52  1  0.79366692  0.24157083  0.41023763  1
  As  As53  1  0.70633308  0.74157083  0.08976237  1
  As  As54  1  0.20633308  0.75842917  0.91023763  1
  As  As55  1  0.29366692  0.25842917  0.58976237  1
