# generated using pymatgen
data_Gd3Te2NO
_symmetry_space_group_name_H-M   'P 1'
_cell_length_a   4.11670179
_cell_length_b   12.20745090
_cell_length_c   13.55362216
_cell_angle_alpha   90.00000000
_cell_angle_beta   90.00000000
_cell_angle_gamma   90.00000000
_symmetry_Int_Tables_number   1
_chemical_formula_structural   Gd3Te2NO
_chemical_formula_sum   'Gd12 Te8 N4 O4'
_cell_volume   681.12962347
_cell_formula_units_Z   4
loop_
 _symmetry_equiv_pos_site_id
 _symmetry_equiv_pos_as_xyz
  1  'x, y, z'
loop_
 _atom_site_type_symbol
 _atom_site_label
 _atom_site_symmetry_multiplicity
 _atom_site_fract_x
 _atom_site_fract_y
 _atom_site_fract_z
 _atom_site_occupancy
  Gd  Gd0  1  0.25000000  0.62131121  0.52164322  1
  Gd  Gd1  1  0.25000000  0.87868879  0.02164322  1
  Gd  Gd2  1  0.75000000  0.37868879  0.47835678  1
  Gd  Gd3  1  0.75000000  0.12131121  0.97835678  1
  Gd  Gd4  1  0.25000000  0.35114899  0.68870588  1
  Gd  Gd5  1  0.25000000  0.14885101  0.18870588  1
  Gd  Gd6  1  0.75000000  0.64885101  0.31129412  1
  Gd  Gd7  1  0.75000000  0.85114899  0.81129412  1
  Gd  Gd8  1  0.25000000  0.61384985  0.89502024  1
  Gd  Gd9  1  0.25000000  0.88615015  0.39502024  1
  Gd  Gd10  1  0.75000000  0.38615015  0.10497976  1
  Gd  Gd11  1  0.75000000  0.11384985  0.60497976  1
  Te  Te12  1  0.25000000  0.07202484  0.77196107  1
  Te  Te13  1  0.25000000  0.42797516  0.27196107  1
  Te  Te14  1  0.75000000  0.92797516  0.22803893  1
  Te  Te15  1  0.75000000  0.57202484  0.72803893  1
  Te  Te16  1  0.25000000  0.34767170  0.93411865  1
  Te  Te17  1  0.25000000  0.15232830  0.43411865  1
  Te  Te18  1  0.75000000  0.65232830  0.06588135  1
  Te  Te19  1  0.75000000  0.84767170  0.56588135  1
  N  N20  1  0.25000000  0.78890914  0.86974127  1
  N  N21  1  0.25000000  0.71109086  0.36974127  1
  N  N22  1  0.75000000  0.21109086  0.13025873  1
  N  N23  1  0.75000000  0.28890914  0.63025873  1
  O  O24  1  0.25000000  0.43301588  0.54051687  1
  O  O25  1  0.25000000  0.06698412  0.04051687  1
  O  O26  1  0.75000000  0.56698412  0.45948313  1
  O  O27  1  0.75000000  0.93301588  0.95948313  1
