# generated using pymatgen
data_Sm3(GeRu)2
_symmetry_space_group_name_H-M   'P 1'
_cell_length_a   5.68525931
_cell_length_b   7.92410299
_cell_length_c   13.62692088
_cell_angle_alpha   90.00000000
_cell_angle_beta   90.00000000
_cell_angle_gamma   90.00000000
_symmetry_Int_Tables_number   1
_chemical_formula_structural   Sm3(GeRu)2
_chemical_formula_sum   'Sm12 Ge8 Ru8'
_cell_volume   613.90069331
_cell_formula_units_Z   4
loop_
 _symmetry_equiv_pos_site_id
 _symmetry_equiv_pos_as_xyz
  1  'x, y, z'
loop_
 _atom_site_type_symbol
 _atom_site_label
 _atom_site_symmetry_multiplicity
 _atom_site_fract_x
 _atom_site_fract_y
 _atom_site_fract_z
 _atom_site_occupancy
  Sm  Sm0  1  0.15194355  0.40205378  0.59884587  1
  Sm  Sm1  1  0.84805645  0.59794622  0.09884587  1
  Sm  Sm2  1  0.15194355  0.09794622  0.40115413  1
  Sm  Sm3  1  0.84805645  0.90205378  0.90115413  1
  Sm  Sm4  1  0.84805645  0.59794622  0.40115413  1
  Sm  Sm5  1  0.15194355  0.40205378  0.90115413  1
  Sm  Sm6  1  0.84805645  0.90205378  0.59884587  1
  Sm  Sm7  1  0.15194355  0.09794622  0.09884587  1
  Sm  Sm8  1  0.63086913  0.26293700  0.75000000  1
  Sm  Sm9  1  0.36913087  0.73706300  0.25000000  1
  Sm  Sm10  1  0.63086913  0.23706300  0.25000000  1
  Sm  Sm11  1  0.36913087  0.76293700  0.75000000  1
  Ge  Ge12  1  0.13505006  0.11175682  0.75000000  1
  Ge  Ge13  1  0.86494994  0.88824318  0.25000000  1
  Ge  Ge14  1  0.13505006  0.38824318  0.25000000  1
  Ge  Ge15  1  0.86494994  0.61175682  0.75000000  1
  Ge  Ge16  1  0.61726620  0.25000000  0.50000000  1
  Ge  Ge17  1  0.38273380  0.75000000  -0.00000000  1
  Ge  Ge18  1  0.38273380  0.75000000  0.50000000  1
  Ge  Ge19  1  0.61726620  0.25000000  -0.00000000  1
  Ru  Ru20  1  0.35249650  0.03217053  0.59071703  1
  Ru  Ru21  1  0.64750350  0.96782947  0.09071703  1
  Ru  Ru22  1  0.35249650  0.46782947  0.40928297  1
  Ru  Ru23  1  0.64750350  0.53217053  0.90928297  1
  Ru  Ru24  1  0.64750350  0.96782947  0.40928297  1
  Ru  Ru25  1  0.35249650  0.03217053  0.90928297  1
  Ru  Ru26  1  0.64750350  0.53217053  0.59071703  1
  Ru  Ru27  1  0.35249650  0.46782947  0.09071703  1
