# generated using pymatgen
data_BiTeNO6
_symmetry_space_group_name_H-M   'P 1'
_cell_length_a   7.57932469
_cell_length_b   8.29509332
_cell_length_c   9.21654480
_cell_angle_alpha   90.00000000
_cell_angle_beta   90.00000000
_cell_angle_gamma   114.74282063
_symmetry_Int_Tables_number   1
_chemical_formula_structural   BiTeNO6
_chemical_formula_sum   'Bi4 Te4 N4 O24'
_cell_volume   526.25875399
_cell_formula_units_Z   4
loop_
 _symmetry_equiv_pos_site_id
 _symmetry_equiv_pos_as_xyz
  1  'x, y, z'
loop_
 _atom_site_type_symbol
 _atom_site_label
 _atom_site_symmetry_multiplicity
 _atom_site_fract_x
 _atom_site_fract_y
 _atom_site_fract_z
 _atom_site_occupancy
  Bi  Bi0  1  0.52968349  0.69636605  0.29623623  1
  Bi  Bi1  1  0.97031651  0.30363395  0.79623623  1
  Bi  Bi2  1  0.47031651  0.30363395  0.70376377  1
  Bi  Bi3  1  0.02968349  0.69636605  0.20376377  1
  Te  Te4  1  0.11000539  0.34690713  0.41066248  1
  Te  Te5  1  0.38999461  0.65309287  0.91066248  1
  Te  Te6  1  0.88999461  0.65309287  0.58933752  1
  Te  Te7  1  0.61000539  0.34690713  0.08933752  1
  N  N8  1  0.62794766  0.94902825  0.61388700  1
  N  N9  1  0.87205234  0.05097175  0.11388700  1
  N  N10  1  0.37205234  0.05097175  0.38611300  1
  N  N11  1  0.12794766  0.94902825  0.88611300  1
  O  O12  1  0.19436502  0.35542795  0.60803861  1
  O  O13  1  0.30563498  0.64457205  0.10803861  1
  O  O14  1  0.80563498  0.64457205  0.39196139  1
  O  O15  1  0.69436502  0.35542795  0.89196139  1
  O  O16  1  0.15181780  0.59295777  0.39118585  1
  O  O17  1  0.34818220  0.40704223  0.89118585  1
  O  O18  1  0.84818220  0.40704223  0.60881415  1
  O  O19  1  0.65181780  0.59295777  0.10881415  1
  O  O20  1  0.36226551  0.40544126  0.33476183  1
  O  O21  1  0.13773449  0.59455874  0.83476183  1
  O  O22  1  0.63773449  0.59455874  0.66523817  1
  O  O23  1  0.86226551  0.40544126  0.16523817  1
  O  O24  1  0.87512109  0.95563991  0.22378583  1
  O  O25  1  0.62487891  0.04436009  0.72378583  1
  O  O26  1  0.12487891  0.04436009  0.77621417  1
  O  O27  1  0.37512109  0.95563991  0.27621417  1
  O  O28  1  0.47075597  0.82776316  0.57152117  1
  O  O29  1  0.02924403  0.17223684  0.07152117  1
  O  O30  1  0.52924403  0.17223684  0.42847883  1
  O  O31  1  0.97075597  0.82776316  0.92847883  1
  O  O32  1  0.21239391  0.02209215  0.44665042  1
  O  O33  1  0.28760609  0.97790785  0.94665042  1
  O  O34  1  0.78760609  0.97790785  0.55334958  1
  O  O35  1  0.71239391  0.02209215  0.05334958  1
