# generated using pymatgen
data_AgBi(IO3)4
_symmetry_space_group_name_H-M   'P 1'
_cell_length_a   5.68865633
_cell_length_b   12.88148184
_cell_length_c   16.32565425
_cell_angle_alpha   90.60028189
_cell_angle_beta   100.03352916
_cell_angle_gamma   90.00000000
_symmetry_Int_Tables_number   1
_chemical_formula_structural   AgBi(IO3)4
_chemical_formula_sum   'Ag4 Bi4 I16 O48'
_cell_volume   1177.95338656
_cell_formula_units_Z   4
loop_
 _symmetry_equiv_pos_site_id
 _symmetry_equiv_pos_as_xyz
  1  'x, y, z'
loop_
 _atom_site_type_symbol
 _atom_site_label
 _atom_site_symmetry_multiplicity
 _atom_site_fract_x
 _atom_site_fract_y
 _atom_site_fract_z
 _atom_site_occupancy
  Ag  Ag0  1  0.42683120  0.28351865  0.27381577  1
  Ag  Ag1  1  0.84698456  0.78351865  0.27381577  1
  Ag  Ag2  1  0.29883170  0.87074334  0.12821301  1
  Ag  Ag3  1  0.82938131  0.37074334  0.12821301  1
  Bi  Bi4  1  0.23504724  0.16467118  0.03981149  1
  Bi  Bi5  1  0.80476425  0.66467118  0.03981149  1
  Bi  Bi6  1  0.04344452  0.16574833  0.45404241  1
  Bi  Bi7  1  0.41059789  0.66574833  0.45404241  1
  I  I8  1  0.68255996  0.25790433  0.88866909  1
  I  I9  1  0.20610913  0.75790433  0.88866909  1
  I  I10  1  0.08962648  0.02641023  0.81044953  1
  I  I11  1  0.72082305  0.52641023  0.81044953  1
  I  I12  1  0.70080866  0.95658613  0.00359241  1
  I  I13  1  0.30278375  0.45658613  0.00359241  1
  I  I14  1  0.85065527  0.12469749  0.21275786  1
  I  I15  1  0.36210259  0.62469749  0.21275786  1
  I  I16  1  0.36478491  0.96305207  0.32935124  1
  I  I17  1  0.96456634  0.46305207  0.32935124  1
  I  I18  1  0.57134453  0.06760473  0.60853572  1
  I  I19  1  0.03719119  0.56760473  0.60853572  1
  I  I20  1  0.16577668  0.29813379  0.68650515  1
  I  I21  1  0.52072847  0.79813379  0.68650515  1
  I  I22  1  0.54674578  0.37124190  0.49109006  1
  I  I23  1  0.94434428  0.87124190  0.49109006  1
  O  O24  1  0.92439765  0.28815772  0.97841590  1
  O  O25  1  0.05401825  0.78815772  0.97841590  1
  O  O26  1  0.49656222  0.37312339  0.89646638  1
  O  O27  1  0.39990416  0.87312339  0.89646638  1
  O  O28  1  0.51634790  0.16203267  0.94030795  1
  O  O29  1  0.42396006  0.66203267  0.94030795  1
  O  O30  1  0.01190799  0.08735093  0.90576096  1
  O  O31  1  0.89385298  0.58735093  0.90576096  1
  O  O32  1  0.89072376  0.10600082  0.73618939  1
  O  O33  1  0.84546563  0.60600082  0.73618939  1
  O  O34  1  0.91510199  0.90705528  0.80885483  1
  O  O35  1  0.89375285  0.40705528  0.80885483  1
  O  O36  1  0.93369327  0.03192365  0.07400372  1
  O  O37  1  0.14031046  0.53192365  0.07400372  1
  O  O38  1  0.43581602  0.00109115  0.04542648  1
  O  O39  1  0.60961046  0.50109115  0.04542648  1
  O  O40  1  0.70746487  0.83970071  0.06718031  1
  O  O41  1  0.35971545  0.33970071  0.06718031  1
  O  O42  1  0.05963815  0.21079529  0.16795837  1
  O  O43  1  0.10832021  0.71079529  0.16795837  1
  O  O44  1  0.57572749  0.18468717  0.15618948  1
  O  O45  1  0.58046199  0.68468717  0.15618948  1
  O  O46  1  0.82678361  0.20043274  0.30875289  1
  O  O47  1  0.48196928  0.70043274  0.30875289  1
  O  O48  1  0.26875870  0.09961453  0.33791824  1
  O  O49  1  0.06915954  0.59961453  0.33791824  1
  O  O50  1  0.57672758  0.97247977  0.25738645  1
  O  O51  1  0.68065887  0.47247977  0.25738645  1
  O  O52  1  0.11514209  0.91714323  0.25045422  1
  O  O53  1  0.13531214  0.41714323  0.25045422  1
  O  O54  1  0.32377165  0.03970870  0.52020705  1
  O  O55  1  0.19643540  0.53970870  0.52020705  1
  O  O56  1  0.74039737  0.94754175  0.59881033  1
  O  O57  1  0.85841296  0.44754175  0.59881033  1
  O  O58  1  0.74033945  0.16053951  0.55687082  1
  O  O59  1  0.81653138  0.66053951  0.55687082  1
  O  O60  1  0.24385426  0.24205319  0.58953837  1
  O  O61  1  0.34568412  0.74205319  0.58953837  1
  O  O62  1  0.36420508  0.21549794  0.75879387  1
  O  O63  1  0.39458879  0.71549794  0.75879387  1
  O  O64  1  0.34087344  0.41732459  0.69198894  1
  O  O65  1  0.35111551  0.91732459  0.69198894  1
  O  O66  1  0.30212309  0.30081707  0.42034558  1
  O  O67  1  0.11822249  0.80081707  0.42034558  1
  O  O68  1  0.79245064  0.31641912  0.44687478  1
  O  O69  1  0.65442414  0.81641912  0.44687478  1
  O  O70  1  0.53730476  0.48930689  0.42823893  1
  O  O71  1  0.89093416  0.98930689  0.42823893  1
