# generated using pymatgen
data_AlSb2(SeCl2)2
_symmetry_space_group_name_H-M   'P 1'
_cell_length_a   9.42794213
_cell_length_b   11.58600776
_cell_length_c   11.92810660
_cell_angle_alpha   67.99259883
_cell_angle_beta   78.15824569
_cell_angle_gamma   72.81011133
_symmetry_Int_Tables_number   1
_chemical_formula_structural   AlSb2(SeCl2)2
_chemical_formula_sum   'Al4 Sb8 Se8 Cl16'
_cell_volume   1147.45326558
_cell_formula_units_Z   4
loop_
 _symmetry_equiv_pos_site_id
 _symmetry_equiv_pos_as_xyz
  1  'x, y, z'
loop_
 _atom_site_type_symbol
 _atom_site_label
 _atom_site_symmetry_multiplicity
 _atom_site_fract_x
 _atom_site_fract_y
 _atom_site_fract_z
 _atom_site_occupancy
  Al  Al0  1  0.81188182  0.31817693  0.54330794  1
  Al  Al1  1  0.18811818  0.68182307  0.45669206  1
  Al  Al2  1  0.89246803  0.81608158  0.02273525  1
  Al  Al3  1  0.10753197  0.18391842  0.97726475  1
  Sb  Sb4  1  0.34517690  0.98766342  0.42895380  1
  Sb  Sb5  1  0.65482310  0.01233658  0.57104620  1
  Sb  Sb6  1  0.55986347  0.62985179  0.66581201  1
  Sb  Sb7  1  0.44013653  0.37014821  0.33418799  1
  Sb  Sb8  1  0.56453817  0.85322182  0.82399456  1
  Sb  Sb9  1  0.43546183  0.14677818  0.17600544  1
  Sb  Sb10  1  0.70580983  0.44108701  0.00588978  1
  Sb  Sb11  1  0.29419017  0.55891299  0.99411022  1
  Se  Se12  1  0.62278969  0.85131951  0.46721230  1
  Se  Se13  1  0.37721031  0.14868049  0.53278770  1
  Se  Se14  1  0.34942182  0.78402933  0.76397894  1
  Se  Se15  1  0.65057818  0.21597067  0.23602106  1
  Se  Se16  1  0.75992238  0.65267973  0.77894454  1
  Se  Se17  1  0.24007762  0.34732027  0.22105546  1
  Se  Se18  1  0.51129129  0.40131629  0.90170856  1
  Se  Se19  1  0.48870871  0.59868371  0.09829144  1
  Cl  Cl20  1  0.73587461  0.44592935  0.37051047  1
  Cl  Cl21  1  0.26412539  0.55407065  0.62948953  1
  Cl  Cl22  1  0.62398966  0.24382573  0.65638723  1
  Cl  Cl23  1  0.37601034  0.75617427  0.34361277  1
  Cl  Cl24  1  0.87528309  0.42495189  0.63075791  1
  Cl  Cl25  1  0.12471691  0.57504811  0.36924209  1
  Cl  Cl26  1  0.98966196  0.16176783  0.51985963  1
  Cl  Cl27  1  0.01033804  0.83823217  0.48014037  1
  Cl  Cl28  1  0.89234338  0.61669050  0.07043067  1
  Cl  Cl29  1  0.10765662  0.38330950  0.92956933  1
  Cl  Cl30  1  0.87526898  0.90654283  0.82896917  1
  Cl  Cl31  1  0.12473102  0.09345717  0.17103083  1
  Cl  Cl32  1  0.10568141  0.81942431  0.05859821  1
  Cl  Cl33  1  0.89431859  0.18057569  0.94140179  1
  Cl  Cl34  1  0.70522619  0.90276736  0.12493526  1
  Cl  Cl35  1  0.29477381  0.09723264  0.87506474  1
