# generated using pymatgen
data_Na2Ho2B2TeO10
_symmetry_space_group_name_H-M   'P 1'
_cell_length_a   6.34935704
_cell_length_b   6.77806044
_cell_length_c   10.01171352
_cell_angle_alpha   90.00000000
_cell_angle_beta   90.00000000
_cell_angle_gamma   104.06792462
_symmetry_Int_Tables_number   1
_chemical_formula_structural   Na2Ho2B2TeO10
_chemical_formula_sum   'Na4 Ho4 B4 Te2 O20'
_cell_volume   417.94489598
_cell_formula_units_Z   2
loop_
 _symmetry_equiv_pos_site_id
 _symmetry_equiv_pos_as_xyz
  1  'x, y, z'
loop_
 _atom_site_type_symbol
 _atom_site_label
 _atom_site_symmetry_multiplicity
 _atom_site_fract_x
 _atom_site_fract_y
 _atom_site_fract_z
 _atom_site_occupancy
  Na  Na0  1  0.41531933  0.33356596  0.11111268  1
  Na  Na1  1  0.58468067  0.16643404  0.61111268  1
  Na  Na2  1  0.58468067  0.66643404  0.88888732  1
  Na  Na3  1  0.41531933  0.83356596  0.38888732  1
  Ho  Ho4  1  0.87246772  0.47691508  0.33403701  1
  Ho  Ho5  1  0.12753228  0.02308492  0.83403701  1
  Ho  Ho6  1  0.12753228  0.52308492  0.66596299  1
  Ho  Ho7  1  0.87246772  0.97691508  0.16596299  1
  B  B8  1  0.66395182  0.12734007  0.90009308  1
  B  B9  1  0.33604818  0.37265993  0.40009308  1
  B  B10  1  0.33604818  0.87265993  0.09990692  1
  B  B11  1  0.66395182  0.62734007  0.59990692  1
  Te  Te12  1  0.00000000  0.50000000  0.00000000  1
  Te  Te13  1  0.00000000  0.00000000  0.50000000  1
  O  O14  1  0.51871336  0.44400772  0.32737394  1
  O  O15  1  0.48128664  0.05599228  0.82737394  1
  O  O16  1  0.48128664  0.55599228  0.67262606  1
  O  O17  1  0.51871336  0.94400772  0.17262606  1
  O  O18  1  0.00414939  0.32227308  0.15123484  1
  O  O19  1  0.99585061  0.17772692  0.65123484  1
  O  O20  1  0.99585061  0.67772692  0.84876516  1
  O  O21  1  0.00414939  0.82227308  0.34876516  1
  O  O22  1  0.70891187  0.33596785  0.93830051  1
  O  O23  1  0.29108813  0.16403215  0.43830051  1
  O  O24  1  0.29108813  0.66403215  0.06169949  1
  O  O25  1  0.70891187  0.83596785  0.56169949  1
  O  O26  1  0.19843917  0.49112650  0.43861341  1
  O  O27  1  0.80156083  0.00887350  0.93861341  1
  O  O28  1  0.80156083  0.50887350  0.56138659  1
  O  O29  1  0.19843917  0.99112650  0.06138659  1
  O  O30  1  0.16170214  0.36362215  0.88369089  1
  O  O31  1  0.83829786  0.13637785  0.38369089  1
  O  O32  1  0.83829786  0.63637785  0.11630911  1
  O  O33  1  0.16170214  0.86362215  0.61630911  1
