# generated using pymatgen
data_BaYFeO4
_symmetry_space_group_name_H-M   'P 1'
_cell_length_a   5.75935924
_cell_length_b   10.38314079
_cell_length_c   13.35618319
_cell_angle_alpha   90.00000000
_cell_angle_beta   90.00000000
_cell_angle_gamma   90.00000000
_symmetry_Int_Tables_number   1
_chemical_formula_structural   BaYFeO4
_chemical_formula_sum   'Ba8 Y8 Fe8 O32'
_cell_volume   798.70293152
_cell_formula_units_Z   8
loop_
 _symmetry_equiv_pos_site_id
 _symmetry_equiv_pos_as_xyz
  1  'x, y, z'
loop_
 _atom_site_type_symbol
 _atom_site_label
 _atom_site_symmetry_multiplicity
 _atom_site_fract_x
 _atom_site_fract_y
 _atom_site_fract_z
 _atom_site_occupancy
  Ba  Ba0  1  0.25000000  0.82634103  0.71252756  1
  Ba  Ba1  1  0.25000000  0.67365897  0.21252756  1
  Ba  Ba2  1  0.75000000  0.17365897  0.28747244  1
  Ba  Ba3  1  0.75000000  0.32634103  0.78747244  1
  Ba  Ba4  1  0.25000000  0.10295711  0.91581134  1
  Ba  Ba5  1  0.25000000  0.39704289  0.41581134  1
  Ba  Ba6  1  0.75000000  0.89704289  0.08418866  1
  Ba  Ba7  1  0.75000000  0.60295711  0.58418866  1
  Y  Y8  1  0.25000000  0.48546615  0.91535196  1
  Y  Y9  1  0.25000000  0.01453385  0.41535196  1
  Y  Y10  1  0.75000000  0.51453385  0.08464804  1
  Y  Y11  1  0.75000000  0.98546615  0.58464804  1
  Y  Y12  1  0.25000000  0.19038052  0.64326316  1
  Y  Y13  1  0.25000000  0.30961948  0.14326316  1
  Y  Y14  1  0.75000000  0.80961948  0.35673684  1
  Y  Y15  1  0.75000000  0.69038052  0.85673684  1
  Fe  Fe16  1  0.25000000  0.78320139  0.96912637  1
  Fe  Fe17  1  0.25000000  0.71679861  0.46912637  1
  Fe  Fe18  1  0.75000000  0.21679861  0.03087363  1
  Fe  Fe19  1  0.75000000  0.28320139  0.53087363  1
  Fe  Fe20  1  0.25000000  0.47688961  0.69249337  1
  Fe  Fe21  1  0.25000000  0.02311039  0.19249337  1
  Fe  Fe22  1  0.75000000  0.52311039  0.30750663  1
  Fe  Fe23  1  0.75000000  0.97688961  0.80750663  1
  O  O24  1  0.25000000  0.88146628  0.08831937  1
  O  O25  1  0.25000000  0.61853372  0.58831937  1
  O  O26  1  0.75000000  0.11853372  0.91168063  1
  O  O27  1  0.75000000  0.38146628  0.41168063  1
  O  O28  1  0.25000000  0.31895529  0.79036614  1
  O  O29  1  0.25000000  0.18104471  0.29036614  1
  O  O30  1  0.75000000  0.68104471  0.20963386  1
  O  O31  1  0.75000000  0.81895529  0.70963386  1
  O  O32  1  0.50966475  0.13963932  0.50703590  1
  O  O33  1  0.99033525  0.36036068  0.00703590  1
  O  O34  1  0.00966475  0.86036068  0.49296410  1
  O  O35  1  0.49033525  0.63963932  0.99296410  1
  O  O36  1  0.49033525  0.86036068  0.49296410  1
  O  O37  1  0.00966475  0.63963932  0.99296410  1
  O  O38  1  0.99033525  0.13963932  0.50703590  1
  O  O39  1  0.50966475  0.36036068  0.00703590  1
  O  O40  1  0.51000246  0.05801723  0.71720598  1
  O  O41  1  0.98999754  0.44198277  0.21720598  1
  O  O42  1  0.01000246  0.94198277  0.28279402  1
  O  O43  1  0.48999754  0.55801723  0.78279402  1
  O  O44  1  0.48999754  0.94198277  0.28279402  1
  O  O45  1  0.01000246  0.55801723  0.78279402  1
  O  O46  1  0.98999754  0.05801723  0.71720598  1
  O  O47  1  0.51000246  0.44198277  0.21720598  1
  O  O48  1  0.99911825  0.36780715  0.61113525  1
  O  O49  1  0.50088175  0.13219285  0.11113525  1
  O  O50  1  0.49911825  0.63219285  0.38886475  1
  O  O51  1  0.00088175  0.86780715  0.88886475  1
  O  O52  1  0.00088175  0.63219285  0.38886475  1
  O  O53  1  0.49911825  0.86780715  0.88886475  1
  O  O54  1  0.50088175  0.36780715  0.61113525  1
  O  O55  1  0.99911825  0.13219285  0.11113525  1
