# generated using pymatgen
data_Tl4PbSe3
_symmetry_space_group_name_H-M   'P 1'
_cell_length_a   8.63346661
_cell_length_b   8.63346661
_cell_length_c   13.24985168
_cell_angle_alpha   90.00000000
_cell_angle_beta   90.00000000
_cell_angle_gamma   90.00000000
_symmetry_Int_Tables_number   1
_chemical_formula_structural   Tl4PbSe3
_chemical_formula_sum   'Tl16 Pb4 Se12'
_cell_volume   987.60082531
_cell_formula_units_Z   4
loop_
 _symmetry_equiv_pos_site_id
 _symmetry_equiv_pos_as_xyz
  1  'x, y, z'
loop_
 _atom_site_type_symbol
 _atom_site_label
 _atom_site_symmetry_multiplicity
 _atom_site_fract_x
 _atom_site_fract_y
 _atom_site_fract_z
 _atom_site_occupancy
  Tl  Tl0  1  0.07839998  0.63121443  0.40320746  1
  Tl  Tl1  1  0.42160002  0.63121443  0.90320746  1
  Tl  Tl2  1  0.07839998  0.86878557  0.90320746  1
  Tl  Tl3  1  0.42160002  0.86878557  0.40320746  1
  Tl  Tl4  1  0.63121443  0.07839998  0.90320746  1
  Tl  Tl5  1  0.86878557  0.07839998  0.40320746  1
  Tl  Tl6  1  0.63121443  0.42160002  0.40320746  1
  Tl  Tl7  1  0.86878557  0.42160002  0.90320746  1
  Tl  Tl8  1  0.92160002  0.36878557  0.59679254  1
  Tl  Tl9  1  0.57839998  0.36878557  0.09679254  1
  Tl  Tl10  1  0.92160002  0.13121443  0.09679254  1
  Tl  Tl11  1  0.57839998  0.13121443  0.59679254  1
  Tl  Tl12  1  0.36878557  0.92160002  0.09679254  1
  Tl  Tl13  1  0.13121443  0.92160002  0.59679254  1
  Tl  Tl14  1  0.36878557  0.57839998  0.59679254  1
  Tl  Tl15  1  0.13121443  0.57839998  0.09679254  1
  Pb  Pb16  1  0.75000000  0.75000000  0.21094694  1
  Pb  Pb17  1  0.75000000  0.75000000  0.71094694  1
  Pb  Pb18  1  0.25000000  0.25000000  0.78905306  1
  Pb  Pb19  1  0.25000000  0.25000000  0.28905306  1
  Se  Se20  1  0.75000000  0.75000000  0.49360344  1
  Se  Se21  1  0.75000000  0.75000000  0.99360344  1
  Se  Se22  1  0.25000000  0.25000000  0.50639656  1
  Se  Se23  1  0.25000000  0.25000000  0.00639656  1
  Se  Se24  1  0.07838967  0.92161033  0.25000000  1
  Se  Se25  1  0.42161033  0.92161033  0.75000000  1
  Se  Se26  1  0.07838967  0.57838967  0.75000000  1
  Se  Se27  1  0.42161033  0.57838967  0.25000000  1
  Se  Se28  1  0.92161033  0.07838967  0.75000000  1
  Se  Se29  1  0.57838967  0.07838967  0.25000000  1
  Se  Se30  1  0.92161033  0.42161033  0.25000000  1
  Se  Se31  1  0.57838967  0.42161033  0.75000000  1
