# generated using pymatgen
data_KP2H4PtO9
_symmetry_space_group_name_H-M   'P 1'
_cell_length_a   8.04261622
_cell_length_b   8.10744972
_cell_length_c   14.02097293
_cell_angle_alpha   81.57704636
_cell_angle_beta   80.83326363
_cell_angle_gamma   64.93419092
_symmetry_Int_Tables_number   1
_chemical_formula_structural   KP2H4PtO9
_chemical_formula_sum   'K4 P8 H16 Pt4 O36'
_cell_volume   814.36597564
_cell_formula_units_Z   4
loop_
 _symmetry_equiv_pos_site_id
 _symmetry_equiv_pos_as_xyz
  1  'x, y, z'
loop_
 _atom_site_type_symbol
 _atom_site_label
 _atom_site_symmetry_multiplicity
 _atom_site_fract_x
 _atom_site_fract_y
 _atom_site_fract_z
 _atom_site_occupancy
  K  K0  1  0.88654848  0.35086020  0.36773469  1
  K  K1  1  0.11345152  0.64913980  0.63226531  1
  K  K2  1  0.60475964  0.19428605  0.09348652  1
  K  K3  1  0.39524036  0.80571395  0.90651348  1
  P  P4  1  0.35811312  0.30564058  0.36310283  1
  P  P5  1  0.64188688  0.69435942  0.63689717  1
  P  P6  1  0.14337804  0.11498996  0.60752530  1
  P  P7  1  0.85662196  0.88501004  0.39247470  1
  P  P8  1  0.30790975  0.37604020  0.85606841  1
  P  P9  1  0.69209025  0.62395980  0.14393159  1
  P  P10  1  0.11098864  0.13633931  0.09042337  1
  P  P11  1  0.88901136  0.86366069  0.90957663  1
  H  H12  1  0.45040660  0.69907375  0.31331639  1
  H  H13  1  0.54959340  0.30092625  0.68668361  1
  H  H14  1  0.23920400  0.82948354  0.34817473  1
  H  H15  1  0.76079600  0.17051646  0.65182527  1
  H  H16  1  0.55205418  0.39818117  0.26382902  1
  H  H17  1  0.44794582  0.60181883  0.73617098  1
  H  H18  1  0.93275113  0.39205938  0.58991861  1
  H  H19  1  0.06724887  0.60794062  0.41008139  1
  H  H20  1  0.77773037  0.27026473  0.86307038  1
  H  H21  1  0.22226963  0.72973527  0.13692962  1
  H  H22  1  0.78915879  0.43238341  0.78203990  1
  H  H23  1  0.21084121  0.56761659  0.21796010  1
  H  H24  1  0.54641928  0.11808031  0.89020749  1
  H  H25  1  0.45358072  0.88191969  0.10979251  1
  H  H26  1  0.96270051  0.05321971  0.22754078  1
  H  H27  1  0.03729949  0.94678029  0.77245922  1
  Pt  Pt28  1  0.45626832  0.90788900  0.45111695  1
  Pt  Pt29  1  0.54373168  0.09211100  0.54888305  1
  Pt  Pt30  1  0.90745143  0.46699235  0.94646831  1
  Pt  Pt31  1  0.09254857  0.53300765  0.05353169  1
  O  O32  1  0.36214709  0.75576479  0.37094401  1
  O  O33  1  0.63785291  0.24423521  0.62905599  1
  O  O34  1  0.31892824  0.13283833  0.36367881  1
  O  O35  1  0.68107176  0.86716167  0.63632119  1
  O  O36  1  0.52862936  0.28215873  0.28293695  1
  O  O37  1  0.47137064  0.71784127  0.71706305  1
  O  O38  1  0.18989834  0.47514456  0.33324644  1
  O  O39  1  0.81010166  0.52485544  0.66675356  1
  O  O40  1  0.40784919  0.32367498  0.46322114  1
  O  O41  1  0.59215081  0.67632502  0.53677886  1
  O  O42  1  0.21765405  0.95482038  0.54056642  1
  O  O43  1  0.78234595  0.04517962  0.45943358  1
  O  O44  1  0.02241565  0.29477390  0.54503192  1
  O  O45  1  0.97758435  0.70522610  0.45496808  1
  O  O46  1  0.01326440  0.08199869  0.69239593  1
  O  O47  1  0.98673560  0.91800131  0.30760407  1
  O  O48  1  0.30493092  0.14368024  0.64097345  1
  O  O49  1  0.69506908  0.85631976  0.35902655  1
  O  O50  1  0.75246042  0.40242150  0.85267673  1
  O  O51  1  0.24753958  0.59757850  0.14732327  1
  O  O52  1  0.10928379  0.41732700  0.83495937  1
  O  O53  1  0.89071621  0.58267300  0.16504063  1
  O  O54  1  0.30629525  0.47955315  0.94305138  1
  O  O55  1  0.69370475  0.52044685  0.05694862  1
  O  O56  1  0.40837877  0.16279544  0.88221121  1
  O  O57  1  0.59162123  0.83720456  0.11778879  1
  O  O58  1  0.40708405  0.43335488  0.76391943  1
  O  O59  1  0.59291595  0.56664512  0.23608057  1
  O  O60  1  0.02390914  0.19600666  0.99187750  1
  O  O61  1  0.97609086  0.80399334  0.00812250  1
  O  O62  1  0.25237646  0.93833617  0.09334297  1
  O  O63  1  0.74762354  0.06166383  0.90665703  1
  O  O64  1  0.20788697  0.26267219  0.10448890  1
  O  O65  1  0.79211303  0.73732781  0.89551110  1
  O  O66  1  0.94482946  0.16016574  0.17186981  1
  O  O67  1  0.05517054  0.83983426  0.82813019  1
