# generated using pymatgen
data_BaB4(SbO6)2
_symmetry_space_group_name_H-M   'P 1'
_cell_length_a   6.94727922
_cell_length_b   6.94727922
_cell_length_c   11.27253696
_cell_angle_alpha   96.49948737
_cell_angle_beta   96.49948737
_cell_angle_gamma   118.92915922
_symmetry_Int_Tables_number   1
_chemical_formula_structural   BaB4(SbO6)2
_chemical_formula_sum   'Ba2 B8 Sb4 O24'
_cell_volume   464.20790641
_cell_formula_units_Z   2
loop_
 _symmetry_equiv_pos_site_id
 _symmetry_equiv_pos_as_xyz
  1  'x, y, z'
loop_
 _atom_site_type_symbol
 _atom_site_label
 _atom_site_symmetry_multiplicity
 _atom_site_fract_x
 _atom_site_fract_y
 _atom_site_fract_z
 _atom_site_occupancy
  Ba  Ba0  1  0.03412645  0.96587355  0.25000000  1
  Ba  Ba1  1  0.96587355  0.03412645  0.75000000  1
  B  B2  1  0.35612203  0.40968512  0.10774543  1
  B  B3  1  0.59031488  0.64387797  0.39225457  1
  B  B4  1  0.64387797  0.59031488  0.89225457  1
  B  B5  1  0.40968512  0.35612203  0.60774543  1
  B  B6  1  0.47638735  0.81907977  0.11992485  1
  B  B7  1  0.18092023  0.52361265  0.38007515  1
  B  B8  1  0.52361265  0.18092023  0.88007515  1
  B  B9  1  0.81907977  0.47638735  0.61992485  1
  Sb  Sb10  1  0.69296741  0.30703259  0.25000000  1
  Sb  Sb11  1  0.30703259  0.69296741  0.75000000  1
  Sb  Sb12  1  -0.00000000  0.50000000  -0.00000000  1
  Sb  Sb13  1  0.50000000  -0.00000000  0.50000000  1
  O  O14  1  0.87889100  0.51357229  0.14998283  1
  O  O15  1  0.48642771  0.12110900  0.35001717  1
  O  O16  1  0.12110900  0.48642771  0.85001717  1
  O  O17  1  0.51357229  0.87889100  0.64998283  1
  O  O18  1  0.13144852  0.31918669  0.06122085  1
  O  O19  1  0.68081331  0.86855148  0.43877915  1
  O  O20  1  0.86855148  0.68081331  0.93877915  1
  O  O21  1  0.31918669  0.13144852  0.56122085  1
  O  O22  1  0.41381142  0.25996923  0.14461440  1
  O  O23  1  0.74003077  0.58618858  0.35538560  1
  O  O24  1  0.58618858  0.74003077  0.85538560  1
  O  O25  1  0.25996923  0.41381142  0.64461440  1
  O  O26  1  0.51462062  0.63840700  0.12279148  1
  O  O27  1  0.36159300  0.48537938  0.37720852  1
  O  O28  1  0.48537938  0.36159300  0.87720852  1
  O  O29  1  0.63840700  0.51462062  0.62279148  1
  O  O30  1  0.26761559  0.79068131  0.08757411  1
  O  O31  1  0.20931869  0.73238441  0.41242589  1
  O  O32  1  0.73238441  0.20931869  0.91242589  1
  O  O33  1  0.79068131  0.26761559  0.58757411  1
  O  O34  1  0.66658108  0.02670470  0.15674735  1
  O  O35  1  0.97329530  0.33341892  0.34325265  1
  O  O36  1  0.33341892  0.97329530  0.84325265  1
  O  O37  1  0.02670470  0.66658108  0.65674735  1
