# generated using pymatgen
data_KSb2P(SO6)2
_symmetry_space_group_name_H-M   'P 1'
_cell_length_a   5.23113890
_cell_length_b   8.15758282
_cell_length_c   12.87105493
_cell_angle_alpha   82.32080852
_cell_angle_beta   87.86533326
_cell_angle_gamma   86.73897028
_symmetry_Int_Tables_number   1
_chemical_formula_structural   KSb2P(SO6)2
_chemical_formula_sum   'K2 Sb4 P2 S4 O24'
_cell_volume   543.20107373
_cell_formula_units_Z   2
loop_
 _symmetry_equiv_pos_site_id
 _symmetry_equiv_pos_as_xyz
  1  'x, y, z'
loop_
 _atom_site_type_symbol
 _atom_site_label
 _atom_site_symmetry_multiplicity
 _atom_site_fract_x
 _atom_site_fract_y
 _atom_site_fract_z
 _atom_site_occupancy
  K  K0  1  0.72712568  0.83823713  0.14933615  1
  K  K1  1  0.27287432  0.16176287  0.85066385  1
  Sb  Sb2  1  0.78031821  0.73675420  0.46305962  1
  Sb  Sb3  1  0.21968179  0.26324580  0.53694038  1
  Sb  Sb4  1  0.18631088  0.30261294  0.16998809  1
  Sb  Sb5  1  0.81368912  0.69738706  0.83001191  1
  P  P6  1  0.26557927  0.96754313  0.35785296  1
  P  P7  1  0.73442073  0.03245687  0.64214704  1
  S  S8  1  0.70637522  0.39103116  0.33985543  1
  S  S9  1  0.29362478  0.60896884  0.66014457  1
  S  S10  1  0.74096628  0.28425095  0.02036477  1
  S  S11  1  0.25903372  0.71574905  0.97963523  1
  O  O12  1  0.43182323  0.39250031  0.31453382  1
  O  O13  1  0.56817677  0.60749969  0.68546618  1
  O  O14  1  0.81278026  0.55684064  0.31143863  1
  O  O15  1  0.18721974  0.44315936  0.68856137  1
  O  O16  1  0.73508541  0.33359821  0.45388760  1
  O  O17  1  0.26491459  0.66640179  0.54611240  1
  O  O18  1  0.85396777  0.26711703  0.27913010  1
  O  O19  1  0.14603223  0.73288297  0.72086990  1
  O  O20  1  0.76931690  0.28449718  0.90720037  1
  O  O21  1  0.23068310  0.71550282  0.09279963  1
  O  O22  1  0.74729302  0.44703726  0.05695684  1
  O  O23  1  0.25270698  0.55296274  0.94304316  1
  O  O24  1  0.50288396  0.19641573  0.06056874  1
  O  O25  1  0.49711604  0.80358427  0.93943126  1
  O  O26  1  0.96749782  0.17301450  0.07217699  1
  O  O27  1  0.03250218  0.82698550  0.92782301  1
  O  O28  1  0.25031930  0.06616013  0.45132397  1
  O  O29  1  0.74968070  0.93383987  0.54867603  1
  O  O30  1  0.02512883  0.86427182  0.35745953  1
  O  O31  1  0.97487117  0.13572818  0.64254047  1
  O  O32  1  0.51253139  0.85227888  0.36118774  1
  O  O33  1  0.48746861  0.14772112  0.63881226  1
  O  O34  1  0.28591813  0.07278088  0.24834413  1
  O  O35  1  0.71408187  0.92721912  0.75165587  1
