# generated using pymatgen
data_Sm2SeOF2
_symmetry_space_group_name_H-M   'P 1'
_cell_length_a   3.84978270
_cell_length_b   13.73023055
_cell_length_c   13.73023054
_cell_angle_alpha   119.99999756
_cell_angle_beta   90.00000000
_cell_angle_gamma   90.00000000
_symmetry_Int_Tables_number   1
_chemical_formula_structural   Sm2SeOF2
_chemical_formula_sum   'Sm12 Se6 O6 F12'
_cell_volume   628.52494394
_cell_formula_units_Z   6
loop_
 _symmetry_equiv_pos_site_id
 _symmetry_equiv_pos_as_xyz
  1  'x, y, z'
loop_
 _atom_site_type_symbol
 _atom_site_label
 _atom_site_symmetry_multiplicity
 _atom_site_fract_x
 _atom_site_fract_y
 _atom_site_fract_z
 _atom_site_occupancy
  Sm  Sm0  1  0.75000000  0.60302944  0.48461389  1
  Sm  Sm1  1  0.75000000  0.51538611  0.11841555  1
  Sm  Sm2  1  0.75000000  0.88158445  0.39697056  1
  Sm  Sm3  1  0.25000000  0.39697056  0.51538611  1
  Sm  Sm4  1  0.25000000  0.48461389  0.88158445  1
  Sm  Sm5  1  0.25000000  0.11841555  0.60302944  1
  Sm  Sm6  1  0.75000000  0.94556263  0.71154939  1
  Sm  Sm7  1  0.75000000  0.28845061  0.23401325  1
  Sm  Sm8  1  0.75000000  0.76598675  0.05443737  1
  Sm  Sm9  1  0.25000000  0.05443737  0.28845061  1
  Sm  Sm10  1  0.25000000  0.71154939  0.76598675  1
  Sm  Sm11  1  0.25000000  0.23401325  0.94556263  1
  Se  Se12  1  0.75000000  0.28147992  0.79460346  1
  Se  Se13  1  0.75000000  0.20539654  0.48687645  1
  Se  Se14  1  0.75000000  0.51312355  0.71852008  1
  Se  Se15  1  0.25000000  0.71852008  0.20539654  1
  Se  Se16  1  0.25000000  0.79460346  0.51312355  1
  Se  Se17  1  0.25000000  0.48687645  0.28147992  1
  O  O18  1  0.75000000  0.01479442  0.58779697  1
  O  O19  1  0.75000000  0.41220303  0.42699744  1
  O  O20  1  0.75000000  0.57300256  0.98520558  1
  O  O21  1  0.25000000  0.98520558  0.41220303  1
  O  O22  1  0.25000000  0.58779697  0.57300256  1
  O  O23  1  0.25000000  0.42699744  0.01479442  1
  F  F24  1  0.75000000  0.10776172  0.89959323  1
  F  F25  1  0.75000000  0.10040677  0.20816850  1
  F  F26  1  0.75000000  0.79183150  0.89223828  1
  F  F27  1  0.25000000  0.89223828  0.10040677  1
  F  F28  1  0.25000000  0.89959323  0.79183150  1
  F  F29  1  0.25000000  0.20816850  0.10776172  1
  F  F30  1  0.75000000  0.75309536  0.68489339  1
  F  F31  1  0.75000000  0.31510661  0.06820197  1
  F  F32  1  0.75000000  0.93179803  0.24690464  1
  F  F33  1  0.25000000  0.24690464  0.31510661  1
  F  F34  1  0.25000000  0.68489339  0.93179803  1
  F  F35  1  0.25000000  0.06820197  0.75309536  1
