# generated using pymatgen
data_Ba5(In2Sb3)2
_symmetry_space_group_name_H-M   'P 1'
_cell_length_a   8.43245095
_cell_length_b   14.69950665
_cell_length_c   18.60657611
_cell_angle_alpha   90.00000000
_cell_angle_beta   90.00000000
_cell_angle_gamma   90.00000000
_symmetry_Int_Tables_number   1
_chemical_formula_structural   Ba5(In2Sb3)2
_chemical_formula_sum   'Ba20 In16 Sb24'
_cell_volume   2306.33848767
_cell_formula_units_Z   4
loop_
 _symmetry_equiv_pos_site_id
 _symmetry_equiv_pos_as_xyz
  1  'x, y, z'
loop_
 _atom_site_type_symbol
 _atom_site_label
 _atom_site_symmetry_multiplicity
 _atom_site_fract_x
 _atom_site_fract_y
 _atom_site_fract_z
 _atom_site_occupancy
  Ba  Ba0  1  0.76018674  0.58642455  0.50075123  1
  Ba  Ba1  1  0.76018674  0.91357545  0.50075123  1
  Ba  Ba2  1  0.76018674  0.58642455  0.99924877  1
  Ba  Ba3  1  0.76018674  0.91357545  0.99924877  1
  Ba  Ba4  1  0.23981326  0.41357545  0.49924877  1
  Ba  Ba5  1  0.23981326  0.08642455  0.49924877  1
  Ba  Ba6  1  0.23981326  0.41357545  0.00075123  1
  Ba  Ba7  1  0.23981326  0.08642455  0.00075123  1
  Ba  Ba8  1  0.73731215  0.59975674  0.75000000  1
  Ba  Ba9  1  0.73731215  0.90024326  0.75000000  1
  Ba  Ba10  1  0.26268785  0.40024326  0.25000000  1
  Ba  Ba11  1  0.26268785  0.09975674  0.25000000  1
  Ba  Ba12  1  0.26085442  0.75000000  0.00171952  1
  Ba  Ba13  1  0.26085442  0.75000000  0.49828048  1
  Ba  Ba14  1  0.73914558  0.25000000  0.99828048  1
  Ba  Ba15  1  0.73914558  0.25000000  0.50171952  1
  Ba  Ba16  1  0.92871436  0.75000000  0.25000000  1
  Ba  Ba17  1  0.07128564  0.25000000  0.75000000  1
  Ba  Ba18  1  0.29120991  0.75000000  0.75000000  1
  Ba  Ba19  1  0.70879009  0.25000000  0.25000000  1
  In  In20  1  0.89782157  0.06513656  0.16871703  1
  In  In21  1  0.89782157  0.43486344  0.16871703  1
  In  In22  1  0.89782157  0.06513656  0.33128297  1
  In  In23  1  0.89782157  0.43486344  0.33128297  1
  In  In24  1  0.10217843  0.93486344  0.83128297  1
  In  In25  1  0.10217843  0.56513656  0.83128297  1
  In  In26  1  0.10217843  0.93486344  0.66871703  1
  In  In27  1  0.10217843  0.56513656  0.66871703  1
  In  In28  1  0.56716717  0.09525011  0.67185361  1
  In  In29  1  0.56716717  0.40474989  0.67185361  1
  In  In30  1  0.56716717  0.09525011  0.82814639  1
  In  In31  1  0.56716717  0.40474989  0.82814639  1
  In  In32  1  0.43283283  0.90474989  0.32814639  1
  In  In33  1  0.43283283  0.59525011  0.32814639  1
  In  In34  1  0.43283283  0.90474989  0.17185361  1
  In  In35  1  0.43283283  0.59525011  0.17185361  1
  Sb  Sb36  1  0.42314862  0.57781667  0.61756915  1
  Sb  Sb37  1  0.42314862  0.92218333  0.61756915  1
  Sb  Sb38  1  0.42314862  0.57781667  0.88243085  1
  Sb  Sb39  1  0.42314862  0.92218333  0.88243085  1
  Sb  Sb40  1  0.57685138  0.42218333  0.38243085  1
  Sb  Sb41  1  0.57685138  0.07781667  0.38243085  1
  Sb  Sb42  1  0.57685138  0.42218333  0.11756915  1
  Sb  Sb43  1  0.57685138  0.07781667  0.11756915  1
  Sb  Sb44  1  0.90541070  0.08531729  0.62069940  1
  Sb  Sb45  1  0.90541070  0.41468271  0.62069940  1
  Sb  Sb46  1  0.90541070  0.08531729  0.87930060  1
  Sb  Sb47  1  0.90541070  0.41468271  0.87930060  1
  Sb  Sb48  1  0.09458930  0.91468271  0.37930060  1
  Sb  Sb49  1  0.09458930  0.58531729  0.37930060  1
  Sb  Sb50  1  0.09458930  0.91468271  0.12069940  1
  Sb  Sb51  1  0.09458930  0.58531729  0.12069940  1
  Sb  Sb52  1  0.94441417  0.75000000  0.62611596  1
  Sb  Sb53  1  0.94441417  0.75000000  0.87388404  1
  Sb  Sb54  1  0.05558583  0.25000000  0.37388404  1
  Sb  Sb55  1  0.05558583  0.25000000  0.12611596  1
  Sb  Sb56  1  0.60210175  0.75000000  0.11674285  1
  Sb  Sb57  1  0.60210175  0.75000000  0.38325715  1
  Sb  Sb58  1  0.39789825  0.25000000  0.88325715  1
  Sb  Sb59  1  0.39789825  0.25000000  0.61674285  1
