# generated using pymatgen
data_U8Bi2O19
_symmetry_space_group_name_H-M   'P 1'
_cell_length_a   3.83467652
_cell_length_b   38.58387787
_cell_length_c   36.83166898
_cell_angle_alpha   5.18660336
_cell_angle_beta   58.64792336
_cell_angle_gamma   60.21984308
_symmetry_Int_Tables_number   1
_chemical_formula_structural   U8Bi2O19
_chemical_formula_sum   'U8 Bi2 O19'
_cell_volume   404.07023248
_cell_formula_units_Z   1
loop_
 _symmetry_equiv_pos_site_id
 _symmetry_equiv_pos_as_xyz
  1  'x, y, z'
loop_
 _atom_site_type_symbol
 _atom_site_label
 _atom_site_symmetry_multiplicity
 _atom_site_fract_x
 _atom_site_fract_y
 _atom_site_fract_z
 _atom_site_occupancy
  U  U0  1  -0.00146419  0.19477377  0.00584747  1
  U  U1  1  -0.00016151  0.29803029  0.00277709  1
  U  U2  1  0.00130471  0.39808202  0.00228361  1
  U  U3  1  -0.00014164  0.49880257  0.00135052  1
  U  U4  1  0.99727074  0.59948199  0.00068543  1
  U  U5  1  0.99890534  0.69907497  0.00091754  1
  U  U6  1  0.00243487  0.80127192  -0.00169231  1
  U  U7  1  0.00003268  0.90313710  -0.00340043  1
  Bi  Bi8  1  0.98808699  0.99741244  0.00425052  1
  Bi  Bi9  1  0.00356073  0.09523897  0.00370609  1
  O  O10  1  0.24876160  0.09596578  0.25513702  1
  O  O11  1  0.25215781  0.19793728  0.25218527  1
  O  O12  1  0.24797452  0.29992439  0.25027864  1
  O  O13  1  0.24701018  0.39904273  0.25102290  1
  O  O14  1  0.25319389  0.50119821  0.24813744  1
  O  O15  1  0.26253364  0.61113527  0.23638827  1
  O  O16  1  0.76302832  0.11159523  0.73582043  1
  O  O17  1  0.28089975  0.73025570  0.21291214  1
  O  O18  1  0.78520533  0.23442521  0.70782199  1
  O  O19  1  0.21123588  0.86293671  0.29456320  1
  O  O20  1  0.74471059  0.30163129  0.74895736  1
  O  O21  1  0.71279128  0.36301705  0.79438711  1
  O  O22  1  0.24130669  -0.00854303  0.26101751  1
  O  O23  1  0.73851196  0.48893188  0.76415989  1
  O  O24  1  0.75069344  0.59779549  0.75292313  1
  O  O25  1  0.75045591  0.69724840  0.75305755  1
  O  O26  1  0.74790613  0.80004910  0.75008531  1
  O  O27  1  0.74792522  0.89998116  0.75004106  1
  O  O28  1  0.75320416  0.00082213  0.74859223  1
