# generated using pymatgen
data_LaTl(PSe3)2
_symmetry_space_group_name_H-M   'P 1'
_cell_length_a   7.87385271
_cell_length_b   12.01616853
_cell_length_c   12.49016465
_cell_angle_alpha   109.75036118
_cell_angle_beta   90.00000000
_cell_angle_gamma   90.00000000
_symmetry_Int_Tables_number   1
_chemical_formula_structural   LaTl(PSe3)2
_chemical_formula_sum   'La4 Tl4 P8 Se24'
_cell_volume   1112.22160956
_cell_formula_units_Z   4
loop_
 _symmetry_equiv_pos_site_id
 _symmetry_equiv_pos_as_xyz
  1  'x, y, z'
loop_
 _atom_site_type_symbol
 _atom_site_label
 _atom_site_symmetry_multiplicity
 _atom_site_fract_x
 _atom_site_fract_y
 _atom_site_fract_z
 _atom_site_occupancy
  La  La0  1  0.10415252  0.59484183  0.34877101  1
  La  La1  1  0.60415252  0.90515817  0.65122899  1
  La  La2  1  0.89584748  0.40515817  0.65122899  1
  La  La3  1  0.39584748  0.09484183  0.34877101  1
  Tl  Tl4  1  0.90989068  0.87538875  0.12942477  1
  Tl  Tl5  1  0.40989068  0.62461125  0.87057523  1
  Tl  Tl6  1  0.09010932  0.12461125  0.87057523  1
  Tl  Tl7  1  0.59010932  0.37538875  0.12942477  1
  P  P8  1  0.09813604  0.74747112  0.67949354  1
  P  P9  1  0.59813604  0.75252888  0.32050646  1
  P  P10  1  0.90186396  0.25252888  0.32050646  1
  P  P11  1  0.40186396  0.24747112  0.67949354  1
  P  P12  1  0.38247773  0.76629879  0.20713846  1
  P  P13  1  0.88247773  0.73370121  0.79286154  1
  P  P14  1  0.61752227  0.23370121  0.79286154  1
  P  P15  1  0.11752227  0.26629879  0.20713846  1
  Se  Se16  1  0.28767261  0.58412754  0.12567042  1
  Se  Se17  1  0.78767261  0.91587246  0.87432958  1
  Se  Se18  1  0.71232739  0.41587246  0.87432958  1
  Se  Se19  1  0.21232739  0.08412754  0.12567042  1
  Se  Se20  1  0.78987604  0.63774643  0.20841277  1
  Se  Se21  1  0.28987604  0.86225357  0.79158723  1
  Se  Se22  1  0.21012396  0.36225357  0.79158723  1
  Se  Se23  1  0.71012396  0.13774643  0.20841277  1
  Se  Se24  1  0.18855572  0.86592142  0.32898290  1
  Se  Se25  1  0.68855572  0.63407858  0.67101710  1
  Se  Se26  1  0.81144428  0.13407858  0.67101710  1
  Se  Se27  1  0.31144428  0.36592142  0.32898290  1
  Se  Se28  1  0.19216757  0.56567619  0.59111816  1
  Se  Se29  1  0.69216757  0.93432381  0.40888184  1
  Se  Se30  1  0.80783243  0.43432381  0.40888184  1
  Se  Se31  1  0.30783243  0.06567619  0.59111816  1
  Se  Se32  1  0.48105479  0.87110002  0.10777284  1
  Se  Se33  1  0.98105479  0.62889998  0.89222716  1
  Se  Se34  1  0.51894521  0.12889998  0.89222716  1
  Se  Se35  1  0.01894521  0.37110002  0.10777284  1
  Se  Se36  1  0.47620620  0.68219047  0.44565013  1
  Se  Se37  1  0.97620620  0.81780953  0.55434987  1
  Se  Se38  1  0.52379380  0.31780953  0.55434987  1
  Se  Se39  1  0.02379380  0.18219047  0.44565013  1
