# generated using pymatgen
data_K5Y2Si4O13F
_symmetry_space_group_name_H-M   'P 1'
_cell_length_a   5.83772721
_cell_length_b   7.25317102
_cell_length_c   18.31944213
_cell_angle_alpha   92.13993117
_cell_angle_beta   90.00000000
_cell_angle_gamma   90.00000000
_symmetry_Int_Tables_number   1
_chemical_formula_structural   K5Y2Si4O13F
_chemical_formula_sum   'K10 Y4 Si8 O26 F2'
_cell_volume   775.14148791
_cell_formula_units_Z   2
loop_
 _symmetry_equiv_pos_site_id
 _symmetry_equiv_pos_as_xyz
  1  'x, y, z'
loop_
 _atom_site_type_symbol
 _atom_site_label
 _atom_site_symmetry_multiplicity
 _atom_site_fract_x
 _atom_site_fract_y
 _atom_site_fract_z
 _atom_site_occupancy
  K  K0  1  0.75000000  0.52406539  0.75046411  1
  K  K1  1  0.25000000  0.47593461  0.24953589  1
  K  K2  1  0.75000000  0.13194368  0.30591585  1
  K  K3  1  0.25000000  0.86805632  0.69408415  1
  K  K4  1  0.75000000  0.79504956  0.18550412  1
  K  K5  1  0.25000000  0.20495044  0.81449588  1
  K  K6  1  0.75000000  0.80332331  0.99636743  1
  K  K7  1  0.25000000  0.19667669  0.00363257  1
  K  K8  1  0.75000000  0.25944169  0.50977355  1
  K  K9  1  0.25000000  0.74055831  0.49022645  1
  Y  Y10  1  0.75000000  0.33355276  0.10974176  1
  Y  Y11  1  0.25000000  0.66644724  0.89025824  1
  Y  Y12  1  0.75000000  0.59715070  0.37111852  1
  Y  Y13  1  0.25000000  0.40284930  0.62888148  1
  Si  Si14  1  0.75000000  0.33605900  0.91669319  1
  Si  Si15  1  0.25000000  0.66394100  0.08330681  1
  Si  Si16  1  0.75000000  0.95861780  0.82702353  1
  Si  Si17  1  0.25000000  0.04138220  0.17297647  1
  Si  Si18  1  0.75000000  0.08297931  0.66826082  1
  Si  Si19  1  0.25000000  0.91702069  0.33173918  1
  Si  Si20  1  0.75000000  0.71059764  0.57664356  1
  Si  Si21  1  0.25000000  0.28940236  0.42335644  1
  O  O22  1  0.51566999  0.45338500  0.90550990  1
  O  O23  1  0.01566999  0.54661500  0.09449010  1
  O  O24  1  0.48433001  0.54661500  0.09449010  1
  O  O25  1  0.98433001  0.45338500  0.90550990  1
  O  O26  1  0.75000000  0.22652833  0.99356694  1
  O  O27  1  0.25000000  0.77347167  0.00643306  1
  O  O28  1  0.75000000  0.18385419  0.84448724  1
  O  O29  1  0.25000000  0.81614581  0.15551276  1
  O  O30  1  0.51462908  0.86872918  0.85539035  1
  O  O31  1  0.01462908  0.13127082  0.14460965  1
  O  O32  1  0.48537092  0.13127082  0.14460965  1
  O  O33  1  0.98537092  0.86872918  0.85539035  1
  O  O34  1  0.75000000  0.93611222  0.73579698  1
  O  O35  1  0.25000000  0.06388778  0.26420302  1
  O  O36  1  0.51686302  0.20563502  0.67016984  1
  O  O37  1  0.01686302  0.79436498  0.32983016  1
  O  O38  1  0.48313698  0.79436498  0.32983016  1
  O  O39  1  0.98313698  0.20563502  0.67016984  1
  O  O40  1  0.75000000  0.94166969  0.59409366  1
  O  O41  1  0.25000000  0.05833031  0.40590634  1
  O  O42  1  0.51711325  0.62357356  0.61141607  1
  O  O43  1  0.01711325  0.37642644  0.38858393  1
  O  O44  1  0.48288675  0.37642644  0.38858393  1
  O  O45  1  0.98288675  0.62357356  0.61141607  1
  O  O46  1  0.75000000  0.68566632  0.48702683  1
  O  O47  1  0.25000000  0.31433368  0.51297317  1
  F  F48  1  0.75000000  0.46180771  0.24324430  1
  F  F49  1  0.25000000  0.53819229  0.75675570  1
