# generated using pymatgen
data_KMnAs3F18
_symmetry_space_group_name_H-M   'P 1'
_cell_length_a   9.77082077
_cell_length_b   10.84082335
_cell_length_c   14.42847106
_cell_angle_alpha   90.00000000
_cell_angle_beta   90.00000000
_cell_angle_gamma   90.00000000
_symmetry_Int_Tables_number   1
_chemical_formula_structural   KMnAs3F18
_chemical_formula_sum   'K4 Mn4 As12 F72'
_cell_volume   1528.31764532
_cell_formula_units_Z   4
loop_
 _symmetry_equiv_pos_site_id
 _symmetry_equiv_pos_as_xyz
  1  'x, y, z'
loop_
 _atom_site_type_symbol
 _atom_site_label
 _atom_site_symmetry_multiplicity
 _atom_site_fract_x
 _atom_site_fract_y
 _atom_site_fract_z
 _atom_site_occupancy
  K  K0  1  0.52489061  0.91913511  0.75000000  1
  K  K1  1  0.97510939  0.41913511  0.75000000  1
  K  K2  1  0.47510939  0.08086489  0.25000000  1
  K  K3  1  0.02489061  0.58086489  0.25000000  1
  Mn  Mn4  1  -0.00000000  -0.00000000  0.50000000  1
  Mn  Mn5  1  0.50000000  0.50000000  -0.00000000  1
  Mn  Mn6  1  -0.00000000  -0.00000000  -0.00000000  1
  Mn  Mn7  1  0.50000000  0.50000000  0.50000000  1
  As  As8  1  0.11785161  0.02800795  0.75000000  1
  As  As9  1  0.38214839  0.52800795  0.75000000  1
  As  As10  1  0.88214839  0.97199205  0.25000000  1
  As  As11  1  0.61785161  0.47199205  0.25000000  1
  As  As12  1  0.68934035  0.20021927  0.55323059  1
  As  As13  1  0.81065965  0.70021927  0.94676941  1
  As  As14  1  0.31065965  0.79978073  0.05323059  1
  As  As15  1  0.18934035  0.29978073  0.44676941  1
  As  As16  1  0.31065965  0.79978073  0.44676941  1
  As  As17  1  0.18934035  0.29978073  0.05323059  1
  As  As18  1  0.68934035  0.20021927  0.94676941  1
  As  As19  1  0.81065965  0.70021927  0.55323059  1
  F  F20  1  0.11548284  0.02915092  0.62366120  1
  F  F21  1  0.38451716  0.52915092  0.87633880  1
  F  F22  1  0.88451716  0.97084908  0.12366120  1
  F  F23  1  0.61548284  0.47084908  0.37633880  1
  F  F24  1  0.88451716  0.97084908  0.37633880  1
  F  F25  1  0.61548284  0.47084908  0.12366120  1
  F  F26  1  0.11548284  0.02915092  0.87633880  1
  F  F27  1  0.38451716  0.52915092  0.62366120  1
  F  F28  1  0.17457574  0.87517482  0.75000000  1
  F  F29  1  0.32542426  0.37517482  0.75000000  1
  F  F30  1  0.82542426  0.12482518  0.25000000  1
  F  F31  1  0.67457574  0.62482518  0.25000000  1
  F  F32  1  0.28921714  0.07671020  0.75000000  1
  F  F33  1  0.21078286  0.57671020  0.75000000  1
  F  F34  1  0.71078286  0.92328980  0.25000000  1
  F  F35  1  0.78921714  0.42328980  0.25000000  1
  F  F36  1  0.06543533  0.18336812  0.75000000  1
  F  F37  1  0.43456467  0.68336812  0.75000000  1
  F  F38  1  0.93456467  0.81663188  0.25000000  1
  F  F39  1  0.56543533  0.31663188  0.25000000  1
  F  F40  1  0.94634769  0.98056945  0.75000000  1
  F  F41  1  0.55365231  0.48056945  0.75000000  1
  F  F42  1  0.05365231  0.01943055  0.25000000  1
  F  F43  1  0.44634769  0.51943055  0.25000000  1
  F  F44  1  0.81676807  0.07657749  0.55713792  1
  F  F45  1  0.68323193  0.57657749  0.94286208  1
  F  F46  1  0.18323193  0.92342251  0.05713792  1
  F  F47  1  0.31676807  0.42342251  0.44286208  1
  F  F48  1  0.18323193  0.92342251  0.44286208  1
  F  F49  1  0.31676807  0.42342251  0.05713792  1
  F  F50  1  0.81676807  0.07657749  0.94286208  1
  F  F51  1  0.68323193  0.57657749  0.55713792  1
  F  F52  1  0.78736384  0.27850517  0.47110194  1
  F  F53  1  0.71263616  0.77850517  0.02889806  1
  F  F54  1  0.21263616  0.72149483  0.97110194  1
  F  F55  1  0.28736384  0.22149483  0.52889806  1
  F  F56  1  0.21263616  0.72149483  0.52889806  1
  F  F57  1  0.28736384  0.22149483  0.97110194  1
  F  F58  1  0.78736384  0.27850517  0.02889806  1
  F  F59  1  0.71263616  0.77850517  0.47110194  1
  F  F60  1  0.60040140  0.12345703  0.46479816  1
  F  F61  1  0.89959860  0.62345703  0.03520184  1
  F  F62  1  0.39959860  0.87654297  0.96479816  1
  F  F63  1  0.10040140  0.37654297  0.53520184  1
  F  F64  1  0.39959860  0.87654297  0.53520184  1
  F  F65  1  0.10040140  0.37654297  0.96479816  1
  F  F66  1  0.60040140  0.12345703  0.03520184  1
  F  F67  1  0.89959860  0.62345703  0.46479816  1
  F  F68  1  0.56326887  0.32401285  0.55222669  1
  F  F69  1  0.93673113  0.82401285  0.94777331  1
  F  F70  1  0.43673113  0.67598715  0.05222669  1
  F  F71  1  0.06326887  0.17598715  0.44777331  1
  F  F72  1  0.43673113  0.67598715  0.44777331  1
  F  F73  1  0.06326887  0.17598715  0.05222669  1
  F  F74  1  0.56326887  0.32401285  0.94777331  1
  F  F75  1  0.93673113  0.82401285  0.55222669  1
  F  F76  1  0.59245249  0.12000386  0.63659110  1
  F  F77  1  0.90754751  0.62000386  0.86340890  1
  F  F78  1  0.40754751  0.87999614  0.13659110  1
  F  F79  1  0.09245249  0.37999614  0.36340890  1
  F  F80  1  0.40754751  0.87999614  0.36340890  1
  F  F81  1  0.09245249  0.37999614  0.13659110  1
  F  F82  1  0.59245249  0.12000386  0.86340890  1
  F  F83  1  0.90754751  0.62000386  0.63659110  1
  F  F84  1  0.77743796  0.27618798  0.64335722  1
  F  F85  1  0.72256204  0.77618798  0.85664278  1
  F  F86  1  0.22256204  0.72381202  0.14335722  1
  F  F87  1  0.27743796  0.22381202  0.35664278  1
  F  F88  1  0.22256204  0.72381202  0.35664278  1
  F  F89  1  0.27743796  0.22381202  0.14335722  1
  F  F90  1  0.77743796  0.27618798  0.85664278  1
  F  F91  1  0.72256204  0.77618798  0.64335722  1
