# generated using pymatgen
data_K2Sn3(SbS5)2
_symmetry_space_group_name_H-M   'P 1'
_cell_length_a   6.91354817
_cell_length_b   10.61879634
_cell_length_c   13.50931768
_cell_angle_alpha   90.00000000
_cell_angle_beta   90.00000000
_cell_angle_gamma   97.71363299
_symmetry_Int_Tables_number   1
_chemical_formula_structural   K2Sn3(SbS5)2
_chemical_formula_sum   'K4 Sn6 Sb4 S20'
_cell_volume   982.79289244
_cell_formula_units_Z   2
loop_
 _symmetry_equiv_pos_site_id
 _symmetry_equiv_pos_as_xyz
  1  'x, y, z'
loop_
 _atom_site_type_symbol
 _atom_site_label
 _atom_site_symmetry_multiplicity
 _atom_site_fract_x
 _atom_site_fract_y
 _atom_site_fract_z
 _atom_site_occupancy
  K  K0  1  0.38156782  0.82731242  0.67352601  1
  K  K1  1  0.88156782  0.32731242  0.82647399  1
  K  K2  1  0.61843218  0.17268758  0.32647399  1
  K  K3  1  0.11843218  0.67268758  0.17352601  1
  Sn  Sn4  1  0.50000000  -0.00000000  -0.00000000  1
  Sn  Sn5  1  -0.00000000  0.50000000  0.50000000  1
  Sn  Sn6  1  0.53887301  0.65404251  0.94706437  1
  Sn  Sn7  1  0.03887301  0.15404251  0.55293563  1
  Sn  Sn8  1  0.46112699  0.34595749  0.05293563  1
  Sn  Sn9  1  0.96112699  0.84595749  0.44706437  1
  Sb  Sb10  1  0.89780727  0.90895857  0.84763458  1
  Sb  Sb11  1  0.39780727  0.40895857  0.65236542  1
  Sb  Sb12  1  0.10219273  0.09104143  0.15236542  1
  Sb  Sb13  1  0.60219273  0.59104143  0.34763458  1
  S  S14  1  0.62491903  0.03423021  0.82110534  1
  S  S15  1  0.12491903  0.53423021  0.67889466  1
  S  S16  1  0.37508097  0.96576979  0.17889466  1
  S  S17  1  0.87508097  0.46576979  0.32110534  1
  S  S18  1  0.79551944  0.87186807  0.02399096  1
  S  S19  1  0.29551944  0.37186807  0.47600904  1
  S  S20  1  0.20448056  0.12813193  0.97600904  1
  S  S21  1  0.70448056  0.62813193  0.52399096  1
  S  S22  1  0.71711567  0.21175311  0.04909343  1
  S  S23  1  0.21711567  0.71175311  0.45090657  1
  S  S24  1  0.28288433  0.78824689  0.95090657  1
  S  S25  1  0.78288433  0.28824689  0.54909343  1
  S  S26  1  0.73841241  0.68851681  0.79900999  1
  S  S27  1  0.23841241  0.18851681  0.70099001  1
  S  S28  1  0.26158759  0.31148319  0.20099001  1
  S  S29  1  0.76158759  0.81148319  0.29900999  1
  S  S30  1  0.64637709  0.55924554  0.09974285  1
  S  S31  1  0.14637709  0.05924554  0.40025715  1
  S  S32  1  0.35362291  0.44075446  0.90025715  1
  S  S33  1  0.85362291  0.94075446  0.59974285  1
