# generated using pymatgen
data_Rb2LiNd(BO3)2
_symmetry_space_group_name_H-M   'P 1'
_cell_length_a   7.22603379
_cell_length_b   9.85062395
_cell_length_c   10.24841472
_cell_angle_alpha   90.00000000
_cell_angle_beta   90.00000000
_cell_angle_gamma   90.00000000
_symmetry_Int_Tables_number   1
_chemical_formula_structural   Rb2LiNd(BO3)2
_chemical_formula_sum   'Rb8 Li4 Nd4 B8 O24'
_cell_volume   729.49180881
_cell_formula_units_Z   4
loop_
 _symmetry_equiv_pos_site_id
 _symmetry_equiv_pos_as_xyz
  1  'x, y, z'
loop_
 _atom_site_type_symbol
 _atom_site_label
 _atom_site_symmetry_multiplicity
 _atom_site_fract_x
 _atom_site_fract_y
 _atom_site_fract_z
 _atom_site_occupancy
  Rb  Rb0  1  0.27795379  0.41652795  0.94283854  1
  Rb  Rb1  1  0.72204621  0.58347205  0.44283854  1
  Rb  Rb2  1  0.27795379  0.08347205  0.05716146  1
  Rb  Rb3  1  0.72204621  0.91652795  0.55716146  1
  Rb  Rb4  1  0.72204621  0.58347205  0.05716146  1
  Rb  Rb5  1  0.27795379  0.41652795  0.55716146  1
  Rb  Rb6  1  0.72204621  0.91652795  0.94283854  1
  Rb  Rb7  1  0.27795379  0.08347205  0.44283854  1
  Li  Li8  1  0.44845632  0.15300448  0.75000000  1
  Li  Li9  1  0.55154368  0.84699552  0.25000000  1
  Li  Li10  1  0.44845632  0.34699552  0.25000000  1
  Li  Li11  1  0.55154368  0.65300448  0.75000000  1
  Nd  Nd12  1  0.85971244  0.26356053  0.75000000  1
  Nd  Nd13  1  0.14028756  0.73643947  0.25000000  1
  Nd  Nd14  1  0.85971244  0.23643947  0.25000000  1
  Nd  Nd15  1  0.14028756  0.76356053  0.75000000  1
  B  B16  1  0.69089207  0.25000000  -0.00000000  1
  B  B17  1  0.30910793  0.75000000  0.50000000  1
  B  B18  1  0.30910793  0.75000000  -0.00000000  1
  B  B19  1  0.69089207  0.25000000  0.50000000  1
  B  B20  1  0.84583386  0.56067784  0.75000000  1
  B  B21  1  0.15416614  0.43932216  0.25000000  1
  B  B22  1  0.84583386  0.93932216  0.25000000  1
  B  B23  1  0.15416614  0.06067784  0.75000000  1
  O  O24  1  0.02238074  0.50537918  0.75000000  1
  O  O25  1  0.97761926  0.49462082  0.25000000  1
  O  O26  1  0.02238074  0.99462082  0.25000000  1
  O  O27  1  0.97761926  0.00537918  0.75000000  1
  O  O28  1  0.88549454  0.25000000  -0.00000000  1
  O  O29  1  0.11450546  0.75000000  0.50000000  1
  O  O30  1  0.11450546  0.75000000  -0.00000000  1
  O  O31  1  0.88549454  0.25000000  0.50000000  1
  O  O32  1  0.18101492  0.20104679  0.75000000  1
  O  O33  1  0.81898508  0.79895321  0.25000000  1
  O  O34  1  0.18101492  0.29895321  0.25000000  1
  O  O35  1  0.81898508  0.70104679  0.75000000  1
  O  O36  1  0.69165295  0.47623387  0.75000000  1
  O  O37  1  0.30834705  0.52376613  0.25000000  1
  O  O38  1  0.69165295  0.02376613  0.25000000  1
  O  O39  1  0.30834705  0.97623387  0.75000000  1
  O  O40  1  0.60077751  0.19724430  0.60739027  1
  O  O41  1  0.39922249  0.80275570  0.10739027  1
  O  O42  1  0.60077751  0.30275570  0.39260973  1
  O  O43  1  0.39922249  0.69724430  0.89260973  1
  O  O44  1  0.39922249  0.80275570  0.39260973  1
  O  O45  1  0.60077751  0.19724430  0.89260973  1
  O  O46  1  0.39922249  0.69724430  0.60739027  1
  O  O47  1  0.60077751  0.30275570  0.10739027  1
