# generated using pymatgen
data_Ba2GaAsSe5
_symmetry_space_group_name_H-M   'P 1'
_cell_length_a   9.14495592
_cell_length_b   9.38916207
_cell_length_c   12.79951550
_cell_angle_alpha   90.00000000
_cell_angle_beta   90.00000000
_cell_angle_gamma   90.00000000
_symmetry_Int_Tables_number   1
_chemical_formula_structural   Ba2GaAsSe5
_chemical_formula_sum   'Ba8 Ga4 As4 Se20'
_cell_volume   1099.01085682
_cell_formula_units_Z   4
loop_
 _symmetry_equiv_pos_site_id
 _symmetry_equiv_pos_as_xyz
  1  'x, y, z'
loop_
 _atom_site_type_symbol
 _atom_site_label
 _atom_site_symmetry_multiplicity
 _atom_site_fract_x
 _atom_site_fract_y
 _atom_site_fract_z
 _atom_site_occupancy
  Ba  Ba0  1  0.99397092  0.13226279  0.67419235  1
  Ba  Ba1  1  0.50602908  0.36773721  0.17419235  1
  Ba  Ba2  1  0.49397092  0.86773721  0.32580765  1
  Ba  Ba3  1  0.00602908  0.63226279  0.82580765  1
  Ba  Ba4  1  0.00602908  0.86773721  0.32580765  1
  Ba  Ba5  1  0.49397092  0.63226279  0.82580765  1
  Ba  Ba6  1  0.50602908  0.13226279  0.67419235  1
  Ba  Ba7  1  0.99397092  0.36773721  0.17419235  1
  Ga  Ga8  1  0.25000000  0.83574574  0.59669256  1
  Ga  Ga9  1  0.25000000  0.66425426  0.09669256  1
  Ga  Ga10  1  0.75000000  0.16425426  0.40330744  1
  Ga  Ga11  1  0.75000000  0.33574574  0.90330744  1
  As  As12  1  0.25000000  0.49456096  0.53566873  1
  As  As13  1  0.25000000  0.00543904  0.03566873  1
  As  As14  1  0.75000000  0.50543904  0.46433127  1
  As  As15  1  0.75000000  0.99456096  0.96433127  1
  Se  Se16  1  0.04713981  0.66994732  0.55692993  1
  Se  Se17  1  0.45286019  0.83005268  0.05692993  1
  Se  Se18  1  0.54713981  0.33005268  0.44307007  1
  Se  Se19  1  0.95286019  0.16994732  0.94307007  1
  Se  Se20  1  0.95286019  0.33005268  0.44307007  1
  Se  Se21  1  0.54713981  0.16994732  0.94307007  1
  Se  Se22  1  0.45286019  0.66994732  0.55692993  1
  Se  Se23  1  0.04713981  0.83005268  0.05692993  1
  Se  Se24  1  0.75000000  0.95833212  0.51203247  1
  Se  Se25  1  0.75000000  0.54166788  0.01203247  1
  Se  Se26  1  0.25000000  0.04166788  0.48796753  1
  Se  Se27  1  0.25000000  0.45833212  0.98796753  1
  Se  Se28  1  0.25000000  0.90088861  0.77839107  1
  Se  Se29  1  0.25000000  0.59911139  0.27839107  1
  Se  Se30  1  0.75000000  0.09911139  0.22160893  1
  Se  Se31  1  0.75000000  0.40088861  0.72160893  1
  Se  Se32  1  0.25000000  0.39791648  0.71261437  1
  Se  Se33  1  0.25000000  0.10208352  0.21261437  1
  Se  Se34  1  0.75000000  0.60208352  0.28738563  1
  Se  Se35  1  0.75000000  0.89791648  0.78738563  1
