# generated using pymatgen
data_Hf3Sb7Pd
_symmetry_space_group_name_H-M   'P 1'
_cell_length_a   3.98498979
_cell_length_b   14.77119877
_cell_length_c   17.59392907
_cell_angle_alpha   90.00000000
_cell_angle_beta   90.00000000
_cell_angle_gamma   90.00000000
_symmetry_Int_Tables_number   1
_chemical_formula_structural   Hf3Sb7Pd
_chemical_formula_sum   'Hf12 Sb28 Pd4'
_cell_volume   1035.63278899
_cell_formula_units_Z   4
loop_
 _symmetry_equiv_pos_site_id
 _symmetry_equiv_pos_as_xyz
  1  'x, y, z'
loop_
 _atom_site_type_symbol
 _atom_site_label
 _atom_site_symmetry_multiplicity
 _atom_site_fract_x
 _atom_site_fract_y
 _atom_site_fract_z
 _atom_site_occupancy
  Hf  Hf0  1  0.25000000  0.31112319  0.84704019  1
  Hf  Hf1  1  0.25000000  0.18887681  0.34704019  1
  Hf  Hf2  1  0.75000000  0.68887681  0.15295981  1
  Hf  Hf3  1  0.75000000  0.81112319  0.65295981  1
  Hf  Hf4  1  0.25000000  0.02996425  0.86924651  1
  Hf  Hf5  1  0.25000000  0.47003575  0.36924651  1
  Hf  Hf6  1  0.75000000  0.97003575  0.13075349  1
  Hf  Hf7  1  0.75000000  0.52996425  0.63075349  1
  Hf  Hf8  1  0.25000000  0.58843690  0.89212881  1
  Hf  Hf9  1  0.25000000  0.91156310  0.39212881  1
  Hf  Hf10  1  0.75000000  0.41156310  0.10787119  1
  Hf  Hf11  1  0.75000000  0.08843690  0.60787119  1
  Sb  Sb12  1  0.25000000  0.19479052  0.51954213  1
  Sb  Sb13  1  0.25000000  0.30520948  0.01954213  1
  Sb  Sb14  1  0.75000000  0.80520948  0.48045787  1
  Sb  Sb15  1  0.75000000  0.69479052  0.98045787  1
  Sb  Sb16  1  0.25000000  0.43032302  0.53664658  1
  Sb  Sb17  1  0.25000000  0.06967698  0.03664658  1
  Sb  Sb18  1  0.75000000  0.56967698  0.46335342  1
  Sb  Sb19  1  0.75000000  0.93032302  0.96335342  1
  Sb  Sb20  1  0.25000000  0.94035189  0.57187676  1
  Sb  Sb21  1  0.25000000  0.55964811  0.07187676  1
  Sb  Sb22  1  0.75000000  0.05964811  0.42812324  1
  Sb  Sb23  1  0.75000000  0.44035189  0.92812324  1
  Sb  Sb24  1  0.25000000  0.67623415  0.59492909  1
  Sb  Sb25  1  0.25000000  0.82376585  0.09492909  1
  Sb  Sb26  1  0.75000000  0.32376585  0.40507091  1
  Sb  Sb27  1  0.75000000  0.17623415  0.90507091  1
  Sb  Sb28  1  0.25000000  0.14791809  0.72816171  1
  Sb  Sb29  1  0.25000000  0.35208191  0.22816171  1
  Sb  Sb30  1  0.75000000  0.85208191  0.27183829  1
  Sb  Sb31  1  0.75000000  0.64791809  0.77183829  1
  Sb  Sb32  1  0.25000000  0.48032823  0.74901294  1
  Sb  Sb33  1  0.25000000  0.01967177  0.24901294  1
  Sb  Sb34  1  0.75000000  0.51967177  0.25098706  1
  Sb  Sb35  1  0.75000000  0.98032823  0.75098706  1
  Sb  Sb36  1  0.25000000  0.82142441  0.78236743  1
  Sb  Sb37  1  0.25000000  0.67857559  0.28236743  1
  Sb  Sb38  1  0.75000000  0.17857559  0.21763257  1
  Sb  Sb39  1  0.75000000  0.32142441  0.71763257  1
  Pd  Pd40  1  0.25000000  0.80961881  0.93445706  1
  Pd  Pd41  1  0.25000000  0.69038119  0.43445706  1
  Pd  Pd42  1  0.75000000  0.19038119  0.06554294  1
  Pd  Pd43  1  0.75000000  0.30961881  0.56554294  1
