# generated using pymatgen
data_Cs2TiCu3F12
_symmetry_space_group_name_H-M   'P 1'
_cell_length_a   7.08470414
_cell_length_b   8.02957847
_cell_length_c   10.67930392
_cell_angle_alpha   98.85228419
_cell_angle_beta   90.00000000
_cell_angle_gamma   90.00000000
_symmetry_Int_Tables_number   1
_chemical_formula_structural   Cs2TiCu3F12
_chemical_formula_sum   'Cs4 Ti2 Cu6 F24'
_cell_volume   600.27906447
_cell_formula_units_Z   2
loop_
 _symmetry_equiv_pos_site_id
 _symmetry_equiv_pos_as_xyz
  1  'x, y, z'
loop_
 _atom_site_type_symbol
 _atom_site_label
 _atom_site_symmetry_multiplicity
 _atom_site_fract_x
 _atom_site_fract_y
 _atom_site_fract_z
 _atom_site_occupancy
  Cs  Cs0  1  0.50216132  0.27586480  0.61337127  1
  Cs  Cs1  1  0.99783868  0.77586480  0.11337127  1
  Cs  Cs2  1  0.49783868  0.72413520  0.38662873  1
  Cs  Cs3  1  0.00216132  0.22413520  0.88662873  1
  Ti  Ti4  1  0.50000000  0.50000000  -0.00000000  1
  Ti  Ti5  1  -0.00000000  0.00000000  0.50000000  1
  Cu  Cu6  1  0.50000000  0.00000000  -0.00000000  1
  Cu  Cu7  1  0.00000000  0.50000000  0.50000000  1
  Cu  Cu8  1  0.27119162  0.75313134  0.74197685  1
  Cu  Cu9  1  0.22880838  0.25313134  0.24197685  1
  Cu  Cu10  1  0.72880838  0.24686866  0.25802315  1
  Cu  Cu11  1  0.77119162  0.74686866  0.75802315  1
  F  F12  1  0.32558030  0.95284522  0.86158969  1
  F  F13  1  0.17441970  0.45284522  0.36158969  1
  F  F14  1  0.67441970  0.04715478  0.13841031  1
  F  F15  1  0.82558030  0.54715478  0.63841031  1
  F  F16  1  0.78309759  0.42496606  0.39652309  1
  F  F17  1  0.71690241  0.92496606  0.89652309  1
  F  F18  1  0.21690241  0.57503394  0.60347691  1
  F  F19  1  0.28309759  0.07503394  0.10347691  1
  F  F20  1  0.52791490  0.74174238  0.67956657  1
  F  F21  1  0.97208510  0.24174238  0.17956657  1
  F  F22  1  0.47208510  0.25825762  0.32043343  1
  F  F23  1  0.02791490  0.75825762  0.82043343  1
  F  F24  1  0.14960348  0.01949358  0.35562702  1
  F  F25  1  0.35039652  0.51949358  0.85562702  1
  F  F26  1  0.85039652  0.98050642  0.64437298  1
  F  F27  1  0.64960348  0.48050642  0.14437298  1
  F  F28  1  0.72061274  0.55681098  0.91480225  1
  F  F29  1  0.77938726  0.05681098  0.41480225  1
  F  F30  1  0.27938726  0.44318902  0.08519775  1
  F  F31  1  0.22061274  0.94318902  0.58519775  1
  F  F32  1  0.45556311  0.73012586  0.06647922  1
  F  F33  1  0.04443689  0.23012586  0.56647922  1
  F  F34  1  0.54443689  0.26987414  0.93352078  1
  F  F35  1  0.95556311  0.76987414  0.43352078  1
