# generated using pymatgen
data_La8Sb2S15
_symmetry_space_group_name_H-M   'P 1'
_cell_length_a   15.09935616
_cell_length_b   15.09935616
_cell_length_c   15.09935616
_cell_angle_alpha   97.37457216
_cell_angle_beta   115.83759103
_cell_angle_gamma   115.83766313
_symmetry_Int_Tables_number   1
_chemical_formula_structural   La8Sb2S15
_chemical_formula_sum   'La32 Sb8 S60'
_cell_volume   2564.34193666
_cell_formula_units_Z   4
loop_
 _symmetry_equiv_pos_site_id
 _symmetry_equiv_pos_as_xyz
  1  'x, y, z'
loop_
 _atom_site_type_symbol
 _atom_site_label
 _atom_site_symmetry_multiplicity
 _atom_site_fract_x
 _atom_site_fract_y
 _atom_site_fract_z
 _atom_site_occupancy
  La  La0  1  0.86973075  0.08811071  0.91902835  1
  La  La1  1  0.16908236  0.58811071  0.71837996  1
  La  La2  1  0.66907219  0.96836292  0.33810489  1
  La  La3  1  0.36974198  0.16903270  0.83810489  1
  La  La4  1  0.13026925  0.04929759  0.21837996  1
  La  La5  1  0.83091764  0.54929759  0.41902835  1
  La  La6  1  0.33092781  0.66903270  0.29929072  1
  La  La7  1  0.63025802  0.46836292  0.79929072  1
  La  La8  1  0.67668409  0.21064768  0.84597354  1
  La  La9  1  0.36467414  0.71064768  0.03396360  1
  La  La10  1  0.86467225  0.28395764  0.46065290  1
  La  La11  1  0.17669526  0.09598065  0.96065290  1
  La  La12  1  0.32331591  0.16928945  0.53396360  1
  La  La13  1  0.63532586  0.66928945  0.34597354  1
  La  La14  1  0.13532775  0.59598065  0.41928539  1
  La  La15  1  0.82330474  0.78395764  0.91928539  1
  La  La16  1  0.15678686  0.36545888  0.93407680  1
  La  La17  1  0.43138208  0.86545888  0.70867202  1
  La  La18  1  0.93139477  0.95868070  0.61546399  1
  La  La19  1  0.65678329  0.18406922  0.11546399  1
  La  La20  1  0.84321314  0.77728994  0.20867202  1
  La  La21  1  0.56861792  0.27728994  0.43407680  1
  La  La22  1  0.06860523  0.68406922  0.02728594  1
  La  La23  1  0.34321671  0.45868070  0.52728594  1
  La  La24  1  0.79318438  0.14470154  0.65318312  1
  La  La25  1  0.49151842  0.64470154  0.85151716  1
  La  La26  1  0.99151330  0.10151641  0.39470492  1
  La  La27  1  0.29318851  0.90319162  0.89470492  1
  La  La28  1  0.20681562  0.85999874  0.35151716  1
  La  La29  1  0.50848158  0.35999874  0.15318312  1
  La  La30  1  0.00848670  0.40319162  0.11000311  1
  La  La31  1  0.70681149  0.60151641  0.61000311  1
  Sb  Sb32  1  0.88879769  0.44031778  0.75846196  1
  Sb  Sb33  1  0.68185582  0.94031778  0.05152010  1
  Sb  Sb34  1  0.18185608  0.30151991  0.69031699  1
  Sb  Sb35  1  0.38879708  0.00846091  0.19031699  1
  Sb  Sb36  1  0.11120231  0.86966427  0.55152010  1
  Sb  Sb37  1  0.31814418  0.36966427  0.25846196  1
  Sb  Sb38  1  0.81814392  0.50846091  0.11966383  1
  Sb  Sb39  1  0.61120292  0.80151991  0.61966383  1
  S  S40  1  0.50000000  0.24981857  0.74981857  1
  S  S41  1  0.50000000  0.74981857  0.24981857  1
  S  S42  1  0.00000000  0.49981931  0.49981931  1
  S  S43  1  0.00000000  0.99981931  0.99981931  1
  S  S44  1  0.68864311  0.27522996  0.66698325  1
  S  S45  1  0.60824671  0.77522996  0.08658685  1
  S  S46  1  0.10824771  0.33658798  0.52523076  1
  S  S47  1  0.18864278  0.91698305  0.02523076  1
  S  S48  1  0.31135689  0.97834014  0.58658685  1
  S  S49  1  0.39175329  0.47834014  0.16698325  1
  S  S50  1  0.89175229  0.41698305  0.22834027  1
  S  S51  1  0.81135722  0.83658798  0.72834027  1
  S  S52  1  0.30041764  0.52688637  0.87951997  1
  S  S53  1  0.64736640  0.02688637  0.72646872  1
  S  S54  1  0.14736719  0.97646978  0.77688591  1
  S  S55  1  0.80041613  0.12951872  0.27688591  1
  S  S56  1  0.69958236  0.57910232  0.22646872  1
  S  S57  1  0.35263360  0.07910232  0.37951997  1
  S  S58  1  0.85263281  0.62951872  0.82910259  1
  S  S59  1  0.19958387  0.47646978  0.32910259  1
  S  S60  1  0.91396583  0.28652423  0.88317038  1
  S  S61  1  0.40335386  0.78652423  0.87255840  1
  S  S62  1  0.90335342  0.12255729  0.53652456  1
  S  S63  1  0.41396727  0.13317114  0.03652456  1
  S  S64  1  0.08603417  0.96920455  0.37255840  1
  S  S65  1  0.59664614  0.46920455  0.38317038  1
  S  S66  1  0.09664658  0.63317114  0.21920387  1
  S  S67  1  0.58603273  0.62255729  0.71920387  1
  S  S68  1  0.68952903  0.91353799  0.52998252  1
  S  S69  1  0.38355546  0.41353799  0.72400896  1
  S  S70  1  0.88355606  0.97400946  0.16353867  1
  S  S71  1  0.18952920  0.77998261  0.66353867  1
  S  S72  1  0.31047097  0.84045349  0.22400896  1
  S  S73  1  0.61644454  0.34045349  0.02998252  1
  S  S74  1  0.11644394  0.27998261  0.09045341  1
  S  S75  1  0.81047080  0.47400946  0.59045341  1
  S  S76  1  0.14812738  0.68666976  0.87850958  1
  S  S77  1  0.80816018  0.18666976  0.03854238  1
  S  S78  1  0.30816189  0.28854207  0.93667138  1
  S  S79  1  0.64812932  0.12850950  0.43667138  1
  S  S80  1  0.85187262  0.73038220  0.53854238  1
  S  S81  1  0.19183982  0.23038220  0.37850958  1
  S  S82  1  0.69183811  0.62850950  0.98038018  1
  S  S83  1  0.35187068  0.78854207  0.48038018  1
  S  S84  1  0.99260391  0.12547265  0.80232674  1
  S  S85  1  0.32314591  0.62547265  0.63286874  1
  S  S86  1  0.82314507  0.88286945  0.37547228  1
  S  S87  1  0.49260283  0.05232722  0.87547228  1
  S  S88  1  0.00739609  0.80972283  0.13286874  1
  S  S89  1  0.67685409  0.30972283  0.30232674  1
  S  S90  1  0.17685493  0.55232722  0.05972438  1
  S  S91  1  0.50739717  0.38286945  0.55972438  1
  S  S92  1  0.98890070  0.36790293  0.70385694  1
  S  S93  1  0.66404599  0.86790293  0.87900223  1
  S  S94  1  0.16404660  0.12900183  0.61790370  1
  S  S95  1  0.48890187  0.95385710  0.11790370  1
  S  S96  1  0.01109930  0.71495624  0.37900223  1
  S  S97  1  0.33595401  0.21495624  0.20385694  1
  S  S98  1  0.83595340  0.45385710  0.96495523  1
  S  S99  1  0.51109813  0.62900183  0.46495523  1
