# generated using pymatgen
data_Mg5Si2(O4F)2
_symmetry_space_group_name_H-M   'P 1'
_cell_length_a   4.77655674
_cell_length_b   7.90184775
_cell_length_c   10.37437868
_cell_angle_alpha   109.13041539
_cell_angle_beta   90.00000000
_cell_angle_gamma   90.00000000
_symmetry_Int_Tables_number   1
_chemical_formula_structural   Mg5Si2(O4F)2
_chemical_formula_sum   'Mg10 Si4 O16 F4'
_cell_volume   369.94241088
_cell_formula_units_Z   2
loop_
 _symmetry_equiv_pos_site_id
 _symmetry_equiv_pos_as_xyz
  1  'x, y, z'
loop_
 _atom_site_type_symbol
 _atom_site_label
 _atom_site_symmetry_multiplicity
 _atom_site_fract_x
 _atom_site_fract_y
 _atom_site_fract_z
 _atom_site_occupancy
  Mg  Mg0  1  0.99135268  0.42106398  0.11357575  1
  Mg  Mg1  1  0.49135268  0.57893602  0.38642425  1
  Mg  Mg2  1  0.00864732  0.57893602  0.88642425  1
  Mg  Mg3  1  0.50864732  0.42106398  0.61357575  1
  Mg  Mg4  1  0.50691301  0.19768726  0.82802480  1
  Mg  Mg5  1  0.00691301  0.80231274  0.67197520  1
  Mg  Mg6  1  0.49308699  0.80231274  0.17197520  1
  Mg  Mg7  1  0.99308699  0.19768726  0.32802480  1
  Mg  Mg8  1  -0.00000000  0.00000000  0.00000000  1
  Mg  Mg9  1  0.50000000  0.00000000  0.50000000  1
  Si  Si10  1  0.57674004  0.79665292  0.85765400  1
  Si  Si11  1  0.07674004  0.20334708  0.64234600  1
  Si  Si12  1  0.42325996  0.20334708  0.14234600  1
  Si  Si13  1  0.92325996  0.79665292  0.35765400  1
  O  O14  1  0.27592619  0.20717728  0.99806499  1
  O  O15  1  0.77592619  0.79282272  0.50193501  1
  O  O16  1  0.72407381  0.79282272  0.00193501  1
  O  O17  1  0.22407381  0.20717728  0.49806499  1
  O  O18  1  0.77063786  0.62472918  0.24130087  1
  O  O19  1  0.27063786  0.37527082  0.25869913  1
  O  O20  1  0.22936214  0.37527082  0.75869913  1
  O  O21  1  0.72936214  0.62472918  0.74130087  1
  O  O22  1  0.72413868  0.97411207  0.83339652  1
  O  O23  1  0.22413868  0.02588793  0.66660348  1
  O  O24  1  0.27586132  0.02588793  0.16660348  1
  O  O25  1  0.77586132  0.97411207  0.33339652  1
  O  O26  1  0.23525335  0.79334260  0.85528232  1
  O  O27  1  0.73525335  0.20665740  0.64471768  1
  O  O28  1  0.76474665  0.20665740  0.14471768  1
  O  O29  1  0.26474665  0.79334260  0.35528232  1
  F  F30  1  0.77337634  0.39623893  0.94104992  1
  F  F31  1  0.27337634  0.60376107  0.55895008  1
  F  F32  1  0.22662366  0.60376107  0.05895008  1
  F  F33  1  0.72662366  0.39623893  0.44104992  1
