# generated using pymatgen
data_LiH2ClO5
_symmetry_space_group_name_H-M   'P 1'
_cell_length_a   5.35663138
_cell_length_b   7.80372897
_cell_length_c   10.51481302
_cell_angle_alpha   110.05747594
_cell_angle_beta   90.00000000
_cell_angle_gamma   110.07254595
_symmetry_Int_Tables_number   1
_chemical_formula_structural   LiH2ClO5
_chemical_formula_sum   'Li4 H8 Cl4 O20'
_cell_volume   384.33331113
_cell_formula_units_Z   4
loop_
 _symmetry_equiv_pos_site_id
 _symmetry_equiv_pos_as_xyz
  1  'x, y, z'
loop_
 _atom_site_type_symbol
 _atom_site_label
 _atom_site_symmetry_multiplicity
 _atom_site_fract_x
 _atom_site_fract_y
 _atom_site_fract_z
 _atom_site_occupancy
  Li  Li0  1  -0.00000000  0.50000000  -0.00000000  1
  Li  Li1  1  0.50000000  0.50000000  0.50000000  1
  Li  Li2  1  0.43435540  1.00000000  0.25000000  1
  Li  Li3  1  0.56564460  0.00000000  0.75000000  1
  H  H4  1  0.35748987  0.80219360  0.98582380  1
  H  H5  1  0.55529627  0.19780640  0.51417620  1
  H  H6  1  0.64251013  0.19780640  0.01417620  1
  H  H7  1  0.44470373  0.80219360  0.48582380  1
  H  H8  1  0.50698631  0.71687644  0.06322246  1
  H  H9  1  0.79010987  0.28312356  0.43677754  1
  H  H10  1  0.49301369  0.28312356  0.93677754  1
  H  H11  1  0.20989013  0.71687644  0.56322246  1
  Cl  Cl12  1  0.83123156  0.74322068  0.29384781  1
  Cl  Cl13  1  0.08801088  0.25677932  0.20615219  1
  Cl  Cl14  1  0.16876844  0.25677932  0.70615219  1
  Cl  Cl15  1  0.91198912  0.74322068  0.79384781  1
  O  O16  1  0.75538542  0.59001646  0.35065098  1
  O  O17  1  0.16536896  0.40998354  0.14934902  1
  O  O18  1  0.24461458  0.40998354  0.64934902  1
  O  O19  1  0.83463104  0.59001646  0.85065098  1
  O  O20  1  0.66342187  0.86113927  0.33769481  1
  O  O21  1  0.80228260  0.13886073  0.16230519  1
  O  O22  1  0.33657813  0.13886073  0.66230519  1
  O  O23  1  0.19771740  0.86113927  0.83769481  1
  O  O24  1  0.79072383  0.65605478  0.14412530  1
  O  O25  1  0.13466905  0.34394522  0.35587470  1
  O  O26  1  0.20927617  0.34394522  0.85587470  1
  O  O27  1  0.86533095  0.65605478  0.64412530  1
  O  O28  1  0.11222953  0.86734905  0.34127427  1
  O  O29  1  0.24488048  0.13265095  0.15872573  1
  O  O30  1  0.88777047  0.13265095  0.65872573  1
  O  O31  1  0.75511952  0.86734905  0.84127427  1
  O  O32  1  0.35260186  0.75789971  0.06275586  1
  O  O33  1  0.59470214  0.24210029  0.43724414  1
  O  O34  1  0.64739814  0.24210029  0.93724414  1
  O  O35  1  0.40529786  0.75789971  0.56275586  1
