# generated using pymatgen
data_CaP6(HN3)4
_symmetry_space_group_name_H-M   'P 1'
_cell_length_a   4.95135006
_cell_length_b   5.01894572
_cell_length_c   22.46550191
_cell_angle_alpha   90.00000000
_cell_angle_beta   90.00000000
_cell_angle_gamma   119.55546998
_symmetry_Int_Tables_number   1
_chemical_formula_structural   CaP6(HN3)4
_chemical_formula_sum   'Ca2 P12 H8 N24'
_cell_volume   485.63600956
_cell_formula_units_Z   2
loop_
 _symmetry_equiv_pos_site_id
 _symmetry_equiv_pos_as_xyz
  1  'x, y, z'
loop_
 _atom_site_type_symbol
 _atom_site_label
 _atom_site_symmetry_multiplicity
 _atom_site_fract_x
 _atom_site_fract_y
 _atom_site_fract_z
 _atom_site_occupancy
  Ca  Ca0  1  0.50000000  0.00000000  0.50000000  1
  Ca  Ca1  1  0.00000000  -0.00000000  -0.00000000  1
  P  P2  1  0.84099375  0.67244485  0.40553476  1
  P  P3  1  0.83145111  0.67244485  0.59446524  1
  P  P4  1  0.33145111  0.67244485  0.90553476  1
  P  P5  1  0.34099375  0.67244485  0.09446524  1
  P  P6  1  0.15900625  0.32755515  0.59446524  1
  P  P7  1  0.16854889  0.32755515  0.40553476  1
  P  P8  1  0.66854889  0.32755515  0.09446524  1
  P  P9  1  0.65900625  0.32755515  0.90553476  1
  P  P10  1  0.91982452  -0.00000000  0.28648322  1
  P  P11  1  0.08017548  -0.00000000  0.71351678  1
  P  P12  1  0.58017548  0.00000000  0.78648322  1
  P  P13  1  0.41982452  0.00000000  0.21351678  1
  H  H14  1  0.28001002  0.49904706  0.30780710  1
  H  H15  1  0.21903705  0.49904706  0.69219290  1
  H  H16  1  0.71903705  0.49904706  0.80780710  1
  H  H17  1  0.78001002  0.49904706  0.19219290  1
  H  H18  1  0.71998998  0.50095294  0.69219290  1
  H  H19  1  0.78096295  0.50095294  0.30780710  1
  H  H20  1  0.28096295  0.50095294  0.19219290  1
  H  H21  1  0.21998998  0.50095294  0.80780710  1
  N  N22  1  0.13872923  0.29916874  0.32998600  1
  N  N23  1  0.16043951  0.29916874  0.67001400  1
  N  N24  1  0.66043951  0.29916874  0.82998600  1
  N  N25  1  0.63872923  0.29916874  0.17001400  1
  N  N26  1  0.86127077  0.70083126  0.67001400  1
  N  N27  1  0.83956049  0.70083126  0.32998600  1
  N  N28  1  0.33956049  0.70083126  0.17001400  1
  N  N29  1  0.36127077  0.70083126  0.82998600  1
  N  N30  1  0.11664813  0.60677284  0.42663113  1
  N  N31  1  0.49012471  0.60677284  0.57336887  1
  N  N32  1  0.99012471  0.60677284  0.92663113  1
  N  N33  1  0.61664813  0.60677284  0.07336887  1
  N  N34  1  0.88335187  0.39322716  0.57336887  1
  N  N35  1  0.50987529  0.39322716  0.42663113  1
  N  N36  1  0.00987529  0.39322716  0.07336887  1
  N  N37  1  0.38335187  0.39322716  0.92663113  1
  N  N38  1  0.59833378  -0.00000000  0.27251640  1
  N  N39  1  0.40166622  -0.00000000  0.72748360  1
  N  N40  1  0.90166622  0.00000000  0.77251640  1
  N  N41  1  0.09833378  0.00000000  0.22748360  1
  N  N42  1  0.90417733  -0.00000000  0.43042796  1
  N  N43  1  0.09582267  0.00000000  0.56957204  1
  N  N44  1  0.59582267  0.00000000  0.93042796  1
  N  N45  1  0.40417733  -0.00000000  0.06957204  1
