# generated using pymatgen
data_Te(S2O7)2
_symmetry_space_group_name_H-M   'P 1'
_cell_length_a   8.54593136
_cell_length_b   11.06674284
_cell_length_c   12.45051046
_cell_angle_alpha   102.44069462
_cell_angle_beta   90.00000000
_cell_angle_gamma   90.00000000
_symmetry_Int_Tables_number   1
_chemical_formula_structural   Te(S2O7)2
_chemical_formula_sum   'Te4 S16 O56'
_cell_volume   1149.86618565
_cell_formula_units_Z   4
loop_
 _symmetry_equiv_pos_site_id
 _symmetry_equiv_pos_as_xyz
  1  'x, y, z'
loop_
 _atom_site_type_symbol
 _atom_site_label
 _atom_site_symmetry_multiplicity
 _atom_site_fract_x
 _atom_site_fract_y
 _atom_site_fract_z
 _atom_site_occupancy
  Te  Te0  1  0.44499810  0.49444521  0.74414816  1
  Te  Te1  1  0.05500190  0.99444521  0.24414816  1
  Te  Te2  1  0.55500190  0.50555479  0.25585184  1
  Te  Te3  1  0.94499810  0.00555479  0.75585184  1
  S  S4  1  0.26060468  0.44309298  0.50126449  1
  S  S5  1  0.23939532  0.94309298  0.00126449  1
  S  S6  1  0.73939532  0.55690702  0.49873551  1
  S  S7  1  0.76060468  0.05690702  0.99873551  1
  S  S8  1  0.17427223  0.66172227  0.66281144  1
  S  S9  1  0.32572777  0.16172227  0.16281144  1
  S  S10  1  0.82572777  0.33827773  0.33718856  1
  S  S11  1  0.67427223  0.83827773  0.83718856  1
  S  S12  1  0.25021371  0.57420600  0.98522143  1
  S  S13  1  0.24978629  0.07420600  0.48522143  1
  S  S14  1  0.74978629  0.42579400  0.01477857  1
  S  S15  1  0.75021371  0.92579400  0.51477857  1
  S  S16  1  0.22774935  0.32041045  0.85447247  1
  S  S17  1  0.27225065  0.82041045  0.35447247  1
  S  S18  1  0.77225065  0.67958955  0.14552753  1
  S  S19  1  0.72774935  0.17958955  0.64552753  1
  O  O20  1  0.40131574  0.55580382  0.91656112  1
  O  O21  1  0.09868426  0.05580382  0.41656112  1
  O  O22  1  0.59868426  0.44419618  0.08343888  1
  O  O23  1  0.90131574  0.94419618  0.58343888  1
  O  O24  1  0.40156732  0.43083899  0.57597894  1
  O  O25  1  0.09843268  0.93083899  0.07597894  1
  O  O26  1  0.59843268  0.56916101  0.42402106  1
  O  O27  1  0.90156732  0.06916101  0.92402106  1
  O  O28  1  0.22661067  0.59655892  0.53854673  1
  O  O29  1  0.27338933  0.09655892  0.03854673  1
  O  O30  1  0.77338933  0.40344108  0.46145327  1
  O  O31  1  0.72661067  0.90344108  0.96145327  1
  O  O32  1  0.26453800  0.38310385  0.75175506  1
  O  O33  1  0.23546200  0.88310385  0.25175506  1
  O  O34  1  0.73546200  0.61689615  0.24824494  1
  O  O35  1  0.76453800  0.11689615  0.74824494  1
  O  O36  1  0.33298787  0.64682080  0.72869842  1
  O  O37  1  0.16701213  0.14682080  0.22869842  1
  O  O38  1  0.66701213  0.35317920  0.27130158  1
  O  O39  1  0.83298787  0.85317920  0.77130158  1
  O  O40  1  0.12501166  0.37892877  0.52443216  1
  O  O41  1  0.37498834  0.87892877  0.02443216  1
  O  O42  1  0.87498834  0.62107123  0.47556784  1
  O  O43  1  0.62501166  0.12107123  0.97556784  1
  O  O44  1  0.28464821  0.57873721  0.09842514  1
  O  O45  1  0.21535179  0.07873721  0.59842514  1
  O  O46  1  0.71535179  0.42126279  0.90157486  1
  O  O47  1  0.78464821  0.92126279  0.40157486  1
  O  O48  1  0.31499776  0.43119126  0.39051966  1
  O  O49  1  0.18500224  0.93119126  0.89051966  1
  O  O50  1  0.68500224  0.56880874  0.60948034  1
  O  O51  1  0.81499776  0.06880874  0.10948034  1
  O  O52  1  0.05077911  0.59603623  0.70087210  1
  O  O53  1  0.44922089  0.09603623  0.20087210  1
  O  O54  1  0.94922089  0.40396377  0.29912790  1
  O  O55  1  0.55077911  0.90396377  0.79912790  1
  O  O56  1  0.14336209  0.65909608  0.95371333  1
  O  O57  1  0.35663791  0.15909608  0.45371333  1
  O  O58  1  0.85663791  0.34090392  0.04628667  1
  O  O59  1  0.64336209  0.84090392  0.54628667  1
  O  O60  1  0.16482418  0.79015580  0.66101000  1
  O  O61  1  0.33517582  0.29015580  0.16101000  1
  O  O62  1  0.83517582  0.20984420  0.33899000  1
  O  O63  1  0.66482418  0.70984420  0.83899000  1
  O  O64  1  0.09586995  0.24139687  0.82092789  1
  O  O65  1  0.40413005  0.74139687  0.32092789  1
  O  O66  1  0.90413005  0.75860313  0.17907211  1
  O  O67  1  0.59586995  0.25860313  0.67907211  1
  O  O68  1  0.15674019  0.43434427  0.94171647  1
  O  O69  1  0.34325981  0.93434427  0.44171647  1
  O  O70  1  0.84325981  0.56565573  0.05828353  1
  O  O71  1  0.65674019  0.06565573  0.55828353  1
  O  O72  1  0.36941228  0.27615385  0.89224607  1
  O  O73  1  0.13058772  0.77615385  0.39224607  1
  O  O74  1  0.63058772  0.72384615  0.10775393  1
  O  O75  1  0.86941228  0.22384615  0.60775393  1
