# generated using pymatgen
data_SbSNF6
_symmetry_space_group_name_H-M   'P 1'
_cell_length_a   8.49527580
_cell_length_b   10.58858470
_cell_length_c   14.15977719
_cell_angle_alpha   90.00000000
_cell_angle_beta   90.00000000
_cell_angle_gamma   90.00000000
_symmetry_Int_Tables_number   1
_chemical_formula_structural   SbSNF6
_chemical_formula_sum   'Sb8 S8 N8 F48'
_cell_volume   1273.71369218
_cell_formula_units_Z   8
loop_
 _symmetry_equiv_pos_site_id
 _symmetry_equiv_pos_as_xyz
  1  'x, y, z'
loop_
 _atom_site_type_symbol
 _atom_site_label
 _atom_site_symmetry_multiplicity
 _atom_site_fract_x
 _atom_site_fract_y
 _atom_site_fract_z
 _atom_site_occupancy
  Sb  Sb0  1  0.77274596  0.01462299  0.12344337  1
  Sb  Sb1  1  0.72725404  0.98537701  0.62344337  1
  Sb  Sb2  1  0.77274596  0.48537701  0.62344337  1
  Sb  Sb3  1  0.22725404  0.98537701  0.87655663  1
  Sb  Sb4  1  0.22725404  0.51462299  0.37655663  1
  Sb  Sb5  1  0.27274596  0.01462299  0.37655663  1
  Sb  Sb6  1  0.72725404  0.51462299  0.12344337  1
  Sb  Sb7  1  0.27274596  0.48537701  0.87655663  1
  S  S8  1  0.68590493  0.74623612  0.87996069  1
  S  S9  1  0.68590493  0.75376388  0.37996069  1
  S  S10  1  0.18590493  0.74623612  0.62003931  1
  S  S11  1  0.18590493  0.75376388  0.12003931  1
  S  S12  1  0.31409507  0.24623612  0.62003931  1
  S  S13  1  0.31409507  0.25376388  0.12003931  1
  S  S14  1  0.81409507  0.24623612  0.87996069  1
  S  S15  1  0.81409507  0.25376388  0.37996069  1
  N  N16  1  0.65757114  0.19603359  0.87685845  1
  N  N17  1  0.84242886  0.69603359  0.87685845  1
  N  N18  1  0.34242886  0.80396641  0.12314155  1
  N  N19  1  0.15757114  0.19603359  0.62314155  1
  N  N20  1  0.34242886  0.69603359  0.62314155  1
  N  N21  1  0.84242886  0.80396641  0.37685845  1
  N  N22  1  0.65757114  0.30396641  0.37685845  1
  N  N23  1  0.15757114  0.30396641  0.12314155  1
  F  F24  1  0.96335381  0.58410164  0.63348960  1
  F  F25  1  0.08794014  0.38263824  0.88778057  1
  F  F26  1  0.22408725  0.56584078  0.99497907  1
  F  F27  1  0.33934336  0.38809882  0.30840873  1
  F  F28  1  0.72408725  0.56584078  0.50502093  1
  F  F29  1  0.38841635  0.35802683  0.94423411  1
  F  F30  1  0.11158365  0.64197317  0.44423411  1
  F  F31  1  0.96335381  0.91589836  0.13348960  1
  F  F32  1  0.32414724  0.09503034  0.25801947  1
  F  F33  1  0.17585276  0.90496966  0.75801947  1
  F  F34  1  0.83934336  0.38809882  0.19159127  1
  F  F35  1  0.66065664  0.88809882  0.19159127  1
  F  F36  1  0.61158365  0.85802683  0.55576589  1
  F  F37  1  0.16065664  0.61190118  0.80840873  1
  F  F38  1  0.41205986  0.88263824  0.88778057  1
  F  F39  1  0.16065664  0.88809882  0.30840873  1
  F  F40  1  0.53664619  0.08410164  0.63348960  1
  F  F41  1  0.58794014  0.11736176  0.11221943  1
  F  F42  1  0.27591275  0.43415922  0.49497907  1
  F  F43  1  0.91205986  0.88263824  0.61221943  1
  F  F44  1  0.88841635  0.35802683  0.55576589  1
  F  F45  1  0.88841635  0.14197317  0.05576589  1
  F  F46  1  0.77591275  0.43415922  0.00502093  1
  F  F47  1  0.33934336  0.11190118  0.80840873  1
  F  F48  1  0.41205986  0.61736176  0.38778057  1
  F  F49  1  0.58794014  0.38263824  0.61221943  1
  F  F50  1  0.32414724  0.40496966  0.75801947  1
  F  F51  1  0.17585276  0.59503034  0.25801947  1
  F  F52  1  0.66065664  0.61190118  0.69159127  1
  F  F53  1  0.11158365  0.85802683  0.94423411  1
  F  F54  1  0.82414724  0.09503034  0.24198053  1
  F  F55  1  0.22408725  0.93415922  0.49497907  1
  F  F56  1  0.03664619  0.41589836  0.36651040  1
  F  F57  1  0.38841635  0.14197317  0.44423411  1
  F  F58  1  0.91205986  0.61736176  0.11221943  1
  F  F59  1  0.27591275  0.06584078  0.99497907  1
  F  F60  1  0.53664619  0.41589836  0.13348960  1
  F  F61  1  0.46335381  0.91589836  0.36651040  1
  F  F62  1  0.46335381  0.58410164  0.86651040  1
  F  F63  1  0.67585276  0.90496966  0.74198053  1
  F  F64  1  0.72408725  0.93415922  0.00502093  1
  F  F65  1  0.08794014  0.11736176  0.38778057  1
  F  F66  1  0.82414724  0.40496966  0.74198053  1
  F  F67  1  0.03664619  0.08410164  0.86651040  1
  F  F68  1  0.77591275  0.06584078  0.50502093  1
  F  F69  1  0.67585276  0.59503034  0.24198053  1
  F  F70  1  0.61158365  0.64197317  0.05576589  1
  F  F71  1  0.83934336  0.11190118  0.69159127  1
