# generated using pymatgen
data_NaVH2(OF2)2
_symmetry_space_group_name_H-M   'P 1'
_cell_length_a   4.97653967
_cell_length_b   9.72752906
_cell_length_c   10.26389178
_cell_angle_alpha   90.00000000
_cell_angle_beta   90.00000000
_cell_angle_gamma   90.00000000
_symmetry_Int_Tables_number   1
_chemical_formula_structural   NaVH2(OF2)2
_chemical_formula_sum   'Na4 V4 H8 O8 F16'
_cell_volume   496.86919436
_cell_formula_units_Z   4
loop_
 _symmetry_equiv_pos_site_id
 _symmetry_equiv_pos_as_xyz
  1  'x, y, z'
loop_
 _atom_site_type_symbol
 _atom_site_label
 _atom_site_symmetry_multiplicity
 _atom_site_fract_x
 _atom_site_fract_y
 _atom_site_fract_z
 _atom_site_occupancy
  Na  Na0  1  0.31639503  0.09257699  0.63053236  1
  Na  Na1  1  0.81639503  0.90742301  0.36946764  1
  Na  Na2  1  0.81639503  0.59257699  0.86946764  1
  Na  Na3  1  0.31639503  0.40742301  0.13053236  1
  V  V4  1  0.27978482  0.72269508  0.60515146  1
  V  V5  1  0.77978482  0.27730492  0.39484854  1
  V  V6  1  0.77978482  0.22269508  0.89484854  1
  V  V7  1  0.27978482  0.77730492  0.10515146  1
  H  H8  1  0.00318137  0.37625585  0.68628000  1
  H  H9  1  0.50318137  0.62374415  0.31372000  1
  H  H10  1  0.50318137  0.87625585  0.81372000  1
  H  H11  1  0.00318137  0.12374415  0.18628000  1
  H  H12  1  0.23050541  0.37861677  0.78916966  1
  H  H13  1  0.73050541  0.62138323  0.21083034  1
  H  H14  1  0.73050541  0.87861677  0.71083034  1
  H  H15  1  0.23050541  0.12138323  0.28916966  1
  O  O16  1  0.03747401  0.39514192  0.77838516  1
  O  O17  1  0.53747401  0.60485808  0.22161484  1
  O  O18  1  0.53747401  0.89514192  0.72161484  1
  O  O19  1  0.03747401  0.10485808  0.27838516  1
  O  O20  1  0.10494534  0.88971723  0.02936095  1
  O  O21  1  0.60494534  0.11028277  0.97063905  1
  O  O22  1  0.60494534  0.38971723  0.47063905  1
  O  O23  1  0.10494534  0.61028277  0.52936095  1
  F  F24  1  0.04929867  0.24727778  0.51622857  1
  F  F25  1  0.54929867  0.75272222  0.48377143  1
  F  F26  1  0.54929867  0.74727778  0.98377143  1
  F  F27  1  0.04929867  0.25272222  0.01622857  1
  F  F28  1  0.12012158  0.88737093  0.54479846  1
  F  F29  1  0.62012158  0.11262907  0.45520154  1
  F  F30  1  0.62012158  0.38737093  0.95520154  1
  F  F31  1  0.12012158  0.61262907  0.04479846  1
  F  F32  1  0.56608680  0.24829880  0.74780336  1
  F  F33  1  0.06608680  0.75170120  0.25219664  1
  F  F34  1  0.06608680  0.74829880  0.75219664  1
  F  F35  1  0.56608680  0.25170120  0.24780336  1
  F  F36  1  0.00051696  0.11168757  0.79816171  1
  F  F37  1  0.50051696  0.88831243  0.20183829  1
  F  F38  1  0.50051696  0.61168757  0.70183829  1
  F  F39  1  0.00051696  0.38831243  0.29816171  1
