# generated using pymatgen
data_K2Zn3(SeO3)4
_symmetry_space_group_name_H-M   'P 1'
_cell_length_a   7.29659339
_cell_length_b   7.29659339
_cell_length_c   14.01261106
_cell_angle_alpha   87.33200109
_cell_angle_beta   87.33200109
_cell_angle_gamma   74.51321957
_symmetry_Int_Tables_number   1
_chemical_formula_structural   K2Zn3(SeO3)4
_chemical_formula_sum   'K4 Zn6 Se8 O24'
_cell_volume   717.71773266
_cell_formula_units_Z   2
loop_
 _symmetry_equiv_pos_site_id
 _symmetry_equiv_pos_as_xyz
  1  'x, y, z'
loop_
 _atom_site_type_symbol
 _atom_site_label
 _atom_site_symmetry_multiplicity
 _atom_site_fract_x
 _atom_site_fract_y
 _atom_site_fract_z
 _atom_site_occupancy
  K  K0  1  0.20225897  0.21733031  0.01694808  1
  K  K1  1  0.78266969  0.79774103  0.48305192  1
  K  K2  1  0.79774103  0.78266969  0.98305192  1
  K  K3  1  0.21733031  0.20225897  0.51694808  1
  Zn  Zn4  1  0.67689447  0.37387057  0.10193004  1
  Zn  Zn5  1  0.62612943  0.32310553  0.39806996  1
  Zn  Zn6  1  0.32310553  0.62612943  0.89806996  1
  Zn  Zn7  1  0.37387057  0.67689447  0.60193004  1
  Zn  Zn8  1  0.99935786  0.00064214  0.25000000  1
  Zn  Zn9  1  0.00064214  0.99935786  0.75000000  1
  Se  Se10  1  0.97833110  0.41659644  0.27789262  1
  Se  Se11  1  0.58340356  0.02166890  0.22210738  1
  Se  Se12  1  0.02166890  0.58340356  0.72210738  1
  Se  Se13  1  0.41659644  0.97833110  0.77789262  1
  Se  Se14  1  0.32317854  0.71847602  0.37103890  1
  Se  Se15  1  0.28152398  0.67682146  0.12896110  1
  Se  Se16  1  0.67682146  0.28152398  0.62896110  1
  Se  Se17  1  0.71847602  0.32317854  0.87103890  1
  O  O18  1  0.07671186  0.19751671  0.33214718  1
  O  O19  1  0.80248329  0.92328814  0.16785282  1
  O  O20  1  0.92328814  0.80248329  0.66785282  1
  O  O21  1  0.19751671  0.07671186  0.83214718  1
  O  O22  1  0.76925660  0.50184088  0.34565142  1
  O  O23  1  0.49815912  0.23074340  0.15434858  1
  O  O24  1  0.23074340  0.49815912  0.65434858  1
  O  O25  1  0.50184088  0.76925660  0.84565142  1
  O  O26  1  0.91163975  0.32327358  0.17603849  1
  O  O27  1  0.67672642  0.08836025  0.32396151  1
  O  O28  1  0.08836025  0.67672642  0.82396151  1
  O  O29  1  0.32327358  0.91163975  0.67603849  1
  O  O30  1  0.08087982  0.78809134  0.35438707  1
  O  O31  1  0.21190866  0.91912018  0.14561293  1
  O  O32  1  0.91912018  0.21190866  0.64561293  1
  O  O33  1  0.78809134  0.08087982  0.85438707  1
  O  O34  1  0.34777889  0.82149584  0.47724034  1
  O  O35  1  0.17850416  0.65222111  0.02275966  1
  O  O36  1  0.65222111  0.17850416  0.52275966  1
  O  O37  1  0.82149584  0.34777889  0.97724034  1
  O  O38  1  0.35510584  0.48208873  0.40810482  1
  O  O39  1  0.51791127  0.64489416  0.09189518  1
  O  O40  1  0.64489416  0.51791127  0.59189518  1
  O  O41  1  0.48208873  0.35510584  0.90810482  1
