# generated using pymatgen
data_BaC2(NO)2
_symmetry_space_group_name_H-M   'P 1'
_cell_length_a   7.18258691
_cell_length_b   7.18258691
_cell_length_c   14.18724122
_cell_angle_alpha   75.33687284
_cell_angle_beta   75.33687284
_cell_angle_gamma   59.99999256
_symmetry_Int_Tables_number   1
_chemical_formula_structural   BaC2(NO)2
_chemical_formula_sum   'Ba6 C12 N12 O12'
_cell_volume   606.17387473
_cell_formula_units_Z   6
loop_
 _symmetry_equiv_pos_site_id
 _symmetry_equiv_pos_as_xyz
  1  'x, y, z'
loop_
 _atom_site_type_symbol
 _atom_site_label
 _atom_site_symmetry_multiplicity
 _atom_site_fract_x
 _atom_site_fract_y
 _atom_site_fract_z
 _atom_site_occupancy
  Ba  Ba0  1  0.85118760  0.85118760  0.44643720  1
  Ba  Ba1  1  0.35118760  0.35118760  0.94643720  1
  Ba  Ba2  1  0.14881240  0.14881240  0.55356280  1
  Ba  Ba3  1  0.64881240  0.64881240  0.05356280  1
  Ba  Ba4  1  0.75000000  0.75000000  0.75000000  1
  Ba  Ba5  1  0.25000000  0.25000000  0.25000000  1
  C  C6  1  0.73910897  0.50333133  0.38357383  1
  C  C7  1  0.50333133  0.37398586  0.38357383  1
  C  C8  1  0.37398586  0.73910897  0.38357383  1
  C  C9  1  0.23910897  0.87398586  0.88357383  1
  C  C10  1  0.87398586  0.00333133  0.88357383  1
  C  C11  1  0.00333133  0.23910897  0.88357383  1
  C  C12  1  0.26089103  0.49666867  0.61642617  1
  C  C13  1  0.49666867  0.62601414  0.61642617  1
  C  C14  1  0.62601414  0.26089103  0.61642617  1
  C  C15  1  0.76089103  0.12601414  0.11642617  1
  C  C16  1  0.12601414  0.99666867  0.11642617  1
  C  C17  1  0.99666867  0.76089103  0.11642617  1
  N  N18  1  0.57603618  0.71180959  0.38154295  1
  N  N19  1  0.71180959  0.33061128  0.38154295  1
  N  N20  1  0.33061128  0.57603618  0.38154295  1
  N  N21  1  0.07603618  0.83061128  0.88154295  1
  N  N22  1  0.83061128  0.21180959  0.88154295  1
  N  N23  1  0.21180959  0.07603618  0.88154295  1
  N  N24  1  0.42396382  0.28819041  0.61845705  1
  N  N25  1  0.28819041  0.66938872  0.61845705  1
  N  N26  1  0.66938872  0.42396382  0.61845705  1
  N  N27  1  0.92396382  0.16938872  0.11845705  1
  N  N28  1  0.16938872  0.78819041  0.11845705  1
  N  N29  1  0.78819041  0.92396382  0.11845705  1
  O  O30  1  0.20793316  0.93221817  0.38980719  1
  O  O31  1  0.93221817  0.47004149  0.38980719  1
  O  O32  1  0.47004149  0.20793316  0.38980719  1
  O  O33  1  0.70793316  0.97004149  0.88980719  1
  O  O34  1  0.97004149  0.43221817  0.88980719  1
  O  O35  1  0.43221817  0.70793316  0.88980719  1
  O  O36  1  0.79206684  0.06778183  0.61019281  1
  O  O37  1  0.06778183  0.52995851  0.61019281  1
  O  O38  1  0.52995851  0.79206684  0.61019281  1
  O  O39  1  0.29206684  0.02995851  0.11019281  1
  O  O40  1  0.02995851  0.56778183  0.11019281  1
  O  O41  1  0.56778183  0.29206684  0.11019281  1
