# generated using pymatgen
data_Ba3Sb2S7
_symmetry_space_group_name_H-M   'P 1'
_cell_length_a   11.19649262
_cell_length_b   11.19649262
_cell_length_c   13.40988765
_cell_angle_alpha   73.33607751
_cell_angle_beta   73.33607751
_cell_angle_gamma   67.48368359
_symmetry_Int_Tables_number   1
_chemical_formula_structural   Ba3Sb2S7
_chemical_formula_sum   'Ba12 Sb8 S28'
_cell_volume   1457.67593398
_cell_formula_units_Z   4
loop_
 _symmetry_equiv_pos_site_id
 _symmetry_equiv_pos_as_xyz
  1  'x, y, z'
loop_
 _atom_site_type_symbol
 _atom_site_label
 _atom_site_symmetry_multiplicity
 _atom_site_fract_x
 _atom_site_fract_y
 _atom_site_fract_z
 _atom_site_occupancy
  Ba  Ba0  1  0.60238092  0.59422202  0.32720444  1
  Ba  Ba1  1  0.40577798  0.39761908  0.17279556  1
  Ba  Ba2  1  0.39761908  0.40577798  0.67279556  1
  Ba  Ba3  1  0.59422202  0.60238092  0.82720444  1
  Ba  Ba4  1  0.10509764  0.10782464  0.32297473  1
  Ba  Ba5  1  0.89217536  0.89490236  0.17702527  1
  Ba  Ba6  1  0.89490236  0.89217536  0.67702527  1
  Ba  Ba7  1  0.10782464  0.10509764  0.82297473  1
  Ba  Ba8  1  0.88635876  0.37624188  0.05684578  1
  Ba  Ba9  1  0.62375812  0.11364124  0.44315422  1
  Ba  Ba10  1  0.11364124  0.62375812  0.94315422  1
  Ba  Ba11  1  0.37624188  0.88635876  0.55684578  1
  Sb  Sb12  1  0.24320240  0.29794530  0.48911751  1
  Sb  Sb13  1  0.70205470  0.75679760  0.01088249  1
  Sb  Sb14  1  0.75679760  0.70205470  0.51088249  1
  Sb  Sb15  1  0.29794530  0.24320240  0.98911751  1
  Sb  Sb16  1  0.13931068  0.69513417  0.40903826  1
  Sb  Sb17  1  0.30486583  0.86068932  0.09096174  1
  Sb  Sb18  1  0.86068932  0.30486583  0.59096174  1
  Sb  Sb19  1  0.69513417  0.13931068  0.90903826  1
  S  S20  1  0.80819367  0.29998841  0.31962024  1
  S  S21  1  0.70001159  0.19180633  0.18037976  1
  S  S22  1  0.19180633  0.70001159  0.68037976  1
  S  S23  1  0.29998841  0.80819367  0.81962024  1
  S  S24  1  0.89250605  0.38873431  0.38657852  1
  S  S25  1  0.61126569  0.10749395  0.11342148  1
  S  S26  1  0.10749395  0.61126569  0.61342148  1
  S  S27  1  0.38873431  0.89250605  0.88657852  1
  S  S28  1  0.84990005  0.64470045  0.13742745  1
  S  S29  1  0.35529955  0.15009995  0.36257255  1
  S  S30  1  0.15009995  0.35529955  0.86257255  1
  S  S31  1  0.64470045  0.84990005  0.63742745  1
  S  S32  1  0.15409674  0.35507552  0.13367385  1
  S  S33  1  0.64492448  0.84590326  0.36632615  1
  S  S34  1  0.84590326  0.64492448  0.86632615  1
  S  S35  1  0.35507552  0.15409674  0.63367385  1
  S  S36  1  0.40638904  0.42179902  0.41538128  1
  S  S37  1  0.57820098  0.59361096  0.08461872  1
  S  S38  1  0.59361096  0.57820098  0.58461872  1
  S  S39  1  0.42179902  0.40638904  0.91538128  1
  S  S40  1  0.94271858  0.89980273  0.41223304  1
  S  S41  1  0.10019727  0.05728142  0.08776696  1
  S  S42  1  0.05728142  0.10019727  0.58776696  1
  S  S43  1  0.89980273  0.94271858  0.91223304  1
  S  S44  1  0.30116647  0.80358618  0.37213887  1
  S  S45  1  0.19641382  0.69883353  0.12786113  1
  S  S46  1  0.69883353  0.19641382  0.62786113  1
  S  S47  1  0.80358618  0.30116647  0.87213887  1
