# generated using pymatgen
data_MnAs2H16(S2N)4
_symmetry_space_group_name_H-M   'P 1'
_cell_length_a   9.01174285
_cell_length_b   9.40750416
_cell_length_c   21.40694456
_cell_angle_alpha   97.52348718
_cell_angle_beta   90.00000000
_cell_angle_gamma   90.00000000
_symmetry_Int_Tables_number   1
_chemical_formula_structural   MnAs2H16(S2N)4
_chemical_formula_sum   'Mn4 As8 H64 S32 N16'
_cell_volume   1799.21467679
_cell_formula_units_Z   4
loop_
 _symmetry_equiv_pos_site_id
 _symmetry_equiv_pos_as_xyz
  1  'x, y, z'
loop_
 _atom_site_type_symbol
 _atom_site_label
 _atom_site_symmetry_multiplicity
 _atom_site_fract_x
 _atom_site_fract_y
 _atom_site_fract_z
 _atom_site_occupancy
  Mn  Mn0  1  0.87629733  0.33075076  0.95863938  1
  Mn  Mn1  1  0.12370267  0.66924924  0.04136062  1
  Mn  Mn2  1  0.87629733  0.16924924  0.54136062  1
  Mn  Mn3  1  0.12370267  0.83075076  0.45863938  1
  As  As4  1  0.15943271  0.49748560  0.89475185  1
  As  As5  1  0.84056729  0.50251440  0.10524815  1
  As  As6  1  0.15943271  0.00251440  0.60524815  1
  As  As7  1  0.84056729  0.99748560  0.39475185  1
  As  As8  1  0.70186116  0.05889000  0.87478096  1
  As  As9  1  0.29813884  0.94111000  0.12521904  1
  As  As10  1  0.70186116  0.44111000  0.62521904  1
  As  As11  1  0.29813884  0.55889000  0.37478096  1
  H  H12  1  0.34286122  0.34163392  0.76022816  1
  H  H13  1  0.65713878  0.65836608  0.23977184  1
  H  H14  1  0.34286122  0.15836608  0.73977184  1
  H  H15  1  0.65713878  0.84163392  0.26022816  1
  H  H16  1  0.47687387  0.24291764  0.78895098  1
  H  H17  1  0.52312613  0.75708236  0.21104902  1
  H  H18  1  0.47687387  0.25708236  0.71104902  1
  H  H19  1  0.52312613  0.74291764  0.28895098  1
  H  H20  1  0.65213144  0.89010050  0.70973165  1
  H  H21  1  0.34786856  0.10989950  0.29026835  1
  H  H22  1  0.65213144  0.60989950  0.79026835  1
  H  H23  1  0.34786856  0.39010050  0.20973165  1
  H  H24  1  0.58233143  0.76050397  0.65233846  1
  H  H25  1  0.41766857  0.23949603  0.34766154  1
  H  H26  1  0.58233143  0.73949603  0.84766154  1
  H  H27  1  0.41766857  0.26050397  0.15233846  1
  H  H28  1  0.65767674  0.91613205  0.63359617  1
  H  H29  1  0.34232326  0.08386795  0.36640383  1
  H  H30  1  0.65767674  0.58386795  0.86640383  1
  H  H31  1  0.34232326  0.41613205  0.13359617  1
  H  H32  1  0.48970928  0.91540852  0.67016367  1
  H  H33  1  0.51029072  0.08459148  0.32983633  1
  H  H34  1  0.48970928  0.58459148  0.82983633  1
  H  H35  1  0.51029072  0.41540852  0.17016367  1
  H  H36  1  0.00456732  0.26840758  0.79071949  1
  H  H37  1  0.99543268  0.73159242  0.20928051  1
  H  H38  1  0.00456732  0.23159242  0.70928051  1
  H  H39  1  0.99543268  0.76840758  0.29071949  1
  H  H40  1  0.87534059  0.33975426  0.74558247  1
  H  H41  1  0.12465941  0.66024574  0.25441753  1
  H  H42  1  0.87534059  0.16024574  0.75441753  1
  H  H43  1  0.12465941  0.83975426  0.24558247  1
  H  H44  1  0.16450693  0.79129137  0.84064827  1
  H  H45  1  0.83549307  0.20870863  0.15935173  1
  H  H46  1  0.16450693  0.70870863  0.65935173  1
  H  H47  1  0.83549307  0.29129137  0.34064827  1
  H  H48  1  0.02615183  0.91408789  0.83380649  1
  H  H49  1  0.97384817  0.08591211  0.16619351  1
  H  H50  1  0.02615183  0.58591211  0.66619351  1
  H  H51  1  0.97384817  0.41408789  0.33380649  1
  H  H52  1  0.19872689  0.96901366  0.86105008  1
  H  H53  1  0.80127311  0.03098634  0.13894992  1
  H  H54  1  0.19872689  0.53098634  0.63894992  1
  H  H55  1  0.80127311  0.46901366  0.36105008  1
  H  H56  1  0.08349330  0.88297688  0.90537432  1
  H  H57  1  0.91650670  0.11702312  0.09462568  1
  H  H58  1  0.08349330  0.61702312  0.59462568  1
  H  H59  1  0.91650670  0.38297688  0.40537432  1
  H  H60  1  0.41532773  0.14880755  0.95095333  1
  H  H61  1  0.58467227  0.85119245  0.04904667  1
  H  H62  1  0.41532773  0.35119245  0.54904667  1
  H  H63  1  0.58467227  0.64880755  0.45095333  1
  H  H64  1  0.37281084  0.32030538  0.98552158  1
  H  H65  1  0.62718916  0.67969462  0.01447842  1
  H  H66  1  0.37281084  0.17969462  0.51447842  1
  H  H67  1  0.62718916  0.82030538  0.48552158  1
  H  H68  1  0.46180091  0.19922915  0.02650392  1
  H  H69  1  0.53819909  0.80077085  0.97349608  1
  H  H70  1  0.46180091  0.30077085  0.47349608  1
  H  H71  1  0.53819909  0.69922915  0.52650392  1
  H  H72  1  0.28376643  0.17257224  0.00649848  1
  H  H73  1  0.71623357  0.82742776  0.99350152  1
  H  H74  1  0.28376643  0.32742776  0.49350152  1
  H  H75  1  0.71623357  0.67257224  0.50649848  1
  S  S76  1  0.23169081  0.55428566  0.80371868  1
  S  S77  1  0.76830919  0.44571434  0.19628132  1
  S  S78  1  0.23169081  0.94571434  0.69628132  1
  S  S79  1  0.76830919  0.05428566  0.30371868  1
  S  S80  1  0.32563411  0.55894659  0.96798495  1
  S  S81  1  0.67436589  0.44105341  0.03201505  1
  S  S82  1  0.32563411  0.94105341  0.53201505  1
  S  S83  1  0.67436589  0.05894659  0.46798495  1
  S  S84  1  0.95783196  0.60752176  0.93463305  1
  S  S85  1  0.04216804  0.39247824  0.06536695  1
  S  S86  1  0.95783196  0.89247824  0.56536695  1
  S  S87  1  0.04216804  0.10752176  0.43463305  1
  S  S88  1  0.10248970  0.26963638  0.88951517  1
  S  S89  1  0.89751030  0.73036362  0.11048483  1
  S  S90  1  0.10248970  0.23036362  0.61048483  1
  S  S91  1  0.89751030  0.76963638  0.38951517  1
  S  S92  1  0.66951136  0.28785099  0.86897416  1
  S  S93  1  0.33048864  0.71214901  0.13102584  1
  S  S94  1  0.66951136  0.21214901  0.63102584  1
  S  S95  1  0.33048864  0.78785099  0.36897416  1
  S  S96  1  0.84263401  0.05711062  0.95879088  1
  S  S97  1  0.15736599  0.94288938  0.04120912  1
  S  S98  1  0.84263401  0.44288938  0.54120912  1
  S  S99  1  0.15736599  0.55711062  0.45879088  1
  S  S100  1  0.48819582  0.95359215  0.88517913  1
  S  S101  1  0.51180418  0.04640785  0.11482087  1
  S  S102  1  0.48819582  0.54640785  0.61482087  1
  S  S103  1  0.51180418  0.45359215  0.38517913  1
  S  S104  1  0.80981486  0.94666196  0.79097118  1
  S  S105  1  0.19018514  0.05333804  0.20902882  1
  S  S106  1  0.80981486  0.55333804  0.70902882  1
  S  S107  1  0.19018514  0.44666196  0.29097118  1
  N  N108  1  0.40890484  0.25000000  0.75000000  1
  N  N109  1  0.59109516  0.75000000  0.25000000  1
  N  N110  1  0.59607541  0.87126450  0.66640189  1
  N  N111  1  0.40392459  0.12873550  0.33359811  1
  N  N112  1  0.59607541  0.62873550  0.83359811  1
  N  N113  1  0.40392459  0.37126450  0.16640189  1
  N  N114  1  0.94016198  0.25000000  0.75000000  1
  N  N115  1  0.05983802  0.75000000  0.25000000  1
  N  N116  1  0.11965124  0.88953374  0.86001242  1
  N  N117  1  0.88034876  0.11046626  0.13998758  1
  N  N118  1  0.11965124  0.61046626  0.63998758  1
  N  N119  1  0.88034876  0.38953374  0.36001242  1
  N  N120  1  0.38335718  0.21279688  0.99257413  1
  N  N121  1  0.61664282  0.78720312  0.00742587  1
  N  N122  1  0.38335718  0.28720312  0.50742587  1
  N  N123  1  0.61664282  0.71279688  0.49257413  1
