# generated using pymatgen
data_EuSn3Sb4
_symmetry_space_group_name_H-M   'P 1'
_cell_length_a   4.46424196
_cell_length_b   10.05762773
_cell_length_c   22.94427816
_cell_angle_alpha   90.00000000
_cell_angle_beta   90.00000000
_cell_angle_gamma   90.00000000
_symmetry_Int_Tables_number   1
_chemical_formula_structural   EuSn3Sb4
_chemical_formula_sum   'Eu4 Sn12 Sb16'
_cell_volume   1030.19083280
_cell_formula_units_Z   4
loop_
 _symmetry_equiv_pos_site_id
 _symmetry_equiv_pos_as_xyz
  1  'x, y, z'
loop_
 _atom_site_type_symbol
 _atom_site_label
 _atom_site_symmetry_multiplicity
 _atom_site_fract_x
 _atom_site_fract_y
 _atom_site_fract_z
 _atom_site_occupancy
  Eu  Eu0  1  0.75000000  0.43921538  0.62908021  1
  Eu  Eu1  1  0.75000000  0.93921538  0.87091979  1
  Eu  Eu2  1  0.25000000  0.56078462  0.37091979  1
  Eu  Eu3  1  0.25000000  0.06078462  0.12908021  1
  Sn  Sn4  1  0.75000000  0.22112271  0.74982474  1
  Sn  Sn5  1  0.75000000  0.72112271  0.75017526  1
  Sn  Sn6  1  0.25000000  0.77887729  0.25017526  1
  Sn  Sn7  1  0.25000000  0.27887729  0.24982474  1
  Sn  Sn8  1  0.75000000  0.14892304  0.51172324  1
  Sn  Sn9  1  0.75000000  0.64892304  0.98827676  1
  Sn  Sn10  1  0.25000000  0.85107696  0.48827676  1
  Sn  Sn11  1  0.25000000  0.35107696  0.01172324  1
  Sn  Sn12  1  0.75000000  0.04581815  0.35035609  1
  Sn  Sn13  1  0.75000000  0.54581815  0.14964391  1
  Sn  Sn14  1  0.25000000  0.95418185  0.64964391  1
  Sn  Sn15  1  0.25000000  0.45418185  0.85035609  1
  Sb  Sb16  1  0.75000000  0.46935060  0.27010455  1
  Sb  Sb17  1  0.75000000  0.96935060  0.22989545  1
  Sb  Sb18  1  0.25000000  0.53064940  0.72989545  1
  Sb  Sb19  1  0.25000000  0.03064940  0.77010455  1
  Sb  Sb20  1  0.75000000  0.29212269  0.09386811  1
  Sb  Sb21  1  0.75000000  0.79212269  0.40613189  1
  Sb  Sb22  1  0.25000000  0.70787731  0.90613189  1
  Sb  Sb23  1  0.25000000  0.20787731  0.59386811  1
  Sb  Sb24  1  0.75000000  0.28408416  0.87721468  1
  Sb  Sb25  1  0.75000000  0.78408416  0.62278532  1
  Sb  Sb26  1  0.25000000  0.71591584  0.12278532  1
  Sb  Sb27  1  0.25000000  0.21591584  0.37721468  1
  Sb  Sb28  1  0.75000000  0.93042245  0.02987468  1
  Sb  Sb29  1  0.75000000  0.43042245  0.47012532  1
  Sb  Sb30  1  0.25000000  0.06957755  0.97012532  1
  Sb  Sb31  1  0.25000000  0.56957755  0.52987468  1
