# generated using pymatgen
data_Li(HoGe)4
_symmetry_space_group_name_H-M   'P 1'
_cell_length_a   7.13347061
_cell_length_b   7.72763481
_cell_length_c   14.68628791
_cell_angle_alpha   90.00000000
_cell_angle_beta   90.00000000
_cell_angle_gamma   90.00000000
_symmetry_Int_Tables_number   1
_chemical_formula_structural   Li(HoGe)4
_chemical_formula_sum   'Li4 Ho16 Ge16'
_cell_volume   809.57950330
_cell_formula_units_Z   4
loop_
 _symmetry_equiv_pos_site_id
 _symmetry_equiv_pos_as_xyz
  1  'x, y, z'
loop_
 _atom_site_type_symbol
 _atom_site_label
 _atom_site_symmetry_multiplicity
 _atom_site_fract_x
 _atom_site_fract_y
 _atom_site_fract_z
 _atom_site_occupancy
  Li  Li0  1  0.34135904  0.02665910  0.75000000  1
  Li  Li1  1  0.84135904  0.47334090  0.75000000  1
  Li  Li2  1  0.65864096  0.97334090  0.25000000  1
  Li  Li3  1  0.15864096  0.52665910  0.25000000  1
  Ho  Ho4  1  0.48491504  0.68654422  0.40248877  1
  Ho  Ho5  1  0.98491504  0.81345578  0.09751123  1
  Ho  Ho6  1  0.51508496  0.31345578  0.90248877  1
  Ho  Ho7  1  0.01508496  0.18654422  0.59751123  1
  Ho  Ho8  1  0.51508496  0.31345578  0.59751123  1
  Ho  Ho9  1  0.01508496  0.18654422  0.90248877  1
  Ho  Ho10  1  0.48491504  0.68654422  0.09751123  1
  Ho  Ho11  1  0.98491504  0.81345578  0.40248877  1
  Ho  Ho12  1  0.17119121  0.67651500  0.87200673  1
  Ho  Ho13  1  0.67119121  0.82348500  0.62799327  1
  Ho  Ho14  1  0.82880879  0.32348500  0.37200673  1
  Ho  Ho15  1  0.32880879  0.17651500  0.12799327  1
  Ho  Ho16  1  0.82880879  0.32348500  0.12799327  1
  Ho  Ho17  1  0.32880879  0.17651500  0.37200673  1
  Ho  Ho18  1  0.17119121  0.67651500  0.62799327  1
  Ho  Ho19  1  0.67119121  0.82348500  0.87200673  1
  Ge  Ge20  1  0.33275573  0.96574085  0.96347834  1
  Ge  Ge21  1  0.83275573  0.53425915  0.53652166  1
  Ge  Ge22  1  0.66724427  0.03425915  0.46347834  1
  Ge  Ge23  1  0.16724427  0.46574085  0.03652166  1
  Ge  Ge24  1  0.66724427  0.03425915  0.03652166  1
  Ge  Ge25  1  0.16724427  0.46574085  0.46347834  1
  Ge  Ge26  1  0.33275573  0.96574085  0.53652166  1
  Ge  Ge27  1  0.83275573  0.53425915  0.96347834  1
  Ge  Ge28  1  0.48246583  0.58606080  0.75000000  1
  Ge  Ge29  1  0.98246583  0.91393920  0.75000000  1
  Ge  Ge30  1  0.51753417  0.41393920  0.25000000  1
  Ge  Ge31  1  0.01753417  0.08606080  0.25000000  1
  Ge  Ge32  1  0.21651731  0.36376057  0.75000000  1
  Ge  Ge33  1  0.71651731  0.13623943  0.75000000  1
  Ge  Ge34  1  0.78348269  0.63623943  0.25000000  1
  Ge  Ge35  1  0.28348269  0.86376057  0.25000000  1
