# generated using pymatgen
data_Cs2PAuS4
_symmetry_space_group_name_H-M   'P 1'
_cell_length_a   7.15408849
_cell_length_b   7.29065127
_cell_length_c   20.45837397
_cell_angle_alpha   90.00000000
_cell_angle_beta   90.00000000
_cell_angle_gamma   90.00000000
_symmetry_Int_Tables_number   1
_chemical_formula_structural   Cs2PAuS4
_chemical_formula_sum   'Cs8 P4 Au4 S16'
_cell_volume   1067.06713989
_cell_formula_units_Z   4
loop_
 _symmetry_equiv_pos_site_id
 _symmetry_equiv_pos_as_xyz
  1  'x, y, z'
loop_
 _atom_site_type_symbol
 _atom_site_label
 _atom_site_symmetry_multiplicity
 _atom_site_fract_x
 _atom_site_fract_y
 _atom_site_fract_z
 _atom_site_occupancy
  Cs  Cs0  1  0.20917786  0.25000000  0.98447155  1
  Cs  Cs1  1  0.79082214  0.75000000  0.01552845  1
  Cs  Cs2  1  0.20917786  0.75000000  0.51552845  1
  Cs  Cs3  1  0.79082214  0.25000000  0.48447155  1
  Cs  Cs4  1  0.59380275  0.25000000  0.16588278  1
  Cs  Cs5  1  0.40619725  0.75000000  0.83411722  1
  Cs  Cs6  1  0.59380275  0.75000000  0.33411722  1
  Cs  Cs7  1  0.40619725  0.25000000  0.66588278  1
  P  P8  1  0.72349839  0.25000000  0.88626099  1
  P  P9  1  0.27650161  0.75000000  0.11373901  1
  P  P10  1  0.72349839  0.75000000  0.61373901  1
  P  P11  1  0.27650161  0.25000000  0.38626099  1
  Au  Au12  1  0.87873611  0.50000000  0.75000000  1
  Au  Au13  1  0.12126389  0.00000000  0.25000000  1
  Au  Au14  1  0.12126389  0.50000000  0.25000000  1
  Au  Au15  1  0.87873611  -0.00000000  0.75000000  1
  S  S16  1  0.47423244  0.25000000  0.83964390  1
  S  S17  1  0.52576756  0.75000000  0.16035610  1
  S  S18  1  0.47423244  0.75000000  0.66035610  1
  S  S19  1  0.52576756  0.25000000  0.33964390  1
  S  S20  1  0.87865245  0.48730715  0.86335768  1
  S  S21  1  0.12134755  0.98730715  0.13664232  1
  S  S22  1  0.87865245  0.51269285  0.63664232  1
  S  S23  1  0.12134755  0.01269285  0.36335768  1
  S  S24  1  0.12134755  0.51269285  0.13664232  1
  S  S25  1  0.87865245  0.01269285  0.86335768  1
  S  S26  1  0.12134755  0.48730715  0.36335768  1
  S  S27  1  0.87865245  0.98730715  0.63664232  1
  S  S28  1  0.70979411  0.25000000  0.98557837  1
  S  S29  1  0.29020589  0.75000000  0.01442163  1
  S  S30  1  0.70979411  0.75000000  0.51442163  1
  S  S31  1  0.29020589  0.25000000  0.48557837  1
