# generated using pymatgen
data_BaEr2Si3O10
_symmetry_space_group_name_H-M   'P 1'
_cell_length_a   5.42267997
_cell_length_b   6.88369081
_cell_length_c   12.25787127
_cell_angle_alpha   90.00000000
_cell_angle_beta   90.00000000
_cell_angle_gamma   106.43513876
_symmetry_Int_Tables_number   1
_chemical_formula_structural   BaEr2Si3O10
_chemical_formula_sum   'Ba2 Er4 Si6 O20'
_cell_volume   438.86674942
_cell_formula_units_Z   2
loop_
 _symmetry_equiv_pos_site_id
 _symmetry_equiv_pos_as_xyz
  1  'x, y, z'
loop_
 _atom_site_type_symbol
 _atom_site_label
 _atom_site_symmetry_multiplicity
 _atom_site_fract_x
 _atom_site_fract_y
 _atom_site_fract_z
 _atom_site_occupancy
  Ba  Ba0  1  0.23905534  0.98083158  0.75000000  1
  Ba  Ba1  1  0.76094466  0.01916842  0.25000000  1
  Er  Er2  1  0.84181981  0.31576035  0.59917317  1
  Er  Er3  1  0.15818019  0.68423965  0.09917317  1
  Er  Er4  1  0.15818019  0.68423965  0.40082683  1
  Er  Er5  1  0.84181981  0.31576035  0.90082683  1
  Si  Si6  1  0.41859994  0.51102377  0.75000000  1
  Si  Si7  1  0.58140006  0.48897623  0.25000000  1
  Si  Si8  1  0.69585630  0.78639237  0.56127644  1
  Si  Si9  1  0.30414370  0.21360763  0.06127644  1
  Si  Si10  1  0.30414370  0.21360763  0.43872356  1
  Si  Si11  1  0.69585630  0.78639237  0.93872356  1
  O  O12  1  0.63354262  0.38696964  0.75000000  1
  O  O13  1  0.36645738  0.61303036  0.25000000  1
  O  O14  1  0.12296793  0.36506529  0.75000000  1
  O  O15  1  0.87703207  0.63493471  0.25000000  1
  O  O16  1  0.45173960  0.66111049  0.64275913  1
  O  O17  1  0.54826040  0.33888951  0.14275913  1
  O  O18  1  0.54826040  0.33888951  0.35724087  1
  O  O19  1  0.45173960  0.66111049  0.85724087  1
  O  O20  1  0.56422798  0.80806213  0.44496750  1
  O  O21  1  0.43577202  0.19193787  0.94496750  1
  O  O22  1  0.43577202  0.19193787  0.55503250  1
  O  O23  1  0.56422798  0.80806213  0.05503250  1
  O  O24  1  0.83518192  0.99858672  0.62289041  1
  O  O25  1  0.16481808  0.00141328  0.12289041  1
  O  O26  1  0.16481808  0.00141328  0.37710959  1
  O  O27  1  0.83518192  0.99858672  0.87710959  1
  O  O28  1  0.89968491  0.64806039  0.55037302  1
  O  O29  1  0.10031509  0.35193961  0.05037302  1
  O  O30  1  0.10031509  0.35193961  0.44962698  1
  O  O31  1  0.89968491  0.64806039  0.94962698  1
