# generated using pymatgen
data_CaH24C6Br2(N2O)6
_symmetry_space_group_name_H-M   'P 1'
_cell_length_a   8.13305933
_cell_length_b   10.33248294
_cell_length_c   13.73560824
_cell_angle_alpha   94.60661519
_cell_angle_beta   90.00000000
_cell_angle_gamma   90.00000000
_symmetry_Int_Tables_number   1
_chemical_formula_structural   CaH24C6Br2(N2O)6
_chemical_formula_sum   'Ca2 H48 C12 Br4 N24 O12'
_cell_volume   1150.53894216
_cell_formula_units_Z   2
loop_
 _symmetry_equiv_pos_site_id
 _symmetry_equiv_pos_as_xyz
  1  'x, y, z'
loop_
 _atom_site_type_symbol
 _atom_site_label
 _atom_site_symmetry_multiplicity
 _atom_site_fract_x
 _atom_site_fract_y
 _atom_site_fract_z
 _atom_site_occupancy
  Ca  Ca0  1  -0.00000000  -0.00000000  0.00000000  1
  Ca  Ca1  1  0.50000000  -0.00000000  0.50000000  1
  H  H2  1  0.80501421  0.56584462  0.02459613  1
  H  H3  1  0.30501421  0.43415538  0.47540387  1
  H  H4  1  0.19498579  0.43415538  0.97540387  1
  H  H5  1  0.69498579  0.56584462  0.52459613  1
  H  H6  1  0.84541513  0.54545254  0.14940445  1
  H  H7  1  0.34541513  0.45454746  0.35059555  1
  H  H8  1  0.15458487  0.45454746  0.85059555  1
  H  H9  1  0.65458487  0.54545254  0.64940445  1
  H  H10  1  0.96281012  0.70344541  0.24773636  1
  H  H11  1  0.46281012  0.29655459  0.25226364  1
  H  H12  1  0.03718988  0.29655459  0.75226364  1
  H  H13  1  0.53718988  0.70344541  0.74773636  1
  H  H14  1  0.01066476  0.85521543  0.20205848  1
  H  H15  1  0.51066476  0.14478457  0.29794152  1
  H  H16  1  0.98933524  0.14478457  0.79794152  1
  H  H17  1  0.48933524  0.85521543  0.70205848  1
  H  H18  1  0.16578368  0.70730247  0.93706246  1
  H  H19  1  0.66578368  0.29269753  0.56293754  1
  H  H20  1  0.83421632  0.29269753  0.06293754  1
  H  H21  1  0.33421632  0.70730247  0.43706246  1
  H  H22  1  0.36041216  0.63207249  0.91886878  1
  H  H23  1  0.86041216  0.36792751  0.58113122  1
  H  H24  1  0.63958784  0.36792751  0.08113122  1
  H  H25  1  0.13958784  0.63207249  0.41886878  1
  H  H26  1  0.59141355  0.74653861  0.94247128  1
  H  H27  1  0.09141355  0.25346139  0.55752872  1
  H  H28  1  0.40858645  0.25346139  0.05752872  1
  H  H29  1  0.90858645  0.74653861  0.44247128  1
  H  H30  1  0.59133479  0.91413614  0.97870318  1
  H  H31  1  0.09133479  0.08586386  0.52129682  1
  H  H32  1  0.40866521  0.08586386  0.02129682  1
  H  H33  1  0.90866521  0.91413614  0.47870318  1
  H  H34  1  0.85561342  0.72203827  0.83829118  1
  H  H35  1  0.35561342  0.27796173  0.66170882  1
  H  H36  1  0.14438658  0.27796173  0.16170882  1
  H  H37  1  0.64438658  0.72203827  0.33829118  1
  H  H38  1  0.98234584  0.65596772  0.74397200  1
  H  H39  1  0.48234584  0.34403228  0.75602800  1
  H  H40  1  0.01765416  0.34403228  0.25602800  1
  H  H41  1  0.51765416  0.65596772  0.24397200  1
  H  H42  1  0.15533528  0.78500079  0.66515075  1
  H  H43  1  0.65533528  0.21499921  0.83484925  1
  H  H44  1  0.84466472  0.21499921  0.33484925  1
  H  H45  1  0.34466472  0.78500079  0.16515075  1
  H  H46  1  0.16810085  0.95210342  0.69634647  1
  H  H47  1  0.66810085  0.04789658  0.80365353  1
  H  H48  1  0.83189915  0.04789658  0.30365353  1
  H  H49  1  0.33189915  0.95210342  0.19634647  1
  C  C50  1  0.91625812  0.71971853  0.10155531  1
  C  C51  1  0.41625812  0.28028147  0.39844469  1
  C  C52  1  0.08374188  0.28028147  0.89844469  1
  C  C53  1  0.58374188  0.71971853  0.60155531  1
  C  C54  1  0.36294726  0.82898482  0.95770781  1
  C  C55  1  0.86294726  0.17101518  0.54229219  1
  C  C56  1  0.63705274  0.17101518  0.04229219  1
  C  C57  1  0.13705274  0.82898482  0.45770781  1
  C  C58  1  0.00370739  0.85450894  0.77733982  1
  C  C59  1  0.50370739  0.14549106  0.72266018  1
  C  C60  1  0.99629261  0.14549106  0.22266018  1
  C  C61  1  0.49629261  0.85450894  0.27733982  1
  Br  Br62  1  0.13600981  0.48285824  0.64569309  1
  Br  Br63  1  0.63600981  0.51714176  0.85430691  1
  Br  Br64  1  0.86399019  0.51714176  0.35430691  1
  Br  Br65  1  0.36399019  0.48285824  0.14569309  1
  N  N66  1  0.85553612  0.59769922  0.08999447  1
  N  N67  1  0.35553612  0.40230078  0.41000553  1
  N  N68  1  0.14446388  0.40230078  0.91000553  1
  N  N69  1  0.64446388  0.59769922  0.58999447  1
  N  N70  1  0.97178268  0.76146290  0.19117681  1
  N  N71  1  0.47178268  0.23853710  0.30882319  1
  N  N72  1  0.02821732  0.23853710  0.80882319  1
  N  N73  1  0.52821732  0.76146290  0.69117681  1
  N  N74  1  0.29008533  0.71289765  0.93460087  1
  N  N75  1  0.79008533  0.28710235  0.56539913  1
  N  N76  1  0.70991467  0.28710235  0.06539913  1
  N  N77  1  0.20991467  0.71289765  0.43460087  1
  N  N78  1  0.52881578  0.83212605  0.95373652  1
  N  N79  1  0.02881578  0.16787395  0.54626348  1
  N  N80  1  0.47118422  0.16787395  0.04626348  1
  N  N81  1  0.97118422  0.83212605  0.45373652  1
  N  N82  1  0.94521966  0.73459346  0.78865299  1
  N  N83  1  0.44521966  0.26540654  0.71134701  1
  N  N84  1  0.05478034  0.26540654  0.21134701  1
  N  N85  1  0.55478034  0.73459346  0.28865299  1
  N  N86  1  0.11526394  0.86518134  0.70574099  1
  N  N87  1  0.61526394  0.13481866  0.79425901  1
  N  N88  1  0.88473606  0.13481866  0.29425901  1
  N  N89  1  0.38473606  0.86518134  0.20574099  1
  O  O90  1  0.92283137  0.79046347  0.02990452  1
  O  O91  1  0.42283137  0.20953653  0.47009548  1
  O  O92  1  0.07716863  0.20953653  0.97009548  1
  O  O93  1  0.57716863  0.79046347  0.52990452  1
  O  O94  1  0.27870098  0.93082059  0.98125529  1
  O  O95  1  0.77870098  0.06917941  0.51874471  1
  O  O96  1  0.72129902  0.06917941  0.01874471  1
  O  O97  1  0.22129902  0.93082059  0.48125529  1
  O  O98  1  0.95635322  0.95349421  0.83173123  1
  O  O99  1  0.45635322  0.04650579  0.66826877  1
  O  O100  1  0.04364678  0.04650579  0.16826877  1
  O  O101  1  0.54364678  0.95349421  0.33173123  1
