# generated using pymatgen
data_Ho5Ge4
_symmetry_space_group_name_H-M   'P 1'
_cell_length_a   7.63571707
_cell_length_b   7.71185982
_cell_length_c   14.68666846
_cell_angle_alpha   90.00000000
_cell_angle_beta   90.00000000
_cell_angle_gamma   90.19497909
_symmetry_Int_Tables_number   1
_chemical_formula_structural   Ho5Ge4
_chemical_formula_sum   'Ho20 Ge16'
_cell_volume   864.82797773
_cell_formula_units_Z   4
loop_
 _symmetry_equiv_pos_site_id
 _symmetry_equiv_pos_as_xyz
  1  'x, y, z'
loop_
 _atom_site_type_symbol
 _atom_site_label
 _atom_site_symmetry_multiplicity
 _atom_site_fract_x
 _atom_site_fract_y
 _atom_site_fract_z
 _atom_site_occupancy
  Ho  Ho0  1  0.78650761  0.50328190  0.75000000  1
  Ho  Ho1  1  0.21349239  0.49671810  0.25000000  1
  Ho  Ho2  1  0.28654444  0.99966982  0.75000000  1
  Ho  Ho3  1  0.71345556  0.00033018  0.25000000  1
  Ho  Ho4  1  0.03032615  0.82424075  0.10183476  1
  Ho  Ho5  1  0.96967385  0.17575925  0.60183476  1
  Ho  Ho6  1  0.96967385  0.17575925  0.89816524  1
  Ho  Ho7  1  0.03032615  0.82424075  0.39816524  1
  Ho  Ho8  1  0.52903471  0.67705186  0.10120412  1
  Ho  Ho9  1  0.47096529  0.32294814  0.60120412  1
  Ho  Ho10  1  0.47096529  0.32294814  0.89879588  1
  Ho  Ho11  1  0.52903471  0.67705186  0.39879588  1
  Ho  Ho12  1  0.61895010  0.83766893  0.61804209  1
  Ho  Ho13  1  0.38104990  0.16233107  0.11804209  1
  Ho  Ho14  1  0.38104990  0.16233107  0.38195791  1
  Ho  Ho15  1  0.61895010  0.83766893  0.88195791  1
  Ho  Ho16  1  0.12135148  0.66117790  0.61585514  1
  Ho  Ho17  1  0.87864852  0.33882210  0.11585514  1
  Ho  Ho18  1  0.87864852  0.33882210  0.38414486  1
  Ho  Ho19  1  0.12135148  0.66117790  0.88414486  1
  Ge  Ge20  1  0.16282462  0.36210654  0.75000000  1
  Ge  Ge21  1  0.83717538  0.63789346  0.25000000  1
  Ge  Ge22  1  0.66637196  0.13936262  0.75000000  1
  Ge  Ge23  1  0.33362804  0.86063738  0.25000000  1
  Ge  Ge24  1  0.91776531  0.88132369  0.75000000  1
  Ge  Ge25  1  0.08223469  0.11867631  0.25000000  1
  Ge  Ge26  1  0.41444538  0.61605919  0.75000000  1
  Ge  Ge27  1  0.58555462  0.38394081  0.25000000  1
  Ge  Ge28  1  0.77833061  0.53201932  0.54476546  1
  Ge  Ge29  1  0.22166939  0.46798068  0.04476546  1
  Ge  Ge30  1  0.22166939  0.46798068  0.45523454  1
  Ge  Ge31  1  0.77833061  0.53201932  0.95523454  1
  Ge  Ge32  1  0.27905370  0.97017545  0.54402798  1
  Ge  Ge33  1  0.72094630  0.02982455  0.04402798  1
  Ge  Ge34  1  0.72094630  0.02982455  0.45597202  1
  Ge  Ge35  1  0.27905370  0.97017545  0.95597202  1
