# generated using pymatgen
data_NaP7
_symmetry_space_group_name_H-M   'P 1'
_cell_length_a   12.61813514
_cell_length_b   12.61813514
_cell_length_c   12.61813514
_cell_angle_alpha   107.85399641
_cell_angle_beta   110.28583465
_cell_angle_gamma   110.28583465
_symmetry_Int_Tables_number   1
_chemical_formula_structural   NaP7
_chemical_formula_sum   'Na8 P56'
_cell_volume   1545.62791530
_cell_formula_units_Z   8
loop_
 _symmetry_equiv_pos_site_id
 _symmetry_equiv_pos_as_xyz
  1  'x, y, z'
loop_
 _atom_site_type_symbol
 _atom_site_label
 _atom_site_symmetry_multiplicity
 _atom_site_fract_x
 _atom_site_fract_y
 _atom_site_fract_z
 _atom_site_occupancy
  Na  Na0  1  0.00000000  0.13720097  0.36279903  1
  Na  Na1  1  0.22559805  0.86279903  0.86279903  1
  Na  Na2  1  0.50000000  0.38720097  0.11279903  1
  Na  Na3  1  0.72559805  0.11279903  0.61279903  1
  Na  Na4  1  -0.00000000  0.36279903  0.13720097  1
  Na  Na5  1  0.77440195  0.63720097  0.63720097  1
  Na  Na6  1  0.50000000  0.61279903  0.88720097  1
  Na  Na7  1  0.27440195  0.88720097  0.38720097  1
  P  P8  1  0.22403052  0.09903052  0.37500000  1
  P  P9  1  0.27596948  0.65096948  0.87500000  1
  P  P10  1  0.72403052  0.59903052  0.37500000  1
  P  P11  1  0.77596948  0.15096948  0.87500000  1
  P  P12  1  0.27596948  0.12500000  0.90096948  1
  P  P13  1  0.22403052  0.62500000  0.34903052  1
  P  P14  1  0.77596948  0.12500000  0.40096948  1
  P  P15  1  0.72403052  0.62500000  0.84903052  1
  P  P16  1  0.37638527  0.29510317  0.53548333  1
  P  P17  1  0.24038016  0.65909807  0.03548333  1
  P  P18  1  0.87638527  0.59090193  0.33128210  1
  P  P19  1  0.74038016  0.95489683  0.83128210  1
  P  P20  1  0.62361473  0.15909807  0.91871790  1
  P  P21  1  0.75961984  0.79510317  0.41871790  1
  P  P22  1  0.12361473  0.45489683  0.71451667  1
  P  P23  1  0.25961984  0.09090193  0.21451667  1
  P  P24  1  0.24038016  0.08128210  0.70489683  1
  P  P25  1  0.37638527  0.58128210  0.34090193  1
  P  P26  1  0.74038016  0.28548333  0.40909807  1
  P  P27  1  0.87638527  0.78548333  0.04510317  1
  P  P28  1  0.75961984  0.46451667  0.84090193  1
  P  P29  1  0.62361473  0.96451667  0.20489683  1
  P  P30  1  0.25961984  0.66871790  0.54510317  1
  P  P31  1  0.12361473  0.16871790  0.90909807  1
  P  P32  1  0.58740877  0.22229073  0.46167991  1
  P  P33  1  0.23938918  0.37427113  0.96167991  1
  P  P34  1  0.08740877  0.87572887  0.61511804  1
  P  P35  1  0.73938918  0.02770927  0.11511804  1
  P  P36  1  0.41259123  0.87427113  0.63488196  1
  P  P37  1  0.76061082  0.72229073  0.13488196  1
  P  P38  1  0.91259123  0.52770927  0.78832009  1
  P  P39  1  0.26061082  0.37572887  0.28832009  1
  P  P40  1  0.23938918  0.36511804  0.77770927  1
  P  P41  1  0.58740877  0.86511804  0.62572887  1
  P  P42  1  0.73938918  0.21167991  0.12427113  1
  P  P43  1  0.08740877  0.71167991  0.97229073  1
  P  P44  1  0.76061082  0.53832009  0.12572887  1
  P  P45  1  0.41259123  0.03832009  0.27770927  1
  P  P46  1  0.26061082  0.38488196  0.47229073  1
  P  P47  1  0.91259123  0.88488196  0.62427113  1
  P  P48  1  0.52254025  0.36659120  0.47851108  1
  P  P49  1  0.11191988  0.45597083  0.97851108  1
  P  P50  1  0.02254025  0.79402917  0.40594905  1
  P  P51  1  0.61191988  0.88340880  0.90594905  1
  P  P52  1  0.47745975  0.95597083  0.84405095  1
  P  P53  1  0.88808012  0.86659120  0.34405095  1
  P  P54  1  0.97745975  0.38340880  0.77148892  1
  P  P55  1  0.38808012  0.29402917  0.27148892  1
  P  P56  1  0.11191988  0.15594905  0.63340880  1
  P  P57  1  0.52254025  0.65594905  0.54402917  1
  P  P58  1  0.61191988  0.22851108  0.20597083  1
  P  P59  1  0.02254025  0.72851108  0.11659120  1
  P  P60  1  0.88808012  0.52148892  0.04402917  1
  P  P61  1  0.47745975  0.02148892  0.13340880  1
  P  P62  1  0.38808012  0.59405095  0.61659120  1
  P  P63  1  0.97745975  0.09405095  0.70597083  1
