# generated using pymatgen
data_Cs2CdSn3Se8
_symmetry_space_group_name_H-M   'P 1'
_cell_length_a   8.24639019
_cell_length_b   13.69757832
_cell_length_c   18.98046422
_cell_angle_alpha   90.00000000
_cell_angle_beta   90.00000000
_cell_angle_gamma   90.00000000
_symmetry_Int_Tables_number   1
_chemical_formula_structural   Cs2CdSn3Se8
_chemical_formula_sum   'Cs8 Cd4 Sn12 Se32'
_cell_volume   2143.94925894
_cell_formula_units_Z   4
loop_
 _symmetry_equiv_pos_site_id
 _symmetry_equiv_pos_as_xyz
  1  'x, y, z'
loop_
 _atom_site_type_symbol
 _atom_site_label
 _atom_site_symmetry_multiplicity
 _atom_site_fract_x
 _atom_site_fract_y
 _atom_site_fract_z
 _atom_site_occupancy
  Cs  Cs0  1  0.74970561  0.36982521  0.55088850  1
  Cs  Cs1  1  0.75029439  0.63017479  0.05088850  1
  Cs  Cs2  1  0.24970561  0.13017479  0.44911150  1
  Cs  Cs3  1  0.25029439  0.86982521  0.94911150  1
  Cs  Cs4  1  0.25685654  0.19259160  0.84057228  1
  Cs  Cs5  1  0.24314346  0.80740840  0.34057228  1
  Cs  Cs6  1  0.75685654  0.30740840  0.15942772  1
  Cs  Cs7  1  0.74314346  0.69259160  0.65942772  1
  Cd  Cd8  1  0.51588012  0.49835326  0.84711673  1
  Cd  Cd9  1  0.98411988  0.50164674  0.34711673  1
  Cd  Cd10  1  0.01588012  0.00164674  0.15288327  1
  Cd  Cd11  1  0.48411988  0.99835326  0.65288327  1
  Sn  Sn12  1  0.48402280  0.48068165  0.34713308  1
  Sn  Sn13  1  0.01597720  0.51931835  0.84713308  1
  Sn  Sn14  1  0.98402280  0.01931835  0.65286692  1
  Sn  Sn15  1  0.51597720  0.98068165  0.15286692  1
  Sn  Sn16  1  0.26738676  0.43428270  0.01518218  1
  Sn  Sn17  1  0.23261324  0.56571730  0.51518218  1
  Sn  Sn18  1  0.76738676  0.06571730  0.98481782  1
  Sn  Sn19  1  0.73261324  0.93428270  0.48481782  1
  Sn  Sn20  1  0.26324955  0.45098464  0.67793396  1
  Sn  Sn21  1  0.23675045  0.54901536  0.17793396  1
  Sn  Sn22  1  0.76324955  0.04901536  0.32206604  1
  Sn  Sn23  1  0.73675045  0.95098464  0.82206604  1
  Se  Se24  1  0.51779028  0.38381623  0.73052644  1
  Se  Se25  1  0.98220972  0.61618377  0.23052644  1
  Se  Se26  1  0.01779028  0.11618377  0.26947356  1
  Se  Se27  1  0.48220972  0.88381623  0.76947356  1
  Se  Se28  1  0.00390111  0.90146914  0.76173925  1
  Se  Se29  1  0.49609889  0.09853086  0.26173925  1
  Se  Se30  1  0.50390111  0.59853086  0.23826075  1
  Se  Se31  1  -0.00390111  0.40146914  0.73826075  1
  Se  Se32  1  0.73469327  0.12530151  0.65784169  1
  Se  Se33  1  0.76530673  0.87469849  0.15784169  1
  Se  Se34  1  0.23469327  0.37469849  0.34215831  1
  Se  Se35  1  0.26530673  0.62530151  0.84215831  1
  Se  Se36  1  0.23497531  0.12596622  0.64801715  1
  Se  Se37  1  0.26502469  0.87403378  0.14801715  1
  Se  Se38  1  0.73497531  0.37403378  0.35198285  1
  Se  Se39  1  0.76502469  0.62596622  0.85198285  1
  Se  Se40  1  0.02471342  0.12364420  0.04109992  1
  Se  Se41  1  0.47528658  0.87635580  0.54109992  1
  Se  Se42  1  0.52471342  0.37635580  0.95890008  1
  Se  Se43  1  0.97528658  0.62364420  0.45890008  1
  Se  Se44  1  -0.00210465  0.89169301  0.54987721  1
  Se  Se45  1  0.50210465  0.10830699  0.04987721  1
  Se  Se46  1  0.49789535  0.60830699  0.45012279  1
  Se  Se47  1  0.00210465  0.39169301  0.95012279  1
  Se  Se48  1  0.23406608  0.38146101  0.54983357  1
  Se  Se49  1  0.26593392  0.61853899  0.04983357  1
  Se  Se50  1  0.73406608  0.11853899  0.45016643  1
  Se  Se51  1  0.76593392  0.88146101  0.95016643  1
  Se  Se52  1  0.23819897  0.36554675  0.14269164  1
  Se  Se53  1  0.26180103  0.63445325  0.64269164  1
  Se  Se54  1  0.73819897  0.13445325  0.85730836  1
  Se  Se55  1  0.76180103  0.86554675  0.35730836  1
