# generated using pymatgen
data_BaPr2Sc2O7
_symmetry_space_group_name_H-M   'P 1'
_cell_length_a   5.86403387
_cell_length_b   5.86403387
_cell_length_c   20.63271731
_cell_angle_alpha   90.00000000
_cell_angle_beta   90.00000000
_cell_angle_gamma   90.00000000
_symmetry_Int_Tables_number   1
_chemical_formula_structural   BaPr2Sc2O7
_chemical_formula_sum   'Ba4 Pr8 Sc8 O28'
_cell_volume   709.49504715
_cell_formula_units_Z   4
loop_
 _symmetry_equiv_pos_site_id
 _symmetry_equiv_pos_as_xyz
  1  'x, y, z'
loop_
 _atom_site_type_symbol
 _atom_site_label
 _atom_site_symmetry_multiplicity
 _atom_site_fract_x
 _atom_site_fract_y
 _atom_site_fract_z
 _atom_site_occupancy
  Ba  Ba0  1  0.23852083  0.76147917  0.50000000  1
  Ba  Ba1  1  0.76147917  0.23852083  0.50000000  1
  Ba  Ba2  1  0.26147917  0.26147917  -0.00000000  1
  Ba  Ba3  1  0.73852083  0.73852083  -0.00000000  1
  Pr  Pr4  1  0.22589301  0.77410699  0.31575908  1
  Pr  Pr5  1  0.77410699  0.22589301  0.31575908  1
  Pr  Pr6  1  0.27410699  0.27410699  0.81575908  1
  Pr  Pr7  1  0.72589301  0.72589301  0.81575908  1
  Pr  Pr8  1  0.77410699  0.22589301  0.68424092  1
  Pr  Pr9  1  0.22589301  0.77410699  0.68424092  1
  Pr  Pr10  1  0.72589301  0.72589301  0.18424092  1
  Pr  Pr11  1  0.27410699  0.27410699  0.18424092  1
  Sc  Sc12  1  0.24264693  0.75735307  0.10108402  1
  Sc  Sc13  1  0.75735307  0.24264693  0.10108402  1
  Sc  Sc14  1  0.25735307  0.25735307  0.60108402  1
  Sc  Sc15  1  0.74264693  0.74264693  0.60108402  1
  Sc  Sc16  1  0.75735307  0.24264693  0.89891598  1
  Sc  Sc17  1  0.24264693  0.75735307  0.89891598  1
  Sc  Sc18  1  0.74264693  0.74264693  0.39891598  1
  Sc  Sc19  1  0.25735307  0.25735307  0.39891598  1
  O  O20  1  0.28320552  0.28320552  0.50000000  1
  O  O21  1  0.71679448  0.71679448  0.50000000  1
  O  O22  1  0.21679448  0.78320552  0.00000000  1
  O  O23  1  0.78320552  0.21679448  -0.00000000  1
  O  O24  1  0.31242807  0.68757193  0.20909643  1
  O  O25  1  0.68757193  0.31242807  0.20909643  1
  O  O26  1  0.18757193  0.18757193  0.70909643  1
  O  O27  1  0.81242807  0.81242807  0.70909643  1
  O  O28  1  0.68757193  0.31242807  0.79090357  1
  O  O29  1  0.31242807  0.68757193  0.79090357  1
  O  O30  1  0.81242807  0.81242807  0.29090357  1
  O  O31  1  0.18757193  0.18757193  0.29090357  1
  O  O32  1  -0.00000000  0.50000000  0.38676933  1
  O  O33  1  0.50000000  0.00000000  0.88676933  1
  O  O34  1  -0.00000000  0.50000000  0.61323067  1
  O  O35  1  0.50000000  0.00000000  0.11323067  1
  O  O36  1  0.50000000  0.00000000  0.38676933  1
  O  O37  1  0.00000000  0.50000000  0.88676933  1
  O  O38  1  0.50000000  0.00000000  0.61323067  1
  O  O39  1  0.00000000  0.50000000  0.11323067  1
  O  O40  1  0.50000000  0.50000000  0.37166926  1
  O  O41  1  -0.00000000  0.00000000  0.87166926  1
  O  O42  1  0.50000000  0.50000000  0.62833074  1
  O  O43  1  -0.00000000  0.00000000  0.12833074  1
  O  O44  1  0.50000000  0.50000000  0.09369028  1
  O  O45  1  -0.00000000  0.00000000  0.59369028  1
  O  O46  1  0.50000000  0.50000000  0.90630972  1
  O  O47  1  -0.00000000  0.00000000  0.40630972  1
