# generated using pymatgen
data_Li2B3O4F3
_symmetry_space_group_name_H-M   'P 1'
_cell_length_a   4.96263600
_cell_length_b   8.82851750
_cell_length_c   12.44566441
_cell_angle_alpha   90.00000000
_cell_angle_beta   90.00000000
_cell_angle_gamma   90.00000000
_symmetry_Int_Tables_number   1
_chemical_formula_structural   Li2B3O4F3
_chemical_formula_sum   'Li8 B12 O16 F12'
_cell_volume   545.27839473
_cell_formula_units_Z   4
loop_
 _symmetry_equiv_pos_site_id
 _symmetry_equiv_pos_as_xyz
  1  'x, y, z'
loop_
 _atom_site_type_symbol
 _atom_site_label
 _atom_site_symmetry_multiplicity
 _atom_site_fract_x
 _atom_site_fract_y
 _atom_site_fract_z
 _atom_site_occupancy
  Li  Li0  1  0.58561333  0.14529182  0.10340735  1
  Li  Li1  1  0.91438667  0.85470818  0.60340735  1
  Li  Li2  1  0.08561333  0.35470818  0.89659265  1
  Li  Li3  1  0.41438667  0.64529182  0.39659265  1
  Li  Li4  1  0.34000049  0.70630956  0.92831133  1
  Li  Li5  1  0.15999951  0.29369044  0.42831133  1
  Li  Li6  1  0.84000049  0.79369044  0.07168867  1
  Li  Li7  1  0.65999951  0.20630956  0.57168867  1
  B  B8  1  0.91956626  0.81849083  0.83977644  1
  B  B9  1  0.58043374  0.18150917  0.33977644  1
  B  B10  1  0.41956626  0.68150917  0.16022356  1
  B  B11  1  0.08043374  0.31849083  0.66022356  1
  B  B12  1  0.09108875  0.03132454  0.96105521  1
  B  B13  1  0.40891125  0.96867546  0.46105521  1
  B  B14  1  0.59108875  0.46867546  0.03894479  1
  B  B15  1  0.90891125  0.53132454  0.53894479  1
  B  B16  1  0.97837121  0.07933143  0.76976994  1
  B  B17  1  0.52162879  0.92066857  0.26976994  1
  B  B18  1  0.47837121  0.42066857  0.23023006  1
  B  B19  1  0.02162879  0.57933143  0.73023006  1
  O  O20  1  0.03567977  0.87336854  0.94048620  1
  O  O21  1  0.46432023  0.12663146  0.44048620  1
  O  O22  1  0.53567977  0.62663146  0.05951380  1
  O  O23  1  0.96432023  0.37336854  0.55951380  1
  O  O24  1  0.04178719  0.13350901  0.87080573  1
  O  O25  1  0.45821281  0.86649099  0.37080573  1
  O  O26  1  0.54178719  0.36649099  0.12919427  1
  O  O27  1  0.95821281  0.63350901  0.62919427  1
  O  O28  1  0.94056656  0.92700634  0.75179538  1
  O  O29  1  0.55943344  0.07299366  0.25179538  1
  O  O30  1  0.44056656  0.57299366  0.24820462  1
  O  O31  1  0.05943344  0.42700634  0.74820462  1
  O  O32  1  0.94765165  0.17390071  0.68286573  1
  O  O33  1  0.55234835  0.82609929  0.18286573  1
  O  O34  1  0.44765165  0.32609929  0.31713427  1
  O  O35  1  0.05234835  0.67390071  0.81713427  1
  F  F36  1  0.92855922  0.07986506  0.05255392  1
  F  F37  1  0.57144078  0.92013494  0.55255392  1
  F  F38  1  0.42855922  0.42013494  0.94744608  1
  F  F39  1  0.07144078  0.57986506  0.44744608  1
  F  F40  1  0.36605588  0.05055035  0.99675737  1
  F  F41  1  0.13394412  0.94944965  0.49675737  1
  F  F42  1  0.86605588  0.44944965  0.00324263  1
  F  F43  1  0.63394412  0.55055035  0.50324263  1
  F  F44  1  0.63202813  0.78795060  0.85505982  1
  F  F45  1  0.86797187  0.21204940  0.35505982  1
  F  F46  1  0.13202813  0.71204940  0.14494018  1
  F  F47  1  0.36797187  0.28795060  0.64494018  1
