# generated using pymatgen
data_K10LiZr6H4O2F35
_symmetry_space_group_name_H-M   'P 1'
_cell_length_a   7.66171345
_cell_length_b   11.24552785
_cell_length_c   20.82494698
_cell_angle_alpha   90.00000000
_cell_angle_beta   97.36543381
_cell_angle_gamma   90.00000000
_symmetry_Int_Tables_number   1
_chemical_formula_structural   K10LiZr6H4O2F35
_chemical_formula_sum   'K20 Li2 Zr12 H8 O4 F70'
_cell_volume   1779.47252759
_cell_formula_units_Z   2
loop_
 _symmetry_equiv_pos_site_id
 _symmetry_equiv_pos_as_xyz
  1  'x, y, z'
loop_
 _atom_site_type_symbol
 _atom_site_label
 _atom_site_symmetry_multiplicity
 _atom_site_fract_x
 _atom_site_fract_y
 _atom_site_fract_z
 _atom_site_occupancy
  K  K0  1  0.25545362  0.66941949  0.00750759  1
  K  K1  1  0.74454638  0.16941949  0.99249241  1
  K  K2  1  0.88463489  0.67188890  0.28378261  1
  K  K3  1  0.11536511  0.17188890  0.71621739  1
  K  K4  1  0.22057211  0.68860390  0.45665873  1
  K  K5  1  0.77942789  0.18860390  0.54334127  1
  K  K6  1  0.71338603  0.67169848  0.73421101  1
  K  K7  1  0.28661397  0.17169848  0.26578899  1
  K  K8  1  0.79444745  0.82186003  0.05060908  1
  K  K9  1  0.20555255  0.32186003  0.94939092  1
  K  K10  1  0.49404757  0.86646126  0.87823183  1
  K  K11  1  0.50595243  0.36646126  0.12176817  1
  K  K12  1  0.17348152  0.82241560  0.71237612  1
  K  K13  1  0.82651848  0.32241560  0.28762388  1
  K  K14  1  0.80739954  0.84214391  0.55329147  1
  K  K15  1  0.19260046  0.34214391  0.44670853  1
  K  K16  1  0.53890966  0.88155032  0.36894085  1
  K  K17  1  0.46109034  0.38155032  0.63105915  1
  K  K18  1  0.23300301  0.82461409  0.19200555  1
  K  K19  1  0.76699699  0.32461409  0.80799445  1
  Li  Li20  1  0.98653838  0.66988893  0.87036334  1
  Li  Li21  1  0.01346162  0.16988893  0.12963666  1
  Zr  Zr22  1  0.01096123  0.46911800  0.12832750  1
  Zr  Zr23  1  0.98903877  0.96911800  0.87167250  1
  Zr  Zr24  1  0.70008811  0.52679368  0.94684041  1
  Zr  Zr25  1  0.29991189  0.02679368  0.05315959  1
  Zr  Zr26  1  0.27690934  0.51836060  0.79872519  1
  Zr  Zr27  1  0.72309066  0.01836060  0.20127481  1
  Zr  Zr28  1  0.37673573  0.52905050  0.29855518  1
  Zr  Zr29  1  0.62326427  0.02905050  0.70144482  1
  Zr  Zr30  1  0.00226782  0.50689210  0.60596572  1
  Zr  Zr31  1  0.99773218  0.00689210  0.39403428  1
  Zr  Zr32  1  0.70662293  0.51636309  0.44798245  1
  Zr  Zr33  1  0.29337707  0.01636309  0.55201755  1
  H  H34  1  0.44004141  0.73045799  0.60170934  1
  H  H35  1  0.55995859  0.23045799  0.39829066  1
  H  H36  1  0.53506318  0.62165250  0.57400278  1
  H  H37  1  0.46493682  0.12165250  0.42599722  1
  H  H38  1  0.52910025  0.64840330  0.16230765  1
  H  H39  1  0.47089975  0.14840330  0.83769235  1
  H  H40  1  0.63747950  0.61402373  0.10621289  1
  H  H41  1  0.36252050  0.11402373  0.89378711  1
  O  O42  1  0.54849020  0.68230290  0.60778541  1
  O  O43  1  0.45150980  0.18230290  0.39221459  1
  O  O44  1  0.52867755  0.65203365  0.11468329  1
  O  O45  1  0.47132245  0.15203365  0.88531671  1
  F  F46  1  0.80422199  0.52471023  0.05127879  1
  F  F47  1  0.19577801  0.02471023  0.94872121  1
  F  F48  1  0.19789965  0.53859441  0.20981467  1
  F  F49  1  0.80210035  0.03859441  0.79018533  1
  F  F50  1  0.17655577  0.45877574  0.05928023  1
  F  F51  1  0.82344423  0.95877574  0.94071977  1
  F  F52  1  0.83262520  0.49094861  0.19372578  1
  F  F53  1  0.16737480  0.99094861  0.80627422  1
  F  F54  1  0.15716790  0.32473492  0.16730542  1
  F  F55  1  0.84283210  0.82473492  0.83269458  1
  F  F56  1  0.85849891  0.31820615  0.10142016  1
  F  F57  1  0.14150109  0.81820615  0.89857984  1
  F  F58  1  0.02603248  0.65232592  0.12028173  1
  F  F59  1  0.97396752  0.15232592  0.87971827  1
  F  F60  1  0.48754650  0.46548392  0.87366167  1
  F  F61  1  0.51245350  0.96548392  0.12633833  1
  F  F62  1  0.55733041  0.67785227  0.95635365  1
  F  F63  1  0.44266959  0.17785227  0.04364635  1
  F  F64  1  0.83987960  0.37365899  0.93938269  1
  F  F65  1  0.16012040  0.87365899  0.06061731  1
  F  F66  1  0.52345424  0.43524566  0.99496441  1
  F  F67  1  0.47654576  0.93524566  0.00503559  1
  F  F68  1  0.91026473  0.64679118  0.96074018  1
  F  F69  1  0.08973527  0.14679118  0.03925982  1
  F  F70  1  0.77429227  0.56048528  0.85488096  1
  F  F71  1  0.22570773  0.06048528  0.14511904  1
  F  F72  1  0.18870136  0.51828520  0.69296403  1
  F  F73  1  0.81129864  0.01828520  0.30703597  1
  F  F74  1  0.40753636  0.67502865  0.79319397  1
  F  F75  1  0.59246364  0.17502865  0.20680603  1
  F  F76  1  0.13934375  0.36135288  0.79727507  1
  F  F77  1  0.86065625  0.86135288  0.20272493  1
  F  F78  1  0.47359140  0.44019650  0.75269894  1
  F  F79  1  0.52640860  0.94019650  0.24730106  1
  F  F80  1  0.18867255  0.54552611  0.88847984  1
  F  F81  1  0.81132745  0.04552611  0.11152016  1
  F  F82  1  0.05725228  0.63066016  0.78192600  1
  F  F83  1  0.94274772  0.13066016  0.21807400  1
  F  F84  1  0.65110451  0.55351427  0.34201065  1
  F  F85  1  0.34889549  0.05351427  0.65798935  1
  F  F86  1  0.41705978  0.49401024  0.40114288  1
  F  F87  1  0.58294022  0.99401024  0.59885712  1
  F  F88  1  0.25495073  0.68164856  0.32534257  1
  F  F89  1  0.74504927  0.18164856  0.67465743  1
  F  F90  1  0.48560816  0.38637172  0.26034625  1
  F  F91  1  0.51439184  0.88637172  0.73965375  1
  F  F92  1  0.49302448  0.64855053  0.24010729  1
  F  F93  1  0.50697552  0.14855053  0.75989271  1
  F  F94  1  0.16768569  0.42461490  0.31508818  1
  F  F95  1  0.83231431  0.92461490  0.68491182  1
  F  F96  1  0.85115328  0.61256381  0.52932708  1
  F  F97  1  0.14884672  0.11256381  0.47067292  1
  F  F98  1  0.89727552  0.40332334  0.52025570  1
  F  F99  1  0.10272448  0.90332334  0.47974430  1
  F  F100  1  0.79666784  0.46212826  0.65347962  1
  F  F101  1  0.20333216  0.96212826  0.34652038  1
  F  F102  1  0.21290857  0.53613012  0.55656130  1
  F  F103  1  0.78709143  0.03613012  0.44343870  1
  F  F104  1  0.98164731  0.67757219  0.63860647  1
  F  F105  1  0.01835269  0.17757219  0.36139353  1
  F  F106  1  0.09731611  0.33600310  0.62336883  1
  F  F107  1  0.90268389  0.83600310  0.37663117  1
  F  F108  1  0.94707830  0.54543578  0.41716266  1
  F  F109  1  0.05292170  0.04543578  0.58283734  1
  F  F110  1  0.56399423  0.46439593  0.51991992  1
  F  F111  1  0.43600577  0.96439593  0.48008008  1
  F  F112  1  0.70835746  0.34691667  0.40976739  1
  F  F113  1  0.29164254  0.84691667  0.59023261  1
  F  F114  1  0.59617646  0.68425085  0.44592006  1
  F  F115  1  0.40382354  0.18425085  0.55407994  1
