# generated using pymatgen
data_Rb3Sc2Si4(O2F)5
_symmetry_space_group_name_H-M   'P 1'
_cell_length_a   8.39521963
_cell_length_b   9.75730684
_cell_length_c   18.72150569
_cell_angle_alpha   90.00000000
_cell_angle_beta   90.00000000
_cell_angle_gamma   90.00000000
_symmetry_Int_Tables_number   1
_chemical_formula_structural   Rb3Sc2Si4(O2F)5
_chemical_formula_sum   'Rb12 Sc8 Si16 O40 F20'
_cell_volume   1533.56715716
_cell_formula_units_Z   4
loop_
 _symmetry_equiv_pos_site_id
 _symmetry_equiv_pos_as_xyz
  1  'x, y, z'
loop_
 _atom_site_type_symbol
 _atom_site_label
 _atom_site_symmetry_multiplicity
 _atom_site_fract_x
 _atom_site_fract_y
 _atom_site_fract_z
 _atom_site_occupancy
  Rb  Rb0  1  0.75000000  0.49409289  0.98601597  1
  Rb  Rb1  1  0.75000000  0.99409289  0.51398403  1
  Rb  Rb2  1  0.25000000  0.50590711  0.01398403  1
  Rb  Rb3  1  0.25000000  0.00590711  0.48601597  1
  Rb  Rb4  1  0.75000000  0.35759741  0.37019457  1
  Rb  Rb5  1  0.75000000  0.85759741  0.12980543  1
  Rb  Rb6  1  0.25000000  0.64240259  0.62980543  1
  Rb  Rb7  1  0.25000000  0.14240259  0.87019457  1
  Rb  Rb8  1  0.75000000  0.13923546  0.87555603  1
  Rb  Rb9  1  0.75000000  0.63923546  0.62444397  1
  Rb  Rb10  1  0.25000000  0.86076454  0.12444397  1
  Rb  Rb11  1  0.25000000  0.36076454  0.37555603  1
  Sc  Sc12  1  0.99989955  0.18917864  0.05361765  1
  Sc  Sc13  1  0.50010045  0.68917864  0.44638235  1
  Sc  Sc14  1  0.49989955  0.81082136  0.94638235  1
  Sc  Sc15  1  0.00010045  0.31082136  0.55361765  1
  Sc  Sc16  1  0.00010045  0.81082136  0.94638235  1
  Sc  Sc17  1  0.49989955  0.31082136  0.55361765  1
  Sc  Sc18  1  0.50010045  0.18917864  0.05361765  1
  Sc  Sc19  1  0.99989955  0.68917864  0.44638235  1
  Si  Si20  1  0.56313191  0.43016880  0.17894083  1
  Si  Si21  1  0.93686809  0.93016880  0.32105917  1
  Si  Si22  1  0.06313191  0.56983120  0.82105917  1
  Si  Si23  1  0.43686809  0.06983120  0.67894083  1
  Si  Si24  1  0.43686809  0.56983120  0.82105917  1
  Si  Si25  1  0.06313191  0.06983120  0.67894083  1
  Si  Si26  1  0.93686809  0.43016880  0.17894083  1
  Si  Si27  1  0.56313191  0.93016880  0.32105917  1
  Si  Si28  1  0.93718578  0.33710315  0.72494442  1
  Si  Si29  1  0.56281422  0.83710315  0.77505558  1
  Si  Si30  1  0.43718578  0.66289685  0.27505558  1
  Si  Si31  1  0.06281422  0.16289685  0.22494442  1
  Si  Si32  1  0.06281422  0.66289685  0.27505558  1
  Si  Si33  1  0.43718578  0.16289685  0.22494442  1
  Si  Si34  1  0.56281422  0.33710315  0.72494442  1
  Si  Si35  1  0.93718578  0.83710315  0.77505558  1
  O  O36  1  0.75000000  0.47896475  0.18207604  1
  O  O37  1  0.75000000  0.97896475  0.31792396  1
  O  O38  1  0.25000000  0.52103525  0.81792396  1
  O  O39  1  0.25000000  0.02103525  0.68207604  1
  O  O40  1  0.75000000  0.28809655  0.72756223  1
  O  O41  1  0.75000000  0.78809655  0.77243777  1
  O  O42  1  0.25000000  0.71190345  0.27243777  1
  O  O43  1  0.25000000  0.21190345  0.22756223  1
  O  O44  1  0.98906691  0.37752779  0.10088063  1
  O  O45  1  0.51093309  0.87752779  0.39911937  1
  O  O46  1  0.48906691  0.62247221  0.89911937  1
  O  O47  1  0.01093309  0.12247221  0.60088063  1
  O  O48  1  0.01093309  0.62247221  0.89911937  1
  O  O49  1  0.48906691  0.12247221  0.60088063  1
  O  O50  1  0.51093309  0.37752779  0.10088063  1
  O  O51  1  0.98906691  0.87752779  0.39911937  1
  O  O52  1  0.98449736  0.41094450  0.65089878  1
  O  O53  1  0.51550264  0.91094450  0.84910122  1
  O  O54  1  0.48449736  0.58905550  0.34910122  1
  O  O55  1  0.01550264  0.08905550  0.15089878  1
  O  O56  1  0.01550264  0.58905550  0.34910122  1
  O  O57  1  0.48449736  0.08905550  0.15089878  1
  O  O58  1  0.51550264  0.41094450  0.65089878  1
  O  O59  1  0.98449736  0.91094450  0.84910122  1
  O  O60  1  0.96183322  0.43458136  0.79555725  1
  O  O61  1  0.53816678  0.93458136  0.70444275  1
  O  O62  1  0.46183322  0.56541864  0.20444275  1
  O  O63  1  0.03816678  0.06541864  0.29555725  1
  O  O64  1  0.03816678  0.56541864  0.20444275  1
  O  O65  1  0.46183322  0.06541864  0.29555725  1
  O  O66  1  0.53816678  0.43458136  0.79555725  1
  O  O67  1  0.96183322  0.93458136  0.70444275  1
  O  O68  1  0.96168871  0.30680006  0.23948348  1
  O  O69  1  0.53831129  0.80680006  0.26051652  1
  O  O70  1  0.46168871  0.69319994  0.76051652  1
  O  O71  1  0.03831129  0.19319994  0.73948348  1
  O  O72  1  0.03831129  0.69319994  0.76051652  1
  O  O73  1  0.46168871  0.19319994  0.73948348  1
  O  O74  1  0.53831129  0.30680006  0.23948348  1
  O  O75  1  0.96168871  0.80680006  0.26051652  1
  F  F76  1  -0.00000000  0.50000000  0.50000000  1
  F  F77  1  0.50000000  -0.00000000  -0.00000000  1
  F  F78  1  0.50000000  0.50000000  0.50000000  1
  F  F79  1  -0.00000000  -0.00000000  -0.00000000  1
  F  F80  1  0.75000000  0.17496309  0.04904053  1
  F  F81  1  0.75000000  0.67496309  0.45095947  1
  F  F82  1  0.25000000  0.82503691  0.95095947  1
  F  F83  1  0.25000000  0.32503691  0.54904053  1
  F  F84  1  0.75000000  0.30959602  0.54238086  1
  F  F85  1  0.75000000  0.80959602  0.95761914  1
  F  F86  1  0.25000000  0.69040398  0.45761914  1
  F  F87  1  0.25000000  0.19040398  0.04238086  1
  F  F88  1  0.99465620  0.27600418  0.95548584  1
  F  F89  1  0.50534380  0.77600418  0.54451416  1
  F  F90  1  0.49465620  0.72399582  0.04451416  1
  F  F91  1  0.00534380  0.22399582  0.45548584  1
  F  F92  1  0.00534380  0.72399582  0.04451416  1
  F  F93  1  0.49465620  0.22399582  0.45548584  1
  F  F94  1  0.50534380  0.27600418  0.95548584  1
  F  F95  1  0.99465620  0.77600418  0.54451416  1
