# generated using pymatgen
data_Tm2Co17
_symmetry_space_group_name_H-M   'P 1'
_cell_length_a   8.05945373
_cell_length_b   8.26793337
_cell_length_c   8.26793337
_cell_angle_alpha   120.01363620
_cell_angle_beta   90.00000000
_cell_angle_gamma   90.00000000
_symmetry_Int_Tables_number   1
_chemical_formula_structural   Tm2Co17
_chemical_formula_sum   'Tm4 Co34'
_cell_volume   477.05723044
_cell_formula_units_Z   2
loop_
 _symmetry_equiv_pos_site_id
 _symmetry_equiv_pos_as_xyz
  1  'x, y, z'
loop_
 _atom_site_type_symbol
 _atom_site_label
 _atom_site_symmetry_multiplicity
 _atom_site_fract_x
 _atom_site_fract_y
 _atom_site_fract_z
 _atom_site_occupancy
  Tm  Tm0  1  0.75000000  -0.00001698  0.00001698  1
  Tm  Tm1  1  0.25000000  0.00001698  -0.00001698  1
  Tm  Tm2  1  0.25000000  0.66667813  0.33332187  1
  Tm  Tm3  1  0.75000000  0.33332187  0.66667813  1
  Co  Co4  1  0.60629764  0.66669618  0.33330382  1
  Co  Co5  1  0.39370236  0.33330382  0.66669618  1
  Co  Co6  1  0.10629764  0.33330382  0.66669618  1
  Co  Co7  1  0.89370236  0.66669618  0.33330382  1
  Co  Co8  1  0.50000000  0.50000000  0.00000000  1
  Co  Co9  1  0.50000000  0.50000000  0.50000000  1
  Co  Co10  1  0.50000000  0.00000000  0.50000000  1
  Co  Co11  1  -0.00000000  0.50000000  0.00000000  1
  Co  Co12  1  -0.00000000  0.50000000  0.50000000  1
  Co  Co13  1  -0.00000000  0.00000000  0.50000000  1
  Co  Co14  1  0.75000000  0.67247375  0.04681170  1
  Co  Co15  1  0.75000000  0.37434853  0.32751350  1
  Co  Co16  1  0.75000000  0.95330429  0.62579221  1
  Co  Co17  1  0.75000000  0.37420779  0.04669571  1
  Co  Co18  1  0.75000000  0.95318830  0.32752625  1
  Co  Co19  1  0.75000000  0.67248650  0.62565147  1
  Co  Co20  1  0.25000000  0.32752625  0.95318830  1
  Co  Co21  1  0.25000000  0.62565147  0.67248650  1
  Co  Co22  1  0.25000000  0.04669571  0.37420779  1
  Co  Co23  1  0.25000000  0.62579221  0.95330429  1
  Co  Co24  1  0.25000000  0.04681170  0.67247375  1
  Co  Co25  1  0.25000000  0.32751350  0.37434853  1
  Co  Co26  1  0.47509907  0.83349213  0.66697328  1
  Co  Co27  1  0.47516305  0.83349539  0.16650461  1
  Co  Co28  1  0.47509907  0.33302672  0.16650787  1
  Co  Co29  1  0.52490093  0.16650787  0.33302672  1
  Co  Co30  1  0.52483695  0.16650461  0.83349539  1
  Co  Co31  1  0.52490093  0.66697328  0.83349213  1
  Co  Co32  1  0.97509907  0.16650787  0.33302672  1
  Co  Co33  1  0.97516305  0.16650461  0.83349539  1
  Co  Co34  1  0.97509907  0.66697328  0.83349213  1
  Co  Co35  1  0.02490093  0.83349213  0.66697328  1
  Co  Co36  1  0.02483695  0.83349539  0.16650461  1
  Co  Co37  1  0.02490093  0.33302672  0.16650787  1
