# generated using pymatgen
data_Tm5Ge4
_symmetry_space_group_name_H-M   'P 1'
_cell_length_a   7.50055432
_cell_length_b   7.62611586
_cell_length_c   14.49340012
_cell_angle_alpha   90.00000000
_cell_angle_beta   90.00000000
_cell_angle_gamma   90.00000000
_symmetry_Int_Tables_number   1
_chemical_formula_structural   Tm5Ge4
_chemical_formula_sum   'Tm20 Ge16'
_cell_volume   829.02388198
_cell_formula_units_Z   4
loop_
 _symmetry_equiv_pos_site_id
 _symmetry_equiv_pos_as_xyz
  1  'x, y, z'
loop_
 _atom_site_type_symbol
 _atom_site_label
 _atom_site_symmetry_multiplicity
 _atom_site_fract_x
 _atom_site_fract_y
 _atom_site_fract_z
 _atom_site_occupancy
  Tm  Tm0  1  0.36836853  0.83856219  0.88026739  1
  Tm  Tm1  1  0.86836853  0.66143781  0.61973261  1
  Tm  Tm2  1  0.63163147  0.16143781  0.38026739  1
  Tm  Tm3  1  0.13163147  0.33856219  0.11973261  1
  Tm  Tm4  1  0.63163147  0.16143781  0.11973261  1
  Tm  Tm5  1  0.13163147  0.33856219  0.38026739  1
  Tm  Tm6  1  0.36836853  0.83856219  0.61973261  1
  Tm  Tm7  1  0.86836853  0.66143781  0.88026739  1
  Tm  Tm8  1  0.51738606  0.31753374  0.90360144  1
  Tm  Tm9  1  0.01738606  0.18246626  0.59639856  1
  Tm  Tm10  1  0.48261394  0.68246626  0.40360144  1
  Tm  Tm11  1  0.98261394  0.81753374  0.09639856  1
  Tm  Tm12  1  0.48261394  0.68246626  0.09639856  1
  Tm  Tm13  1  0.98261394  0.81753374  0.40360144  1
  Tm  Tm14  1  0.51738606  0.31753374  0.59639856  1
  Tm  Tm15  1  0.01738606  0.18246626  0.90360144  1
  Tm  Tm16  1  0.20522005  0.49931560  0.75000000  1
  Tm  Tm17  1  0.70522005  0.00068440  0.75000000  1
  Tm  Tm18  1  0.79477995  0.50068440  0.25000000  1
  Tm  Tm19  1  0.29477995  0.99931560  0.25000000  1
  Ge  Ge20  1  0.28805481  0.03578029  0.04343115  1
  Ge  Ge21  1  0.78805481  0.46421971  0.45656885  1
  Ge  Ge22  1  0.71194519  0.96421971  0.54343115  1
  Ge  Ge23  1  0.21194519  0.53578029  0.95656885  1
  Ge  Ge24  1  0.71194519  0.96421971  0.95656885  1
  Ge  Ge25  1  0.21194519  0.53578029  0.54343115  1
  Ge  Ge26  1  0.28805481  0.03578029  0.45656885  1
  Ge  Ge27  1  0.78805481  0.46421971  0.04343115  1
  Ge  Ge28  1  0.57167795  0.61772327  0.75000000  1
  Ge  Ge29  1  0.07167795  0.88227673  0.75000000  1
  Ge  Ge30  1  0.42832205  0.38227673  0.25000000  1
  Ge  Ge31  1  0.92832205  0.11772327  0.25000000  1
  Ge  Ge32  1  0.32591487  0.14089430  0.75000000  1
  Ge  Ge33  1  0.82591487  0.35910570  0.75000000  1
  Ge  Ge34  1  0.67408513  0.85910570  0.25000000  1
  Ge  Ge35  1  0.17408513  0.64089430  0.25000000  1
