# generated using pymatgen
data_K4V2S4O19
_symmetry_space_group_name_H-M   'P 1'
_cell_length_a   7.96204236
_cell_length_b   10.73223055
_cell_length_c   12.25891472
_cell_angle_alpha   76.58805517
_cell_angle_beta   75.59078187
_cell_angle_gamma   71.21239190
_symmetry_Int_Tables_number   1
_chemical_formula_structural   K4V2S4O19
_chemical_formula_sum   'K8 V4 S8 O38'
_cell_volume   947.26500788
_cell_formula_units_Z   2
loop_
 _symmetry_equiv_pos_site_id
 _symmetry_equiv_pos_as_xyz
  1  'x, y, z'
loop_
 _atom_site_type_symbol
 _atom_site_label
 _atom_site_symmetry_multiplicity
 _atom_site_fract_x
 _atom_site_fract_y
 _atom_site_fract_z
 _atom_site_occupancy
  K  K0  1  0.20431801  0.65201268  0.05415240  1
  K  K1  1  0.79568199  0.34798732  0.94584760  1
  K  K2  1  0.59358099  0.96704238  0.15848936  1
  K  K3  1  0.40641901  0.03295762  0.84151064  1
  K  K4  1  0.93552600  0.83495621  0.44988043  1
  K  K5  1  0.06447400  0.16504379  0.55011957  1
  K  K6  1  0.30557724  0.45531279  0.64451902  1
  K  K7  1  0.69442276  0.54468721  0.35548098  1
  V  V8  1  0.55096707  0.71387491  0.69902681  1
  V  V9  1  0.44903293  0.28612509  0.30097319  1
  V  V10  1  0.88210047  0.77662766  0.81161661  1
  V  V11  1  0.11789953  0.22337234  0.18838339  1
  S  S12  1  0.92139129  0.00184730  0.84960813  1
  S  S13  1  0.07860871  0.99815270  0.15039187  1
  S  S14  1  0.80549773  0.47489247  0.63923199  1
  S  S15  1  0.19450227  0.52510753  0.36076801  1
  S  S16  1  0.42210456  0.82456965  0.50464324  1
  S  S17  1  0.57789544  0.17543035  0.49535676  1
  S  S18  1  0.29966131  0.31808774  0.97230992  1
  S  S19  1  0.70033869  0.68191226  0.02769008  1
  O  O20  1  0.37553152  0.17850573  0.02772768  1
  O  O21  1  0.62446848  0.82149427  0.97227232  1
  O  O22  1  0.63707884  0.52513181  0.73715130  1
  O  O23  1  0.36292116  0.47486819  0.26284870  1
  O  O24  1  0.51228448  0.87483289  0.57853237  1
  O  O25  1  0.48771552  0.12516711  0.42146763  1
  O  O26  1  0.24076159  0.32266769  0.86717621  1
  O  O27  1  0.75923841  0.67733231  0.13282379  1
  O  O28  1  0.98591305  0.85619335  0.90758561  1
  O  O29  1  0.01408695  0.14380665  0.09241439  1
  O  O30  1  0.82627859  0.60292678  0.56721755  1
  O  O31  1  0.17372141  0.39707322  0.43278245  1
  O  O32  1  0.75049615  0.39396308  0.58096759  1
  O  O33  1  0.24950385  0.60603692  0.41903241  1
  O  O34  1  0.43808206  0.68419143  0.57660254  1
  O  O35  1  0.56191794  0.31580857  0.42339746  1
  O  O36  1  0.12130871  0.36771651  0.06468171  1
  O  O37  1  0.87869129  0.63228349  0.93531829  1
  O  O38  1  0.06490795  0.70783308  0.72868655  1
  O  O39  1  0.93509205  0.29216692  0.27131345  1
  O  O40  1  0.82593385  0.97536373  0.76401015  1
  O  O41  1  0.17406615  0.02463627  0.23598985  1
  O  O42  1  0.79079992  0.08393832  0.92916628  1
  O  O43  1  0.20920008  0.91606168  0.07083372  1
  O  O44  1  0.95557888  0.39960096  0.69806627  1
  O  O45  1  0.04442112  0.60039904  0.30193373  1
  O  O46  1  0.23463797  0.90237664  0.50733216  1
  O  O47  1  0.76536203  0.09762336  0.49266784  1
  O  O48  1  0.40930696  0.40697603  0.96263385  1
  O  O49  1  0.59069304  0.59302397  0.03736615  1
  O  O50  1  0.70891583  0.77430033  0.74110347  1
  O  O51  1  0.29108417  0.22569967  0.25889653  1
  O  O52  1  0.07203357  0.05452242  0.78744465  1
  O  O53  1  0.92796643  0.94547758  0.21255535  1
  O  O54  1  0.53315108  0.81625900  0.39119971  1
  O  O55  1  0.46684892  0.18374100  0.60880029  1
  O  O56  1  0.37771983  0.74211814  0.80129059  1
  O  O57  1  0.62228017  0.25788186  0.19870941  1
