# generated using pymatgen
data_Pr8C8Cl5
_symmetry_space_group_name_H-M   'P 1'
_cell_length_a   6.83604268
_cell_length_b   7.71591888
_cell_length_c   17.11739367
_cell_angle_alpha   90.00000000
_cell_angle_beta   90.00000000
_cell_angle_gamma   103.98897551
_symmetry_Int_Tables_number   1
_chemical_formula_structural   Pr8C8Cl5
_chemical_formula_sum   'Pr16 C16 Cl10'
_cell_volume   876.10266733
_cell_formula_units_Z   2
loop_
 _symmetry_equiv_pos_site_id
 _symmetry_equiv_pos_as_xyz
  1  'x, y, z'
loop_
 _atom_site_type_symbol
 _atom_site_label
 _atom_site_symmetry_multiplicity
 _atom_site_fract_x
 _atom_site_fract_y
 _atom_site_fract_z
 _atom_site_occupancy
  Pr  Pr0  1  0.12366587  0.15070735  0.92965821  1
  Pr  Pr1  1  0.37633413  0.84929265  0.42965821  1
  Pr  Pr2  1  0.87633413  0.84929265  0.07034179  1
  Pr  Pr3  1  0.62366587  0.15070735  0.57034179  1
  Pr  Pr4  1  0.61672043  0.22506646  0.04863662  1
  Pr  Pr5  1  0.88327957  0.77493354  0.54863662  1
  Pr  Pr6  1  0.38327957  0.77493354  0.95136338  1
  Pr  Pr7  1  0.11672043  0.22506646  0.45136338  1
  Pr  Pr8  1  0.62406227  0.07435764  0.80485828  1
  Pr  Pr9  1  0.87593773  0.92564236  0.30485828  1
  Pr  Pr10  1  0.37593773  0.92564236  0.19514172  1
  Pr  Pr11  1  0.12406227  0.07435764  0.69514172  1
  Pr  Pr12  1  0.89651690  0.70087909  0.82667955  1
  Pr  Pr13  1  0.60348310  0.29912091  0.32667955  1
  Pr  Pr14  1  0.10348310  0.29912091  0.17332045  1
  Pr  Pr15  1  0.39651690  0.70087909  0.67332045  1
  C  C16  1  0.72324935  0.02121488  0.96172707  1
  C  C17  1  0.77675065  0.97878512  0.46172707  1
  C  C18  1  0.27675065  0.97878512  0.03827293  1
  C  C19  1  0.22324935  0.02121488  0.53827293  1
  C  C20  1  0.23553002  0.95208902  0.83993366  1
  C  C21  1  0.26446998  0.04791098  0.33993366  1
  C  C22  1  0.76446998  0.04791098  0.16006634  1
  C  C23  1  0.73553002  0.95208902  0.66006634  1
  C  C24  1  0.77866879  0.90200633  0.91462018  1
  C  C25  1  0.72133121  0.09799367  0.41462018  1
  C  C26  1  0.22133121  0.09799367  0.08537982  1
  C  C27  1  0.27866879  0.90200633  0.58537982  1
  C  C28  1  0.78186974  0.84243824  0.71497706  1
  C  C29  1  0.71813026  0.15756176  0.21497706  1
  C  C30  1  0.21813026  0.15756176  0.28502294  1
  C  C31  1  0.28186974  0.84243824  0.78502294  1
  Cl  Cl32  1  0.01646571  0.34970541  0.79736599  1
  Cl  Cl33  1  0.48353429  0.65029459  0.29736599  1
  Cl  Cl34  1  0.98353429  0.65029459  0.20263401  1
  Cl  Cl35  1  0.51646571  0.34970541  0.70263401  1
  Cl  Cl36  1  0.51829147  0.41471118  0.90339553  1
  Cl  Cl37  1  0.98170853  0.58528882  0.40339553  1
  Cl  Cl38  1  0.48170853  0.58528882  0.09660447  1
  Cl  Cl39  1  0.01829147  0.41471118  0.59660447  1
  Cl  Cl40  1  -0.00000000  0.50000000  -0.00000000  1
  Cl  Cl41  1  0.50000000  0.50000000  0.50000000  1
