# generated using pymatgen
data_InHg7S6Cl5
_symmetry_space_group_name_H-M   'P 1'
_cell_length_a   7.58901975
_cell_length_b   10.77700297
_cell_length_c   14.08766609
_cell_angle_alpha   109.69574187
_cell_angle_beta   105.45770842
_cell_angle_gamma   92.85477431
_symmetry_Int_Tables_number   1
_chemical_formula_structural   InHg7S6Cl5
_chemical_formula_sum   'In2 Hg14 S12 Cl10'
_cell_volume   1033.08738429
_cell_formula_units_Z   2
loop_
 _symmetry_equiv_pos_site_id
 _symmetry_equiv_pos_as_xyz
  1  'x, y, z'
loop_
 _atom_site_type_symbol
 _atom_site_label
 _atom_site_symmetry_multiplicity
 _atom_site_fract_x
 _atom_site_fract_y
 _atom_site_fract_z
 _atom_site_occupancy
  In  In0  1  0.88610041  0.13937789  0.32340624  1
  In  In1  1  0.11389959  0.86062211  0.67659376  1
  Hg  Hg2  1  0.00000000  0.00000000  -0.00000000  1
  Hg  Hg3  1  0.37345731  0.95736677  0.22732942  1
  Hg  Hg4  1  0.62654269  0.04263323  0.77267058  1
  Hg  Hg5  1  0.62357562  0.54371478  0.77266940  1
  Hg  Hg6  1  0.37642438  0.45628522  0.22733060  1
  Hg  Hg7  1  0.71944843  0.88141427  0.43475122  1
  Hg  Hg8  1  0.28055157  0.11858573  0.56524878  1
  Hg  Hg9  1  0.30762252  0.70285607  0.93839465  1
  Hg  Hg10  1  0.69237748  0.29714393  0.06160535  1
  Hg  Hg11  1  0.21604837  0.36191924  0.93992995  1
  Hg  Hg12  1  0.78395163  0.63808076  0.06007005  1
  Hg  Hg13  1  0.01671575  0.38599398  0.66001098  1
  Hg  Hg14  1  0.98328425  0.61400602  0.33998902  1
  Hg  Hg15  1  0.50000000  0.50000000  0.50000000  1
  S  S16  1  0.04541828  0.49525120  0.85033112  1
  S  S17  1  0.95458172  0.50474880  0.14966888  1
  S  S18  1  0.63733708  0.38125787  0.61014580  1
  S  S19  1  0.36266292  0.61874213  0.38985420  1
  S  S20  1  0.62753355  0.72928525  0.92900768  1
  S  S21  1  0.37246645  0.27071475  0.07099232  1
  S  S22  1  0.13480138  0.83455937  0.06330398  1
  S  S23  1  0.86519862  0.16544063  0.93669602  1
  S  S24  1  0.87153415  0.71570673  0.49046971  1
  S  S25  1  0.12846585  0.28429327  0.50953029  1
  S  S26  1  0.60598795  0.06858629  0.39497996  1
  S  S27  1  0.39401205  0.93141371  0.60502004  1
  Cl  Cl28  1  0.48857469  0.32266863  0.83210415  1
  Cl  Cl29  1  0.51142531  0.67733137  0.16789585  1
  Cl  Cl30  1  0.68088404  0.03010249  0.13655850  1
  Cl  Cl31  1  0.31911596  0.96989751  0.86344150  1
  Cl  Cl32  1  0.13840472  0.20535429  0.25272967  1
  Cl  Cl33  1  0.86159528  0.79464571  0.74727033  1
  Cl  Cl34  1  0.02421532  0.92741496  0.32703508  1
  Cl  Cl35  1  0.97578468  0.07258504  0.67296492  1
  Cl  Cl36  1  0.75144262  0.35650148  0.33554547  1
  Cl  Cl37  1  0.24855738  0.64349852  0.66445453  1
