# generated using pymatgen
data_K3Ge17
_symmetry_space_group_name_H-M   'P 1'
_cell_length_a   11.31109339
_cell_length_b   11.31109339
_cell_length_c   11.31109339
_cell_angle_alpha   60.00000000
_cell_angle_beta   60.00000000
_cell_angle_gamma   60.00000000
_symmetry_Int_Tables_number   1
_chemical_formula_structural   K3Ge17
_chemical_formula_sum   'K6 Ge34'
_cell_volume   1023.29008668
_cell_formula_units_Z   2
loop_
 _symmetry_equiv_pos_site_id
 _symmetry_equiv_pos_as_xyz
  1  'x, y, z'
loop_
 _atom_site_type_symbol
 _atom_site_label
 _atom_site_symmetry_multiplicity
 _atom_site_fract_x
 _atom_site_fract_y
 _atom_site_fract_z
 _atom_site_occupancy
  K  K0  1  -0.00000000  0.00000000  0.50000000  1
  K  K1  1  -0.00000000  0.50000000  -0.00000000  1
  K  K2  1  0.50000000  0.00000000  -0.00000000  1
  K  K3  1  -0.00000000  0.00000000  -0.00000000  1
  K  K4  1  0.37500000  0.37500000  0.37500000  1
  K  K5  1  0.62500000  0.62500000  0.62500000  1
  Ge  Ge6  1  0.87500000  0.87500000  0.87500000  1
  Ge  Ge7  1  0.12500000  0.12500000  0.12500000  1
  Ge  Ge8  1  0.78032277  0.78032277  0.15903170  1
  Ge  Ge9  1  0.78032277  0.15903170  0.78032277  1
  Ge  Ge10  1  0.15903170  0.78032277  0.78032277  1
  Ge  Ge11  1  0.78032277  0.78032277  0.78032277  1
  Ge  Ge12  1  0.21967723  0.21967723  0.84096830  1
  Ge  Ge13  1  0.21967723  0.84096830  0.21967723  1
  Ge  Ge14  1  0.84096830  0.21967723  0.21967723  1
  Ge  Ge15  1  0.21967723  0.21967723  0.21967723  1
  Ge  Ge16  1  0.62736391  0.62736391  0.23758482  1
  Ge  Ge17  1  0.00768736  0.23758482  0.62736391  1
  Ge  Ge18  1  0.23758482  0.00768736  0.62736391  1
  Ge  Ge19  1  0.62736391  0.62736391  0.00768736  1
  Ge  Ge20  1  0.23758482  0.62736391  0.62736391  1
  Ge  Ge21  1  0.62736391  0.00768736  0.23758482  1
  Ge  Ge22  1  0.62736391  0.23758482  0.00768736  1
  Ge  Ge23  1  0.00768736  0.62736391  0.62736391  1
  Ge  Ge24  1  0.62736391  0.23758482  0.62736391  1
  Ge  Ge25  1  0.23758482  0.62736391  0.00768736  1
  Ge  Ge26  1  0.00768736  0.62736391  0.23758482  1
  Ge  Ge27  1  0.62736391  0.00768736  0.62736391  1
  Ge  Ge28  1  0.37263609  0.37263609  0.76241518  1
  Ge  Ge29  1  0.99231264  0.76241518  0.37263609  1
  Ge  Ge30  1  0.76241518  0.99231264  0.37263609  1
  Ge  Ge31  1  0.37263609  0.37263609  0.99231264  1
  Ge  Ge32  1  0.76241518  0.37263609  0.37263609  1
  Ge  Ge33  1  0.37263609  0.99231264  0.76241518  1
  Ge  Ge34  1  0.37263609  0.76241518  0.99231264  1
  Ge  Ge35  1  0.99231264  0.37263609  0.37263609  1
  Ge  Ge36  1  0.37263609  0.76241518  0.37263609  1
  Ge  Ge37  1  0.76241518  0.37263609  0.99231264  1
  Ge  Ge38  1  0.99231264  0.37263609  0.76241518  1
  Ge  Ge39  1  0.37263609  0.99231264  0.37263609  1
