# generated using pymatgen
data_BaAl4(SbO6)2
_symmetry_space_group_name_H-M   'P 1'
_cell_length_a   8.34902851
_cell_length_b   8.34902851
_cell_length_c   8.34902851
_cell_angle_alpha   106.44233082
_cell_angle_beta   106.44233082
_cell_angle_gamma   115.71530295
_symmetry_Int_Tables_number   1
_chemical_formula_structural   BaAl4(SbO6)2
_chemical_formula_sum   'Ba2 Al8 Sb4 O24'
_cell_volume   443.97477721
_cell_formula_units_Z   2
loop_
 _symmetry_equiv_pos_site_id
 _symmetry_equiv_pos_as_xyz
  1  'x, y, z'
loop_
 _atom_site_type_symbol
 _atom_site_label
 _atom_site_symmetry_multiplicity
 _atom_site_fract_x
 _atom_site_fract_y
 _atom_site_fract_z
 _atom_site_occupancy
  Ba  Ba0  1  0.21567676  0.21567676  -0.00000000  1
  Ba  Ba1  1  0.78432324  0.78432324  0.00000000  1
  Al  Al2  1  0.49938719  0.98415746  0.81494451  1
  Al  Al3  1  0.16921295  0.68444268  0.18505549  1
  Al  Al4  1  0.98415746  0.16921295  0.48477027  1
  Al  Al5  1  0.68444268  0.49938719  0.51522973  1
  Al  Al6  1  0.50061281  0.01584254  0.18505549  1
  Al  Al7  1  0.83078705  0.31555732  0.81494451  1
  Al  Al8  1  0.01584254  0.83078705  0.51522973  1
  Al  Al9  1  0.31555732  0.50061281  0.48477027  1
  Sb  Sb10  1  0.16456045  0.64941920  0.81397965  1
  Sb  Sb11  1  0.83543955  0.35058080  0.18602035  1
  Sb  Sb12  1  0.64941920  0.83543955  0.48485875  1
  Sb  Sb13  1  0.35058080  0.16456045  0.51514125  1
  O  O14  1  0.20111927  0.85031065  0.05142992  1
  O  O15  1  0.79888073  0.14968935  0.94857008  1
  O  O16  1  0.85031065  0.79888073  0.64919138  1
  O  O17  1  0.14968935  0.20111927  0.35080862  1
  O  O18  1  0.53215717  0.17412111  0.04667260  1
  O  O19  1  0.12744851  0.48548457  0.95332740  1
  O  O20  1  0.17412111  0.12744851  0.64196394  1
  O  O21  1  0.48548457  0.53215717  0.35803606  1
  O  O22  1  0.46784283  0.82587889  0.95332740  1
  O  O23  1  0.87255149  0.51451543  0.04667260  1
  O  O24  1  0.82587889  0.87255149  0.35803606  1
  O  O25  1  0.51451543  0.46784283  0.64196394  1
  O  O26  1  0.16141891  0.45202211  0.61344102  1
  O  O27  1  0.83858109  0.54797789  0.38655898  1
  O  O28  1  0.45202211  0.83858109  0.29060320  1
  O  O29  1  0.54797789  0.16141891  0.70939680  1
  O  O30  1  0.49397191  0.78793312  0.62953723  1
  O  O31  1  0.15839589  0.86443468  0.37046277  1
  O  O32  1  0.78793312  0.15839589  0.29396121  1
  O  O33  1  0.86443468  0.49397191  0.70603879  1
  O  O34  1  0.50602809  0.21206688  0.37046277  1
  O  O35  1  0.84160411  0.13556532  0.62953723  1
  O  O36  1  0.21206688  0.84160411  0.70603879  1
  O  O37  1  0.13556532  0.50602809  0.29396121  1
