# generated using pymatgen
data_Ba3Al3P5
_symmetry_space_group_name_H-M   'P 1'
_cell_length_a   12.93175933
_cell_length_b   12.93175933
_cell_length_c   12.93175901
_cell_angle_alpha   69.37519881
_cell_angle_beta   69.37519881
_cell_angle_gamma   69.37520245
_symmetry_Int_Tables_number   1
_chemical_formula_structural   Ba3Al3P5
_chemical_formula_sum   'Ba18 Al18 P30'
_cell_volume   1828.85844762
_cell_formula_units_Z   6
loop_
 _symmetry_equiv_pos_site_id
 _symmetry_equiv_pos_as_xyz
  1  'x, y, z'
loop_
 _atom_site_type_symbol
 _atom_site_label
 _atom_site_symmetry_multiplicity
 _atom_site_fract_x
 _atom_site_fract_y
 _atom_site_fract_z
 _atom_site_occupancy
  Ba  Ba0  1  0.22337719  0.14640345  0.65125147  1
  Ba  Ba1  1  0.14640345  0.65125147  0.22337719  1
  Ba  Ba2  1  0.65125147  0.22337719  0.14640345  1
  Ba  Ba3  1  0.72337719  0.15125147  0.64640345  1
  Ba  Ba4  1  0.15125147  0.64640345  0.72337719  1
  Ba  Ba5  1  0.64640345  0.72337719  0.15125147  1
  Ba  Ba6  1  0.77662281  0.85359655  0.34874853  1
  Ba  Ba7  1  0.85359655  0.34874853  0.77662281  1
  Ba  Ba8  1  0.34874853  0.77662281  0.85359655  1
  Ba  Ba9  1  0.27662281  0.84874853  0.35359655  1
  Ba  Ba10  1  0.84874853  0.35359655  0.27662281  1
  Ba  Ba11  1  0.35359655  0.27662281  0.84874853  1
  Ba  Ba12  1  0.39894955  0.39894955  0.39894955  1
  Ba  Ba13  1  0.89894955  0.89894955  0.89894955  1
  Ba  Ba14  1  0.60105045  0.60105045  0.60105045  1
  Ba  Ba15  1  0.10105045  0.10105045  0.10105045  1
  Ba  Ba16  1  0.25000000  0.25000000  0.25000000  1
  Ba  Ba17  1  0.75000000  0.75000000  0.75000000  1
  Al  Al18  1  0.57237423  0.07931202  0.49344533  1
  Al  Al19  1  0.07931202  0.49344533  0.57237423  1
  Al  Al20  1  0.49344533  0.57237423  0.07931202  1
  Al  Al21  1  0.07237423  0.99344533  0.57931202  1
  Al  Al22  1  0.99344533  0.57931202  0.07237423  1
  Al  Al23  1  0.57931202  0.07237423  0.99344533  1
  Al  Al24  1  0.42762577  0.92068798  0.50655467  1
  Al  Al25  1  0.92068798  0.50655467  0.42762577  1
  Al  Al26  1  0.50655467  0.42762577  0.92068798  1
  Al  Al27  1  0.92762577  0.00655467  0.42068798  1
  Al  Al28  1  0.00655467  0.42068798  0.92762577  1
  Al  Al29  1  0.42068798  0.92762577  0.00655467  1
  Al  Al30  1  0.52044137  0.97955863  0.25000000  1
  Al  Al31  1  0.97955863  0.25000000  0.52044137  1
  Al  Al32  1  0.25000000  0.52044137  0.97955863  1
  Al  Al33  1  0.02044137  0.75000000  0.47955863  1
  Al  Al34  1  0.75000000  0.47955863  0.02044137  1
  Al  Al35  1  0.47955863  0.02044137  0.75000000  1
  P  P36  1  0.44999572  0.10946416  0.37516191  1
  P  P37  1  0.10946416  0.37516191  0.44999572  1
  P  P38  1  0.37516191  0.44999572  0.10946416  1
  P  P39  1  0.94999572  0.87516191  0.60946416  1
  P  P40  1  0.87516191  0.60946416  0.94999572  1
  P  P41  1  0.60946416  0.94999572  0.87516191  1
  P  P42  1  0.55000428  0.89053584  0.62483809  1
  P  P43  1  0.89053584  0.62483809  0.55000428  1
  P  P44  1  0.62483809  0.55000428  0.89053584  1
  P  P45  1  0.05000428  0.12483809  0.39053584  1
  P  P46  1  0.12483809  0.39053584  0.05000428  1
  P  P47  1  0.39053584  0.05000428  0.12483809  1
  P  P48  1  0.47162642  0.20325248  0.61518999  1
  P  P49  1  0.20325248  0.61518999  0.47162642  1
  P  P50  1  0.61518999  0.47162642  0.20325248  1
  P  P51  1  0.97162642  0.11518999  0.70325248  1
  P  P52  1  0.11518999  0.70325248  0.97162642  1
  P  P53  1  0.70325248  0.97162642  0.11518999  1
  P  P54  1  0.52837358  0.79674752  0.38481001  1
  P  P55  1  0.79674752  0.38481001  0.52837358  1
  P  P56  1  0.38481001  0.52837358  0.79674752  1
  P  P57  1  0.02837358  0.88481001  0.29674752  1
  P  P58  1  0.88481001  0.29674752  0.02837358  1
  P  P59  1  0.29674752  0.02837358  0.88481001  1
  P  P60  1  0.88450559  0.61549441  0.25000000  1
  P  P61  1  0.61549441  0.25000000  0.88450559  1
  P  P62  1  0.25000000  0.88450559  0.61549441  1
  P  P63  1  0.38450559  0.75000000  0.11549441  1
  P  P64  1  0.75000000  0.11549441  0.38450559  1
  P  P65  1  0.11549441  0.38450559  0.75000000  1
