# generated using pymatgen
data_Ce(Ga4Co)2
_symmetry_space_group_name_H-M   'P 1'
_cell_length_a   4.07560543
_cell_length_b   12.42024620
_cell_length_c   14.28679771
_cell_angle_alpha   90.00000000
_cell_angle_beta   90.00000000
_cell_angle_gamma   90.00000000
_symmetry_Int_Tables_number   1
_chemical_formula_structural   Ce(Ga4Co)2
_chemical_formula_sum   'Ce4 Ga32 Co8'
_cell_volume   723.19802660
_cell_formula_units_Z   4
loop_
 _symmetry_equiv_pos_site_id
 _symmetry_equiv_pos_as_xyz
  1  'x, y, z'
loop_
 _atom_site_type_symbol
 _atom_site_label
 _atom_site_symmetry_multiplicity
 _atom_site_fract_x
 _atom_site_fract_y
 _atom_site_fract_z
 _atom_site_occupancy
  Ce  Ce0  1  0.00000000  0.84316168  0.17959524  1
  Ce  Ce1  1  -0.00000000  0.15683832  0.82040476  1
  Ce  Ce2  1  -0.00000000  0.34316168  0.32040476  1
  Ce  Ce3  1  -0.00000000  0.65683832  0.67959524  1
  Ga  Ga4  1  -0.00000000  0.50000000  0.50000000  1
  Ga  Ga5  1  -0.00000000  -0.00000000  -0.00000000  1
  Ga  Ga6  1  0.50000000  0.50000000  -0.00000000  1
  Ga  Ga7  1  0.50000000  0.00000000  0.50000000  1
  Ga  Ga8  1  0.50000000  0.73883808  0.32475901  1
  Ga  Ga9  1  0.50000000  0.26116192  0.67524099  1
  Ga  Ga10  1  0.50000000  0.23883808  0.17524099  1
  Ga  Ga11  1  0.50000000  0.76116192  0.82475901  1
  Ga  Ga12  1  0.50000000  0.95150217  0.31878400  1
  Ga  Ga13  1  0.50000000  0.04849783  0.68121600  1
  Ga  Ga14  1  0.50000000  0.45150217  0.18121600  1
  Ga  Ga15  1  0.50000000  0.54849783  0.81878400  1
  Ga  Ga16  1  0.50000000  0.66406943  0.12126210  1
  Ga  Ga17  1  0.50000000  0.33593057  0.87873790  1
  Ga  Ga18  1  0.50000000  0.16406943  0.37873790  1
  Ga  Ga19  1  0.50000000  0.83593057  0.62126210  1
  Ga  Ga20  1  0.00000000  0.83989659  0.45486789  1
  Ga  Ga21  1  0.00000000  0.16010341  0.54513211  1
  Ga  Ga22  1  -0.00000000  0.33989659  0.04513211  1
  Ga  Ga23  1  -0.00000000  0.66010341  0.95486789  1
  Ga  Ga24  1  0.00000000  0.59899519  0.24549481  1
  Ga  Ga25  1  0.00000000  0.40100481  0.75450519  1
  Ga  Ga26  1  0.00000000  0.09899519  0.25450519  1
  Ga  Ga27  1  0.00000000  0.90100481  0.74549481  1
  Ga  Ga28  1  0.50000000  0.83182984  0.01040620  1
  Ga  Ga29  1  0.50000000  0.16817016  0.98959380  1
  Ga  Ga30  1  0.50000000  0.33182984  0.48959380  1
  Ga  Ga31  1  0.50000000  0.66817016  0.51040620  1
  Ga  Ga32  1  0.50000000  0.52248223  0.36662036  1
  Ga  Ga33  1  0.50000000  0.47751777  0.63337964  1
  Ga  Ga34  1  0.50000000  0.02248223  0.13337964  1
  Ga  Ga35  1  0.50000000  0.97751777  0.86662036  1
  Co  Co36  1  -0.00000000  0.65415027  0.40350766  1
  Co  Co37  1  -0.00000000  0.34584973  0.59649234  1
  Co  Co38  1  -0.00000000  0.15415027  0.09649234  1
  Co  Co39  1  0.00000000  0.84584973  0.90350766  1
  Co  Co40  1  -0.00000000  0.53496801  0.09351616  1
  Co  Co41  1  -0.00000000  0.46503199  0.90648384  1
  Co  Co42  1  0.00000000  0.03496801  0.40648384  1
  Co  Co43  1  -0.00000000  0.96503199  0.59351616  1
