# generated using pymatgen
data_Nd6TlFe13
_symmetry_space_group_name_H-M   'P 1'
_cell_length_a   8.07536767
_cell_length_b   8.07536767
_cell_length_c   13.04421044
_cell_angle_alpha   108.03141367
_cell_angle_beta   108.03141367
_cell_angle_gamma   90.00000000
_symmetry_Int_Tables_number   1
_chemical_formula_structural   Nd6TlFe13
_chemical_formula_sum   'Nd12 Tl2 Fe26'
_cell_volume   764.80026667
_cell_formula_units_Z   2
loop_
 _symmetry_equiv_pos_site_id
 _symmetry_equiv_pos_as_xyz
  1  'x, y, z'
loop_
 _atom_site_type_symbol
 _atom_site_label
 _atom_site_symmetry_multiplicity
 _atom_site_fract_x
 _atom_site_fract_y
 _atom_site_fract_z
 _atom_site_occupancy
  Nd  Nd0  1  0.60483578  0.60483578  0.20967155  1
  Nd  Nd1  1  0.10483578  0.10483578  0.20967155  1
  Nd  Nd2  1  0.39516422  0.39516422  0.79032845  1
  Nd  Nd3  1  0.89516422  0.89516422  0.79032845  1
  Nd  Nd4  1  0.97783976  0.47783976  0.63005384  1
  Nd  Nd5  1  0.65221407  0.15221407  0.63005384  1
  Nd  Nd6  1  0.15221407  0.97783976  0.63005384  1
  Nd  Nd7  1  0.47783976  0.65221407  0.63005384  1
  Nd  Nd8  1  0.02216024  0.52216024  0.36994616  1
  Nd  Nd9  1  0.34778593  0.84778593  0.36994616  1
  Nd  Nd10  1  0.84778593  0.02216024  0.36994616  1
  Nd  Nd11  1  0.52216024  0.34778593  0.36994616  1
  Tl  Tl12  1  0.25000000  0.25000000  0.50000000  1
  Tl  Tl13  1  0.75000000  0.75000000  0.50000000  1
  Fe  Fe14  1  -0.00000000  0.50000000  -0.00000000  1
  Fe  Fe15  1  0.50000000  -0.00000000  -0.00000000  1
  Fe  Fe16  1  0.71016907  0.56606631  -0.00000000  1
  Fe  Fe17  1  0.28983093  0.43393369  -0.00000000  1
  Fe  Fe18  1  0.78983093  0.06606631  -0.00000000  1
  Fe  Fe19  1  0.21016907  0.93393369  -0.00000000  1
  Fe  Fe20  1  0.56606631  0.28983093  -0.00000000  1
  Fe  Fe21  1  0.43393369  0.71016907  -0.00000000  1
  Fe  Fe22  1  0.06606631  0.21016907  -0.00000000  1
  Fe  Fe23  1  0.93393369  0.78983093  -0.00000000  1
  Fe  Fe24  1  0.12048279  0.62048279  0.88279509  1
  Fe  Fe25  1  0.76231230  0.26231230  0.88279509  1
  Fe  Fe26  1  0.26231230  0.12048279  0.88279509  1
  Fe  Fe27  1  0.62048279  0.76231230  0.88279509  1
  Fe  Fe28  1  0.87951721  0.37951721  0.11720491  1
  Fe  Fe29  1  0.23768770  0.73768770  0.11720491  1
  Fe  Fe30  1  0.73768770  0.87951721  0.11720491  1
  Fe  Fe31  1  0.37951721  0.23768770  0.11720491  1
  Fe  Fe32  1  0.29328750  0.79328750  0.81244910  1
  Fe  Fe33  1  0.51916160  0.01916160  0.81244910  1
  Fe  Fe34  1  0.01916160  0.29328750  0.81244910  1
  Fe  Fe35  1  0.79328750  0.51916160  0.81244910  1
  Fe  Fe36  1  0.70671250  0.20671250  0.18755090  1
  Fe  Fe37  1  0.48083840  0.98083840  0.18755090  1
  Fe  Fe38  1  0.98083840  0.70671250  0.18755090  1
  Fe  Fe39  1  0.20671250  0.48083840  0.18755090  1
