# generated using pymatgen
data_K2ZrHF7
_symmetry_space_group_name_H-M   'P 1'
_cell_length_a   8.71644119
_cell_length_b   11.75484455
_cell_length_c   13.64255287
_cell_angle_alpha   90.00000000
_cell_angle_beta   90.00000000
_cell_angle_gamma   90.00000000
_symmetry_Int_Tables_number   1
_chemical_formula_structural   K2ZrHF7
_chemical_formula_sum   'K16 Zr8 H8 F56'
_cell_volume   1397.82157712
_cell_formula_units_Z   8
loop_
 _symmetry_equiv_pos_site_id
 _symmetry_equiv_pos_as_xyz
  1  'x, y, z'
loop_
 _atom_site_type_symbol
 _atom_site_label
 _atom_site_symmetry_multiplicity
 _atom_site_fract_x
 _atom_site_fract_y
 _atom_site_fract_z
 _atom_site_occupancy
  K  K0  1  0.34827181  0.25766291  0.32871472  1
  K  K1  1  0.65172819  0.24233709  0.82871472  1
  K  K2  1  0.15172819  0.75766291  0.67128528  1
  K  K3  1  0.84827181  0.74233709  0.17128528  1
  K  K4  1  0.65172819  0.74233709  0.67128528  1
  K  K5  1  0.34827181  0.75766291  0.17128528  1
  K  K6  1  0.84827181  0.24233709  0.32871472  1
  K  K7  1  0.15172819  0.25766291  0.82871472  1
  K  K8  1  0.11669925  0.93223722  0.39218654  1
  K  K9  1  0.88330075  0.56776278  0.89218654  1
  K  K10  1  0.38330075  0.43223722  0.60781346  1
  K  K11  1  0.61669925  0.06776278  0.10781346  1
  K  K12  1  0.88330075  0.06776278  0.60781346  1
  K  K13  1  0.11669925  0.43223722  0.10781346  1
  K  K14  1  0.61669925  0.56776278  0.39218654  1
  K  K15  1  0.38330075  0.93223722  0.89218654  1
  Zr  Zr16  1  0.59502079  0.96070273  0.38204717  1
  Zr  Zr17  1  0.40497921  0.53929727  0.88204717  1
  Zr  Zr18  1  0.90497921  0.46070273  0.61795283  1
  Zr  Zr19  1  0.09502079  0.03929727  0.11795283  1
  Zr  Zr20  1  0.40497921  0.03929727  0.61795283  1
  Zr  Zr21  1  0.59502079  0.46070273  0.11795283  1
  Zr  Zr22  1  0.09502079  0.53929727  0.38204717  1
  Zr  Zr23  1  0.90497921  0.96070273  0.88204717  1
  H  H24  1  0.82373354  0.80849313  0.48268600  1
  H  H25  1  0.17626646  0.69150687  0.98268600  1
  H  H26  1  0.67626646  0.30849313  0.51731400  1
  H  H27  1  0.32373354  0.19150687  0.01731400  1
  H  H28  1  0.17626646  0.19150687  0.51731400  1
  H  H29  1  0.82373354  0.30849313  0.01731400  1
  H  H30  1  0.32373354  0.69150687  0.48268600  1
  H  H31  1  0.67626646  0.80849313  0.98268600  1
  F  F32  1  0.80377535  0.03098908  0.42066298  1
  F  F33  1  0.19622465  0.46901092  0.92066298  1
  F  F34  1  0.69622465  0.53098908  0.57933702  1
  F  F35  1  0.30377535  0.96901092  0.07933702  1
  F  F36  1  0.19622465  0.96901092  0.57933702  1
  F  F37  1  0.80377535  0.53098908  0.07933702  1
  F  F38  1  0.30377535  0.46901092  0.42066298  1
  F  F39  1  0.69622465  0.03098908  0.92066298  1
  F  F40  1  0.57451372  0.10681448  0.29954496  1
  F  F41  1  0.42548628  0.39318552  0.79954496  1
  F  F42  1  0.92548628  0.60681448  0.70045504  1
  F  F43  1  0.07451372  0.89318552  0.20045504  1
  F  F44  1  0.42548628  0.89318552  0.70045504  1
  F  F45  1  0.57451372  0.60681448  0.20045504  1
  F  F46  1  0.07451372  0.39318552  0.29954496  1
  F  F47  1  0.92548628  0.10681448  0.79954496  1
  F  F48  1  0.41872675  0.06318700  0.45615117  1
  F  F49  1  0.58127325  0.43681300  0.95615117  1
  F  F50  1  0.08127325  0.56318700  0.54384883  1
  F  F51  1  0.91872675  0.93681300  0.04384883  1
  F  F52  1  0.58127325  0.93681300  0.54384883  1
  F  F53  1  0.41872675  0.56318700  0.04384883  1
  F  F54  1  0.91872675  0.43681300  0.45615117  1
  F  F55  1  0.08127325  0.06318700  0.95615117  1
  F  F56  1  0.67026957  0.90625050  0.24832647  1
  F  F57  1  0.32973043  0.59374950  0.74832647  1
  F  F58  1  0.82973043  0.40625050  0.75167353  1
  F  F59  1  0.17026957  0.09374950  0.25167353  1
  F  F60  1  0.32973043  0.09374950  0.75167353  1
  F  F61  1  0.67026957  0.40625050  0.25167353  1
  F  F62  1  0.17026957  0.59374950  0.24832647  1
  F  F63  1  0.82973043  0.90625050  0.74832647  1
  F  F64  1  0.40400748  0.87188127  0.34682964  1
  F  F65  1  0.59599252  0.62811873  0.84682964  1
  F  F66  1  0.09599252  0.37188127  0.65317036  1
  F  F67  1  0.90400748  0.12811873  0.15317036  1
  F  F68  1  0.59599252  0.12811873  0.65317036  1
  F  F69  1  0.40400748  0.37188127  0.15317036  1
  F  F70  1  0.90400748  0.62811873  0.34682964  1
  F  F71  1  0.09599252  0.87188127  0.84682964  1
  F  F72  1  0.70443186  0.80391559  0.41778264  1
  F  F73  1  0.29556814  0.69608441  0.91778264  1
  F  F74  1  0.79556814  0.30391559  0.58221736  1
  F  F75  1  0.20443186  0.19608441  0.08221736  1
  F  F76  1  0.29556814  0.19608441  0.58221736  1
  F  F77  1  0.70443186  0.30391559  0.08221736  1
  F  F78  1  0.20443186  0.69608441  0.41778264  1
  F  F79  1  0.79556814  0.80391559  0.91778264  1
  F  F80  1  0.90941309  0.81486576  0.53256270  1
  F  F81  1  0.09058691  0.68513424  0.03256270  1
  F  F82  1  0.59058691  0.31486576  0.46743730  1
  F  F83  1  0.40941309  0.18513424  0.96743730  1
  F  F84  1  0.09058691  0.18513424  0.46743730  1
  F  F85  1  0.90941309  0.31486576  0.96743730  1
  F  F86  1  0.40941309  0.68513424  0.53256270  1
  F  F87  1  0.59058691  0.81486576  0.03256270  1
