# generated using pymatgen
data_Cs6Dy21Se34Cl
_symmetry_space_group_name_H-M   'P 1'
_cell_length_a   13.62904117
_cell_length_b   13.63163972
_cell_length_c   13.63163972
_cell_angle_alpha   97.53393425
_cell_angle_beta   114.31224619
_cell_angle_gamma   114.31224619
_symmetry_Int_Tables_number   1
_chemical_formula_structural   Cs6Dy21Se34Cl
_chemical_formula_sum   'Cs6 Dy21 Se34 Cl1'
_cell_volume   1960.66061996
_cell_formula_units_Z   1
loop_
 _symmetry_equiv_pos_site_id
 _symmetry_equiv_pos_as_xyz
  1  'x, y, z'
loop_
 _atom_site_type_symbol
 _atom_site_label
 _atom_site_symmetry_multiplicity
 _atom_site_fract_x
 _atom_site_fract_y
 _atom_site_fract_z
 _atom_site_occupancy
  Cs  Cs0  1  0.27172938  0.04799023  0.80442908  1
  Cs  Cs1  1  0.27172938  0.80442908  0.04799023  1
  Cs  Cs2  1  0.72827062  0.95200977  0.19557092  1
  Cs  Cs3  1  0.72827062  0.19557092  0.95200977  1
  Cs  Cs4  1  0.41824671  0.77132931  0.77132931  1
  Cs  Cs5  1  0.58175329  0.22867069  0.22867069  1
  Dy  Dy6  1  0.00000000  0.69899301  0.30100699  1
  Dy  Dy7  1  0.00000000  0.30100699  0.69899301  1
  Dy  Dy8  1  0.24838445  0.04552485  0.46081472  1
  Dy  Dy9  1  0.24838445  0.46081472  0.04552485  1
  Dy  Dy10  1  0.75161555  0.95447515  0.53918528  1
  Dy  Dy11  1  0.75161555  0.53918528  0.95447515  1
  Dy  Dy12  1  0.37697649  0.82897456  0.42774571  1
  Dy  Dy13  1  0.37697649  0.42774571  0.82897456  1
  Dy  Dy14  1  0.62302351  0.17102544  0.57225429  1
  Dy  Dy15  1  0.62302351  0.57225429  0.17102544  1
  Dy  Dy16  1  -0.00000000  0.90071704  0.09928296  1
  Dy  Dy17  1  0.00000000  0.09928296  0.90071704  1
  Dy  Dy18  1  0.10822178  0.26291888  0.46783249  1
  Dy  Dy19  1  0.10822178  0.46783249  0.26291888  1
  Dy  Dy20  1  0.89177822  0.73708112  0.53216751  1
  Dy  Dy21  1  0.89177822  0.53216751  0.73708112  1
  Dy  Dy22  1  0.50000000  0.39968876  0.60031124  1
  Dy  Dy23  1  0.50000000  0.60031124  0.39968876  1
  Dy  Dy24  1  0.00000000  0.50000000  0.50000000  1
  Dy  Dy25  1  0.25526732  0.24392150  0.24392150  1
  Dy  Dy26  1  0.74473268  0.75607850  0.75607850  1
  Se  Se27  1  0.05954780  0.68295927  0.68295927  1
  Se  Se28  1  0.94045220  0.31704073  0.31704073  1
  Se  Se29  1  0.18088764  0.05940552  0.05940552  1
  Se  Se30  1  0.81911236  0.94059448  0.94059448  1
  Se  Se31  1  0.07376231  0.08932272  0.28953912  1
  Se  Se32  1  0.07376231  0.28953912  0.08932272  1
  Se  Se33  1  0.92623769  0.91067728  0.71046088  1
  Se  Se34  1  0.92623769  0.71046088  0.91067728  1
  Se  Se35  1  0.06377563  0.88258861  0.48591828  1
  Se  Se36  1  0.06377563  0.48591828  0.88258861  1
  Se  Se37  1  0.93622437  0.11741139  0.51408172  1
  Se  Se38  1  0.93622437  0.51408172  0.11741139  1
  Se  Se39  1  0.18670682  0.86697630  0.27112145  1
  Se  Se40  1  0.18670682  0.27112145  0.86697630  1
  Se  Se41  1  0.81329318  0.13302370  0.72887855  1
  Se  Se42  1  0.81329318  0.72887855  0.13302370  1
  Se  Se43  1  0.31095630  0.24461481  0.63399569  1
  Se  Se44  1  0.31095630  0.63399569  0.24461481  1
  Se  Se45  1  0.68904370  0.75538519  0.36600431  1
  Se  Se46  1  0.68904370  0.36600431  0.75538519  1
  Se  Se47  1  0.44130852  0.01279574  0.60954241  1
  Se  Se48  1  0.44130852  0.60954241  0.01279574  1
  Se  Se49  1  0.55869148  0.98720426  0.39045759  1
  Se  Se50  1  0.55869148  0.39045759  0.98720426  1
  Se  Se51  1  0.43667067  0.21293831  0.42044449  1
  Se  Se52  1  0.43667067  0.42044449  0.21293831  1
  Se  Se53  1  0.56332933  0.78706169  0.57955551  1
  Se  Se54  1  0.56332933  0.57955551  0.78706169  1
  Se  Se55  1  0.18295890  0.65304248  0.45262937  1
  Se  Se56  1  0.18295890  0.45262937  0.65304248  1
  Se  Se57  1  0.81704110  0.34695752  0.54737063  1
  Se  Se58  1  0.81704110  0.54737063  0.34695752  1
  Se  Se59  1  0.30834023  0.42727881  0.42727881  1
  Se  Se60  1  0.69165977  0.57272119  0.57272119  1
  Cl  Cl61  1  0.50000000  0.00000000  0.00000000  1
