# generated using pymatgen
data_Cu9S5
_symmetry_space_group_name_H-M   'P 1'
_cell_length_a   19.64590018
_cell_length_b   10.54102073
_cell_length_c   6.57911587
_cell_angle_alpha   29.38612812
_cell_angle_beta   29.46097074
_cell_angle_gamma   18.06485980
_symmetry_Int_Tables_number   1
_chemical_formula_structural   Cu9S5
_chemical_formula_sum   'Cu9 S5'
_cell_volume   199.13638728
_cell_formula_units_Z   1
loop_
 _symmetry_equiv_pos_site_id
 _symmetry_equiv_pos_as_xyz
  1  'x, y, z'
loop_
 _atom_site_type_symbol
 _atom_site_label
 _atom_site_symmetry_multiplicity
 _atom_site_fract_x
 _atom_site_fract_y
 _atom_site_fract_z
 _atom_site_occupancy
  Cu  Cu0  1  0.02260775  0.30269002  0.32723115  1
  Cu  Cu1  1  0.97428288  0.51992059  0.51931649  1
  Cu  Cu2  1  0.30208315  0.25119282  0.24074639  1
  Cu  Cu3  1  0.18322678  0.54113576  0.51480290  1
  Cu  Cu4  1  0.58075814  0.03071145  0.33184357  1
  Cu  Cu5  1  0.41566750  0.51951196  0.41327628  1
  Cu  Cu6  1  0.72619121  0.32360386  0.05453624  1
  Cu  Cu7  1  0.62523771  0.43239548  0.53638876  1
  Cu  Cu8  1  0.87277086  0.33001428  0.31297267  1
  S  S9  1  0.99696374  0.99900151  0.04760290  1
  S  S10  1  0.23755323  0.93076088  0.99822058  1
  S  S11  1  0.36030381  0.04575871  0.03083497  1
  S  S12  1  0.60749619  0.01881793  0.92942578  1
  S  S13  1  0.79763906  0.00068574  0.00733332  1
