# generated using pymatgen
data_Y2B6Ru
_symmetry_space_group_name_H-M   'P 1'
_cell_length_a   3.66968723
_cell_length_b   9.16009561
_cell_length_c   11.53475366
_cell_angle_alpha   90.00000000
_cell_angle_beta   90.00000000
_cell_angle_gamma   90.00000000
_symmetry_Int_Tables_number   1
_chemical_formula_structural   Y2B6Ru
_chemical_formula_sum   'Y8 B24 Ru4'
_cell_volume   387.73712105
_cell_formula_units_Z   4
loop_
 _symmetry_equiv_pos_site_id
 _symmetry_equiv_pos_as_xyz
  1  'x, y, z'
loop_
 _atom_site_type_symbol
 _atom_site_label
 _atom_site_symmetry_multiplicity
 _atom_site_fract_x
 _atom_site_fract_y
 _atom_site_fract_z
 _atom_site_occupancy
  Y  Y0  1  -0.00000000  0.32233882  0.41392260  1
  Y  Y1  1  0.00000000  0.67766118  0.58607740  1
  Y  Y2  1  -0.00000000  0.82233882  0.08607740  1
  Y  Y3  1  0.00000000  0.17766118  0.91392260  1
  Y  Y4  1  0.00000000  0.94368159  0.37299771  1
  Y  Y5  1  0.00000000  0.05631841  0.62700229  1
  Y  Y6  1  0.00000000  0.44368159  0.12700229  1
  Y  Y7  1  -0.00000000  0.55631841  0.87299771  1
  B  B8  1  0.50000000  0.55378980  0.43268938  1
  B  B9  1  0.50000000  0.44621020  0.56731062  1
  B  B10  1  0.50000000  0.05378980  0.06731062  1
  B  B11  1  0.50000000  0.94621020  0.93268938  1
  B  B12  1  0.50000000  0.74733895  0.41993381  1
  B  B13  1  0.50000000  0.25266105  0.58006619  1
  B  B14  1  0.50000000  0.24733895  0.08006619  1
  B  B15  1  0.50000000  0.75266105  0.91993381  1
  B  B16  1  0.50000000  0.79015678  0.26686000  1
  B  B17  1  0.50000000  0.20984322  0.73314000  1
  B  B18  1  0.50000000  0.29015678  0.23314000  1
  B  B19  1  0.50000000  0.70984322  0.76686000  1
  B  B20  1  0.50000000  0.63176844  0.18534683  1
  B  B21  1  0.50000000  0.36823156  0.81465317  1
  B  B22  1  0.50000000  0.13176844  0.31465317  1
  B  B23  1  0.50000000  0.86823156  0.68534683  1
  B  B24  1  0.50000000  0.98364185  0.21299093  1
  B  B25  1  0.50000000  0.01635815  0.78700907  1
  B  B26  1  0.50000000  0.48364185  0.28700907  1
  B  B27  1  0.50000000  0.51635815  0.71299093  1
  B  B28  1  0.50000000  0.61143424  0.03064327  1
  B  B29  1  0.50000000  0.38856576  0.96935673  1
  B  B30  1  0.50000000  0.11143424  0.46935673  1
  B  B31  1  0.50000000  0.88856576  0.53064327  1
  Ru  Ru32  1  -0.00000000  0.63769421  0.32105964  1
  Ru  Ru33  1  -0.00000000  0.36230579  0.67894036  1
  Ru  Ru34  1  0.00000000  0.13769421  0.17894036  1
  Ru  Ru35  1  0.00000000  0.86230579  0.82105964  1
