# generated using pymatgen
data_Li(NdGe)4
_symmetry_space_group_name_H-M   'P 1'
_cell_length_a   7.42507760
_cell_length_b   7.99583247
_cell_length_c   15.23107965
_cell_angle_alpha   90.00000000
_cell_angle_beta   90.00000000
_cell_angle_gamma   90.00000000
_symmetry_Int_Tables_number   1
_chemical_formula_structural   Li(NdGe)4
_chemical_formula_sum   'Li4 Nd16 Ge16'
_cell_volume   904.26427258
_cell_formula_units_Z   4
loop_
 _symmetry_equiv_pos_site_id
 _symmetry_equiv_pos_as_xyz
  1  'x, y, z'
loop_
 _atom_site_type_symbol
 _atom_site_label
 _atom_site_symmetry_multiplicity
 _atom_site_fract_x
 _atom_site_fract_y
 _atom_site_fract_z
 _atom_site_occupancy
  Li  Li0  1  0.34070175  0.02942544  0.75000000  1
  Li  Li1  1  0.84070175  0.47057456  0.75000000  1
  Li  Li2  1  0.65929825  0.97057456  0.25000000  1
  Li  Li3  1  0.15929825  0.52942544  0.25000000  1
  Nd  Nd4  1  0.47798972  0.68874500  0.39945118  1
  Nd  Nd5  1  0.97798972  0.81125500  0.10054882  1
  Nd  Nd6  1  0.52201028  0.31125500  0.89945118  1
  Nd  Nd7  1  0.02201028  0.18874500  0.60054882  1
  Nd  Nd8  1  0.52201028  0.31125500  0.60054882  1
  Nd  Nd9  1  0.02201028  0.18874500  0.89945118  1
  Nd  Nd10  1  0.47798972  0.68874500  0.10054882  1
  Nd  Nd11  1  0.97798972  0.81125500  0.39945118  1
  Nd  Nd12  1  0.17396936  0.67848675  0.87171397  1
  Nd  Nd13  1  0.67396936  0.82151325  0.62828603  1
  Nd  Nd14  1  0.82603064  0.32151325  0.37171397  1
  Nd  Nd15  1  0.32603064  0.17848675  0.12828603  1
  Nd  Nd16  1  0.82603064  0.32151325  0.12828603  1
  Nd  Nd17  1  0.32603064  0.17848675  0.37171397  1
  Nd  Nd18  1  0.17396936  0.67848675  0.62828603  1
  Nd  Nd19  1  0.67396936  0.82151325  0.87171397  1
  Ge  Ge20  1  0.34072722  0.96724662  0.96388674  1
  Ge  Ge21  1  0.84072722  0.53275338  0.53611326  1
  Ge  Ge22  1  0.65927278  0.03275338  0.46388674  1
  Ge  Ge23  1  0.15927278  0.46724662  0.03611326  1
  Ge  Ge24  1  0.65927278  0.03275338  0.03611326  1
  Ge  Ge25  1  0.15927278  0.46724662  0.46388674  1
  Ge  Ge26  1  0.34072722  0.96724662  0.53611326  1
  Ge  Ge27  1  0.84072722  0.53275338  0.96388674  1
  Ge  Ge28  1  0.48401019  0.58052008  0.75000000  1
  Ge  Ge29  1  0.98401019  0.91947992  0.75000000  1
  Ge  Ge30  1  0.51598981  0.41947992  0.25000000  1
  Ge  Ge31  1  0.01598981  0.08052008  0.25000000  1
  Ge  Ge32  1  0.22497049  0.36738086  0.75000000  1
  Ge  Ge33  1  0.72497049  0.13261914  0.75000000  1
  Ge  Ge34  1  0.77502951  0.63261914  0.25000000  1
  Ge  Ge35  1  0.27502951  0.86738086  0.25000000  1
