# generated using pymatgen
data_Y2Nb3Ge4
_symmetry_space_group_name_H-M   'P 1'
_cell_length_a   7.02846680
_cell_length_b   7.20206880
_cell_length_c   13.62619691
_cell_angle_alpha   90.00000000
_cell_angle_beta   90.00000000
_cell_angle_gamma   90.00000000
_symmetry_Int_Tables_number   1
_chemical_formula_structural   Y2Nb3Ge4
_chemical_formula_sum   'Y8 Nb12 Ge16'
_cell_volume   689.75129427
_cell_formula_units_Z   4
loop_
 _symmetry_equiv_pos_site_id
 _symmetry_equiv_pos_as_xyz
  1  'x, y, z'
loop_
 _atom_site_type_symbol
 _atom_site_label
 _atom_site_symmetry_multiplicity
 _atom_site_fract_x
 _atom_site_fract_y
 _atom_site_fract_z
 _atom_site_occupancy
  Y  Y0  1  0.50290382  0.67369503  0.40514833  1
  Y  Y1  1  0.00290382  0.82630497  0.09485167  1
  Y  Y2  1  0.49709618  0.32630497  0.90514833  1
  Y  Y3  1  0.99709618  0.17369503  0.59485167  1
  Y  Y4  1  0.49709618  0.32630497  0.59485167  1
  Y  Y5  1  0.99709618  0.17369503  0.90514833  1
  Y  Y6  1  0.50290382  0.67369503  0.09485167  1
  Y  Y7  1  0.00290382  0.82630497  0.40514833  1
  Nb  Nb8  1  0.33561981  0.98755557  0.75000000  1
  Nb  Nb9  1  0.83561981  0.51244443  0.75000000  1
  Nb  Nb10  1  0.66438019  0.01244443  0.25000000  1
  Nb  Nb11  1  0.16438019  0.48755557  0.25000000  1
  Nb  Nb12  1  0.15988623  0.67134774  0.87348007  1
  Nb  Nb13  1  0.65988623  0.82865226  0.62651993  1
  Nb  Nb14  1  0.84011377  0.32865226  0.37348007  1
  Nb  Nb15  1  0.34011377  0.17134774  0.12651993  1
  Nb  Nb16  1  0.84011377  0.32865226  0.12651993  1
  Nb  Nb17  1  0.34011377  0.17134774  0.37348007  1
  Nb  Nb18  1  0.15988623  0.67134774  0.62651993  1
  Nb  Nb19  1  0.65988623  0.82865226  0.87348007  1
  Ge  Ge20  1  0.19530430  0.36297072  0.75000000  1
  Ge  Ge21  1  0.69530430  0.13702928  0.75000000  1
  Ge  Ge22  1  0.80469570  0.63702928  0.25000000  1
  Ge  Ge23  1  0.30469570  0.86297072  0.25000000  1
  Ge  Ge24  1  0.45985052  0.62260429  0.75000000  1
  Ge  Ge25  1  0.95985052  0.87739571  0.75000000  1
  Ge  Ge26  1  0.54014948  0.37739571  0.25000000  1
  Ge  Ge27  1  0.04014948  0.12260429  0.25000000  1
  Ge  Ge28  1  0.32622691  0.96105147  0.95830288  1
  Ge  Ge29  1  0.82622691  0.53894853  0.54169712  1
  Ge  Ge30  1  0.67377309  0.03894853  0.45830288  1
  Ge  Ge31  1  0.17377309  0.46105147  0.04169712  1
  Ge  Ge32  1  0.67377309  0.03894853  0.04169712  1
  Ge  Ge33  1  0.17377309  0.46105147  0.45830288  1
  Ge  Ge34  1  0.32622691  0.96105147  0.54169712  1
  Ge  Ge35  1  0.82622691  0.53894853  0.95830288  1
