# generated using pymatgen
data_SbNCl8O
_symmetry_space_group_name_H-M   'P 1'
_cell_length_a   10.96870379
_cell_length_b   11.65332855
_cell_length_c   23.02612182
_cell_angle_alpha   90.00000000
_cell_angle_beta   103.06953351
_cell_angle_gamma   90.00000000
_symmetry_Int_Tables_number   1
_chemical_formula_structural   SbNCl8O
_chemical_formula_sum   'Sb8 N8 Cl64 O8'
_cell_volume   2867.00211333
_cell_formula_units_Z   8
loop_
 _symmetry_equiv_pos_site_id
 _symmetry_equiv_pos_as_xyz
  1  'x, y, z'
loop_
 _atom_site_type_symbol
 _atom_site_label
 _atom_site_symmetry_multiplicity
 _atom_site_fract_x
 _atom_site_fract_y
 _atom_site_fract_z
 _atom_site_occupancy
  Sb  Sb0  1  0.92489969  0.87430054  0.62908655  1
  Sb  Sb1  1  0.07510031  0.37430054  0.87091345  1
  Sb  Sb2  1  0.07510031  0.12569946  0.37091345  1
  Sb  Sb3  1  0.92489969  0.62569946  0.12908655  1
  Sb  Sb4  1  0.41261345  0.39095123  0.64183621  1
  Sb  Sb5  1  0.58738655  0.89095123  0.85816379  1
  Sb  Sb6  1  0.58738655  0.60904877  0.35816379  1
  Sb  Sb7  1  0.41261345  0.10904877  0.14183621  1
  N  N8  1  0.91574888  0.40706509  0.62148853  1
  N  N9  1  0.08425112  0.90706509  0.87851147  1
  N  N10  1  0.08425112  0.59293491  0.37851147  1
  N  N11  1  0.91574888  0.09293491  0.12148853  1
  N  N12  1  0.43059611  0.85060073  0.60443212  1
  N  N13  1  0.56940389  0.35060073  0.89556788  1
  N  N14  1  0.56940389  0.14939927  0.39556788  1
  N  N15  1  0.43059611  0.64939927  0.10443212  1
  Cl  Cl16  1  0.86608183  0.99875013  0.69977328  1
  Cl  Cl17  1  0.13391817  0.49875013  0.80022672  1
  Cl  Cl18  1  0.13391817  0.00124987  0.30022672  1
  Cl  Cl19  1  0.86608183  0.50124987  0.19977328  1
  Cl  Cl20  1  0.08580908  0.79851863  0.70749427  1
  Cl  Cl21  1  0.91419092  0.29851863  0.79250573  1
  Cl  Cl22  1  0.91419092  0.20148137  0.29250573  1
  Cl  Cl23  1  0.08580908  0.70148137  0.20749427  1
  Cl  Cl24  1  0.77245789  0.73427212  0.62779571  1
  Cl  Cl25  1  0.22754211  0.23427212  0.87220429  1
  Cl  Cl26  1  0.22754211  0.26572788  0.37220429  1
  Cl  Cl27  1  0.77245789  0.76572788  0.12779571  1
  Cl  Cl28  1  0.03483219  0.78997858  0.56158557  1
  Cl  Cl29  1  0.96516781  0.28997858  0.93841443  1
  Cl  Cl30  1  0.96516781  0.21002142  0.43841443  1
  Cl  Cl31  1  0.03483219  0.71002142  0.06158557  1
  Cl  Cl32  1  0.80998165  0.98719708  0.54977897  1
  Cl  Cl33  1  0.19001835  0.48719708  0.95022103  1
  Cl  Cl34  1  0.19001835  0.01280292  0.45022103  1
  Cl  Cl35  1  0.80998165  0.51280292  0.04977897  1
  Cl  Cl36  1  0.11019056  0.06479312  0.62881196  1
  Cl  Cl37  1  0.88980944  0.56479312  0.87118804  1
  Cl  Cl38  1  0.88980944  0.93520688  0.37118804  1
  Cl  Cl39  1  0.11019056  0.43520688  0.12881196  1
  Cl  Cl40  1  0.57220095  0.45750598  0.72333699  1
  Cl  Cl41  1  0.42779905  0.95750598  0.77666301  1
  Cl  Cl42  1  0.42779905  0.54249402  0.27666301  1
  Cl  Cl43  1  0.57220095  0.04249402  0.22333699  1
  Cl  Cl44  1  0.30115468  0.28431258  0.55927434  1
  Cl  Cl45  1  0.69884532  0.78431258  0.94072566  1
  Cl  Cl46  1  0.69884532  0.71568742  0.44072566  1
  Cl  Cl47  1  0.30115468  0.21568742  0.05927434  1
  Cl  Cl48  1  0.52775841  0.48009203  0.57817015  1
  Cl  Cl49  1  0.47224159  0.98009203  0.92182985  1
  Cl  Cl50  1  0.47224159  0.51990797  0.42182985  1
  Cl  Cl51  1  0.52775841  0.01990797  0.07817015  1
  Cl  Cl52  1  0.35169643  0.25898186  0.70846162  1
  Cl  Cl53  1  0.64830357  0.75898186  0.79153838  1
  Cl  Cl54  1  0.64830357  0.74101814  0.29153838  1
  Cl  Cl55  1  0.35169643  0.24101814  0.20846162  1
  Cl  Cl56  1  0.25987812  0.53083130  0.64071603  1
  Cl  Cl57  1  0.74012188  0.03083130  0.85928397  1
  Cl  Cl58  1  0.74012188  0.46916870  0.35928397  1
  Cl  Cl59  1  0.25987812  0.96916870  0.14071603  1
  Cl  Cl60  1  0.60476404  0.20284283  0.63679283  1
  Cl  Cl61  1  0.39523596  0.70284283  0.86320717  1
  Cl  Cl62  1  0.39523596  0.79715717  0.36320717  1
  Cl  Cl63  1  0.60476404  0.29715717  0.13679283  1
  Cl  Cl64  1  0.01742163  0.21712300  0.62399902  1
  Cl  Cl65  1  0.98257837  0.71712300  0.87600098  1
  Cl  Cl66  1  0.98257837  0.78287700  0.37600098  1
  Cl  Cl67  1  0.01742163  0.28287700  0.12399902  1
  Cl  Cl68  1  0.85564343  0.47225148  0.54369114  1
  Cl  Cl69  1  0.14435657  0.97225148  0.95630886  1
  Cl  Cl70  1  0.14435657  0.52774852  0.45630886  1
  Cl  Cl71  1  0.85564343  0.02774852  0.04369114  1
  Cl  Cl72  1  0.51980534  0.04695687  0.62256837  1
  Cl  Cl73  1  0.48019466  0.54695687  0.87743163  1
  Cl  Cl74  1  0.48019466  0.95304313  0.37743163  1
  Cl  Cl75  1  0.51980534  0.45304313  0.12256837  1
  Cl  Cl76  1  0.42390535  0.79786528  0.52481493  1
  Cl  Cl77  1  0.57609465  0.29786528  0.97518507  1
  Cl  Cl78  1  0.57609465  0.20213472  0.47518507  1
  Cl  Cl79  1  0.42390535  0.70213472  0.02481493  1
  O  O80  1  0.90153548  0.46163634  0.66163021  1
  O  O81  1  0.09846452  0.96163634  0.83836979  1
  O  O82  1  0.09846452  0.53836366  0.33836979  1
  O  O83  1  0.90153548  0.03836366  0.16163021  1
  O  O84  1  0.40014559  0.78558417  0.63646980  1
  O  O85  1  0.59985441  0.28558417  0.86353020  1
  O  O86  1  0.59985441  0.21441583  0.36353020  1
  O  O87  1  0.40014559  0.71441583  0.13646980  1
