# generated using pymatgen
data_Pr4(YS2)11
_symmetry_space_group_name_H-M   'P 1'
_cell_length_a   3.97436964
_cell_length_b   11.43486740
_cell_length_c   19.79394578
_cell_angle_alpha   88.44857062
_cell_angle_beta   95.76183425
_cell_angle_gamma   90.00000000
_symmetry_Int_Tables_number   1
_chemical_formula_structural   Pr4(YS2)11
_chemical_formula_sum   'Pr4 Y11 S22'
_cell_volume   894.68717311
_cell_formula_units_Z   1
loop_
 _symmetry_equiv_pos_site_id
 _symmetry_equiv_pos_as_xyz
  1  'x, y, z'
loop_
 _atom_site_type_symbol
 _atom_site_label
 _atom_site_symmetry_multiplicity
 _atom_site_fract_x
 _atom_site_fract_y
 _atom_site_fract_z
 _atom_site_occupancy
  Pr  Pr0  1  0.10463900  0.98805662  0.20927799  1
  Pr  Pr1  1  0.89536100  0.01194338  0.79072201  1
  Pr  Pr2  1  0.36690901  0.65263646  0.73381801  1
  Pr  Pr3  1  0.63309099  0.34736354  0.26618199  1
  Y  Y4  1  0.79787027  0.94158154  0.59574054  1
  Y  Y5  1  0.20212973  0.05841846  0.40425946  1
  Y  Y6  1  0.46158032  0.72948437  0.92316065  1
  Y  Y7  1  0.53841968  0.27051563  0.07683935  1
  Y  Y8  1  0.65769550  0.69870389  0.31539099  1
  Y  Y9  1  0.34230450  0.30129611  0.68460901  1
  Y  Y10  1  0.26361347  0.64826848  0.52722693  1
  Y  Y11  1  0.73638653  0.35173152  0.47277307  1
  Y  Y12  1  0.06975865  0.63964707  0.13951731  1
  Y  Y13  1  0.93024135  0.36035293  0.86048269  1
  Y  Y14  1  -0.00000000  -0.00000000  -0.00000000  1
  S  S15  1  0.08806959  0.24665765  0.17613919  1
  S  S16  1  0.91193041  0.75334235  0.82386081  1
  S  S17  1  0.18884102  0.30884631  0.37768203  1
  S  S18  1  0.81115898  0.69115369  0.62231797  1
  S  S19  1  0.28023520  0.41120549  0.56047041  1
  S  S20  1  0.71976480  0.58879451  0.43952959  1
  S  S21  1  0.44464049  0.50660229  0.88928098  1
  S  S22  1  0.55535951  0.49339771  0.11071902  1
  S  S23  1  0.13491500  0.54544954  0.26982999  1
  S  S24  1  0.86508500  0.45455046  0.73017001  1
  S  S25  1  0.59290459  0.78875823  0.18580919  1
  S  S26  1  0.40709541  0.21124177  0.81419081  1
  S  S27  1  0.45268145  0.96972667  0.90536290  1
  S  S28  1  0.54731855  0.03027333  0.09463710  1
  S  S29  1  0.35064313  0.90767413  0.70128625  1
  S  S30  1  0.64935687  0.09232587  0.29871375  1
  S  S31  1  0.16839953  0.84965878  0.33679907  1
  S  S32  1  0.83160047  0.15034122  0.66320093  1
  S  S33  1  0.00781538  0.76090481  0.01563076  1
  S  S34  1  0.99218462  0.23909519  0.98436924  1
  S  S35  1  0.25491382  0.88091343  0.50982765  1
  S  S36  1  0.74508618  0.11908657  0.49017235  1
