# generated using pymatgen
data_Rb3PuH4O7
_symmetry_space_group_name_H-M   'P 1'
_cell_length_a   6.62222111
_cell_length_b   11.52729986
_cell_length_c   12.09652991
_cell_angle_alpha   90.00000000
_cell_angle_beta   90.85940272
_cell_angle_gamma   90.00000000
_symmetry_Int_Tables_number   1
_chemical_formula_structural   Rb3PuH4O7
_chemical_formula_sum   'Rb12 Pu4 H16 O28'
_cell_volume   923.30080699
_cell_formula_units_Z   4
loop_
 _symmetry_equiv_pos_site_id
 _symmetry_equiv_pos_as_xyz
  1  'x, y, z'
loop_
 _atom_site_type_symbol
 _atom_site_label
 _atom_site_symmetry_multiplicity
 _atom_site_fract_x
 _atom_site_fract_y
 _atom_site_fract_z
 _atom_site_occupancy
  Rb  Rb0  1  0.79394131  0.12134644  0.55376353  1
  Rb  Rb1  1  0.29394131  0.37865356  0.05376353  1
  Rb  Rb2  1  0.20605869  0.87865356  0.44623647  1
  Rb  Rb3  1  0.70605869  0.62134644  0.94623647  1
  Rb  Rb4  1  0.76848130  0.27886221  0.25631204  1
  Rb  Rb5  1  0.26848130  0.22113779  0.75631204  1
  Rb  Rb6  1  0.23151870  0.72113779  0.74368796  1
  Rb  Rb7  1  0.73151870  0.77886221  0.24368796  1
  Rb  Rb8  1  0.82874963  0.96321704  0.86277599  1
  Rb  Rb9  1  0.32874963  0.53678296  0.36277599  1
  Rb  Rb10  1  0.17125037  0.03678296  0.13722401  1
  Rb  Rb11  1  0.67125037  0.46321704  0.63722401  1
  Pu  Pu12  1  0.78122600  0.29311690  0.90880948  1
  Pu  Pu13  1  0.28122600  0.20688310  0.40880948  1
  Pu  Pu14  1  0.21877400  0.70688310  0.09119052  1
  Pu  Pu15  1  0.71877400  0.79311690  0.59119052  1
  H  H16  1  0.06345941  0.47781516  0.86848914  1
  H  H17  1  0.56345941  0.02218484  0.36848914  1
  H  H18  1  0.93654059  0.52218484  0.13151086  1
  H  H19  1  0.43654059  0.97781516  0.63151086  1
  H  H20  1  0.46994910  0.11811230  0.94916392  1
  H  H21  1  0.96994910  0.38188770  0.44916392  1
  H  H22  1  0.53005090  0.88188770  0.05083608  1
  H  H23  1  0.03005090  0.61811230  0.55083608  1
  H  H24  1  0.12514717  0.45950652  0.70748054  1
  H  H25  1  0.62514717  0.04049348  0.20748054  1
  H  H26  1  0.87485283  0.54049348  0.29251946  1
  H  H27  1  0.37485283  0.95950652  0.79251946  1
  H  H28  1  0.15176755  0.42363177  0.58134619  1
  H  H29  1  0.65176755  0.07636823  0.08134619  1
  H  H30  1  0.84823245  0.57636823  0.41865381  1
  H  H31  1  0.34823245  0.92363177  0.91865381  1
  O  O32  1  0.75937259  0.20290286  0.77639206  1
  O  O33  1  0.25937259  0.29709714  0.27639206  1
  O  O34  1  0.24062741  0.79709714  0.22360794  1
  O  O35  1  0.74062741  0.70290286  0.72360794  1
  O  O36  1  0.55777459  0.38471008  0.86026209  1
  O  O37  1  0.05777459  0.11528992  0.36026209  1
  O  O38  1  0.44222541  0.61528992  0.13973791  1
  O  O39  1  0.94222541  0.88471008  0.63973791  1
  O  O40  1  0.80425473  0.38670662  0.03959531  1
  O  O41  1  0.30425473  0.11329338  0.53959531  1
  O  O42  1  0.19574527  0.61329338  0.96040469  1
  O  O43  1  0.69574527  0.88670662  0.46040469  1
  O  O44  1  0.00305878  0.20119003  0.95718687  1
  O  O45  1  0.50305878  0.29880997  0.45718687  1
  O  O46  1  0.99694122  0.79880997  0.04281313  1
  O  O47  1  0.49694122  0.70119003  0.54281313  1
  O  O48  1  0.00326988  0.42023480  0.81787804  1
  O  O49  1  0.50326988  0.07976520  0.31787804  1
  O  O50  1  0.99673012  0.57976520  0.18212196  1
  O  O51  1  0.49673012  0.92023480  0.68212196  1
  O  O52  1  0.55118058  0.16874397  0.99805811  1
  O  O53  1  0.05118058  0.33125603  0.49805811  1
  O  O54  1  0.44881942  0.83125603  0.00194189  1
  O  O55  1  0.94881942  0.66874397  0.50194189  1
  O  O56  1  0.19823854  0.48421216  0.63801095  1
  O  O57  1  0.69823854  0.01578784  0.13801095  1
  O  O58  1  0.80176146  0.51578784  0.36198905  1
  O  O59  1  0.30176146  0.98421216  0.86198905  1
