# generated using pymatgen
data_Cs8Zr(MoO4)6
_symmetry_space_group_name_H-M   'P 1'
_cell_length_a   8.57528825
_cell_length_b   10.72343110
_cell_length_c   11.32008533
_cell_angle_alpha   61.72875538
_cell_angle_beta   80.78844190
_cell_angle_gamma   70.24648575
_symmetry_Int_Tables_number   1
_chemical_formula_structural   Cs8Zr(MoO4)6
_chemical_formula_sum   'Cs8 Zr1 Mo6 O24'
_cell_volume   862.83739712
_cell_formula_units_Z   1
loop_
 _symmetry_equiv_pos_site_id
 _symmetry_equiv_pos_as_xyz
  1  'x, y, z'
loop_
 _atom_site_type_symbol
 _atom_site_label
 _atom_site_symmetry_multiplicity
 _atom_site_fract_x
 _atom_site_fract_y
 _atom_site_fract_z
 _atom_site_occupancy
  Cs  Cs0  1  0.64205277  0.78647198  0.00000000  1
  Cs  Cs1  1  0.35794723  0.21352802  1.00000000  1
  Cs  Cs2  1  0.50000000  0.33456247  0.33087505  1
  Cs  Cs3  1  0.50000000  0.66543753  0.66912495  1
  Cs  Cs4  1  0.11007585  0.13265281  0.34618328  1
  Cs  Cs5  1  0.11007585  0.47883609  0.65381672  1
  Cs  Cs6  1  0.88992415  0.86734719  0.65381672  1
  Cs  Cs7  1  0.88992415  0.52116391  0.34618328  1
  Zr  Zr8  1  0.00000000  -0.00000000  -0.00000000  1
  Mo  Mo9  1  0.27900280  0.05066487  0.69348461  1
  Mo  Mo10  1  0.27900280  0.74414948  0.30651539  1
  Mo  Mo11  1  0.72099720  0.94933513  0.30651539  1
  Mo  Mo12  1  0.72099720  0.25585052  0.69348461  1
  Mo  Mo13  1  0.20225444  0.62331757  0.00000000  1
  Mo  Mo14  1  0.79774556  0.37668243  1.00000000  1
  O  O15  1  0.18233352  0.05716752  0.85144563  1
  O  O16  1  0.18233352  0.90861314  0.14855437  1
  O  O17  1  0.81766648  0.94283248  0.14855437  1
  O  O18  1  0.81766648  0.09138686  0.85144563  1
  O  O19  1  0.22351885  0.23173096  0.55544105  1
  O  O20  1  0.22351885  0.78717202  0.44455895  1
  O  O21  1  0.77648115  0.76826904  0.44455895  1
  O  O22  1  0.77648115  0.21282798  0.55544105  1
  O  O23  1  0.20504378  0.93747688  0.65638570  1
  O  O24  1  0.20504378  0.59386258  0.34361430  1
  O  O25  1  0.79495622  0.06252312  0.34361430  1
  O  O26  1  0.79495622  0.40613742  0.65638570  1
  O  O27  1  0.49821874  0.97500381  0.71348646  1
  O  O28  1  0.49821874  0.68849028  0.28651354  1
  O  O29  1  0.50178126  0.02499619  0.28651354  1
  O  O30  1  0.50178126  0.31150972  0.71348646  1
  O  O31  1  0.18630950  0.60200180  0.85558797  1
  O  O32  1  0.18630950  0.45758977  0.14441203  1
  O  O33  1  0.81369050  0.39799820  0.14441203  1
  O  O34  1  0.81369050  0.54241023  0.85558797  1
  O  O35  1  0.03781805  0.79229138  0.00000000  1
  O  O36  1  0.96218195  0.20770862  1.00000000  1
  O  O37  1  0.39621838  0.64763476  0.00000000  1
  O  O38  1  0.60378162  0.35236524  1.00000000  1
