# generated using pymatgen
data_Li2CoSiO4
_symmetry_space_group_name_H-M   'P 1'
_cell_length_a   5.02514224
_cell_length_b   6.31712983
_cell_length_c   10.79334665
_cell_angle_alpha   90.00000000
_cell_angle_beta   90.00000000
_cell_angle_gamma   90.00000000
_symmetry_Int_Tables_number   1
_chemical_formula_structural   Li2CoSiO4
_chemical_formula_sum   'Li8 Co4 Si4 O16'
_cell_volume   342.62913309
_cell_formula_units_Z   4
loop_
 _symmetry_equiv_pos_site_id
 _symmetry_equiv_pos_as_xyz
  1  'x, y, z'
loop_
 _atom_site_type_symbol
 _atom_site_label
 _atom_site_symmetry_multiplicity
 _atom_site_fract_x
 _atom_site_fract_y
 _atom_site_fract_z
 _atom_site_occupancy
  Li  Li0  1  0.25744810  0.50192029  0.66207605  1
  Li  Li1  1  0.75744810  0.49807971  0.33792395  1
  Li  Li2  1  0.75744810  0.00192029  0.83792395  1
  Li  Li3  1  0.25744810  0.99807971  0.16207605  1
  Li  Li4  1  0.25652407  0.75756587  0.92204401  1
  Li  Li5  1  0.75652407  0.24243413  0.07795599  1
  Li  Li6  1  0.75652407  0.25756587  0.57795599  1
  Li  Li7  1  0.25652407  0.74243413  0.42204401  1
  Co  Co8  1  0.26066913  0.00840622  0.66415741  1
  Co  Co9  1  0.76066913  0.99159378  0.33584259  1
  Co  Co10  1  0.76066913  0.50840622  0.83584259  1
  Co  Co11  1  0.26066913  0.49159378  0.16415741  1
  Si  Si12  1  0.26365882  0.25256893  0.91278943  1
  Si  Si13  1  0.76365882  0.74743107  0.08721057  1
  Si  Si14  1  0.76365882  0.75256893  0.58721057  1
  Si  Si15  1  0.26365882  0.24743107  0.41278943  1
  O  O16  1  0.59284107  0.25484828  0.90969205  1
  O  O17  1  0.09284107  0.74515172  0.09030795  1
  O  O18  1  0.09284107  0.75484828  0.59030795  1
  O  O19  1  0.59284107  0.24515172  0.40969205  1
  O  O20  1  0.15784641  0.24668017  0.05815627  1
  O  O21  1  0.65784641  0.75331983  0.94184373  1
  O  O22  1  0.65784641  0.74668017  0.44184373  1
  O  O23  1  0.15784641  0.25331983  0.55815627  1
  O  O24  1  0.15702281  0.46914998  0.84155503  1
  O  O25  1  0.65702281  0.53085002  0.15844497  1
  O  O26  1  0.65702281  0.96914998  0.65844497  1
  O  O27  1  0.15702281  0.03085002  0.34155503  1
  O  O28  1  0.15678959  0.03642767  0.84146404  1
  O  O29  1  0.65678959  0.96357233  0.15853596  1
  O  O30  1  0.65678959  0.53642767  0.65853596  1
  O  O31  1  0.15678959  0.46357233  0.34146404  1
