# generated using pymatgen
data_Rb3Tm(SO4)3
_symmetry_space_group_name_H-M   'P 1'
_cell_length_a   9.41269630
_cell_length_b   9.41269630
_cell_length_c   9.43326371
_cell_angle_alpha   109.23963742
_cell_angle_beta   109.23963742
_cell_angle_gamma   109.51420019
_symmetry_Int_Tables_number   1
_chemical_formula_structural   Rb3Tm(SO4)3
_chemical_formula_sum   'Rb6 Tm2 S6 O24'
_cell_volume   646.69204162
_cell_formula_units_Z   2
loop_
 _symmetry_equiv_pos_site_id
 _symmetry_equiv_pos_as_xyz
  1  'x, y, z'
loop_
 _atom_site_type_symbol
 _atom_site_label
 _atom_site_symmetry_multiplicity
 _atom_site_fract_x
 _atom_site_fract_y
 _atom_site_fract_z
 _atom_site_occupancy
  Rb  Rb0  1  0.35048761  0.31414127  0.37899157  1
  Rb  Rb1  1  0.31414127  0.35048761  0.87899157  1
  Rb  Rb2  1  0.79457550  0.66251189  0.97744205  1
  Rb  Rb3  1  0.66251189  0.79457550  0.47744205  1
  Rb  Rb4  1  0.44463784  0.95226550  0.14544643  1
  Rb  Rb5  1  0.95226550  0.44463784  0.64544643  1
  Tm  Tm6  1  0.16288430  0.84207843  0.49595365  1
  Tm  Tm7  1  0.84207843  0.16288430  0.99595365  1
  S  S8  1  0.45336636  0.74369908  0.76296058  1
  S  S9  1  0.74369908  0.45336636  0.26296058  1
  S  S10  1  0.52241452  0.13745098  0.64415062  1
  S  S11  1  0.13745098  0.52241452  0.14415062  1
  S  S12  1  0.95795393  0.07252378  0.35623502  1
  S  S13  1  0.07252378  0.95795393  0.85623502  1
  O  O14  1  0.92618501  0.59304679  0.40082493  1
  O  O15  1  0.59304679  0.92618501  0.90082493  1
  O  O16  1  0.52775191  0.65370040  0.67760025  1
  O  O17  1  0.65370040  0.52775191  0.17760025  1
  O  O18  1  0.31516053  0.75075744  0.63214186  1
  O  O19  1  0.75075744  0.31516053  0.13214186  1
  O  O20  1  0.65709672  0.37581496  0.34500608  1
  O  O21  1  0.37581496  0.65709672  0.84500608  1
  O  O22  1  0.59261468  0.31129502  0.66292953  1
  O  O23  1  0.31129502  0.59261468  0.16292953  1
  O  O24  1  0.66741222  0.10832075  0.72666597  1
  O  O25  1  0.10832075  0.66741222  0.22666597  1
  O  O26  1  0.40432917  0.11135913  0.72007919  1
  O  O27  1  0.11135913  0.40432917  0.22007919  1
  O  O28  1  0.40739768  0.99633375  0.45753385  1
  O  O29  1  0.99633375  0.40739768  0.95753385  1
  O  O30  1  0.79345473  0.02623588  0.35917693  1
  O  O31  1  0.02623588  0.79345473  0.85917693  1
  O  O32  1  0.00654465  0.93346201  0.35373243  1
  O  O33  1  0.93346201  0.00654465  0.85373243  1
  O  O34  1  0.10092444  0.24086463  0.50686041  1
  O  O35  1  0.24086463  0.10092444  0.00686041  1
  O  O36  1  0.07422363  0.93552287  0.69106866  1
  O  O37  1  0.93552287  0.07422363  0.19106866  1
