# generated using pymatgen
data_HgAsS2
_symmetry_space_group_name_H-M   'P 1'
_cell_length_a   9.53726783
_cell_length_b   9.48101477
_cell_length_c   56.52802722
_cell_angle_alpha   109.06886656
_cell_angle_beta   109.30508238
_cell_angle_gamma   110.41211702
_symmetry_Int_Tables_number   1
_chemical_formula_structural   HgAsS2
_chemical_formula_sum   'Hg36 As36 S72'
_cell_volume   3916.13324977
_cell_formula_units_Z   36
loop_
 _symmetry_equiv_pos_site_id
 _symmetry_equiv_pos_as_xyz
  1  'x, y, z'
loop_
 _atom_site_type_symbol
 _atom_site_label
 _atom_site_symmetry_multiplicity
 _atom_site_fract_x
 _atom_site_fract_y
 _atom_site_fract_z
 _atom_site_occupancy
  Hg  Hg0  1  0.23945501  0.74305929  0.91594311  1
  Hg  Hg1  1  0.25115080  0.49520455  0.95797413  1
  Hg  Hg2  1  0.49504591  0.74915465  0.87590514  1
  Hg  Hg3  1  0.49443056  0.25211882  0.95826249  1
  Hg  Hg4  1  0.24012062  0.49448806  0.79073393  1
  Hg  Hg5  1  0.23982105  0.74380393  0.74927201  1
  Hg  Hg6  1  0.74140503  0.24216827  0.91685494  1
  Hg  Hg7  1  0.49573010  0.75018843  0.70930789  1
  Hg  Hg8  1  0.23998166  0.74389566  0.58262887  1
  Hg  Hg9  1  0.49500526  0.25522671  0.79177229  1
  Hg  Hg10  1  0.23996331  0.49438629  0.62404012  1
  Hg  Hg11  1  0.74498101  0.50469686  0.87498061  1
  Hg  Hg12  1  0.74448673  0.50456390  0.70822862  1
  Hg  Hg13  1  0.49569728  0.75015567  0.54263156  1
  Hg  Hg14  1  0.74416545  0.24809635  0.75071468  1
  Hg  Hg15  1  0.23994494  0.49436292  0.45736622  1
  Hg  Hg16  1  0.23997132  0.74388346  0.41595969  1
  Hg  Hg17  1  0.49502975  0.25517542  0.62510008  1
  Hg  Hg18  1  0.74411902  0.24805902  0.58403896  1
  Hg  Hg19  1  0.23972954  0.49375446  0.29078420  1
  Hg  Hg20  1  0.49569270  0.75011613  0.37594907  1
  Hg  Hg21  1  0.49502891  0.25514414  0.45843268  1
  Hg  Hg22  1  0.74448216  0.50458248  0.54155982  1
  Hg  Hg23  1  0.24033834  0.74107386  0.24981272  1
  Hg  Hg24  1  0.25089514  0.49466978  0.12470870  1
  Hg  Hg25  1  0.24003449  0.74030725  0.08315243  1
  Hg  Hg26  1  0.49495769  0.25480681  0.29168704  1
  Hg  Hg27  1  0.50326841  0.74726472  0.20867526  1
  Hg  Hg28  1  0.74411040  0.24812093  0.41740056  1
  Hg  Hg29  1  0.74441484  0.50459026  0.37488712  1
  Hg  Hg30  1  0.50262729  0.74633461  0.04194855  1
  Hg  Hg31  1  0.74478966  0.50251141  0.20838803  1
  Hg  Hg32  1  0.74369055  0.24730132  0.25070733  1
  Hg  Hg33  1  0.49444430  0.25159238  0.12482756  1
  Hg  Hg34  1  0.74109696  0.24144786  0.08351145  1
  Hg  Hg35  1  0.74533973  0.50265946  0.04182489  1
  As  As36  1  0.88647264  0.00177422  0.83319018  1
  As  As37  1  -0.00200726  -0.00099248  0.91575008  1
  As  As38  1  -0.00414867  0.49290841  0.83333420  1
  As  As39  1  0.47895065  -0.00160572  0.83326119  1
  As  As40  1  0.50466883  0.50620740  0.91759938  1
  As  As41  1  -0.00425348  0.49296659  0.66666314  1
  As  As42  1  -0.00270905  0.00015484  0.74890549  1
  As  As43  1  0.88689866  0.00248622  0.66665086  1
  As  As44  1  0.88691666  0.00249190  0.49999318  1
  As  As45  1  0.50397019  0.50676349  0.75111222  1
  As  As46  1  -0.00267230  0.00019257  0.58224296  1
  As  As47  1  -0.00422848  0.49298508  0.50000415  1
  As  As48  1  0.11065455  -0.00002418  0.83336734  1
  As  As49  1  0.47911420  -0.00127788  0.66667390  1
  As  As50  1  0.47912092  -0.00127613  0.50000649  1
  As  As51  1  -0.00419946  0.49283770  0.33333055  1
  As  As52  1  0.50394167  0.50673687  0.58443632  1
  As  As53  1  -0.00269601  0.00016070  0.41556794  1
  As  As54  1  0.88734974  0.00253482  0.33345454  1
  As  As55  1  0.03162566  0.90151053  0.16668441  1
  As  As56  1  0.50395716  0.50674563  0.41777982  1
  As  As57  1  -0.00097470  0.00057302  0.24906492  1
  As  As58  1  -0.00212048  0.48370691  0.16666880  1
  As  As59  1  0.11051352  -0.00021269  0.66665926  1
  As  As60  1  0.11047743  -0.00026500  0.49998284  1
  As  As61  1  0.03160512  0.90111411  0.00002130  1
  As  As62  1  0.47945527  -0.00114601  0.33342453  1
  As  As63  1  0.50353085  0.50447132  0.25092405  1
  As  As64  1  -0.00028428  -0.00058768  0.08256528  1
  As  As65  1  -0.00202105  0.48368218  0.00001491  1
  As  As66  1  0.48346576  -0.00278869  0.16673393  1
  As  As67  1  0.50423127  0.50394883  0.08407381  1
  As  As68  1  0.11059357  -0.00024362  0.33329704  1
  As  As69  1  0.48300585  -0.00325528  -0.00009134  1
  As  As70  1  0.90572699  0.04899516  0.16677510  1
  As  As71  1  0.90450309  0.04816604  -0.00009035  1
  S  S72  1  0.00078183  0.53338790  0.96265368  1
  S  S73  1  0.21966571  0.21975691  0.96168248  1
  S  S74  1  0.21935178  0.76800120  0.87043445  1
  S  S75  1  -0.00457335  0.77826515  0.75778984  1
  S  S76  1  -0.00301042  0.54581856  0.79629966  1
  S  S77  1  0.23079559  0.45029052  0.90847830  1
  S  S78  1  -0.00453914  0.77829798  0.59112262  1
  S  S79  1  0.44876391  0.23052592  0.90882340  1
  S  S80  1  0.21807929  0.22227977  0.79480407  1
  S  S81  1  0.44917271  0.45207920  0.87162398  1
  S  S82  1  -0.00313749  0.54578122  0.62961353  1
  S  S83  1  0.21912033  0.76808239  0.70370890  1
  S  S84  1  0.77883670  -0.00361776  0.92513926  1
  S  S85  1  0.22905935  0.45014995  0.74171539  1
  S  S86  1  0.53146246  0.99865188  0.96261138  1
  S  S87  1  0.53002262  0.77674723  0.83338556  1
  S  S88  1  -0.00370168  0.77701983  0.92451945  1
  S  S89  1  0.44876024  0.23157748  0.74221533  1
  S  S90  1  0.21808760  0.22232855  0.62813988  1
  S  S91  1  0.44929767  0.45349465  0.70519635  1
  S  S92  1  0.21915527  0.76809940  0.53705340  1
  S  S93  1  -0.00453106  0.77827074  0.42445677  1
  S  S94  1  -0.00308344  0.54583295  0.46296031  1
  S  S95  1  0.22896871  0.45011537  0.57502550  1
  S  S96  1  0.77939580  0.54998903  0.83336812  1
  S  S97  1  0.77880486  -0.00004085  0.75831555  1
  S  S98  1  0.75286717  0.22419734  0.87053806  1
  S  S99  1  0.52992781  0.77687732  0.66667431  1
  S  S100  1  0.52941598  0.00111861  0.79599508  1
  S  S101  1  0.44873672  0.23160112  0.57554850  1
  S  S102  1  0.21806634  0.22230725  0.46146875  1
  S  S103  1  0.44929121  0.45348150  0.53852395  1
  S  S104  1  -0.00326883  0.54529415  0.29622661  1
  S  S105  1  0.21915230  0.76801692  0.37036764  1
  S  S106  1  -0.00421878  0.77752494  0.25783464  1
  S  S107  1  0.77877994  -0.00007913  0.59164188  1
  S  S108  1  0.22899070  0.45012601  0.40835598  1
  S  S109  1  0.77921835  0.55013902  0.66666106  1
  S  S110  1  0.75324112  0.22501776  0.70396320  1
  S  S111  1  0.52947500  0.00131057  0.62938297  1
  S  S112  1  0.52991478  0.77686415  0.50000192  1
  S  S113  1  0.44931605  0.45344616  0.37186547  1
  S  S114  1  0.21928885  0.22223143  0.29504294  1
  S  S115  1  0.44872076  0.23157709  0.40888296  1
  S  S116  1  -0.00328454  0.77629020  0.09123206  1
  S  S117  1  0.22494703  0.75750233  0.20400214  1
  S  S118  1  0.00066975  0.53305850  0.12925684  1
  S  S119  1  0.22800281  0.44561391  0.24154579  1
  S  S120  1  0.77874670  -0.00015903  0.42495996  1
  S  S121  1  0.77921098  0.55012548  0.49999118  1
  S  S122  1  0.75324001  0.22502443  0.53729284  1
  S  S123  1  0.52947017  0.00128934  0.46271198  1
  S  S124  1  0.52977044  0.77645578  0.33330205  1
  S  S125  1  0.52959038  0.00099885  0.29614062  1
  S  S126  1  0.44957938  0.44965796  0.20498781  1
  S  S127  1  0.22091898  0.21974074  0.12855391  1
  S  S128  1  0.44923558  0.22995279  0.24216315  1
  S  S129  1  0.22511377  0.75737426  0.03741521  1
  S  S130  1  0.22970180  0.44574024  0.07497440  1
  S  S131  1  0.77916151  0.54975575  0.33328681  1
  S  S132  1  0.75356695  0.22518273  0.37068750  1
  S  S133  1  0.54175810  0.78040548  0.16663549  1
  S  S134  1  0.44930201  0.22892907  0.07542649  1
  S  S135  1  0.44941205  0.44820904  0.03807808  1
  S  S136  1  0.78297532  0.54379278  0.16662193  1
  S  S137  1  0.77982995  -0.00067568  0.25818444  1
  S  S138  1  0.75564457  0.22294946  0.20404931  1
  S  S139  1  0.53166259  0.99859050  0.12942105  1
  S  S140  1  0.54193281  0.78062177  0.00002407  1
  S  S141  1  0.77982170  -0.00413618  0.09166761  1
  S  S142  1  0.78318448  0.54402338  0.00003279  1
  S  S143  1  0.75503243  0.22204346  0.03723626  1
