# generated using pymatgen
data_Cs3Hf2P5S18
_symmetry_space_group_name_H-M   'P 1'
_cell_length_a   7.01946352
_cell_length_b   7.01946352
_cell_length_c   34.59567334
_cell_angle_alpha   93.22448801
_cell_angle_beta   93.22448801
_cell_angle_gamma   92.97882406
_symmetry_Int_Tables_number   1
_chemical_formula_structural   Cs3Hf2P5S18
_chemical_formula_sum   'Cs6 Hf4 P10 S36'
_cell_volume   1696.63410456
_cell_formula_units_Z   2
loop_
 _symmetry_equiv_pos_site_id
 _symmetry_equiv_pos_as_xyz
  1  'x, y, z'
loop_
 _atom_site_type_symbol
 _atom_site_label
 _atom_site_symmetry_multiplicity
 _atom_site_fract_x
 _atom_site_fract_y
 _atom_site_fract_z
 _atom_site_occupancy
  Cs  Cs0  1  0.15282657  0.43905738  0.25430108  1
  Cs  Cs1  1  0.43905738  0.15282657  0.75430108  1
  Cs  Cs2  1  0.27814016  0.49724817  0.06844291  1
  Cs  Cs3  1  0.49724817  0.27814016  0.56844291  1
  Cs  Cs4  1  0.97626878  0.78052610  0.86442377  1
  Cs  Cs5  1  0.78052610  0.97626878  0.36442377  1
  Hf  Hf6  1  0.84624429  0.02330292  0.15382677  1
  Hf  Hf7  1  0.02330292  0.84624429  0.65382677  1
  Hf  Hf8  1  0.62385034  0.03911637  0.96425076  1
  Hf  Hf9  1  0.03911637  0.62385034  0.46425076  1
  P  P10  1  0.65490356  0.14801144  0.23663325  1
  P  P11  1  0.14801144  0.65490356  0.73663325  1
  P  P12  1  0.30070069  0.93775907  0.17311134  1
  P  P13  1  0.93775907  0.30070069  0.67311134  1
  P  P14  1  0.75980120  0.05814544  0.05864407  1
  P  P15  1  0.05814544  0.75980120  0.55864407  1
  P  P16  1  0.51893733  0.57698313  0.94534286  1
  P  P17  1  0.57698313  0.51893733  0.44534286  1
  P  P18  1  0.69108190  0.24670536  0.88141497  1
  P  P19  1  0.24670536  0.69108190  0.38141497  1
  S  S20  1  0.65750680  0.29206412  0.28739875  1
  S  S21  1  0.29206412  0.65750680  0.78739875  1
  S  S22  1  0.85674226  0.95357162  0.22707357  1
  S  S23  1  0.95357162  0.85674226  0.72707357  1
  S  S24  1  0.67229228  0.30123409  0.18823934  1
  S  S25  1  0.30123409  0.67229228  0.68823934  1
  S  S26  1  0.38029573  0.98536465  0.23348418  1
  S  S27  1  0.98536465  0.38029573  0.73348418  1
  S  S28  1  0.08176109  0.73475915  0.16895557  1
  S  S29  1  0.73475915  0.08176109  0.66895557  1
  S  S30  1  0.18868146  0.18367082  0.15454640  1
  S  S31  1  0.18367082  0.18868146  0.65454640  1
  S  S32  1  0.51714371  0.83595595  0.14216077  1
  S  S33  1  0.83595595  0.51714371  0.64216077  1
  S  S34  1  0.76440924  0.27115890  0.10214592  1
  S  S35  1  0.27115890  0.76440924  0.60214592  1
  S  S36  1  0.87421024  0.83789257  0.08768305  1
  S  S37  1  0.83789257  0.87421024  0.58768305  1
  S  S38  1  0.49246537  0.98864358  0.03282674  1
  S  S39  1  0.98864358  0.49246537  0.53282674  1
  S  S40  1  0.91382649  0.13652825  0.01298197  1
  S  S41  1  0.13652825  0.91382649  0.51298197  1
  S  S42  1  0.32147603  0.77709370  0.95009135  1
  S  S43  1  0.77709370  0.32147603  0.45009135  1
  S  S44  1  0.77648526  0.71088953  0.96399198  1
  S  S45  1  0.71088953  0.77648526  0.46399198  1
  S  S46  1  0.43640031  0.34725758  0.97567886  1
  S  S47  1  0.34725758  0.43640031  0.47567886  1
  S  S48  1  0.52847992  0.50134462  0.88473844  1
  S  S49  1  0.50134462  0.52847992  0.38473844  1
  S  S50  1  0.87592980  0.24491818  0.92919181  1
  S  S51  1  0.24491818  0.87592980  0.42919181  1
  S  S52  1  0.50691942  0.02089834  0.89108808  1
  S  S53  1  0.02089834  0.50691942  0.39108808  1
  S  S54  1  0.80547141  0.25980533  0.83050942  1
  S  S55  1  0.25980533  0.80547141  0.33050942  1
