# generated using pymatgen
data_Li6Nd(BO3)3
_symmetry_space_group_name_H-M   'P 1'
_cell_length_a   6.81718702
_cell_length_b   7.35026325
_cell_length_c   16.78291169
_cell_angle_alpha   90.00000000
_cell_angle_beta   90.00000000
_cell_angle_gamma   105.44775422
_symmetry_Int_Tables_number   1
_chemical_formula_structural   Li6Nd(BO3)3
_chemical_formula_sum   'Li24 Nd4 B12 O36'
_cell_volume   810.57939284
_cell_formula_units_Z   4
loop_
 _symmetry_equiv_pos_site_id
 _symmetry_equiv_pos_as_xyz
  1  'x, y, z'
loop_
 _atom_site_type_symbol
 _atom_site_label
 _atom_site_symmetry_multiplicity
 _atom_site_fract_x
 _atom_site_fract_y
 _atom_site_fract_z
 _atom_site_occupancy
  Li  Li0  1  0.67582882  0.07264227  0.99647088  1
  Li  Li1  1  0.82417118  0.92735773  0.49647088  1
  Li  Li2  1  0.32417118  0.92735773  0.00352912  1
  Li  Li3  1  0.17582882  0.07264227  0.50352912  1
  Li  Li4  1  0.16958811  0.54644448  0.02964885  1
  Li  Li5  1  0.33041189  0.45355552  0.52964885  1
  Li  Li6  1  0.83041189  0.45355552  0.97035115  1
  Li  Li7  1  0.66958811  0.54644448  0.47035115  1
  Li  Li8  1  0.37255130  0.71126463  0.29613855  1
  Li  Li9  1  0.12744870  0.28873537  0.79613855  1
  Li  Li10  1  0.62744870  0.28873537  0.70386145  1
  Li  Li11  1  0.87255130  0.71126463  0.20386145  1
  Li  Li12  1  0.44357112  0.30665990  0.03623531  1
  Li  Li13  1  0.05642888  0.69334010  0.53623531  1
  Li  Li14  1  0.55642888  0.69334010  0.96376469  1
  Li  Li15  1  0.94357112  0.30665990  0.46376469  1
  Li  Li16  1  0.44533863  0.44272620  0.20320150  1
  Li  Li17  1  0.05466137  0.55727380  0.70320150  1
  Li  Li18  1  0.55466137  0.55727380  0.79679850  1
  Li  Li19  1  0.94533863  0.44272620  0.29679850  1
  Li  Li20  1  0.41703132  0.85848911  0.45024144  1
  Li  Li21  1  0.08296868  0.14151089  0.95024144  1
  Li  Li22  1  0.58296868  0.14151089  0.54975856  1
  Li  Li23  1  0.91703132  0.85848911  0.04975856  1
  Nd  Nd24  1  0.65299364  0.07948521  0.18929793  1
  Nd  Nd25  1  0.84700636  0.92051479  0.68929793  1
  Nd  Nd26  1  0.34700636  0.92051479  0.81070207  1
  Nd  Nd27  1  0.15299364  0.07948521  0.31070207  1
  B  B28  1  0.81399349  0.44197309  0.11281461  1
  B  B29  1  0.68600651  0.55802691  0.61281461  1
  B  B30  1  0.18600651  0.55802691  0.88718539  1
  B  B31  1  0.31399349  0.44197309  0.38718539  1
  B  B32  1  0.99681686  0.71014901  0.38193671  1
  B  B33  1  0.50318314  0.28985099  0.88193671  1
  B  B34  1  0.00318314  0.28985099  0.61806329  1
  B  B35  1  0.49681686  0.71014901  0.11806329  1
  B  B36  1  0.66113504  0.08131133  0.36556656  1
  B  B37  1  0.83886496  0.91868867  0.86556656  1
  B  B38  1  0.33886496  0.91868867  0.63443344  1
  B  B39  1  0.16113504  0.08131133  0.13443344  1
  O  O40  1  0.92390776  0.60543977  0.07583413  1
  O  O41  1  0.57609224  0.39456023  0.57583413  1
  O  O42  1  0.07609224  0.39456023  0.92416587  1
  O  O43  1  0.42390776  0.60543977  0.42416587  1
  O  O44  1  0.78063099  0.42780359  0.19486880  1
  O  O45  1  0.71936901  0.57219641  0.69486880  1
  O  O46  1  0.21936901  0.57219641  0.80513120  1
  O  O47  1  0.28063099  0.42780359  0.30513120  1
  O  O48  1  0.23096634  0.28022907  0.43284280  1
  O  O49  1  0.26903366  0.71977093  0.93284280  1
  O  O50  1  0.76903366  0.71977093  0.56715720  1
  O  O51  1  0.73096634  0.28022907  0.06715720  1
  O  O52  1  0.90952877  0.53507734  0.41351972  1
  O  O53  1  0.59047123  0.46492266  0.91351972  1
  O  O54  1  0.09047123  0.46492266  0.58648028  1
  O  O55  1  0.40952877  0.53507734  0.08648028  1
  O  O56  1  0.54824604  0.73339008  0.19907918  1
  O  O57  1  0.95175396  0.26660992  0.69907918  1
  O  O58  1  0.45175396  0.26660992  0.80092082  1
  O  O59  1  0.04824604  0.73339008  0.30092082  1
  O  O60  1  0.04134391  0.87364263  0.42884504  1
  O  O61  1  0.45865609  0.12635737  0.92884504  1
  O  O62  1  0.95865609  0.12635737  0.57115496  1
  O  O63  1  0.54134391  0.87364263  0.07115496  1
  O  O64  1  0.67367732  0.08099380  0.44660262  1
  O  O65  1  0.82632268  0.91900620  0.94660262  1
  O  O66  1  0.32632268  0.91900620  0.55339738  1
  O  O67  1  0.17367732  0.08099380  0.05339738  1
  O  O68  1  0.83138676  0.15588624  0.31766735  1
  O  O69  1  0.66861324  0.84411376  0.81766735  1
  O  O70  1  0.16861324  0.84411376  0.68233265  1
  O  O71  1  0.33138676  0.15588624  0.18233265  1
  O  O72  1  0.97663354  0.99915891  0.17339719  1
  O  O73  1  0.52336646  0.00084109  0.67339719  1
  O  O74  1  0.02336646  0.00084109  0.82660281  1
  O  O75  1  0.47663354  0.99915891  0.32660281  1
