# generated using pymatgen
data_Na3B2PO5F4
_symmetry_space_group_name_H-M   'P 1'
_cell_length_a   6.61579920
_cell_length_b   8.95047467
_cell_length_c   12.33265503
_cell_angle_alpha   90.00000000
_cell_angle_beta   90.00000000
_cell_angle_gamma   102.21129999
_symmetry_Int_Tables_number   1
_chemical_formula_structural   Na3B2PO5F4
_chemical_formula_sum   'Na12 B8 P4 O20 F16'
_cell_volume   713.74953097
_cell_formula_units_Z   4
loop_
 _symmetry_equiv_pos_site_id
 _symmetry_equiv_pos_as_xyz
  1  'x, y, z'
loop_
 _atom_site_type_symbol
 _atom_site_label
 _atom_site_symmetry_multiplicity
 _atom_site_fract_x
 _atom_site_fract_y
 _atom_site_fract_z
 _atom_site_occupancy
  Na  Na0  1  0.88674991  0.58894735  0.26965094  1
  Na  Na1  1  0.38674991  0.08894735  0.23034906  1
  Na  Na2  1  0.11325009  0.41105265  0.73034906  1
  Na  Na3  1  0.61325009  0.91105265  0.76965094  1
  Na  Na4  1  0.83224266  0.66335714  0.57944465  1
  Na  Na5  1  0.33224266  0.16335714  0.92055535  1
  Na  Na6  1  0.16775734  0.33664286  0.42055535  1
  Na  Na7  1  0.66775734  0.83664286  0.07944465  1
  Na  Na8  1  0.71052476  0.54103145  0.85695615  1
  Na  Na9  1  0.21052476  0.04103145  0.64304385  1
  Na  Na10  1  0.28947524  0.45896855  0.14304385  1
  Na  Na11  1  0.78947524  0.95896855  0.35695615  1
  B  B12  1  0.79699838  0.12876141  0.56498761  1
  B  B13  1  0.29699838  0.62876141  0.93501239  1
  B  B14  1  0.20300162  0.87123859  0.43501239  1
  B  B15  1  0.70300162  0.37123859  0.06498761  1
  B  B16  1  0.64670316  0.30476485  0.44687665  1
  B  B17  1  0.14670316  0.80476485  0.05312335  1
  B  B18  1  0.35329684  0.69523515  0.55312335  1
  B  B19  1  0.85329684  0.19523515  0.94687665  1
  P  P20  1  0.58546749  0.31019656  0.66117891  1
  P  P21  1  0.08546749  0.81019656  0.83882109  1
  P  P22  1  0.41453251  0.68980344  0.33882109  1
  P  P23  1  0.91453251  0.18980344  0.16117891  1
  O  O24  1  0.65930703  0.14993237  0.65476683  1
  O  O25  1  0.15930703  0.64993237  0.84523317  1
  O  O26  1  0.34069297  0.85006763  0.34523317  1
  O  O27  1  0.84069297  0.35006763  0.15476683  1
  O  O28  1  0.51522531  0.33123529  0.53923179  1
  O  O29  1  0.01522531  0.83123529  0.96076821  1
  O  O30  1  0.48477469  0.66876471  0.46076821  1
  O  O31  1  0.98477469  0.16876471  0.03923179  1
  O  O32  1  0.74026071  0.17494470  0.46081378  1
  O  O33  1  0.24026071  0.67494470  0.03918622  1
  O  O34  1  0.25973929  0.82505530  0.53918622  1
  O  O35  1  0.75973929  0.32505530  0.96081378  1
  O  O36  1  0.76592935  0.43874339  0.69138653  1
  O  O37  1  0.26592935  0.93874339  0.80861347  1
  O  O38  1  0.23407065  0.56125661  0.30861347  1
  O  O39  1  0.73407065  0.06125661  0.19138653  1
  O  O40  1  0.39855279  0.28727142  0.73472213  1
  O  O41  1  0.89855279  0.78727142  0.76527787  1
  O  O42  1  0.60144721  0.71272858  0.26527787  1
  O  O43  1  0.10144721  0.21272858  0.23472213  1
  F  F44  1  0.80713971  0.44237731  0.42919282  1
  F  F45  1  0.30713971  0.94237731  0.07080718  1
  F  F46  1  0.19286029  0.55762269  0.57080718  1
  F  F47  1  0.69286029  0.05762269  0.92919282  1
  F  F48  1  0.51682543  0.28924353  0.35276556  1
  F  F49  1  0.01682543  0.78924353  0.14723444  1
  F  F50  1  0.48317457  0.71075647  0.64723444  1
  F  F51  1  0.98317457  0.21075647  0.85276556  1
  F  F52  1  0.00967223  0.21186672  0.59145683  1
  F  F53  1  0.50967223  0.71186672  0.90854317  1
  F  F54  1  0.99032777  0.78813328  0.40854317  1
  F  F55  1  0.49032777  0.28813328  0.09145683  1
  F  F56  1  0.80933571  0.97036141  0.56438789  1
  F  F57  1  0.30933571  0.47036141  0.93561211  1
  F  F58  1  0.19066429  0.02963859  0.43561211  1
  F  F59  1  0.69066429  0.52963859  0.06438789  1
