# generated using pymatgen
data_BaGd2Si3O10
_symmetry_space_group_name_H-M   'P 1'
_cell_length_a   5.48685608
_cell_length_b   6.99531878
_cell_length_c   12.36192659
_cell_angle_alpha   90.00000000
_cell_angle_beta   90.00000000
_cell_angle_gamma   106.25850908
_symmetry_Int_Tables_number   1
_chemical_formula_structural   BaGd2Si3O10
_chemical_formula_sum   'Ba2 Gd4 Si6 O20'
_cell_volume   455.50402665
_cell_formula_units_Z   2
loop_
 _symmetry_equiv_pos_site_id
 _symmetry_equiv_pos_as_xyz
  1  'x, y, z'
loop_
 _atom_site_type_symbol
 _atom_site_label
 _atom_site_symmetry_multiplicity
 _atom_site_fract_x
 _atom_site_fract_y
 _atom_site_fract_z
 _atom_site_occupancy
  Ba  Ba0  1  0.23652507  0.98128307  0.75000000  1
  Ba  Ba1  1  0.76347493  0.01871693  0.25000000  1
  Gd  Gd2  1  0.83801799  0.31170849  0.59734654  1
  Gd  Gd3  1  0.16198201  0.68829151  0.09734654  1
  Gd  Gd4  1  0.16198201  0.68829151  0.40265346  1
  Gd  Gd5  1  0.83801799  0.31170849  0.90265346  1
  Si  Si6  1  0.41428176  0.50960887  0.75000000  1
  Si  Si7  1  0.58571824  0.49039113  0.25000000  1
  Si  Si8  1  0.69575488  0.78446846  0.56469948  1
  Si  Si9  1  0.30424512  0.21553154  0.06469948  1
  Si  Si10  1  0.30424512  0.21553154  0.43530052  1
  Si  Si11  1  0.69575488  0.78446846  0.93530052  1
  O  O12  1  0.62021082  0.38114187  0.75000000  1
  O  O13  1  0.37978918  0.61885813  0.25000000  1
  O  O14  1  0.12239977  0.36599441  0.75000000  1
  O  O15  1  0.87760023  0.63400559  0.25000000  1
  O  O16  1  0.45005708  0.65778829  0.64285302  1
  O  O17  1  0.54994292  0.34221171  0.14285302  1
  O  O18  1  0.54994292  0.34221171  0.35714698  1
  O  O19  1  0.45005708  0.65778829  0.85714698  1
  O  O20  1  0.57513871  0.81063934  0.44732673  1
  O  O21  1  0.42486129  0.18936066  0.94732673  1
  O  O22  1  0.42486129  0.18936066  0.55267327  1
  O  O23  1  0.57513871  0.81063934  0.05267327  1
  O  O24  1  0.82873433  0.99234573  0.62694485  1
  O  O25  1  0.17126567  0.00765427  0.12694485  1
  O  O26  1  0.17126567  0.00765427  0.37305515  1
  O  O27  1  0.82873433  0.99234573  0.87305515  1
  O  O28  1  0.90059798  0.65100661  0.55529923  1
  O  O29  1  0.09940202  0.34899339  0.05529923  1
  O  O30  1  0.09940202  0.34899339  0.44470077  1
  O  O31  1  0.90059798  0.65100661  0.94470077  1
