# generated using pymatgen
data_Tm10Ti6O27
_symmetry_space_group_name_H-M   'P 1'
_cell_length_a   7.24676460
_cell_length_b   7.24676426
_cell_length_c   28.81556026
_cell_angle_alpha   60.30495249
_cell_angle_beta   60.30495403
_cell_angle_gamma   59.97163534
_symmetry_Int_Tables_number   1
_chemical_formula_structural   Tm10Ti6O27
_chemical_formula_sum   'Tm20 Ti12 O54'
_cell_volume   1074.71384835
_cell_formula_units_Z   2
loop_
 _symmetry_equiv_pos_site_id
 _symmetry_equiv_pos_as_xyz
  1  'x, y, z'
loop_
 _atom_site_type_symbol
 _atom_site_label
 _atom_site_symmetry_multiplicity
 _atom_site_fract_x
 _atom_site_fract_y
 _atom_site_fract_z
 _atom_site_occupancy
  Tm  Tm0  1  0.99092565  0.99092565  0.99743472  1
  Tm  Tm1  1  0.98128945  0.98128945  0.25498439  1
  Tm  Tm2  1  0.50639341  0.99386027  0.12426622  1
  Tm  Tm3  1  0.52064388  0.52064388  0.11277910  1
  Tm  Tm4  1  0.48607830  0.48607830  0.24474466  1
  Tm  Tm5  1  0.50040612  0.97324163  0.37654196  1
  Tm  Tm6  1  0.97797598  0.97797598  0.13432532  1
  Tm  Tm7  1  0.99386027  0.50639341  0.12426622  1
  Tm  Tm8  1  0.47463306  0.47463306  0.39273587  1
  Tm  Tm9  1  0.50678450  0.50678450  0.50482402  1
  Tm  Tm10  1  0.97027143  0.97027143  0.38949903  1
  Tm  Tm11  1  0.48392490  0.99131055  0.63019936  1
  Tm  Tm12  1  0.97324163  0.50040612  0.37654196  1
  Tm  Tm13  1  0.48266078  0.48266078  0.63477489  1
  Tm  Tm14  1  0.49077578  0.00740756  0.86703457  1
  Tm  Tm15  1  0.51806789  0.51806789  0.74998411  1
  Tm  Tm16  1  0.49336496  0.49336496  0.88013272  1
  Tm  Tm17  1  0.99131055  0.48392490  0.63019936  1
  Tm  Tm18  1  0.53134413  0.53134413  0.99071731  1
  Tm  Tm19  1  0.00740756  0.49077578  0.86703457  1
  Ti  Ti20  1  0.00926741  0.48154166  -0.00019372  1
  Ti  Ti21  1  0.48154166  0.00926741  -0.00019372  1
  Ti  Ti22  1  0.98954994  0.48995666  0.25487726  1
  Ti  Ti23  1  0.48995666  0.98954994  0.25487726  1
  Ti  Ti24  1  0.00207975  0.00207975  0.49959855  1
  Ti  Ti25  1  0.99894805  0.48675720  0.50227558  1
  Ti  Ti26  1  0.48675720  0.99894805  0.50227558  1
  Ti  Ti27  1  0.99197695  0.99197695  0.75131049  1
  Ti  Ti28  1  0.99830939  0.49610934  0.74927919  1
  Ti  Ti29  1  0.49610934  0.99830939  0.74927919  1
  Ti  Ti30  1  0.99509826  0.99509826  0.62435010  1
  Ti  Ti31  1  0.00311764  0.00311764  0.87624098  1
  O  O32  1  0.12382695  0.12382695  0.16135719  1
  O  O33  1  0.16206725  0.60717783  0.02952861  1
  O  O34  1  0.15736367  0.59166523  0.15521155  1
  O  O35  1  0.60717783  0.16206725  0.02952861  1
  O  O36  1  0.12377112  0.12377112  0.41004629  1
  O  O37  1  0.34159975  0.91959705  0.07735522  1
  O  O38  1  0.28435114  0.28435114  0.24544011  1
  O  O39  1  0.12795227  0.60058631  0.28556963  1
  O  O40  1  0.67157466  0.67157466  0.01754751  1
  O  O41  1  0.59166523  0.15736367  0.15521155  1
  O  O42  1  0.60058631  0.12795227  0.28556963  1
  O  O43  1  0.91959705  0.34159975  0.07735522  1
  O  O44  1  0.61317971  0.61317971  0.15478209  1
  O  O45  1  0.39150922  0.84480685  0.23839215  1
  O  O46  1  0.11177439  0.58248735  0.41581316  1
  O  O47  1  0.07472882  0.07472882  0.66868703  1
  O  O48  1  0.36973789  0.85026044  0.33577368  1
  O  O49  1  0.32562477  0.32562477  0.49055551  1
  O  O50  1  0.06594188  0.70789858  0.50093113  1
  O  O51  1  0.82794270  0.82794270  0.23206596  1
  O  O52  1  0.84480685  0.39150922  0.23839215  1
  O  O53  1  0.88334717  0.88334717  0.09010848  1
  O  O54  1  0.58248735  0.11177439  0.41581316  1
  O  O55  1  0.08658785  0.67263979  0.66554516  1
  O  O56  1  0.85026044  0.36973789  0.33577368  1
  O  O57  1  0.60923309  0.60923309  0.41486220  1
  O  O58  1  0.36734666  0.36734666  0.59748615  1
  O  O59  1  0.31079172  0.87921618  0.49539199  1
  O  O60  1  0.70789858  0.06594188  0.50093113  1
  O  O61  1  0.12400540  0.12400540  0.89889400  1
  O  O62  1  0.34317207  0.91316004  0.58507518  1
  O  O63  1  0.32606267  0.32606267  0.72883635  1
  O  O64  1  0.08517749  0.67138361  0.76879300  1
  O  O65  1  0.69336611  0.69336611  0.50491266  1
  O  O66  1  0.87921618  0.31079172  0.49539199  1
  O  O67  1  0.87870660  0.87870660  0.34619558  1
  O  O68  1  0.67263979  0.08658785  0.66554516  1
  O  O69  1  0.91316004  0.34317207  0.58507518  1
  O  O70  1  0.38724675  0.38724675  0.84148290  1
  O  O71  1  0.61960021  0.61960021  0.65863720  1
  O  O72  1  0.33490628  0.92119886  0.72694269  1
  O  O73  1  0.09173763  0.72071407  0.92736595  1
  O  O74  1  0.67138361  0.08517749  0.76879300  1
  O  O75  1  0.35347619  0.89887904  0.82914775  1
  O  O76  1  0.32518953  0.32518953  0.96947740  1
  O  O77  1  0.68499220  0.68499220  0.75904494  1
  O  O78  1  0.92119886  0.33490628  0.72694269  1
  O  O79  1  0.90183540  0.90183540  0.58541871  1
  O  O80  1  0.72071407  0.09173763  0.92736595  1
  O  O81  1  0.89887904  0.35347619  0.82914775  1
  O  O82  1  0.63551606  0.63551606  0.90035605  1
  O  O83  1  0.36760475  0.93566453  0.96645244  1
  O  O84  1  0.93566453  0.36760475  0.96645244  1
  O  O85  1  0.92574375  0.92574375  0.83273297  1
