# generated using pymatgen
data_Hf(TlS)4
_symmetry_space_group_name_H-M   'P 1'
_cell_length_a   9.25197290
_cell_length_b   9.25560209
_cell_length_c   15.70928758
_cell_angle_alpha   103.91859374
_cell_angle_beta   104.51882734
_cell_angle_gamma   89.92543381
_symmetry_Int_Tables_number   1
_chemical_formula_structural   Hf(TlS)4
_chemical_formula_sum   'Hf5 Tl20 S20'
_cell_volume   1261.53644190
_cell_formula_units_Z   5
loop_
 _symmetry_equiv_pos_site_id
 _symmetry_equiv_pos_as_xyz
  1  'x, y, z'
loop_
 _atom_site_type_symbol
 _atom_site_label
 _atom_site_symmetry_multiplicity
 _atom_site_fract_x
 _atom_site_fract_y
 _atom_site_fract_z
 _atom_site_occupancy
  Hf  Hf0  1  0.98439291  0.32020299  0.40054882  1
  Hf  Hf1  1  0.01560709  0.67979701  0.59945118  1
  Hf  Hf2  1  0.82947530  0.68841878  0.80120822  1
  Hf  Hf3  1  0.17052470  0.31158122  0.19879178  1
  Hf  Hf4  1  -0.00000000  0.50000000  -0.00000000  1
  Tl  Tl5  1  0.95546949  0.92417651  0.20067329  1
  Tl  Tl6  1  0.04453051  0.07582349  0.79932671  1
  Tl  Tl7  1  0.78679953  0.28211821  0.59888670  1
  Tl  Tl8  1  0.21320047  0.71788179  0.40111330  1
  Tl  Tl9  1  0.78496460  0.91535287  0.40453508  1
  Tl  Tl10  1  0.21503540  0.08464713  0.59546492  1
  Tl  Tl11  1  0.77832347  0.54560078  0.20370205  1
  Tl  Tl12  1  0.22167653  0.45439922  0.79629795  1
  Tl  Tl13  1  0.62798803  0.89954341  0.61218457  1
  Tl  Tl14  1  0.37201197  0.10045659  0.38781543  1
  Tl  Tl15  1  0.61668269  0.30102336  0.80922206  1
  Tl  Tl16  1  0.38331731  0.69897664  0.19077794  1
  Tl  Tl17  1  0.58826654  0.53143132  0.40111721  1
  Tl  Tl18  1  0.41173346  0.46856868  0.59888279  1
  Tl  Tl19  1  0.42069139  0.89209333  0.79768273  1
  Tl  Tl20  1  0.57930861  0.10790667  0.20231727  1
  Tl  Tl21  1  0.39026381  0.28541337  0.00295312  1
  Tl  Tl22  1  0.60973619  0.71458663  0.99704688  1
  Tl  Tl23  1  0.22053440  0.89589996  0.99243625  1
  Tl  Tl24  1  0.77946560  0.10410004  0.00756375  1
  S  S25  1  0.93809913  0.94101006  0.59651248  1
  S  S26  1  0.06190087  0.05898994  0.40348752  1
  S  S27  1  0.93105098  0.60192281  0.42409769  1
  S  S28  1  0.06894902  0.39807719  0.57590231  1
  S  S29  1  0.92611055  0.76065224  0.97774386  1
  S  S30  1  0.07388945  0.23934776  0.02225614  1
  S  S31  1  0.91514123  0.42289925  0.82400192  1
  S  S32  1  0.08485877  0.57710075  0.17599808  1
  S  S33  1  0.76345155  0.95344877  0.80712818  1
  S  S34  1  0.23654845  0.04655123  0.19287182  1
  S  S35  1  0.75579006  0.61272052  0.62527719  1
  S  S36  1  0.24420994  0.38727948  0.37472281  1
  S  S37  1  0.56607177  0.61639396  0.80106493  1
  S  S38  1  0.43392823  0.38360604  0.19893507  1
  S  S39  1  0.28015180  0.75177121  0.60323569  1
  S  S40  1  0.71984820  0.24822879  0.39676431  1
  S  S41  1  0.26625430  0.57036374  0.99648023  1
  S  S42  1  0.73374570  0.42963626  0.00351977  1
  S  S43  1  0.09111595  0.73526177  0.77473061  1
  S  S44  1  0.90888405  0.26473823  0.22526939  1
