# generated using pymatgen
data_Sr5Mg19Ge12
_symmetry_space_group_name_H-M   'P 1'
_cell_length_a   4.43165876
_cell_length_b   14.69741358
_cell_length_c   14.69702598
_cell_angle_alpha   120.00087397
_cell_angle_beta   90.00000000
_cell_angle_gamma   90.00000000
_symmetry_Int_Tables_number   1
_chemical_formula_structural   Sr5Mg19Ge12
_chemical_formula_sum   'Sr5 Mg19 Ge12'
_cell_volume   829.01711410
_cell_formula_units_Z   1
loop_
 _symmetry_equiv_pos_site_id
 _symmetry_equiv_pos_as_xyz
  1  'x, y, z'
loop_
 _atom_site_type_symbol
 _atom_site_label
 _atom_site_symmetry_multiplicity
 _atom_site_fract_x
 _atom_site_fract_y
 _atom_site_fract_z
 _atom_site_occupancy
  Sr  Sr0  1  0.50000000  0.99999507  0.18227311  1
  Sr  Sr1  1  0.50000000  0.18226228  1.00000000  1
  Sr  Sr2  1  0.50000000  0.81772196  0.81772689  1
  Sr  Sr3  1  0.00000000  0.33330956  0.66668473  1
  Sr  Sr4  1  -0.00000000  0.66662483  0.33331527  1
  Mg  Mg5  1  -0.00000000  0.99999333  0.55884297  1
  Mg  Mg6  1  0.00000000  0.55891306  0.00000000  1
  Mg  Mg7  1  -0.00000000  0.44115036  0.44115703  1
  Mg  Mg8  1  0.50000000  0.99999459  0.71963183  1
  Mg  Mg9  1  0.50000000  0.71962301  0.00000000  1
  Mg  Mg10  1  0.50000000  0.28036276  0.28036817  1
  Mg  Mg11  1  0.00000000  0.19718435  0.37385115  1
  Mg  Mg12  1  -0.00000000  0.17668788  0.80285657  1
  Mg  Mg13  1  -0.00000000  0.62615685  0.82330135  1
  Mg  Mg14  1  -0.00000000  0.82333320  0.62614885  1
  Mg  Mg15  1  -0.00000000  0.37383131  0.19714343  1
  Mg  Mg16  1  -0.00000000  0.80285550  0.17669865  1
  Mg  Mg17  1  0.50000000  0.12408747  0.48242634  1
  Mg  Mg18  1  0.50000000  0.35833391  0.87590659  1
  Mg  Mg19  1  0.50000000  0.51755791  0.64166254  1
  Mg  Mg20  1  0.50000000  0.64166112  0.51757366  1
  Mg  Mg21  1  0.50000000  0.48242732  0.12409341  1
  Mg  Mg22  1  0.50000000  0.87589537  0.35833746  1
  Mg  Mg23  1  -0.00000000  -0.00000082  -0.00000000  1
  Ge  Ge24  1  0.00000000  0.99999597  0.82549058  1
  Ge  Ge25  1  -0.00000000  0.82548247  1.00000000  1
  Ge  Ge26  1  -0.00000000  0.17450538  0.17450942  1
  Ge  Ge27  1  0.50000000  0.31356964  0.48131956  1
  Ge  Ge28  1  0.50000000  0.16772930  0.68642646  1
  Ge  Ge29  1  0.50000000  0.51868244  0.83226044  1
  Ge  Ge30  1  0.50000000  0.83225008  0.51868044  1
  Ge  Ge31  1  0.50000000  0.48130284  0.31357354  1
  Ge  Ge32  1  0.50000000  0.68642200  0.16773956  1
  Ge  Ge33  1  0.00000000  0.99999837  0.36512019  1
  Ge  Ge34  1  -0.00000000  0.36512116  1.00000000  1
  Ge  Ge35  1  0.00000000  0.63487817  0.63487981  1
