# generated using pymatgen
data_ErGe2Os
_symmetry_space_group_name_H-M   'P 1'
_cell_length_a   8.36353198
_cell_length_b   9.66479948
_cell_length_c   10.59851250
_cell_angle_alpha   90.00000000
_cell_angle_beta   90.00000000
_cell_angle_gamma   90.00000000
_symmetry_Int_Tables_number   1
_chemical_formula_structural   ErGe2Os
_chemical_formula_sum   'Er12 Ge24 Os12'
_cell_volume   856.69747364
_cell_formula_units_Z   12
loop_
 _symmetry_equiv_pos_site_id
 _symmetry_equiv_pos_as_xyz
  1  'x, y, z'
loop_
 _atom_site_type_symbol
 _atom_site_label
 _atom_site_symmetry_multiplicity
 _atom_site_fract_x
 _atom_site_fract_y
 _atom_site_fract_z
 _atom_site_occupancy
  Er  Er0  1  0.24506658  0.82323549  0.44928354  1
  Er  Er1  1  0.24506658  0.17676451  0.55071646  1
  Er  Er2  1  0.75493342  0.32323549  0.05071646  1
  Er  Er3  1  0.75493342  0.67676451  0.94928354  1
  Er  Er4  1  0.75493342  0.17676451  0.55071646  1
  Er  Er5  1  0.75493342  0.82323549  0.44928354  1
  Er  Er6  1  0.24506658  0.67676451  0.94928354  1
  Er  Er7  1  0.24506658  0.32323549  0.05071646  1
  Er  Er8  1  -0.00000000  0.83577180  0.17682986  1
  Er  Er9  1  -0.00000000  0.16422820  0.82317014  1
  Er  Er10  1  -0.00000000  0.33577180  0.32317014  1
  Er  Er11  1  -0.00000000  0.66422820  0.67682986  1
  Ge  Ge12  1  0.34846187  0.84190349  0.17942765  1
  Ge  Ge13  1  0.34846187  0.15809651  0.82057235  1
  Ge  Ge14  1  0.65153813  0.34190349  0.32057235  1
  Ge  Ge15  1  0.65153813  0.65809651  0.67942765  1
  Ge  Ge16  1  0.65153813  0.15809651  0.82057235  1
  Ge  Ge17  1  0.65153813  0.84190349  0.17942765  1
  Ge  Ge18  1  0.34846187  0.65809651  0.67942765  1
  Ge  Ge19  1  0.34846187  0.34190349  0.32057235  1
  Ge  Ge20  1  0.50000000  0.54541675  0.11824852  1
  Ge  Ge21  1  0.50000000  0.45458325  0.88175148  1
  Ge  Ge22  1  0.50000000  0.04541675  0.38175148  1
  Ge  Ge23  1  0.50000000  0.95458325  0.61824852  1
  Ge  Ge24  1  -0.00000000  0.53683918  0.11898764  1
  Ge  Ge25  1  -0.00000000  0.46316082  0.88101236  1
  Ge  Ge26  1  -0.00000000  0.03683918  0.38101236  1
  Ge  Ge27  1  -0.00000000  0.96316082  0.61898764  1
  Ge  Ge28  1  0.50000000  0.62739910  0.40319276  1
  Ge  Ge29  1  0.50000000  0.37260090  0.59680724  1
  Ge  Ge30  1  0.50000000  0.12739910  0.09680724  1
  Ge  Ge31  1  0.50000000  0.87260090  0.90319276  1
  Ge  Ge32  1  -0.00000000  0.62961793  0.39892149  1
  Ge  Ge33  1  -0.00000000  0.37038207  0.60107851  1
  Ge  Ge34  1  -0.00000000  0.12961793  0.10107851  1
  Ge  Ge35  1  -0.00000000  0.87038207  0.89892149  1
  Os  Os36  1  0.25080393  0.58869640  0.23816191  1
  Os  Os37  1  0.25080393  0.41130360  0.76183809  1
  Os  Os38  1  0.74919607  0.08869640  0.26183809  1
  Os  Os39  1  0.74919607  0.91130360  0.73816191  1
  Os  Os40  1  0.74919607  0.41130360  0.76183809  1
  Os  Os41  1  0.74919607  0.58869640  0.23816191  1
  Os  Os42  1  0.25080393  0.91130360  0.73816191  1
  Os  Os43  1  0.25080393  0.08869640  0.26183809  1
  Os  Os44  1  0.24930531  0.50000000  0.50000000  1
  Os  Os45  1  0.75069469  0.00000000  -0.00000000  1
  Os  Os46  1  0.75069469  0.50000000  0.50000000  1
  Os  Os47  1  0.24930531  0.00000000  -0.00000000  1
