# generated using pymatgen
data_Tm(FeGe)6
_symmetry_space_group_name_H-M   'P 1'
_cell_length_a   5.13192916
_cell_length_b   8.10773439
_cell_length_c   14.11395400
_cell_angle_alpha   106.69183547
_cell_angle_beta   100.47481940
_cell_angle_gamma   90.00000000
_symmetry_Int_Tables_number   1
_chemical_formula_structural   Tm(FeGe)6
_chemical_formula_sum   'Tm3 Fe18 Ge18'
_cell_volume   552.28783657
_cell_formula_units_Z   3
loop_
 _symmetry_equiv_pos_site_id
 _symmetry_equiv_pos_as_xyz
  1  'x, y, z'
loop_
 _atom_site_type_symbol
 _atom_site_label
 _atom_site_symmetry_multiplicity
 _atom_site_fract_x
 _atom_site_fract_y
 _atom_site_fract_z
 _atom_site_occupancy
  Tm  Tm0  1  0.66776112  0.16776112  0.33552223  1
  Tm  Tm1  1  0.33223888  0.83223888  0.66447777  1
  Tm  Tm2  1  0.00000000  0.00000000  0.00000000  1
  Fe  Fe3  1  0.50000000  0.24983023  0.00000000  1
  Fe  Fe4  1  0.50000000  0.75016977  1.00000000  1
  Fe  Fe5  1  0.00000000  0.50000000  0.50000000  1
  Fe  Fe6  1  0.00000000  0.00000000  0.50000000  1
  Fe  Fe7  1  0.50000000  0.00000000  0.50000000  1
  Fe  Fe8  1  0.50000000  0.50000000  0.50000000  1
  Fe  Fe9  1  0.83346699  0.58354990  0.66693398  1
  Fe  Fe10  1  0.16653301  0.91661592  0.33306602  1
  Fe  Fe11  1  0.83346699  0.08338408  0.66693398  1
  Fe  Fe12  1  0.16653301  0.41645010  0.33306602  1
  Fe  Fe13  1  0.83348091  0.33313378  0.16669965  1
  Fe  Fe14  1  0.16651909  0.16643414  0.83330035  1
  Fe  Fe15  1  0.33321874  0.83356586  0.16669965  1
  Fe  Fe16  1  0.66678126  0.66686622  0.83330035  1
  Fe  Fe17  1  0.16651909  0.66686622  0.83330035  1
  Fe  Fe18  1  0.83348091  0.83356586  0.16669965  1
  Fe  Fe19  1  0.66678126  0.16643414  0.83330035  1
  Fe  Fe20  1  0.33321874  0.33313378  0.16669965  1
  Ge  Ge21  1  0.55544179  0.05544179  0.11088357  1
  Ge  Ge22  1  0.44455821  0.94455821  0.88911643  1
  Ge  Ge23  1  0.55530090  0.55530090  0.11060180  1
  Ge  Ge24  1  0.44469910  0.44469910  0.88939820  1
  Ge  Ge25  1  0.11224110  0.11224110  0.22448219  1
  Ge  Ge26  1  0.88775890  0.88775890  0.77551781  1
  Ge  Ge27  1  0.11045096  0.61045096  0.22090192  1
  Ge  Ge28  1  0.88954904  0.38954904  0.77909808  1
  Ge  Ge29  1  0.22318621  0.22318621  0.44637243  1
  Ge  Ge30  1  0.77681379  0.77681379  0.55362757  1
  Ge  Ge31  1  0.22042704  0.72042704  0.44085408  1
  Ge  Ge32  1  0.77957296  0.27957296  0.55914592  1
  Ge  Ge33  1  -0.00000000  0.34568671  -0.00000000  1
  Ge  Ge34  1  0.00000000  0.65431329  0.00000000  1
  Ge  Ge35  1  0.66636948  0.51283007  0.33273896  1
  Ge  Ge36  1  0.33363052  0.18009112  0.66726104  1
  Ge  Ge37  1  0.66636948  0.81990888  0.33273896  1
  Ge  Ge38  1  0.33363052  0.48716993  0.66726104  1
