# generated using pymatgen
data_Ba4MnGa2(S3F2)2
_symmetry_space_group_name_H-M   'P 1'
_cell_length_a   6.22909838
_cell_length_b   9.99511824
_cell_length_c   12.97184686
_cell_angle_alpha   90.00000000
_cell_angle_beta   90.00000000
_cell_angle_gamma   108.15610479
_symmetry_Int_Tables_number   1
_chemical_formula_structural   Ba4MnGa2(S3F2)2
_chemical_formula_sum   'Ba8 Mn2 Ga4 S12 F8'
_cell_volume   767.42336722
_cell_formula_units_Z   2
loop_
 _symmetry_equiv_pos_site_id
 _symmetry_equiv_pos_as_xyz
  1  'x, y, z'
loop_
 _atom_site_type_symbol
 _atom_site_label
 _atom_site_symmetry_multiplicity
 _atom_site_fract_x
 _atom_site_fract_y
 _atom_site_fract_z
 _atom_site_occupancy
  Ba  Ba0  1  0.09273167  0.65656370  0.12542273  1
  Ba  Ba1  1  0.56383203  0.65656370  0.87457727  1
  Ba  Ba2  1  0.06383203  0.65656370  0.62542273  1
  Ba  Ba3  1  0.59273167  0.65656370  0.37457727  1
  Ba  Ba4  1  0.90726833  0.34343630  0.87457727  1
  Ba  Ba5  1  0.43616797  0.34343630  0.12542273  1
  Ba  Ba6  1  0.93616797  0.34343630  0.37457727  1
  Ba  Ba7  1  0.40726833  0.34343630  0.62542273  1
  Mn  Mn8  1  0.00000000  0.00000000  0.00000000  1
  Mn  Mn9  1  0.50000000  0.00000000  0.50000000  1
  Ga  Ga10  1  0.64373797  0.00000000  0.17404415  1
  Ga  Ga11  1  0.35626203  0.00000000  0.82595585  1
  Ga  Ga12  1  0.85626203  -0.00000000  0.67404415  1
  Ga  Ga13  1  0.14373797  0.00000000  0.32595585  1
  S  S14  1  0.26972464  0.00000000  0.15686876  1
  S  S15  1  0.73027536  0.00000000  0.84313124  1
  S  S16  1  0.23027536  -0.00000000  0.65686876  1
  S  S17  1  0.76972464  -0.00000000  0.34313124  1
  S  S18  1  0.87520424  0.20053641  0.10427794  1
  S  S19  1  0.32533217  0.20053641  0.89572206  1
  S  S20  1  0.82533217  0.20053641  0.60427794  1
  S  S21  1  0.37520424  0.20053641  0.39572206  1
  S  S22  1  0.12479576  0.79946359  0.89572206  1
  S  S23  1  0.67466783  0.79946359  0.10427794  1
  S  S24  1  0.17466783  0.79946359  0.39572206  1
  S  S25  1  0.62479576  0.79946359  0.60427794  1
  F  F26  1  0.24758753  0.49517507  -0.00000000  1
  F  F27  1  0.74758753  0.49517507  0.50000000  1
  F  F28  1  0.75241247  0.50482493  0.00000000  1
  F  F29  1  0.25241247  0.50482493  0.50000000  1
  F  F30  1  0.76562845  0.50000000  0.25000000  1
  F  F31  1  0.73437155  0.50000000  0.75000000  1
  F  F32  1  0.23437155  0.50000000  0.75000000  1
  F  F33  1  0.26562845  0.50000000  0.25000000  1
