# generated using pymatgen
data_AlH14I5O21
_symmetry_space_group_name_H-M   'P 1'
_cell_length_a   12.54543232
_cell_length_b   16.40412906
_cell_length_c   16.40413387
_cell_angle_alpha   120.00004685
_cell_angle_beta   90.00000000
_cell_angle_gamma   90.00000000
_symmetry_Int_Tables_number   1
_chemical_formula_structural   AlH14I5O21
_chemical_formula_sum   'Al6 H84 I30 O126'
_cell_volume   2923.63088330
_cell_formula_units_Z   6
loop_
 _symmetry_equiv_pos_site_id
 _symmetry_equiv_pos_as_xyz
  1  'x, y, z'
loop_
 _atom_site_type_symbol
 _atom_site_label
 _atom_site_symmetry_multiplicity
 _atom_site_fract_x
 _atom_site_fract_y
 _atom_site_fract_z
 _atom_site_occupancy
  Al  Al0  1  0.78023341  0.33333897  0.66666954  1
  Al  Al1  1  0.28023341  0.66666103  0.33333046  1
  Al  Al2  1  0.27871552  0.33333749  0.66666890  1
  Al  Al3  1  0.77871552  0.66666251  0.33333110  1
  Al  Al4  1  0.28102285  0.99999985  0.00000029  1
  Al  Al5  1  0.78102285  0.00000015  0.99999971  1
  H  H6  1  0.28243652  0.99053255  0.47050038  1
  H  H7  1  0.28243639  0.52949951  0.52003196  1
  H  H8  1  0.28243642  0.47996790  0.00946754  1
  H  H9  1  0.78243652  0.00946745  0.52949962  1
  H  H10  1  0.78243639  0.47050049  0.47996804  1
  H  H11  1  0.78243642  0.52003210  0.99053246  1
  H  H12  1  0.31230776  0.85111258  0.16988335  1
  H  H13  1  0.31230809  0.83011660  0.68122918  1
  H  H14  1  0.31230745  0.31877078  0.14888679  1
  H  H15  1  0.81230776  0.14888742  0.83011665  1
  H  H16  1  0.81230809  0.16988340  0.31877082  1
  H  H17  1  0.81230745  0.68122922  0.85111321  1
  H  H18  1  0.38042719  0.78263833  0.29459799  1
  H  H19  1  0.38042977  0.70540030  0.48804241  1
  H  H20  1  0.38043257  0.51195276  0.21735562  1
  H  H21  1  0.88042719  0.21736167  0.70540201  1
  H  H22  1  0.88042977  0.29459970  0.51195759  1
  H  H23  1  0.88043257  0.48804724  0.78264438  1
  H  H24  1  0.42452771  0.77189296  0.44704341  1
  H  H25  1  0.42452941  0.55295148  0.32484855  1
  H  H26  1  0.42452912  0.67514864  0.22810280  1
  H  H27  1  0.92452771  0.22810704  0.55295659  1
  H  H28  1  0.92452941  0.44704852  0.67515145  1
  H  H29  1  0.92452912  0.32485136  0.77189720  1
  H  H30  1  0.13703875  0.78567735  0.34709912  1
  H  H31  1  0.13703778  0.65289839  0.43857852  1
  H  H32  1  0.13703669  0.56141691  0.21431744  1
  H  H33  1  0.63703875  0.21432265  0.65290088  1
  H  H34  1  0.63703778  0.34710161  0.56142148  1
  H  H35  1  0.63703669  0.43858309  0.78568256  1
  H  H36  1  0.68321450  0.18197334  0.54713989  1
  H  H37  1  0.68320936  0.45286598  0.63483245  1
  H  H38  1  0.68321183  0.36516931  0.81803117  1
  H  H39  1  0.18321450  0.81802666  0.45286011  1
  H  H40  1  0.18320936  0.54713402  0.36516755  1
  H  H41  1  0.18321183  0.63483069  0.18196883  1
  H  H42  1  0.42422119  0.21993817  0.66301626  1
  H  H43  1  0.42422128  0.33698633  0.55692176  1
  H  H44  1  0.42422340  0.44308274  0.78006702  1
  H  H45  1  0.92422119  0.78006183  0.33698374  1
  H  H46  1  0.92422128  0.66301367  0.44307824  1
  H  H47  1  0.92422340  0.55691726  0.21993298  1
  H  H48  1  0.38437972  0.18352332  0.55695514  1
  H  H49  1  0.38438428  0.44304955  0.62656716  1
  H  H50  1  0.38438189  0.37343541  0.81648090  1
  H  H51  1  0.88437972  0.81647668  0.44304486  1
  H  H52  1  0.88438428  0.55695045  0.37343284  1
  H  H53  1  0.88438189  0.62656459  0.18351910  1
  H  H54  1  0.18675735  0.28393905  0.50739442  1
  H  H55  1  0.18675596  0.49261027  0.77654593  1
  H  H56  1  0.18675929  0.22345900  0.71606309  1
  H  H57  1  0.68675735  0.71606095  0.49260558  1
  H  H58  1  0.68675596  0.50738973  0.22345407  1
  H  H59  1  0.68675929  0.77654100  0.28393691  1
  H  H60  1  0.13268425  0.22386148  0.55306380  1
  H  H61  1  0.13268251  0.44694120  0.67079864  1
  H  H62  1  0.13268325  0.32920453  0.77614296  1
  H  H63  1  0.63268425  0.77613852  0.44693620  1
  H  H64  1  0.63268251  0.55305880  0.32920136  1
  H  H65  1  0.63268325  0.67079547  0.22385704  1
  H  H66  1  0.42534876  0.10741055  0.11264451  1
  H  H67  1  0.42534887  0.88735536  0.99476625  1
  H  H68  1  0.42534835  0.00523401  0.89258955  1
  H  H69  1  0.92534876  0.89258945  0.88735549  1
  H  H70  1  0.92534887  0.11264464  0.00523375  1
  H  H71  1  0.92534835  0.99476599  0.10741045  1
  H  H72  1  0.38399617  0.04160046  0.15394331  1
  H  H73  1  0.38399622  0.84605644  0.88765716  1
  H  H74  1  0.38399602  0.11234306  0.95839955  1
  H  H75  1  0.88399617  0.95839954  0.84605669  1
  H  H76  1  0.88399622  0.15394356  0.11234284  1
  H  H77  1  0.88399602  0.88765694  0.04160045  1
  H  H78  1  0.18921560  0.88420447  0.03984710  1
  H  H79  1  0.18921588  0.96015330  0.84435795  1
  H  H80  1  0.18921566  0.15564172  0.11579455  1
  H  H81  1  0.68921560  0.11579553  0.96015290  1
  H  H82  1  0.68921588  0.03984670  0.15564205  1
  H  H83  1  0.68921566  0.84435828  0.88420545  1
  H  H84  1  0.13476302  0.98918716  0.10615426  1
  H  H85  1  0.13476401  0.89384647  0.88303329  1
  H  H86  1  0.13476259  0.11696641  0.01081231  1
  H  H87  1  0.63476302  0.01081284  0.89384574  1
  H  H88  1  0.63476401  0.10615353  0.11696671  1
  H  H89  1  0.63476259  0.88303359  0.98918769  1
  I  I90  1  0.49632195  0.94313911  0.44465026  1
  I  I91  1  0.49632248  0.55534899  0.49848850  1
  I  I92  1  0.49632259  0.50151044  0.05685981  1
  I  I93  1  0.99632195  0.05686089  0.55534974  1
  I  I94  1  0.99632248  0.44465101  0.50151150  1
  I  I95  1  0.99632259  0.49848956  0.94314019  1
  I  I96  1  0.53131149  0.16759265  0.40255423  1
  I  I97  1  0.53131140  0.59744805  0.76503892  1
  I  I98  1  0.53131202  0.23496199  0.83240826  1
  I  I99  1  0.03131149  0.83240735  0.59744577  1
  I  I100  1  0.03131140  0.40255195  0.23496108  1
  I  I101  1  0.03131202  0.76503801  0.16759174  1
  I  I102  1  0.50257058  0.89019981  0.16389271  1
  I  I103  1  0.50257168  0.83610783  0.72630668  1
  I  I104  1  0.50257123  0.27369264  0.10980100  1
  I  I105  1  0.00257058  0.10980019  0.83610729  1
  I  I106  1  0.00257168  0.16389217  0.27369332  1
  I  I107  1  0.00257123  0.72630736  0.89019900  1
  I  I108  1  0.76062479  0.96135802  0.29558656  1
  I  I109  1  0.76062570  0.70441338  0.66577174  1
  I  I110  1  0.76062628  0.33422813  0.03864109  1
  I  I111  1  0.26062479  0.03864198  0.70441344  1
  I  I112  1  0.26062570  0.29558662  0.33422826  1
  I  I113  1  0.26062628  0.66577187  0.96135891  1
  I  I114  1  0.23980117  0.01979107  0.33818273  1
  I  I115  1  0.23980054  0.66181715  0.68160889  1
  I  I116  1  0.23980068  0.31839143  0.98020842  1
  I  I117  1  0.73980117  0.98020893  0.66181727  1
  I  I118  1  0.73980054  0.33818285  0.31839111  1
  I  I119  1  0.73980068  0.68160857  0.01979158  1
  O  O120  1  0.42610897  0.89617883  0.33079583  1
  O  O121  1  0.42610953  0.66920367  0.56538302  1
  O  O122  1  0.42610899  0.43461621  0.10382007  1
  O  O123  1  0.92610897  0.10382117  0.66920417  1
  O  O124  1  0.92610953  0.33079633  0.43461698  1
  O  O125  1  0.92610899  0.56538379  0.89617993  1
  O  O126  1  0.37839598  0.98302622  0.52136046  1
  O  O127  1  0.37839734  0.47863874  0.46166509  1
  O  O128  1  0.37839738  0.53833411  0.01697348  1
  O  O129  1  0.87839598  0.01697378  0.47863954  1
  O  O130  1  0.87839734  0.52136126  0.53833491  1
  O  O131  1  0.87839738  0.46166589  0.98302652  1
  O  O132  1  0.52281213  0.83227355  0.44240015  1
  O  O133  1  0.52281292  0.55759963  0.38987322  1
  O  O134  1  0.52281299  0.61012582  0.16772573  1
  O  O135  1  0.02281213  0.16772645  0.55759985  1
  O  O136  1  0.02281292  0.44240037  0.61012678  1
  O  O137  1  0.02281299  0.38987418  0.83227427  1
  O  O138  1  0.65097166  0.12286670  0.43172362  1
  O  O139  1  0.65097173  0.56827768  0.69114335  1
  O  O140  1  0.65097163  0.30885853  0.87713333  1
  O  O141  1  0.15097166  0.87713330  0.56827638  1
  O  O142  1  0.15097173  0.43172232  0.30885665  1
  O  O143  1  0.15097163  0.69114147  0.12286667  1
  O  O144  1  0.53148306  0.29024668  0.49848092  1
  O  O145  1  0.53148416  0.50152173  0.79176680  1
  O  O146  1  0.53148255  0.20823332  0.70975425  1
  O  O147  1  0.03148306  0.70975332  0.50151908  1
  O  O148  1  0.03148416  0.49847827  0.20823320  1
  O  O149  1  0.03148255  0.79176668  0.29024575  1
  O  O150  1  0.43319259  0.11843652  0.44992066  1
  O  O151  1  0.43319343  0.55008106  0.66851614  1
  O  O152  1  0.43319275  0.33148413  0.88156405  1
  O  O153  1  0.93319259  0.88156348  0.55007934  1
  O  O154  1  0.93319343  0.44991894  0.33148386  1
  O  O155  1  0.93319275  0.66851587  0.11843595  1
  O  O156  1  0.52697956  0.88272076  0.05065907  1
  O  O157  1  0.52697989  0.94934084  0.83206157  1
  O  O158  1  0.52697966  0.16793819  0.11727939  1
  O  O159  1  0.02697956  0.11727924  0.94934093  1
  O  O160  1  0.02697989  0.05065916  0.16793843  1
  O  O161  1  0.02697966  0.83206181  0.88272061  1
  O  O162  1  0.43572942  0.00457792  0.22407034  1
  O  O163  1  0.43573060  0.77592936  0.78050616  1
  O  O164  1  0.43573062  0.21949317  0.99542258  1
  O  O165  1  0.93572942  0.99542208  0.77592966  1
  O  O166  1  0.93573060  0.22407064  0.21949384  1
  O  O167  1  0.93573062  0.78050683  0.00457742  1
  O  O168  1  0.37040635  0.81759688  0.12032589  1
  O  O169  1  0.37040716  0.87967387  0.69727032  1
  O  O170  1  0.37040635  0.30272970  0.18240296  1
  O  O171  1  0.87040635  0.18240312  0.87967411  1
  O  O172  1  0.87040716  0.12032613  0.30272968  1
  O  O173  1  0.87040635  0.69727030  0.81759704  1
  O  O174  1  0.84103580  0.86629970  0.20708201  1
  O  O175  1  0.84103530  0.79291757  0.65921776  1
  O  O176  1  0.84103595  0.34078270  0.13369994  1
  O  O177  1  0.34103580  0.13370030  0.79291799  1
  O  O178  1  0.34103530  0.20708243  0.34078224  1
  O  O179  1  0.34103595  0.65921730  0.86630006  1
  O  O180  1  0.66860176  0.89344278  0.32596087  1
  O  O181  1  0.66860108  0.67403844  0.56748244  1
  O  O182  1  0.66860139  0.43251698  0.10655592  1
  O  O183  1  0.16860176  0.10655722  0.67403913  1
  O  O184  1  0.16860108  0.32596156  0.43251756  1
  O  O185  1  0.16860139  0.56748302  0.89344408  1
  O  O186  1  0.66748338  0.98094631  0.21728510  1
  O  O187  1  0.66748327  0.78271464  0.76366106  1
  O  O188  1  0.66748330  0.23633924  0.01905337  1
  O  O189  1  0.16748338  0.01905369  0.78271490  1
  O  O190  1  0.16748327  0.21728536  0.23633894  1
  O  O191  1  0.16748330  0.76366076  0.98094663  1
  O  O192  1  0.21167736  0.99797103  0.44030364  1
  O  O193  1  0.21167755  0.55969571  0.55766810  1
  O  O194  1  0.21167722  0.44233242  0.00202833  1
  O  O195  1  0.71167736  0.00202897  0.55969636  1
  O  O196  1  0.71167755  0.44030429  0.44233190  1
  O  O197  1  0.71167722  0.55766758  0.99797167  1
  O  O198  1  0.11541526  0.08039145  0.35190867  1
  O  O199  1  0.11541428  0.64809130  0.72848284  1
  O  O200  1  0.11541493  0.27151772  0.91960892  1
  O  O201  1  0.61541526  0.91960855  0.64809133  1
  O  O202  1  0.61541428  0.35190870  0.27151716  1
  O  O203  1  0.61541493  0.72848228  0.08039108  1
  O  O204  1  0.20986193  0.90399111  0.23830402  1
  O  O205  1  0.20986254  0.76169504  0.66568595  1
  O  O206  1  0.20986178  0.33431351  0.09600927  1
  O  O207  1  0.70986193  0.09600889  0.76169598  1
  O  O208  1  0.70986254  0.23830496  0.33431405  1
  O  O209  1  0.70986178  0.66568649  0.90399073  1
  O  O210  1  0.86443941  0.27045074  0.55567158  1
  O  O211  1  0.86444032  0.44433590  0.71478035  1
  O  O212  1  0.86443872  0.28522583  0.72955450  1
  O  O213  1  0.36443941  0.72954926  0.44432842  1
  O  O214  1  0.36444032  0.55566410  0.28521965  1
  O  O215  1  0.36443872  0.71477417  0.27044550  1
  O  O216  1  0.69686181  0.22182568  0.61649574  1
  O  O217  1  0.69686045  0.38351105  0.60532899  1
  O  O218  1  0.69686112  0.39467645  0.77818218  1
  O  O219  1  0.19686181  0.77817432  0.38350426  1
  O  O220  1  0.19686045  0.61648895  0.39467101  1
  O  O221  1  0.19686112  0.60532355  0.22181782  1
  O  O222  1  0.36281660  0.22302188  0.62483692  1
  O  O223  1  0.36281702  0.37516799  0.59818392  1
  O  O224  1  0.36281785  0.40182206  0.77698463  1
  O  O225  1  0.86281660  0.77697812  0.37516308  1
  O  O226  1  0.86281702  0.62483201  0.40181608  1
  O  O227  1  0.86281785  0.59817794  0.22301537  1
  O  O228  1  0.19408672  0.26445606  0.55615765  1
  O  O229  1  0.19408725  0.44384918  0.70829848  1
  O  O230  1  0.19408840  0.29170706  0.73555025  1
  O  O231  1  0.69408672  0.73554394  0.44384235  1
  O  O232  1  0.69408725  0.55615082  0.29170152  1
  O  O233  1  0.69408840  0.70829294  0.26444975  1
  O  O234  1  0.36481344  0.06554696  0.11025174  1
  O  O235  1  0.36481360  0.88974843  0.95529480  1
  O  O236  1  0.36481363  0.04470565  0.93445372  1
  O  O237  1  0.86481344  0.93445304  0.88974826  1
  O  O238  1  0.86481360  0.11025157  0.04470520  1
  O  O239  1  0.86481363  0.95529435  0.06554628  1
  O  O240  1  0.19591380  0.95318430  0.06414791  1
  O  O241  1  0.19591380  0.93585203  0.88903782  1
  O  O242  1  0.19591338  0.11096183  0.04681442  1
  O  O243  1  0.69591380  0.04681570  0.93585209  1
  O  O244  1  0.69591380  0.06414797  0.11096218  1
  O  O245  1  0.69591338  0.88903817  0.95318558  1
