# generated using pymatgen
data_LuWO5
_symmetry_space_group_name_H-M   'P 1'
_cell_length_a   5.23441682
_cell_length_b   6.47055240
_cell_length_c   12.46588667
_cell_angle_alpha   90.00000000
_cell_angle_beta   90.00000000
_cell_angle_gamma   109.50134598
_symmetry_Int_Tables_number   1
_chemical_formula_structural   LuWO5
_chemical_formula_sum   'Lu4 W4 O20'
_cell_volume   397.99331255
_cell_formula_units_Z   4
loop_
 _symmetry_equiv_pos_site_id
 _symmetry_equiv_pos_as_xyz
  1  'x, y, z'
loop_
 _atom_site_type_symbol
 _atom_site_label
 _atom_site_symmetry_multiplicity
 _atom_site_fract_x
 _atom_site_fract_y
 _atom_site_fract_z
 _atom_site_occupancy
  Lu  Lu0  1  0.14673961  0.78599245  0.44548542  1
  Lu  Lu1  1  0.85326039  0.21400755  0.55451458  1
  Lu  Lu2  1  0.35326039  0.71400755  0.94548542  1
  Lu  Lu3  1  0.64673961  0.28599245  0.05451458  1
  W  W4  1  0.95110796  0.84864583  0.13924224  1
  W  W5  1  0.04889204  0.15135417  0.86075776  1
  W  W6  1  0.54889204  0.65135417  0.63924224  1
  W  W7  1  0.45110796  0.34864583  0.36075776  1
  O  O8  1  0.04812862  0.55596796  0.08568719  1
  O  O9  1  0.95187138  0.44403204  0.91431281  1
  O  O10  1  0.45187138  0.94403204  0.58568719  1
  O  O11  1  0.54812862  0.05596796  0.41431281  1
  O  O12  1  0.86147913  0.84648474  0.57145023  1
  O  O13  1  0.13852087  0.15351526  0.42854977  1
  O  O14  1  0.63852087  0.65351526  0.07145023  1
  O  O15  1  0.36147913  0.34648474  0.92854977  1
  O  O16  1  0.27277469  0.97324468  0.06239498  1
  O  O17  1  0.72722531  0.02675532  0.93760502  1
  O  O18  1  0.22722531  0.52675532  0.56239498  1
  O  O19  1  0.77277469  0.47324468  0.43760502  1
  O  O20  1  0.99759708  0.79193325  0.27786506  1
  O  O21  1  0.00240292  0.20806675  0.72213494  1
  O  O22  1  0.50240292  0.70806675  0.77786506  1
  O  O23  1  0.49759708  0.29193325  0.22213494  1
  O  O24  1  0.15665826  0.91522728  0.84923147  1
  O  O25  1  0.84334174  0.08477272  0.15076853  1
  O  O26  1  0.34334174  0.58477272  0.34923147  1
  O  O27  1  0.65665826  0.41522728  0.65076853  1
