# generated using pymatgen
data_Tl2FeH12(SO7)2
_symmetry_space_group_name_H-M   'P 1'
_cell_length_a   6.37694426
_cell_length_b   9.32354206
_cell_length_c   12.78137249
_cell_angle_alpha   90.00000000
_cell_angle_beta   90.00000000
_cell_angle_gamma   105.24632224
_symmetry_Int_Tables_number   1
_chemical_formula_structural   Tl2FeH12(SO7)2
_chemical_formula_sum   'Tl4 Fe2 H24 S4 O28'
_cell_volume   733.17936760
_cell_formula_units_Z   2
loop_
 _symmetry_equiv_pos_site_id
 _symmetry_equiv_pos_as_xyz
  1  'x, y, z'
loop_
 _atom_site_type_symbol
 _atom_site_label
 _atom_site_symmetry_multiplicity
 _atom_site_fract_x
 _atom_site_fract_y
 _atom_site_fract_z
 _atom_site_occupancy
  Tl  Tl0  1  0.34574684  0.62078807  0.13900640  1
  Tl  Tl1  1  0.65425316  0.87921193  0.63900640  1
  Tl  Tl2  1  0.65425316  0.37921193  0.86099360  1
  Tl  Tl3  1  0.34574684  0.12078807  0.36099360  1
  Fe  Fe4  1  0.00000000  0.50000000  0.50000000  1
  Fe  Fe5  1  -0.00000000  -0.00000000  -0.00000000  1
  H  H6  1  0.32372842  0.71868820  0.40280057  1
  H  H7  1  0.67627158  0.78131180  0.90280057  1
  H  H8  1  0.67627158  0.28131180  0.59719943  1
  H  H9  1  0.32372842  0.21868820  0.09719943  1
  H  H10  1  0.09325178  0.74590336  0.37216570  1
  H  H11  1  0.90674822  0.75409664  0.87216570  1
  H  H12  1  0.90674822  0.25409664  0.62783430  1
  H  H13  1  0.09325178  0.24590336  0.12783430  1
  H  H14  1  0.93030943  0.22576869  0.39796729  1
  H  H15  1  0.06969057  0.27423131  0.89796729  1
  H  H16  1  0.06969057  0.77423131  0.60203271  1
  H  H17  1  0.93030943  0.72576869  0.10203271  1
  H  H18  1  0.99189322  0.35074064  0.31145069  1
  H  H19  1  0.00810678  0.14925936  0.81145069  1
  H  H20  1  0.00810678  0.64925936  0.68854931  1
  H  H21  1  0.99189322  0.85074064  0.18854931  1
  H  H22  1  0.33992888  0.40133837  0.56422030  1
  H  H23  1  0.66007112  0.09866163  0.06422030  1
  H  H24  1  0.66007112  0.59866163  0.43577970  1
  H  H25  1  0.33992888  0.90133837  0.93577970  1
  H  H26  1  0.32600618  0.52639008  0.64466977  1
  H  H27  1  0.67399382  0.97360992  0.14466977  1
  H  H28  1  0.67399382  0.47360992  0.35533023  1
  H  H29  1  0.32600618  0.02639008  0.85533023  1
  S  S30  1  0.73550799  0.90370989  0.36051204  1
  S  S31  1  0.26449201  0.59629011  0.86051204  1
  S  S32  1  0.26449201  0.09629011  0.63948796  1
  S  S33  1  0.73550799  0.40370989  0.13948796  1
  O  O34  1  0.59876808  0.91586001  0.26795398  1
  O  O35  1  0.40123192  0.58413999  0.76795398  1
  O  O36  1  0.40123192  0.08413999  0.73204602  1
  O  O37  1  0.59876808  0.41586001  0.23204602  1
  O  O38  1  0.77932709  0.04237176  0.42441158  1
  O  O39  1  0.22067291  0.45762824  0.92441158  1
  O  O40  1  0.22067291  0.95762824  0.57558842  1
  O  O41  1  0.77932709  0.54237176  0.07558842  1
  O  O42  1  0.61216948  0.77645956  0.42741513  1
  O  O43  1  0.38783052  0.72354044  0.92741513  1
  O  O44  1  0.38783052  0.22354044  0.57258487  1
  O  O45  1  0.61216948  0.27645956  0.07258487  1
  O  O46  1  0.94552893  0.87540882  0.32472475  1
  O  O47  1  0.05447107  0.62459118  0.82472475  1
  O  O48  1  0.05447107  0.12459118  0.67527525  1
  O  O49  1  0.94552893  0.37540882  0.17527525  1
  O  O50  1  0.16881830  0.66840423  0.38817473  1
  O  O51  1  0.83118170  0.83159577  0.88817473  1
  O  O52  1  0.83118170  0.33159577  0.61182527  1
  O  O53  1  0.16881830  0.16840423  0.11182527  1
  O  O54  1  0.02369200  0.32764591  0.38470508  1
  O  O55  1  0.97630800  0.17235409  0.88470508  1
  O  O56  1  0.97630800  0.67235409  0.61529492  1
  O  O57  1  0.02369200  0.82764591  0.11529492  1
  O  O58  1  0.30023732  0.49676870  0.56990456  1
  O  O59  1  0.69976268  0.00323130  0.06990456  1
  O  O60  1  0.69976268  0.50323130  0.43009544  1
  O  O61  1  0.30023732  0.99676870  0.93009544  1
