# generated using pymatgen
data_Tm5Ir3
_symmetry_space_group_name_H-M   'P 1'
_cell_length_a   6.30685826
_cell_length_b   10.74168740
_cell_length_c   10.74168740
_cell_angle_alpha   90.00000000
_cell_angle_beta   90.00000000
_cell_angle_gamma   90.00000000
_symmetry_Int_Tables_number   1
_chemical_formula_structural   Tm5Ir3
_chemical_formula_sum   'Tm20 Ir12'
_cell_volume   727.70957609
_cell_formula_units_Z   4
loop_
 _symmetry_equiv_pos_site_id
 _symmetry_equiv_pos_as_xyz
  1  'x, y, z'
loop_
 _atom_site_type_symbol
 _atom_site_label
 _atom_site_symmetry_multiplicity
 _atom_site_fract_x
 _atom_site_fract_y
 _atom_site_fract_z
 _atom_site_occupancy
  Tm  Tm0  1  0.37729427  0.83779493  0.54109452  1
  Tm  Tm1  1  0.87729427  0.66220507  0.54109452  1
  Tm  Tm2  1  0.87729427  0.83779493  0.95890548  1
  Tm  Tm3  1  0.37729427  0.66220507  0.95890548  1
  Tm  Tm4  1  0.87729427  0.54109452  0.83779493  1
  Tm  Tm5  1  0.37729427  0.95890548  0.83779493  1
  Tm  Tm6  1  0.37729427  0.54109452  0.66220507  1
  Tm  Tm7  1  0.87729427  0.95890548  0.66220507  1
  Tm  Tm8  1  0.62270573  0.16220507  0.45890548  1
  Tm  Tm9  1  0.12270573  0.33779493  0.45890548  1
  Tm  Tm10  1  0.12270573  0.16220507  0.04109452  1
  Tm  Tm11  1  0.62270573  0.33779493  0.04109452  1
  Tm  Tm12  1  0.12270573  0.45890548  0.16220507  1
  Tm  Tm13  1  0.62270573  0.04109452  0.16220507  1
  Tm  Tm14  1  0.62270573  0.45890548  0.33779493  1
  Tm  Tm15  1  0.12270573  0.04109452  0.33779493  1
  Tm  Tm16  1  0.50000000  0.75000000  0.25000000  1
  Tm  Tm17  1  0.00000000  0.75000000  0.25000000  1
  Tm  Tm18  1  0.00000000  0.25000000  0.75000000  1
  Tm  Tm19  1  0.50000000  0.25000000  0.75000000  1
  Ir  Ir20  1  0.25000000  0.90363363  0.09636637  1
  Ir  Ir21  1  0.75000000  0.59636637  0.09636637  1
  Ir  Ir22  1  0.75000000  0.90363363  0.40363363  1
  Ir  Ir23  1  0.25000000  0.59636637  0.40363363  1
  Ir  Ir24  1  0.75000000  0.09636637  0.90363363  1
  Ir  Ir25  1  0.25000000  0.40363363  0.90363363  1
  Ir  Ir26  1  0.25000000  0.09636637  0.59636637  1
  Ir  Ir27  1  0.75000000  0.40363363  0.59636637  1
  Ir  Ir28  1  0.12096557  0.75000000  0.75000000  1
  Ir  Ir29  1  0.62096557  0.75000000  0.75000000  1
  Ir  Ir30  1  0.87903443  0.25000000  0.25000000  1
  Ir  Ir31  1  0.37903443  0.25000000  0.25000000  1
