# generated using pymatgen
data_Er6Al43Mo4
_symmetry_space_group_name_H-M   'P 1'
_cell_length_a   11.04280862
_cell_length_b   11.04263036
_cell_length_c   17.61554317
_cell_angle_alpha   90.00000000
_cell_angle_beta   90.00000000
_cell_angle_gamma   120.00053719
_symmetry_Int_Tables_number   1
_chemical_formula_structural   Er6Al43Mo4
_chemical_formula_sum   'Er12 Al86 Mo8'
_cell_volume   1860.27179094
_cell_formula_units_Z   2
loop_
 _symmetry_equiv_pos_site_id
 _symmetry_equiv_pos_as_xyz
  1  'x, y, z'
loop_
 _atom_site_type_symbol
 _atom_site_label
 _atom_site_symmetry_multiplicity
 _atom_site_fract_x
 _atom_site_fract_y
 _atom_site_fract_z
 _atom_site_occupancy
  Er  Er0  1  0.53102109  1.00000000  0.59527623  1
  Er  Er1  1  0.46899498  0.46900462  0.59525551  1
  Er  Er2  1  0.99999036  0.53099538  0.59525551  1
  Er  Er3  1  0.46897891  0.00000000  0.40472377  1
  Er  Er4  1  0.53100502  0.53099538  0.40474449  1
  Er  Er5  1  0.00000964  0.46900462  0.40474449  1
  Er  Er6  1  0.46897891  0.00000000  0.09527623  1
  Er  Er7  1  0.53100502  0.53099538  0.09525551  1
  Er  Er8  1  0.00000964  0.46900462  0.09525551  1
  Er  Er9  1  0.53102109  1.00000000  0.90472377  1
  Er  Er10  1  0.46899498  0.46900462  0.90474449  1
  Er  Er11  1  0.99999036  0.53099538  0.90474449  1
  Al  Al12  1  0.15819845  0.39478770  0.66329773  1
  Al  Al13  1  0.23658203  0.84180889  0.66329825  1
  Al  Al14  1  0.60520876  0.76340827  0.66329714  1
  Al  Al15  1  0.76341074  0.60521230  0.66329773  1
  Al  Al16  1  0.39477314  0.15819111  0.66329825  1
  Al  Al17  1  0.84180048  0.23659173  0.66329714  1
  Al  Al18  1  0.84180155  0.60521230  0.33670227  1
  Al  Al19  1  0.76341797  0.15819111  0.33670175  1
  Al  Al20  1  0.39479124  0.23659173  0.33670286  1
  Al  Al21  1  0.23658926  0.39478770  0.33670227  1
  Al  Al22  1  0.60522686  0.84180889  0.33670175  1
  Al  Al23  1  0.15819952  0.76340827  0.33670286  1
  Al  Al24  1  0.84180155  0.60521230  0.16329773  1
  Al  Al25  1  0.76341797  0.15819111  0.16329825  1
  Al  Al26  1  0.39479124  0.23659173  0.16329714  1
  Al  Al27  1  0.23658926  0.39478770  0.16329773  1
  Al  Al28  1  0.60522686  0.84180889  0.16329825  1
  Al  Al29  1  0.15819952  0.76340827  0.16329714  1
  Al  Al30  1  0.15819845  0.39478770  0.83670227  1
  Al  Al31  1  0.23658203  0.84180889  0.83670175  1
  Al  Al32  1  0.60520876  0.76340827  0.83670286  1
  Al  Al33  1  0.76341074  0.60521230  0.83670227  1
  Al  Al34  1  0.39477314  0.15819111  0.83670175  1
  Al  Al35  1  0.84180048  0.23659173  0.83670286  1
  Al  Al36  1  0.15947961  1.00000000  0.11450597  1
  Al  Al37  1  0.84052058  0.84052172  0.11450472  1
  Al  Al38  1  0.99999886  0.15947828  0.11450472  1
  Al  Al39  1  0.84052039  0.00000000  0.88549403  1
  Al  Al40  1  0.15947942  0.15947828  0.88549528  1
  Al  Al41  1  0.00000114  0.84052172  0.88549528  1
  Al  Al42  1  0.84052039  0.00000000  0.61450597  1
  Al  Al43  1  0.15947942  0.15947828  0.61450472  1
  Al  Al44  1  0.00000114  0.84052172  0.61450472  1
  Al  Al45  1  0.15947961  1.00000000  0.38549403  1
  Al  Al46  1  0.84052058  0.84052172  0.38549528  1
  Al  Al47  1  0.99999886  0.15947828  0.38549528  1
  Al  Al48  1  0.25453728  1.00000000  0.53031996  1
  Al  Al49  1  0.74546302  0.74546242  0.53031837  1
  Al  Al50  1  0.00000060  0.25453758  0.53031837  1
  Al  Al51  1  0.74546272  0.00000000  0.46968004  1
  Al  Al52  1  0.25453698  0.25453758  0.46968163  1
  Al  Al53  1  0.99999940  0.74546242  0.46968163  1
  Al  Al54  1  0.74546272  0.00000000  0.03031996  1
  Al  Al55  1  0.25453698  0.25453758  0.03031837  1
  Al  Al56  1  0.99999940  0.74546242  0.03031837  1
  Al  Al57  1  0.25453728  1.00000000  0.96968004  1
  Al  Al58  1  0.74546302  0.74546242  0.96968163  1
  Al  Al59  1  0.00000060  0.25453758  0.96968163  1
  Al  Al60  1  0.14710274  0.59603002  0.75000000  1
  Al  Al61  1  0.44892389  0.85289266  0.75000000  1
  Al  Al62  1  0.40396560  0.55107608  0.75000000  1
  Al  Al63  1  0.55107272  0.40396998  0.75000000  1
  Al  Al64  1  0.59603124  0.14710734  0.75000000  1
  Al  Al65  1  0.85288952  0.44892392  0.75000000  1
  Al  Al66  1  0.85289726  0.40396998  0.25000000  1
  Al  Al67  1  0.55107611  0.14710734  0.25000000  1
  Al  Al68  1  0.59603440  0.44892392  0.25000000  1
  Al  Al69  1  0.44892728  0.59603002  0.25000000  1
  Al  Al70  1  0.40396876  0.85289266  0.25000000  1
  Al  Al71  1  0.14711048  0.55107608  0.25000000  1
  Al  Al72  1  0.24705356  0.49410711  0.50000000  1
  Al  Al73  1  0.24705004  0.75294721  0.49999735  1
  Al  Al74  1  0.50589717  0.75294721  0.50000265  1
  Al  Al75  1  0.75294644  0.50589289  0.50000000  1
  Al  Al76  1  0.49410283  0.24705279  0.49999735  1
  Al  Al77  1  0.75294996  0.24705279  0.50000265  1
  Al  Al78  1  0.75294644  0.50589289  -0.00000000  1
  Al  Al79  1  0.75294996  0.24705279  0.99999735  1
  Al  Al80  1  0.49410283  0.24705279  0.00000265  1
  Al  Al81  1  0.24705356  0.49410711  -0.00000000  1
  Al  Al82  1  0.50589717  0.75294721  0.99999735  1
  Al  Al83  1  0.24705004  0.75294721  0.00000265  1
  Al  Al84  1  0.33331554  0.66668283  0.62608457  1
  Al  Al85  1  0.66663271  0.33331717  0.62608457  1
  Al  Al86  1  0.66668446  0.33331717  0.37391543  1
  Al  Al87  1  0.33336729  0.66668283  0.37391543  1
  Al  Al88  1  0.66668446  0.33331717  0.12608457  1
  Al  Al89  1  0.33336729  0.66668283  0.12608457  1
  Al  Al90  1  0.33331554  0.66668283  0.87391543  1
  Al  Al91  1  0.66663271  0.33331717  0.87391543  1
  Al  Al92  1  0.14739827  1.00000000  0.75000000  1
  Al  Al93  1  0.85260291  0.85260364  0.75000000  1
  Al  Al94  1  -0.00000073  0.14739636  0.75000000  1
  Al  Al95  1  0.85260173  0.00000000  0.25000000  1
  Al  Al96  1  0.14739709  0.14739636  0.25000000  1
  Al  Al97  1  0.00000073  0.85260364  0.25000000  1
  Mo  Mo98  1  0.72951538  0.00000000  0.75000000  1
  Mo  Mo99  1  0.27048227  0.27048628  0.75000000  1
  Mo  Mo100  1  0.99999598  0.72951372  0.75000000  1
  Mo  Mo101  1  0.27048462  1.00000000  0.25000000  1
  Mo  Mo102  1  0.72951773  0.72951372  0.25000000  1
  Mo  Mo103  1  0.00000402  0.27048628  0.25000000  1
  Mo  Mo104  1  0.00000000  -0.00000000  0.50000000  1
  Mo  Mo105  1  0.00000000  -0.00000000  -0.00000000  1
