# generated using pymatgen
data_NbAl2(SeCl4)2
_symmetry_space_group_name_H-M   'P 1'
_cell_length_a   9.28130570
_cell_length_b   10.24375138
_cell_length_c   16.79289127
_cell_angle_alpha   90.00000000
_cell_angle_beta   93.07374213
_cell_angle_gamma   90.00000000
_symmetry_Int_Tables_number   1
_chemical_formula_structural   NbAl2(SeCl4)2
_chemical_formula_sum   'Nb4 Al8 Se8 Cl32'
_cell_volume   1594.29371854
_cell_formula_units_Z   4
loop_
 _symmetry_equiv_pos_site_id
 _symmetry_equiv_pos_as_xyz
  1  'x, y, z'
loop_
 _atom_site_type_symbol
 _atom_site_label
 _atom_site_symmetry_multiplicity
 _atom_site_fract_x
 _atom_site_fract_y
 _atom_site_fract_z
 _atom_site_occupancy
  Nb  Nb0  1  0.02638132  0.10653577  0.44186011  1
  Nb  Nb1  1  0.52638132  0.39346423  0.94186011  1
  Nb  Nb2  1  0.97361868  0.89346423  0.55813989  1
  Nb  Nb3  1  0.47361868  0.60653577  0.05813989  1
  Al  Al4  1  0.30963880  0.35035914  0.41763191  1
  Al  Al5  1  0.80963880  0.14964086  0.91763191  1
  Al  Al6  1  0.69036120  0.64964086  0.58236809  1
  Al  Al7  1  0.19036120  0.85035914  0.08236809  1
  Al  Al8  1  0.83152024  0.23024215  0.26176037  1
  Al  Al9  1  0.33152024  0.26975785  0.76176037  1
  Al  Al10  1  0.16847976  0.76975785  0.73823963  1
  Al  Al11  1  0.66847976  0.73024215  0.23823963  1
  Se  Se12  1  0.76857327  0.01052436  0.46898925  1
  Se  Se13  1  0.26857327  0.48947564  0.96898925  1
  Se  Se14  1  0.23142673  0.98947564  0.53101075  1
  Se  Se15  1  0.73142673  0.51052436  0.03101075  1
  Se  Se16  1  0.12197580  0.86438464  0.42917720  1
  Se  Se17  1  0.62197580  0.63561536  0.92917720  1
  Se  Se18  1  0.87802420  0.13561536  0.57082280  1
  Se  Se19  1  0.37802420  0.36438464  0.07082280  1
  Cl  Cl20  1  0.25458000  0.52373764  0.35558303  1
  Cl  Cl21  1  0.75458000  0.97626236  0.85558303  1
  Cl  Cl22  1  0.74542000  0.47626236  0.64441697  1
  Cl  Cl23  1  0.24542000  0.02373764  0.14441697  1
  Cl  Cl24  1  0.52501685  0.32803646  0.46113353  1
  Cl  Cl25  1  0.02501685  0.17196354  0.96113353  1
  Cl  Cl26  1  0.47498315  0.67196354  0.53886647  1
  Cl  Cl27  1  0.97498315  0.82803646  0.03886647  1
  Cl  Cl28  1  0.24038496  0.17260726  0.34960996  1
  Cl  Cl29  1  0.74038496  0.32739274  0.84960996  1
  Cl  Cl30  1  0.75961504  0.82739274  0.65039004  1
  Cl  Cl31  1  0.25961504  0.67260726  0.15039004  1
  Cl  Cl32  1  0.15249195  0.31197182  0.51232174  1
  Cl  Cl33  1  0.65249195  0.18802818  0.01232174  1
  Cl  Cl34  1  0.84750805  0.68802818  0.48767826  1
  Cl  Cl35  1  0.34750805  0.81197182  0.98767826  1
  Cl  Cl36  1  0.94002635  0.33012710  0.17271929  1
  Cl  Cl37  1  0.44002635  0.16987290  0.67271929  1
  Cl  Cl38  1  0.05997365  0.66987290  0.82728071  1
  Cl  Cl39  1  0.55997365  0.83012710  0.32728071  1
  Cl  Cl40  1  0.93697790  0.03987259  0.29504989  1
  Cl  Cl41  1  0.43697790  0.46012741  0.79504989  1
  Cl  Cl42  1  0.06302210  0.96012741  0.70495011  1
  Cl  Cl43  1  0.56302210  0.53987259  0.20495011  1
  Cl  Cl44  1  0.60931068  0.19646081  0.23740904  1
  Cl  Cl45  1  0.10931068  0.30353919  0.73740904  1
  Cl  Cl46  1  0.39068932  0.80353919  0.76259096  1
  Cl  Cl47  1  0.89068932  0.69646081  0.26259096  1
  Cl  Cl48  1  0.88314000  0.31462212  0.38179294  1
  Cl  Cl49  1  0.38314000  0.18537788  0.88179294  1
  Cl  Cl50  1  0.11686000  0.68537788  0.61820706  1
  Cl  Cl51  1  0.61686000  0.81462212  0.11820706  1
