# generated using pymatgen
data_H24Pt(N4Cl)2
_symmetry_space_group_name_H-M   'P 1'
_cell_length_a   8.23170266
_cell_length_b   9.11995226
_cell_length_c   10.64498616
_cell_angle_alpha   90.00000000
_cell_angle_beta   90.00000000
_cell_angle_gamma   101.72577485
_symmetry_Int_Tables_number   1
_chemical_formula_structural   H24Pt(N4Cl)2
_chemical_formula_sum   'H48 Pt2 N16 Cl4'
_cell_volume   782.47119246
_cell_formula_units_Z   2
loop_
 _symmetry_equiv_pos_site_id
 _symmetry_equiv_pos_as_xyz
  1  'x, y, z'
loop_
 _atom_site_type_symbol
 _atom_site_label
 _atom_site_symmetry_multiplicity
 _atom_site_fract_x
 _atom_site_fract_y
 _atom_site_fract_z
 _atom_site_occupancy
  H  H0  1  0.23835925  0.90143184  0.13626915  1
  H  H1  1  0.73835925  0.40143184  0.36373085  1
  H  H2  1  0.76164075  0.09856816  0.86373085  1
  H  H3  1  0.26164075  0.59856816  0.63626915  1
  H  H4  1  0.36783521  0.02860704  0.21943103  1
  H  H5  1  0.86783521  0.52860704  0.28056897  1
  H  H6  1  0.63216479  0.97139296  0.78056897  1
  H  H7  1  0.13216479  0.47139296  0.71943103  1
  H  H8  1  0.44289508  0.23983621  0.11028096  1
  H  H9  1  0.94289508  0.73983621  0.38971904  1
  H  H10  1  0.55710492  0.76016379  0.88971904  1
  H  H11  1  0.05710492  0.26016379  0.61028096  1
  H  H12  1  0.08584897  0.91657220  0.82062221  1
  H  H13  1  0.58584897  0.41657220  0.67937779  1
  H  H14  1  0.91415103  0.08342780  0.17937779  1
  H  H15  1  0.41415103  0.58342780  0.32062221  1
  H  H16  1  0.35711737  0.22535011  0.96701896  1
  H  H17  1  0.85711737  0.72535011  0.53298104  1
  H  H18  1  0.64288263  0.77464989  0.03298104  1
  H  H19  1  0.14288263  0.27464989  0.46701896  1
  H  H20  1  0.39731543  0.85229114  0.21075820  1
  H  H21  1  0.89731543  0.35229114  0.28924180  1
  H  H22  1  0.60268457  0.14770886  0.78924180  1
  H  H23  1  0.10268457  0.64770886  0.71075820  1
  H  H24  1  0.14318056  0.59945437  0.09676581  1
  H  H25  1  0.64318056  0.09945437  0.40323419  1
  H  H26  1  0.85681944  0.40054563  0.90323419  1
  H  H27  1  0.35681944  0.90054563  0.59676581  1
  H  H28  1  0.00340440  0.78151491  0.91454830  1
  H  H29  1  0.50340440  0.28151491  0.58545170  1
  H  H30  1  0.99659560  0.21848509  0.08545170  1
  H  H31  1  0.49659560  0.71848509  0.41454830  1
  H  H32  1  0.90995338  0.80743246  0.78342810  1
  H  H33  1  0.40995338  0.30743246  0.71657190  1
  H  H34  1  0.09004662  0.19256754  0.21657190  1
  H  H35  1  0.59004662  0.69256754  0.28342810  1
  H  H36  1  0.56194276  0.29527436  0.98435545  1
  H  H37  1  0.06194276  0.79527436  0.51564455  1
  H  H38  1  0.43805724  0.70472564  0.01564455  1
  H  H39  1  0.93805724  0.20472564  0.48435545  1
  H  H40  1  0.19328152  0.47533134  0.99970562  1
  H  H41  1  0.69328152  0.97533134  0.50029438  1
  H  H42  1  0.80671848  0.52466866  0.00029438  1
  H  H43  1  0.30671848  0.02466866  0.49970562  1
  H  H44  1  0.26339993  0.48839219  0.14383506  1
  H  H45  1  0.76339993  0.98839219  0.35616494  1
  H  H46  1  0.73660007  0.51160781  0.85616494  1
  H  H47  1  0.23660007  0.01160781  0.64383506  1
  Pt  Pt48  1  0.50000000  0.00000000  0.00000000  1
  Pt  Pt49  1  0.00000000  0.50000000  0.50000000  1
  N  N50  1  0.46117202  0.21529194  0.01744763  1
  N  N51  1  0.96117202  0.71529194  0.48255237  1
  N  N52  1  0.53882798  0.78470806  0.98255237  1
  N  N53  1  0.03882798  0.28470806  0.51744763  1
  N  N54  1  0.36111496  0.93790742  0.15973071  1
  N  N55  1  0.86111496  0.43790742  0.34026929  1
  N  N56  1  0.63888504  0.06209258  0.84026929  1
  N  N57  1  0.13888504  0.56209258  0.65973071  1
  N  N58  1  0.23926295  0.55071015  0.06905825  1
  N  N59  1  0.73926295  0.05071015  0.43094175  1
  N  N60  1  0.76073705  0.44928985  0.93094175  1
  N  N61  1  0.26073705  0.94928985  0.56905825  1
  N  N62  1  0.02438529  0.80707777  0.82128850  1
  N  N63  1  0.52438529  0.30707777  0.67871150  1
  N  N64  1  0.97561471  0.19292223  0.17871150  1
  N  N65  1  0.47561471  0.69292223  0.32128850  1
  Cl  Cl66  1  0.89817111  0.75199264  0.16940533  1
  Cl  Cl67  1  0.39817111  0.25199264  0.33059467  1
  Cl  Cl68  1  0.10182889  0.24800736  0.83059467  1
  Cl  Cl69  1  0.60182889  0.74800736  0.66940533  1
