# generated using pymatgen
data_SnH12C2(NCl)6
_symmetry_space_group_name_H-M   'P 1'
_cell_length_a   8.69061778
_cell_length_b   8.76870415
_cell_length_c   14.09305091
_cell_angle_alpha   78.81188392
_cell_angle_beta   72.04138796
_cell_angle_gamma   60.29414299
_symmetry_Int_Tables_number   1
_chemical_formula_structural   SnH12C2(NCl)6
_chemical_formula_sum   'Sn2 H24 C4 N12 Cl12'
_cell_volume   886.27375034
_cell_formula_units_Z   2
loop_
 _symmetry_equiv_pos_site_id
 _symmetry_equiv_pos_as_xyz
  1  'x, y, z'
loop_
 _atom_site_type_symbol
 _atom_site_label
 _atom_site_symmetry_multiplicity
 _atom_site_fract_x
 _atom_site_fract_y
 _atom_site_fract_z
 _atom_site_occupancy
  Sn  Sn0  1  0.15632939  0.75000000  0.75000000  1
  Sn  Sn1  1  0.84367061  0.25000000  0.25000000  1
  H  H2  1  0.01123521  0.37868732  0.87725516  1
  H  H3  1  0.76717769  0.12131268  0.62274484  1
  H  H4  1  0.98876479  0.62131268  0.12274484  1
  H  H5  1  0.23282231  0.87868732  0.37725516  1
  H  H6  1  0.00990394  0.18109783  0.87564875  1
  H  H7  1  0.56665052  0.31890217  0.62435125  1
  H  H8  1  0.99009606  0.81890217  0.12435125  1
  H  H9  1  0.43334948  0.68109783  0.37564875  1
  H  H10  1  0.74790123  0.18355763  0.85849989  1
  H  H11  1  0.28995876  0.31644237  0.64150011  1
  H  H12  1  0.25209877  0.81644237  0.14150011  1
  H  H13  1  0.71004124  0.68355763  0.35849989  1
  H  H14  1  0.55191831  0.38269416  0.85224032  1
  H  H15  1  0.28685280  0.11730584  0.64775968  1
  H  H16  1  0.44808169  0.61730584  0.14775968  1
  H  H17  1  0.71314720  0.88269416  0.35224032  1
  H  H18  1  0.55304133  0.64920822  0.85635175  1
  H  H19  1  0.55860131  0.85079178  0.64364825  1
  H  H20  1  0.44695867  0.35079178  0.14364825  1
  H  H21  1  0.44139869  0.14920822  0.35635175  1
  H  H22  1  0.75025973  0.64734791  0.86418426  1
  H  H23  1  0.76179190  0.85265209  0.63581574  1
  H  H24  1  0.24974027  0.35265209  0.13581574  1
  H  H25  1  0.23820810  0.14734791  0.36418426  1
  C  C26  1  0.77022149  0.40332863  0.86531444  1
  C  C27  1  0.53886456  0.09667137  0.63468556  1
  C  C28  1  0.22977851  0.59667137  0.13468556  1
  C  C29  1  0.46113544  0.90332863  0.36531444  1
  N  N30  1  0.94368686  0.31469910  0.87178918  1
  N  N31  1  0.63017513  0.18530090  0.62821082  1
  N  N32  1  0.05631314  0.68530090  0.12821082  1
  N  N33  1  0.36982487  0.81469910  0.37178918  1
  N  N34  1  0.68210796  0.31686217  0.86088220  1
  N  N35  1  0.35985233  0.18313783  0.63911780  1
  N  N36  1  0.31789204  0.68313783  0.13911780  1
  N  N37  1  0.64014767  0.81686217  0.36088220  1
  N  N38  1  0.68371026  0.57926212  0.86378840  1
  N  N39  1  0.62676078  0.92073788  0.63621160  1
  N  N40  1  0.31628974  0.42073788  0.13621160  1
  N  N41  1  0.37323922  0.07926212  0.36378840  1
  Cl  Cl42  1  0.24540458  0.87085507  0.85749376  1
  Cl  Cl43  1  0.47375341  0.62914493  0.64250624  1
  Cl  Cl44  1  0.75459542  0.12914493  0.14250624  1
  Cl  Cl45  1  0.52624659  0.37085507  0.35749376  1
  Cl  Cl46  1  0.24353529  0.47254068  0.85513866  1
  Cl  Cl47  1  0.07121462  0.02745932  0.64486134  1
  Cl  Cl48  1  0.75646471  0.52745932  0.14486134  1
  Cl  Cl49  1  0.92878538  0.97254068  0.35513866  1
  Cl  Cl50  1  0.84090586  0.87098505  0.85861140  1
  Cl  Cl51  1  0.07050231  0.62901495  0.64138860  1
  Cl  Cl52  1  0.15909414  0.12901495  0.14138860  1
  Cl  Cl53  1  0.92949769  0.37098505  0.35861140  1
