# generated using pymatgen
data_U11(PbO12)3
_symmetry_space_group_name_H-M   'P 1'
_cell_length_a   6.82896946
_cell_length_b   8.47455545
_cell_length_c   28.68048296
_cell_angle_alpha   90.00000000
_cell_angle_beta   90.00000000
_cell_angle_gamma   90.00000000
_symmetry_Int_Tables_number   1
_chemical_formula_structural   U11(PbO12)3
_chemical_formula_sum   'U22 Pb6 O72'
_cell_volume   1659.81068668
_cell_formula_units_Z   2
loop_
 _symmetry_equiv_pos_site_id
 _symmetry_equiv_pos_as_xyz
  1  'x, y, z'
loop_
 _atom_site_type_symbol
 _atom_site_label
 _atom_site_symmetry_multiplicity
 _atom_site_fract_x
 _atom_site_fract_y
 _atom_site_fract_z
 _atom_site_occupancy
  U  U0  1  0.32115370  0.25000000  0.25000000  1
  U  U1  1  0.67884630  0.75000000  0.75000000  1
  U  U2  1  0.24832719  0.25000000  0.11614750  1
  U  U3  1  0.24832719  0.25000000  0.38385250  1
  U  U4  1  0.75167281  0.75000000  0.88385250  1
  U  U5  1  0.75167281  0.75000000  0.61614750  1
  U  U6  1  0.77220180  0.25000000  0.03690842  1
  U  U7  1  0.77220180  0.25000000  0.46309158  1
  U  U8  1  0.22779820  0.75000000  0.96309158  1
  U  U9  1  0.22779820  0.75000000  0.53690842  1
  U  U10  1  0.77946034  0.25000000  0.17811177  1
  U  U11  1  0.77946034  0.25000000  0.32188823  1
  U  U12  1  0.22053966  0.75000000  0.82188823  1
  U  U13  1  0.22053966  0.75000000  0.67811177  1
  U  U14  1  0.22314419  0.25000000  0.82285686  1
  U  U15  1  0.22314419  0.25000000  0.67714314  1
  U  U16  1  0.77685581  0.75000000  0.17714314  1
  U  U17  1  0.77685581  0.75000000  0.32285686  1
  U  U18  1  0.22745493  0.25000000  0.96941541  1
  U  U19  1  0.22745493  0.25000000  0.53058459  1
  U  U20  1  0.77254507  0.75000000  0.03058459  1
  U  U21  1  0.77254507  0.75000000  0.46941541  1
  Pb  Pb22  1  0.76311981  0.25000000  0.75000000  1
  Pb  Pb23  1  0.23688019  0.75000000  0.25000000  1
  Pb  Pb24  1  0.69231353  0.25000000  0.89629722  1
  Pb  Pb25  1  0.69231353  0.25000000  0.60370278  1
  Pb  Pb26  1  0.30768647  0.75000000  0.10370278  1
  Pb  Pb27  1  0.30768647  0.75000000  0.39629722  1
  O  O28  1  0.32222517  0.03150554  0.25000000  1
  O  O29  1  0.32222517  0.46849446  0.25000000  1
  O  O30  1  0.67777483  0.96849446  0.75000000  1
  O  O31  1  0.67777483  0.53150554  0.75000000  1
  O  O32  1  0.24425973  0.03107441  0.11533814  1
  O  O33  1  0.24425973  0.03107441  0.38466186  1
  O  O34  1  0.24425973  0.46892559  0.11533814  1
  O  O35  1  0.24425973  0.46892559  0.38466186  1
  O  O36  1  0.75574027  0.96892559  0.88466186  1
  O  O37  1  0.75574027  0.96892559  0.61533814  1
  O  O38  1  0.75574027  0.53107441  0.88466186  1
  O  O39  1  0.75574027  0.53107441  0.61533814  1
  O  O40  1  0.22234584  0.97757847  0.96729005  1
  O  O41  1  0.22234584  0.97757847  0.53270995  1
  O  O42  1  0.22234584  0.52242153  0.96729005  1
  O  O43  1  0.22234584  0.52242153  0.53270995  1
  O  O44  1  0.77765416  0.02242153  0.03270995  1
  O  O45  1  0.77765416  0.02242153  0.46729005  1
  O  O46  1  0.77765416  0.47757847  0.03270995  1
  O  O47  1  0.77765416  0.47757847  0.46729005  1
  O  O48  1  0.22249048  0.98539505  0.82210419  1
  O  O49  1  0.22249048  0.98539505  0.67789581  1
  O  O50  1  0.22249048  0.51460495  0.82210419  1
  O  O51  1  0.22249048  0.51460495  0.67789581  1
  O  O52  1  0.77750952  0.01460495  0.17789581  1
  O  O53  1  0.77750952  0.01460495  0.32210419  1
  O  O54  1  0.77750952  0.48539505  0.17789581  1
  O  O55  1  0.77750952  0.48539505  0.32210419  1
  O  O56  1  0.08308779  0.25000000  0.19302005  1
  O  O57  1  0.08308779  0.25000000  0.30697995  1
  O  O58  1  0.91691221  0.75000000  0.80697995  1
  O  O59  1  0.91691221  0.75000000  0.69302005  1
  O  O60  1  0.14070014  0.25000000  0.03657770  1
  O  O61  1  0.14070014  0.25000000  0.46342230  1
  O  O62  1  0.85929986  0.75000000  0.96342230  1
  O  O63  1  0.85929986  0.75000000  0.53657770  1
  O  O64  1  0.28378701  0.25000000  0.89996785  1
  O  O65  1  0.28378701  0.25000000  0.60003215  1
  O  O66  1  0.71621299  0.75000000  0.10003215  1
  O  O67  1  0.71621299  0.75000000  0.39996785  1
  O  O68  1  0.15184234  0.25000000  0.75000000  1
  O  O69  1  0.84815766  0.75000000  0.25000000  1
  O  O70  1  0.69009201  0.25000000  0.25000000  1
  O  O71  1  0.30990799  0.75000000  0.75000000  1
  O  O72  1  0.90714465  0.25000000  0.10906035  1
  O  O73  1  0.90714465  0.25000000  0.39093965  1
  O  O74  1  0.09285535  0.75000000  0.89093965  1
  O  O75  1  0.09285535  0.75000000  0.60906035  1
  O  O76  1  0.93752159  0.25000000  0.96124302  1
  O  O77  1  0.93752159  0.25000000  0.53875698  1
  O  O78  1  0.06247841  0.75000000  0.03875698  1
  O  O79  1  0.06247841  0.75000000  0.46124302  1
  O  O80  1  0.94944747  0.25000000  0.83449502  1
  O  O81  1  0.94944747  0.25000000  0.66550498  1
  O  O82  1  0.05055253  0.75000000  0.16550498  1
  O  O83  1  0.05055253  0.75000000  0.33449502  1
  O  O84  1  0.46521040  0.25000000  0.17606097  1
  O  O85  1  0.46521040  0.25000000  0.32393903  1
  O  O86  1  0.53478960  0.75000000  0.82393903  1
  O  O87  1  0.53478960  0.75000000  0.67606097  1
  O  O88  1  0.53068986  0.25000000  0.07825672  1
  O  O89  1  0.53068986  0.25000000  0.42174328  1
  O  O90  1  0.46931014  0.75000000  0.92174328  1
  O  O91  1  0.46931014  0.75000000  0.57825672  1
  O  O92  1  0.51613858  0.25000000  0.98064041  1
  O  O93  1  0.51613858  0.25000000  0.51935959  1
  O  O94  1  0.48386142  0.75000000  0.01935959  1
  O  O95  1  0.48386142  0.75000000  0.48064041  1
  O  O96  1  0.49868139  0.25000000  0.81369725  1
  O  O97  1  0.49868139  0.25000000  0.68630275  1
  O  O98  1  0.50131861  0.75000000  0.18630275  1
  O  O99  1  0.50131861  0.75000000  0.31369725  1
