# generated using pymatgen
data_Ho3Ir2
_symmetry_space_group_name_H-M   'P 1'
_cell_length_a   11.21913685
_cell_length_b   11.21913685
_cell_length_c   14.87129112
_cell_angle_alpha   112.16083852
_cell_angle_beta   112.16083852
_cell_angle_gamma   90.00000000
_symmetry_Int_Tables_number   1
_chemical_formula_structural   Ho3Ir2
_chemical_formula_sum   'Ho42 Ir28'
_cell_volume   1583.25427331
_cell_formula_units_Z   14
loop_
 _symmetry_equiv_pos_site_id
 _symmetry_equiv_pos_as_xyz
  1  'x, y, z'
loop_
 _atom_site_type_symbol
 _atom_site_label
 _atom_site_symmetry_multiplicity
 _atom_site_fract_x
 _atom_site_fract_y
 _atom_site_fract_z
 _atom_site_occupancy
  Ho  Ho0  1  0.50389442  0.63224856  0.85686517  1
  Ho  Ho1  1  0.35297075  0.22461662  0.85686517  1
  Ho  Ho2  1  0.85297075  0.13224856  0.85686517  1
  Ho  Ho3  1  0.00389442  0.72461662  0.85686517  1
  Ho  Ho4  1  0.63224856  0.35297075  0.85686517  1
  Ho  Ho5  1  0.22461662  0.50389442  0.85686517  1
  Ho  Ho6  1  0.13224856  0.00389442  0.85686517  1
  Ho  Ho7  1  0.72461662  0.85297075  0.85686517  1
  Ho  Ho8  1  0.49610558  0.36775144  0.14313483  1
  Ho  Ho9  1  0.64702925  0.77538338  0.14313483  1
  Ho  Ho10  1  0.14702925  0.86775144  0.14313483  1
  Ho  Ho11  1  0.99610558  0.27538338  0.14313483  1
  Ho  Ho12  1  0.36775144  0.64702925  0.14313483  1
  Ho  Ho13  1  0.77538338  0.49610558  0.14313483  1
  Ho  Ho14  1  0.86775144  0.99610558  0.14313483  1
  Ho  Ho15  1  0.27538338  0.14702925  0.14313483  1
  Ho  Ho16  1  0.51679716  0.38578668  0.61244215  1
  Ho  Ho17  1  0.09564499  0.22665547  0.61244215  1
  Ho  Ho18  1  0.59564499  0.88578668  0.61244215  1
  Ho  Ho19  1  0.01679716  0.72665547  0.61244215  1
  Ho  Ho20  1  0.38578668  0.09564499  0.61244215  1
  Ho  Ho21  1  0.22665547  0.51679716  0.61244215  1
  Ho  Ho22  1  0.88578668  0.01679716  0.61244215  1
  Ho  Ho23  1  0.72665547  0.59564499  0.61244215  1
  Ho  Ho24  1  0.48320284  0.61421332  0.38755785  1
  Ho  Ho25  1  0.90435501  0.77334453  0.38755785  1
  Ho  Ho26  1  0.40435501  0.11421332  0.38755785  1
  Ho  Ho27  1  0.98320284  0.27334453  0.38755785  1
  Ho  Ho28  1  0.61421332  0.90435501  0.38755785  1
  Ho  Ho29  1  0.77334453  0.48320284  0.38755785  1
  Ho  Ho30  1  0.11421332  0.98320284  0.38755785  1
  Ho  Ho31  1  0.27334453  0.40435501  0.38755785  1
  Ho  Ho32  1  0.35027871  0.85027871  1.00000000  1
  Ho  Ho33  1  0.64972129  0.14972129  0.00000000  1
  Ho  Ho34  1  0.14972129  0.35027871  0.00000000  1
  Ho  Ho35  1  0.85027871  0.64972129  0.00000000  1
  Ho  Ho36  1  0.88772825  0.38772825  0.77545650  1
  Ho  Ho37  1  0.38772825  0.88772825  0.77545650  1
  Ho  Ho38  1  0.11227175  0.61227175  0.22454350  1
  Ho  Ho39  1  0.61227175  0.11227175  0.22454350  1
  Ho  Ho40  1  0.75000000  0.25000000  0.50000000  1
  Ho  Ho41  1  0.25000000  0.75000000  0.50000000  1
  Ir  Ir42  1  0.21482289  0.71482289  0.78798519  1
  Ir  Ir43  1  0.57316231  0.07316231  0.78798519  1
  Ir  Ir44  1  0.07316231  0.21482289  0.78798519  1
  Ir  Ir45  1  0.71482289  0.57316231  0.78798519  1
  Ir  Ir46  1  0.78517711  0.28517711  0.21201481  1
  Ir  Ir47  1  0.42683769  0.92683769  0.21201481  1
  Ir  Ir48  1  0.92683769  0.78517711  0.21201481  1
  Ir  Ir49  1  0.28517711  0.42683769  0.21201481  1
  Ir  Ir50  1  0.96553451  0.46553451  0.62298920  1
  Ir  Ir51  1  0.65745468  0.15745468  0.62298920  1
  Ir  Ir52  1  0.15745468  0.96553451  0.62298920  1
  Ir  Ir53  1  0.46553451  0.65745468  0.62298920  1
  Ir  Ir54  1  0.03446549  0.53446549  0.37701080  1
  Ir  Ir55  1  0.34254532  0.84254532  0.37701080  1
  Ir  Ir56  1  0.84254532  0.03446549  0.37701080  1
  Ir  Ir57  1  0.53446549  0.34254532  0.37701080  1
  Ir  Ir58  1  0.09667575  0.59667575  1.00000000  1
  Ir  Ir59  1  0.90332425  0.40332425  0.00000000  1
  Ir  Ir60  1  0.40332425  0.09667575  0.00000000  1
  Ir  Ir61  1  0.59667575  0.90332425  0.00000000  1
  Ir  Ir62  1  0.36607416  0.36607416  0.73214831  1
  Ir  Ir63  1  0.86607416  0.86607416  0.73214831  1
  Ir  Ir64  1  0.63392584  0.63392584  0.26785169  1
  Ir  Ir65  1  0.13392584  0.13392584  0.26785169  1
  Ir  Ir66  1  0.50000000  0.50000000  0.00000000  1
  Ir  Ir67  1  0.00000000  -0.00000000  0.00000000  1
  Ir  Ir68  1  0.25000000  0.25000000  0.50000000  1
  Ir  Ir69  1  0.75000000  0.75000000  0.50000000  1
