# generated using pymatgen
data_P2H9NO8
_symmetry_space_group_name_H-M   'P 1'
_cell_length_a   7.80033873
_cell_length_b   9.72620897
_cell_length_c   10.32775588
_cell_angle_alpha   102.06684487
_cell_angle_beta   90.00000000
_cell_angle_gamma   90.00000000
_symmetry_Int_Tables_number   1
_chemical_formula_structural   P2H9NO8
_chemical_formula_sum   'P8 H36 N4 O32'
_cell_volume   766.23045645
_cell_formula_units_Z   4
loop_
 _symmetry_equiv_pos_site_id
 _symmetry_equiv_pos_as_xyz
  1  'x, y, z'
loop_
 _atom_site_type_symbol
 _atom_site_label
 _atom_site_symmetry_multiplicity
 _atom_site_fract_x
 _atom_site_fract_y
 _atom_site_fract_z
 _atom_site_occupancy
  P  P0  1  0.31111332  0.69411555  0.44399104  1
  P  P1  1  0.81111332  0.80588445  0.55600896  1
  P  P2  1  0.68888668  0.30588445  0.55600896  1
  P  P3  1  0.18888668  0.19411555  0.44399104  1
  P  P4  1  0.30479344  0.80443049  0.07607003  1
  P  P5  1  0.80479344  0.69556951  0.92392997  1
  P  P6  1  0.69520656  0.19556951  0.92392997  1
  P  P7  1  0.19520656  0.30443049  0.07607003  1
  H  H8  1  0.53007261  0.66649546  0.56734900  1
  H  H9  1  0.03007261  0.83350454  0.43265100  1
  H  H10  1  0.46992739  0.33350454  0.43265100  1
  H  H11  1  0.96992739  0.16649546  0.56734900  1
  H  H12  1  0.19327674  0.48575625  0.42236800  1
  H  H13  1  0.69327674  0.01424375  0.57763200  1
  H  H14  1  0.80672326  0.51424375  0.57763200  1
  H  H15  1  0.30672326  0.98575625  0.42236800  1
  H  H16  1  0.44730574  0.73577973  0.26471657  1
  H  H17  1  0.94730574  0.76422027  0.73528343  1
  H  H18  1  0.55269426  0.26422027  0.73528343  1
  H  H19  1  0.05269426  0.23577973  0.26471657  1
  H  H20  1  0.51158626  0.81698887  0.93119411  1
  H  H21  1  0.01158626  0.68301113  0.06880589  1
  H  H22  1  0.48841374  0.18301113  0.06880589  1
  H  H23  1  0.98841374  0.31698887  0.93119411  1
  H  H24  1  0.21396125  0.02236097  0.09928457  1
  H  H25  1  0.71396125  0.47763903  0.90071543  1
  H  H26  1  0.78603875  0.97763903  0.90071543  1
  H  H27  1  0.28603875  0.52236097  0.09928457  1
  H  H28  1  0.72636957  0.08071140  0.18296727  1
  H  H29  1  0.22636957  0.41928860  0.81703273  1
  H  H30  1  0.27363043  0.91928860  0.81703273  1
  H  H31  1  0.77363043  0.58071140  0.18296727  1
  H  H32  1  0.64097115  0.93664080  0.22117927  1
  H  H33  1  0.14097115  0.56335920  0.77882073  1
  H  H34  1  0.35902885  0.06335920  0.77882073  1
  H  H35  1  0.85902885  0.43664080  0.22117927  1
  H  H36  1  0.76294319  0.04914431  0.33602242  1
  H  H37  1  0.26294319  0.45085569  0.66397758  1
  H  H38  1  0.23705681  0.95085569  0.66397758  1
  H  H39  1  0.73705681  0.54914431  0.33602242  1
  H  H40  1  0.85571266  0.94769862  0.20319426  1
  H  H41  1  0.35571266  0.55230138  0.79680574  1
  H  H42  1  0.14428734  0.05230138  0.79680574  1
  H  H43  1  0.64428734  0.44769862  0.20319426  1
  N  N44  1  0.74693942  0.00343929  0.23670995  1
  N  N45  1  0.24693942  0.49656071  0.76329005  1
  N  N46  1  0.25306058  0.99656071  0.76329005  1
  N  N47  1  0.75306058  0.50343929  0.23670995  1
  O  O48  1  0.39919194  0.66701429  0.57358572  1
  O  O49  1  0.89919194  0.83298571  0.42641428  1
  O  O50  1  0.60080806  0.33298571  0.42641428  1
  O  O51  1  0.10080806  0.16701429  0.57358572  1
  O  O52  1  0.16084460  0.58424853  0.41454685  1
  O  O53  1  0.66084460  0.91575147  0.58545315  1
  O  O54  1  0.83915540  0.41575147  0.58545315  1
  O  O55  1  0.33915540  0.08424853  0.41454685  1
  O  O56  1  0.45035938  0.66665999  0.33391144  1
  O  O57  1  0.95035938  0.83334001  0.66608856  1
  O  O58  1  0.54964062  0.33334001  0.66608856  1
  O  O59  1  0.04964062  0.16665999  0.33391144  1
  O  O60  1  0.22975030  0.83897043  0.46046287  1
  O  O61  1  0.72975030  0.66102957  0.53953713  1
  O  O62  1  0.77024970  0.16102957  0.53953713  1
  O  O63  1  0.27024970  0.33897043  0.46046287  1
  O  O64  1  0.37841797  0.81047830  0.93346146  1
  O  O65  1  0.87841797  0.68952170  0.06653854  1
  O  O66  1  0.62158203  0.18952170  0.06653854  1
  O  O67  1  0.12158203  0.31047830  0.93346146  1
  O  O68  1  0.16817715  0.92696421  0.10695245  1
  O  O69  1  0.66817715  0.57303579  0.89304755  1
  O  O70  1  0.83182285  0.07303579  0.89304755  1
  O  O71  1  0.33182285  0.42696421  0.10695245  1
  O  O72  1  0.45354132  0.82355123  0.17547762  1
  O  O73  1  0.95354132  0.67644877  0.82452238  1
  O  O74  1  0.54645868  0.17644877  0.82452238  1
  O  O75  1  0.04645868  0.32355123  0.17547762  1
  O  O76  1  0.20340064  0.66922849  0.07167249  1
  O  O77  1  0.70340064  0.83077151  0.92832751  1
  O  O78  1  0.79659936  0.33077151  0.92832751  1
  O  O79  1  0.29659936  0.16922849  0.07167249  1
