# generated using pymatgen
data_K(B7H6)3
_symmetry_space_group_name_H-M   'P 1'
_cell_length_a   7.60442159
_cell_length_b   7.69537912
_cell_length_c   17.54745228
_cell_angle_alpha   94.06406514
_cell_angle_beta   90.00000000
_cell_angle_gamma   119.60976967
_symmetry_Int_Tables_number   1
_chemical_formula_structural   K(B7H6)3
_chemical_formula_sum   'K2 B42 H36'
_cell_volume   889.78993064
_cell_formula_units_Z   2
loop_
 _symmetry_equiv_pos_site_id
 _symmetry_equiv_pos_as_xyz
  1  'x, y, z'
loop_
 _atom_site_type_symbol
 _atom_site_label
 _atom_site_symmetry_multiplicity
 _atom_site_fract_x
 _atom_site_fract_y
 _atom_site_fract_z
 _atom_site_occupancy
  K  K0  1  0.92621941  -0.00000000  0.00000000  1
  K  K1  1  0.13021982  -0.00000000  0.50000000  1
  B  B2  1  0.46591744  0.30258454  0.26442686  1
  B  B3  1  0.16333289  0.69741546  0.73557314  1
  B  B4  1  0.71306167  0.49470056  0.23569448  1
  B  B5  1  0.21836110  0.50529944  0.76430552  1
  B  B6  1  0.67029168  0.24418310  0.25084923  1
  B  B7  1  0.42610858  0.75581690  0.74915077  1
  B  B8  1  0.91215953  0.46681846  0.28979965  1
  B  B9  1  0.44534106  0.53318154  0.71020035  1
  B  B10  1  0.50694125  0.15495824  0.33683556  1
  B  B11  1  0.35198301  0.84504176  0.66316444  1
  B  B12  1  0.58012250  0.56535107  0.31196496  1
  B  B13  1  0.01477142  0.43464893  0.68803504  1
  B  B14  1  0.81251310  0.37259125  0.16470832  1
  B  B15  1  0.43992185  0.62740875  0.83529168  1
  B  B16  1  0.40980446  0.05645102  0.21201490  1
  B  B17  1  0.35335344  0.94354898  0.78798510  1
  B  B18  1  0.47676034  0.46448549  0.18689225  1
  B  B19  1  0.01227485  0.53551451  0.81310775  1
  B  B20  1  0.45299491  0.35027216  0.36520537  1
  B  B21  1  0.10272275  0.64972784  0.63479463  1
  B  B22  1  0.84567207  0.65340782  0.31966974  1
  B  B23  1  0.19226425  0.34659218  0.68033026  1
  B  B24  1  0.77494646  0.25473360  0.34397115  1
  B  B25  1  0.52021286  0.74526640  0.65602885  1
  B  B26  1  0.30214472  0.20134965  0.18030356  1
  B  B27  1  0.10079506  0.79865035  0.81969644  1
  B  B28  1  0.69397116  0.50770980  0.13437383  1
  B  B29  1  0.18626136  0.49229020  0.86562617  1
  B  B30  1  0.62842706  0.11164355  0.15851597  1
  B  B31  1  0.51678351  0.88835645  0.84148403  1
  B  B32  1  0.88239315  0.50750738  0.38679574  1
  B  B33  1  0.37488577  0.49249262  0.61320426  1
  B  B34  1  0.64416372  0.32334782  0.41449137  1
  B  B35  1  0.32081590  0.67665218  0.58550863  1
  B  B36  1  0.68782015  0.56504196  0.39990061  1
  B  B37  1  0.12277819  0.43495804  0.60009939  1
  B  B38  1  0.63919498  0.27064864  0.08682254  1
  B  B39  1  0.36854634  0.72935136  0.91317746  1
  B  B40  1  0.40218080  0.08593544  0.11484252  1
  B  B41  1  0.31624536  0.91406456  0.88515748  1
  B  B42  1  0.44249699  0.32489431  0.09997904  1
  B  B43  1  0.11760268  0.67510569  0.90002096  1
  H  H44  1  0.07629629  0.51020264  0.26967060  1
  H  H45  1  0.56609365  0.48979736  0.73032940  1
  H  H46  1  0.39175456  0.98695576  0.34907093  1
  H  H47  1  0.40479880  0.01304424  0.65092907  1
  H  H48  1  0.51541886  0.67571947  0.30655497  1
  H  H49  1  0.83969939  0.32428053  0.69344503  1
  H  H50  1  0.98566266  0.42914589  0.15418851  1
  H  H51  1  0.55651677  0.57085411  0.84581149  1
  H  H52  1  0.30926734  0.89421957  0.23338744  1
  H  H53  1  0.41504777  0.10578043  0.76661256  1
  H  H54  1  0.42027750  0.58339487  0.19096368  1
  H  H55  1  0.83688263  0.41660513  0.80903632  1
  H  H56  1  0.29407136  0.31221883  0.39234970  1
  H  H57  1  0.98185253  0.68778117  0.60765030  1
  H  H58  1  0.96498394  0.82817370  0.31710737  1
  H  H59  1  0.13681024  0.17182630  0.68289263  1
  H  H60  1  0.84417521  0.15022002  0.35724281  1
  H  H61  1  0.69395519  0.84977998  0.64275719  1
  H  H62  1  0.12401164  0.14041692  0.18229378  1
  H  H63  1  0.98359472  0.85958308  0.81770622  1
  H  H64  1  0.79117938  0.66218117  0.10544780  1
  H  H65  1  0.12899821  0.33781883  0.89455220  1
  H  H66  1  0.67878412  0.98738000  0.14692673  1
  H  H67  1  0.69140412  0.01262000  0.85307327  1
  H  H68  1  0.03300583  0.58085197  0.42636569  1
  H  H69  1  0.45215386  0.41914803  0.57363431  1
  H  H70  1  0.61506678  0.25405927  0.47504785  1
  H  H71  1  0.36100751  0.74594073  0.52495215  1
  H  H72  1  0.69326578  0.68174950  0.44959670  1
  H  H73  1  0.01151628  0.31825050  0.55040330  1
  H  H74  1  0.70557131  0.26294259  0.02567274  1
  H  H75  1  0.44262872  0.73705741  0.97432726  1
  H  H76  1  0.28869933  0.93861125  0.07552917  1
  H  H77  1  0.35008808  0.06138875  0.92447083  1
  H  H78  1  0.36232536  0.35796064  0.04847958  1
  H  H79  1  0.00436472  0.64203936  0.95152042  1
