# generated using pymatgen
data_Rb3H12N5
_symmetry_space_group_name_H-M   'P 1'
_cell_length_a   8.85978047
_cell_length_b   8.85978047
_cell_length_c   8.85978047
_cell_angle_alpha   109.47122063
_cell_angle_beta   109.47122063
_cell_angle_gamma   109.47122063
_symmetry_Int_Tables_number   1
_chemical_formula_structural   Rb3H12N5
_chemical_formula_sum   'Rb6 H24 N10'
_cell_volume   535.36132271
_cell_formula_units_Z   2
loop_
 _symmetry_equiv_pos_site_id
 _symmetry_equiv_pos_as_xyz
  1  'x, y, z'
loop_
 _atom_site_type_symbol
 _atom_site_label
 _atom_site_symmetry_multiplicity
 _atom_site_fract_x
 _atom_site_fract_y
 _atom_site_fract_z
 _atom_site_occupancy
  Rb  Rb0  1  0.25000000  0.32629225  0.57629225  1
  Rb  Rb1  1  0.17370775  0.92370775  0.75000000  1
  Rb  Rb2  1  0.92370775  0.75000000  0.17370775  1
  Rb  Rb3  1  0.75000000  0.17370775  0.92370775  1
  Rb  Rb4  1  0.57629225  0.25000000  0.32629225  1
  Rb  Rb5  1  0.32629225  0.57629225  0.25000000  1
  H  H6  1  0.97681580  0.13893934  0.72319124  1
  H  H7  1  0.75362455  0.77680876  0.41574810  1
  H  H8  1  0.83787646  0.08425190  0.36106066  1
  H  H9  1  0.41574810  0.75362455  0.77680876  1
  H  H10  1  0.36106066  0.83787646  0.08425190  1
  H  H11  1  0.72319124  0.97681580  0.13893934  1
  H  H12  1  0.08425190  0.36106066  0.83787646  1
  H  H13  1  0.13893934  0.72319124  0.97681580  1
  H  H14  1  0.77680876  0.41574810  0.75362455  1
  H  H15  1  0.52318420  0.74637545  0.66212354  1
  H  H16  1  0.74637545  0.66212354  0.52318420  1
  H  H17  1  0.66212354  0.52318420  0.74637545  1
  H  H18  1  0.32283582  0.94853352  0.36642177  1
  H  H19  1  0.45641405  0.13357823  0.58211176  1
  H  H20  1  0.37430229  0.91788824  0.55146648  1
  H  H21  1  0.58211176  0.45641405  0.13357823  1
  H  H22  1  0.55146648  0.37430229  0.91788824  1
  H  H23  1  0.36642177  0.32283582  0.94853352  1
  H  H24  1  0.91788824  0.55146648  0.37430229  1
  H  H25  1  0.94853352  0.36642177  0.32283582  1
  H  H26  1  0.13357823  0.58211176  0.45641405  1
  H  H27  1  0.17716418  0.04358595  0.12569771  1
  H  H28  1  0.04358595  0.12569771  0.17716418  1
  H  H29  1  0.12569771  0.17716418  0.04358595  1
  N  N30  1  0.09325446  0.25000000  0.84325446  1
  N  N31  1  0.75000000  0.65674554  0.40674554  1
  N  N32  1  0.84325446  0.09325446  0.25000000  1
  N  N33  1  0.40674554  0.75000000  0.65674554  1
  N  N34  1  0.25000000  0.84325446  0.09325446  1
  N  N35  1  0.65674554  0.40674554  0.75000000  1
  N  N36  1  0.34319725  -0.00000000  0.50000000  1
  N  N37  1  0.50000000  0.34319725  0.00000000  1
  N  N38  1  0.00000000  0.50000000  0.34319725  1
  N  N39  1  0.15680275  0.15680275  0.15680275  1
