# generated using pymatgen
data_Tb3Ir2
_symmetry_space_group_name_H-M   'P 1'
_cell_length_a   11.33130060
_cell_length_b   11.33130060
_cell_length_c   14.97949335
_cell_angle_alpha   112.22390819
_cell_angle_beta   112.22390819
_cell_angle_gamma   90.00000000
_symmetry_Int_Tables_number   1
_chemical_formula_structural   Tb3Ir2
_chemical_formula_sum   'Tb42 Ir28'
_cell_volume   1625.06915292
_cell_formula_units_Z   14
loop_
 _symmetry_equiv_pos_site_id
 _symmetry_equiv_pos_as_xyz
  1  'x, y, z'
loop_
 _atom_site_type_symbol
 _atom_site_label
 _atom_site_symmetry_multiplicity
 _atom_site_fract_x
 _atom_site_fract_y
 _atom_site_fract_z
 _atom_site_occupancy
  Tb  Tb0  1  0.50310143  0.63236580  0.85619078  1
  Tb  Tb1  1  0.35308935  0.22382498  0.85619078  1
  Tb  Tb2  1  0.85308935  0.13236580  0.85619078  1
  Tb  Tb3  1  0.00310143  0.72382498  0.85619078  1
  Tb  Tb4  1  0.63236580  0.35308935  0.85619078  1
  Tb  Tb5  1  0.22382498  0.50310143  0.85619078  1
  Tb  Tb6  1  0.13236580  0.00310143  0.85619078  1
  Tb  Tb7  1  0.72382498  0.85308935  0.85619078  1
  Tb  Tb8  1  0.49689857  0.36763420  0.14380922  1
  Tb  Tb9  1  0.64691065  0.77617502  0.14380922  1
  Tb  Tb10  1  0.14691065  0.86763420  0.14380922  1
  Tb  Tb11  1  0.99689857  0.27617502  0.14380922  1
  Tb  Tb12  1  0.36763420  0.64691065  0.14380922  1
  Tb  Tb13  1  0.77617502  0.49689857  0.14380922  1
  Tb  Tb14  1  0.86763420  0.99689857  0.14380922  1
  Tb  Tb15  1  0.27617502  0.14691065  0.14380922  1
  Tb  Tb16  1  0.51702916  0.38586434  0.61237458  1
  Tb  Tb17  1  0.09534541  0.22651023  0.61237458  1
  Tb  Tb18  1  0.59534541  0.88586434  0.61237458  1
  Tb  Tb19  1  0.01702916  0.72651023  0.61237458  1
  Tb  Tb20  1  0.38586434  0.09534541  0.61237458  1
  Tb  Tb21  1  0.22651023  0.51702916  0.61237458  1
  Tb  Tb22  1  0.88586434  0.01702916  0.61237458  1
  Tb  Tb23  1  0.72651023  0.59534541  0.61237458  1
  Tb  Tb24  1  0.48297084  0.61413566  0.38762542  1
  Tb  Tb25  1  0.90465459  0.77348977  0.38762542  1
  Tb  Tb26  1  0.40465459  0.11413566  0.38762542  1
  Tb  Tb27  1  0.98297084  0.27348977  0.38762542  1
  Tb  Tb28  1  0.61413566  0.90465459  0.38762542  1
  Tb  Tb29  1  0.77348977  0.48297084  0.38762542  1
  Tb  Tb30  1  0.11413566  0.98297084  0.38762542  1
  Tb  Tb31  1  0.27348977  0.40465459  0.38762542  1
  Tb  Tb32  1  0.35085499  0.85085499  0.00000000  1
  Tb  Tb33  1  0.64914501  0.14914501  0.00000000  1
  Tb  Tb34  1  0.14914501  0.35085499  0.00000000  1
  Tb  Tb35  1  0.85085499  0.64914501  0.00000000  1
  Tb  Tb36  1  0.88738720  0.38738720  0.77477440  1
  Tb  Tb37  1  0.38738720  0.88738720  0.77477440  1
  Tb  Tb38  1  0.11261280  0.61261280  0.22522560  1
  Tb  Tb39  1  0.61261280  0.11261280  0.22522560  1
  Tb  Tb40  1  0.75000000  0.25000000  0.50000000  1
  Tb  Tb41  1  0.25000000  0.75000000  0.50000000  1
  Ir  Ir42  1  0.21499881  0.71499881  0.78810311  1
  Ir  Ir43  1  0.57310430  0.07310430  0.78810311  1
  Ir  Ir44  1  0.07310430  0.21499881  0.78810311  1
  Ir  Ir45  1  0.71499881  0.57310430  0.78810311  1
  Ir  Ir46  1  0.78500119  0.28500119  0.21189689  1
  Ir  Ir47  1  0.42689570  0.92689570  0.21189689  1
  Ir  Ir48  1  0.92689570  0.78500119  0.21189689  1
  Ir  Ir49  1  0.28500119  0.42689570  0.21189689  1
  Ir  Ir50  1  0.96487196  0.46487196  0.62295301  1
  Ir  Ir51  1  0.65808105  0.15808105  0.62295301  1
  Ir  Ir52  1  0.15808105  0.96487196  0.62295301  1
  Ir  Ir53  1  0.46487196  0.65808105  0.62295301  1
  Ir  Ir54  1  0.03512804  0.53512804  0.37704699  1
  Ir  Ir55  1  0.34191895  0.84191895  0.37704699  1
  Ir  Ir56  1  0.84191895  0.03512804  0.37704699  1
  Ir  Ir57  1  0.53512804  0.34191895  0.37704699  1
  Ir  Ir58  1  0.09787981  0.59787981  0.00000000  1
  Ir  Ir59  1  0.90212019  0.40212019  0.00000000  1
  Ir  Ir60  1  0.40212019  0.09787981  0.00000000  1
  Ir  Ir61  1  0.59787981  0.90212019  0.00000000  1
  Ir  Ir62  1  0.36600933  0.36600933  0.73201867  1
  Ir  Ir63  1  0.86600933  0.86600933  0.73201867  1
  Ir  Ir64  1  0.63399067  0.63399067  0.26798133  1
  Ir  Ir65  1  0.13399067  0.13399067  0.26798133  1
  Ir  Ir66  1  0.50000000  0.50000000  0.00000000  1
  Ir  Ir67  1  0.00000000  -0.00000000  0.00000000  1
  Ir  Ir68  1  0.25000000  0.25000000  0.50000000  1
  Ir  Ir69  1  0.75000000  0.75000000  0.50000000  1
