# generated using pymatgen
data_Tm11Sn10
_symmetry_space_group_name_H-M   'P 1'
_cell_length_a   11.51874484
_cell_length_b   11.51874484
_cell_length_c   11.71997867
_cell_angle_alpha   119.43362288
_cell_angle_beta   119.43362288
_cell_angle_gamma   90.00000000
_symmetry_Int_Tables_number   1
_chemical_formula_structural   Tm11Sn10
_chemical_formula_sum   'Tm22 Sn20'
_cell_volume   1118.12913051
_cell_formula_units_Z   2
loop_
 _symmetry_equiv_pos_site_id
 _symmetry_equiv_pos_as_xyz
  1  'x, y, z'
loop_
 _atom_site_type_symbol
 _atom_site_label
 _atom_site_symmetry_multiplicity
 _atom_site_fract_x
 _atom_site_fract_y
 _atom_site_fract_z
 _atom_site_occupancy
  Tm  Tm0  1  0.93635379  0.18839882  0.37679765  1
  Tm  Tm1  1  0.44044386  0.18839882  0.37679765  1
  Tm  Tm2  1  0.18839882  0.44044386  0.37679765  1
  Tm  Tm3  1  0.18839882  0.93635379  0.37679765  1
  Tm  Tm4  1  0.06364621  0.81160118  0.62320235  1
  Tm  Tm5  1  0.55955614  0.81160118  0.62320235  1
  Tm  Tm6  1  0.81160118  0.55955614  0.62320235  1
  Tm  Tm7  1  0.81160118  0.06364621  0.62320235  1
  Tm  Tm8  1  0.82565554  0.17434446  0.00000000  1
  Tm  Tm9  1  0.17434446  0.82565554  0.00000000  1
  Tm  Tm10  1  0.17434446  0.17434446  0.00000000  1
  Tm  Tm11  1  0.82565554  0.82565554  0.00000000  1
  Tm  Tm12  1  0.33583820  0.33583820  0.67167639  1
  Tm  Tm13  1  0.66416180  0.66416180  0.32832361  1
  Tm  Tm14  1  0.06742068  0.39767312  0.79534625  1
  Tm  Tm15  1  0.72792556  0.39767312  0.79534625  1
  Tm  Tm16  1  0.39767312  0.72792556  0.79534625  1
  Tm  Tm17  1  0.39767312  0.06742068  0.79534625  1
  Tm  Tm18  1  0.93257932  0.60232688  0.20465375  1
  Tm  Tm19  1  0.27207444  0.60232688  0.20465375  1
  Tm  Tm20  1  0.60232688  0.27207444  0.20465375  1
  Tm  Tm21  1  0.60232688  0.93257932  0.20465375  1
  Sn  Sn22  1  0.00000000  0.35576006  0.00000000  1
  Sn  Sn23  1  0.00000000  0.64423994  0.00000000  1
  Sn  Sn24  1  0.35576006  0.00000000  0.00000000  1
  Sn  Sn25  1  0.64423994  0.00000000  0.00000000  1
  Sn  Sn26  1  0.11295176  0.11295176  0.22590352  1
  Sn  Sn27  1  0.88704824  0.88704824  0.77409648  1
  Sn  Sn28  1  0.62995316  0.37004684  0.00000000  1
  Sn  Sn29  1  0.37004684  0.62995316  0.00000000  1
  Sn  Sn30  1  0.37004684  0.37004684  0.00000000  1
  Sn  Sn31  1  0.62995316  0.62995316  0.00000000  1
  Sn  Sn32  1  0.75000000  0.25000000  0.50000000  1
  Sn  Sn33  1  0.25000000  0.75000000  0.50000000  1
  Sn  Sn34  1  0.11814590  0.53137638  0.64952228  1
  Sn  Sn35  1  0.53137638  0.11814590  0.64952228  1
  Sn  Sn36  1  0.53137638  0.53137638  0.64952228  1
  Sn  Sn37  1  0.11814590  0.11814590  0.64952228  1
  Sn  Sn38  1  0.88185410  0.46862362  0.35047772  1
  Sn  Sn39  1  0.46862362  0.88185410  0.35047772  1
  Sn  Sn40  1  0.46862362  0.46862362  0.35047772  1
  Sn  Sn41  1  0.88185410  0.88185410  0.35047772  1
