# generated using pymatgen
data_Tb4BClO7
_symmetry_space_group_name_H-M   'P 1'
_cell_length_a   8.13276837
_cell_length_b   8.70844123
_cell_length_c   10.90665477
_cell_angle_alpha   102.25276559
_cell_angle_beta   90.00000000
_cell_angle_gamma   90.00000000
_symmetry_Int_Tables_number   1
_chemical_formula_structural   Tb4BClO7
_chemical_formula_sum   'Tb16 B4 Cl4 O28'
_cell_volume   754.85428704
_cell_formula_units_Z   4
loop_
 _symmetry_equiv_pos_site_id
 _symmetry_equiv_pos_as_xyz
  1  'x, y, z'
loop_
 _atom_site_type_symbol
 _atom_site_label
 _atom_site_symmetry_multiplicity
 _atom_site_fract_x
 _atom_site_fract_y
 _atom_site_fract_z
 _atom_site_occupancy
  Tb  Tb0  1  0.37144373  0.98114927  0.78061411  1
  Tb  Tb1  1  0.12855627  0.48114927  0.28061411  1
  Tb  Tb2  1  0.62855627  0.01885073  0.21938589  1
  Tb  Tb3  1  0.87144373  0.51885073  0.71938589  1
  Tb  Tb4  1  0.38305448  0.66846381  0.08642996  1
  Tb  Tb5  1  0.11694552  0.16846381  0.58642996  1
  Tb  Tb6  1  0.61694552  0.33153619  0.91357004  1
  Tb  Tb7  1  0.88305448  0.83153619  0.41357004  1
  Tb  Tb8  1  0.36421761  0.84656062  0.41973049  1
  Tb  Tb9  1  0.13578239  0.34656062  0.91973049  1
  Tb  Tb10  1  0.63578239  0.15343938  0.58026951  1
  Tb  Tb11  1  0.86421761  0.65343938  0.08026951  1
  Tb  Tb12  1  0.38425361  0.53684381  0.72147509  1
  Tb  Tb13  1  0.11574639  0.03684381  0.22147509  1
  Tb  Tb14  1  0.61574639  0.46315619  0.27852491  1
  Tb  Tb15  1  0.88425361  0.96315619  0.77852491  1
  B  B16  1  0.12782942  0.71833803  0.58706263  1
  B  B17  1  0.37217058  0.21833803  0.08706263  1
  B  B18  1  0.87217058  0.28166197  0.41293737  1
  B  B19  1  0.62782942  0.78166197  0.91293737  1
  Cl  Cl20  1  0.13674111  0.84509636  0.96324033  1
  Cl  Cl21  1  0.36325889  0.34509636  0.46324033  1
  Cl  Cl22  1  0.86325889  0.15490364  0.03675967  1
  Cl  Cl23  1  0.63674111  0.65490364  0.53675967  1
  O  O24  1  0.37713716  0.05538596  0.59670492  1
  O  O25  1  0.12286284  0.55538596  0.09670492  1
  O  O26  1  0.62286284  0.94461404  0.40329508  1
  O  O27  1  0.87713716  0.44461404  0.90329508  1
  O  O28  1  0.36430453  0.91674634  0.22280238  1
  O  O29  1  0.13569547  0.41674634  0.72280238  1
  O  O30  1  0.63569547  0.08325366  0.77719762  1
  O  O31  1  0.86430453  0.58325366  0.27719762  1
  O  O32  1  0.38449299  0.60434573  0.27904948  1
  O  O33  1  0.11550701  0.10434573  0.77904948  1
  O  O34  1  0.61550701  0.39565427  0.72095052  1
  O  O35  1  0.88449299  0.89565427  0.22095052  1
  O  O36  1  0.37613852  0.47369493  0.90841440  1
  O  O37  1  0.12386148  0.97369493  0.40841440  1
  O  O38  1  0.62386148  0.52630507  0.09158560  1
  O  O39  1  0.87613852  0.02630507  0.59158560  1
  O  O40  1  0.11876594  0.67906537  0.45707704  1
  O  O41  1  0.38123406  0.17906537  0.95707704  1
  O  O42  1  0.88123406  0.32093463  0.54292296  1
  O  O43  1  0.61876594  0.82093463  0.04292296  1
  O  O44  1  0.98606751  0.73328476  0.65686725  1
  O  O45  1  0.51393249  0.23328476  0.15686725  1
  O  O46  1  0.01393249  0.26671524  0.34313275  1
  O  O47  1  0.48606751  0.76671524  0.84313275  1
  O  O48  1  0.28032033  0.75064741  0.64171477  1
  O  O49  1  0.21967967  0.25064741  0.14171477  1
  O  O50  1  0.71967967  0.24935259  0.35828523  1
  O  O51  1  0.78032033  0.74935259  0.85828523  1
