# generated using pymatgen
data_Sr5Li25La7Nb8O48
_symmetry_space_group_name_H-M   'P 1'
_cell_length_a   11.59371168
_cell_length_b   11.53446046
_cell_length_c   11.26727229
_cell_angle_alpha   107.30372296
_cell_angle_beta   109.74747141
_cell_angle_gamma   110.76395858
_symmetry_Int_Tables_number   1
_chemical_formula_structural   Sr5Li25La7Nb8O48
_chemical_formula_sum   'Sr5 Li25 La7 Nb8 O48'
_cell_volume   1167.53673383
_cell_formula_units_Z   1
loop_
 _symmetry_equiv_pos_site_id
 _symmetry_equiv_pos_as_xyz
  1  'x, y, z'
loop_
 _atom_site_type_symbol
 _atom_site_label
 _atom_site_symmetry_multiplicity
 _atom_site_fract_x
 _atom_site_fract_y
 _atom_site_fract_z
 _atom_site_occupancy
  Sr  Sr0  1  0.27925061  0.40756326  0.14141774  1
  Sr  Sr1  1  0.60949181  0.88549766  0.73159651  1
  Sr  Sr2  1  0.62473992  0.23770523  0.88522058  1
  Sr  Sr3  1  0.76645749  0.64029465  0.87754444  1
  Sr  Sr4  1  0.74128706  0.08644318  0.38037340  1
  Li  Li5  1  0.61912924  0.77146072  0.38197878  1
  Li  Li6  1  0.23570570  0.09662880  0.84500241  1
  Li  Li7  1  0.31120522  0.66106664  0.38285193  1
  Li  Li8  1  0.58080448  0.53961075  0.26767557  1
  Li  Li9  1  0.79277612  0.33727357  0.37196516  1
  Li  Li10  1  0.97357660  0.02037265  0.19224012  1
  Li  Li11  1  0.42816154  0.26615155  0.03895996  1
  Li  Li12  1  0.76306049  0.41443352  0.62173769  1
  Li  Li13  1  0.74124749  0.87352590  0.10305095  1
  Li  Li14  1  0.63846746  0.34792971  0.21012636  1
  Li  Li15  1  0.97838897  0.45882622  0.77460463  1
  Li  Li16  1  0.48151152  0.28197050  0.60099969  1
  Li  Li17  1  0.72115439  0.25757004  0.68117818  1
  Li  Li18  1  0.03309349  0.47995979  0.27237971  1
  Li  Li19  1  0.06190478  0.16224755  0.87108800  1
  Li  Li20  1  0.88491011  0.96597919  0.63558088  1
  Li  Li21  1  0.14685601  0.76932423  0.88751695  1
  Li  Li22  1  0.63583787  0.42452952  0.41721750  1
  Li  Li23  1  0.41379711  0.67046010  0.80044182  1
  Li  Li24  1  0.86379687  0.15407305  0.74468362  1
  Li  Li25  1  0.83657099  0.06031728  0.99139789  1
  Li  Li26  1  0.13501924  0.88703594  0.25499505  1
  Li  Li27  1  0.57100918  0.72445796  0.11640616  1
  Li  Li28  1  0.83731899  0.21941052  0.16734083  1
  Li  Li29  1  0.97039418  0.28961805  0.02687896  1
  La  La30  1  0.16164836  0.35568174  0.75634534  1
  La  La31  1  0.25685630  0.88465644  0.62902321  1
  La  La32  1  0.15984580  0.30301375  0.39775283  1
  La  La33  1  0.36353731  0.76473557  0.14704418  1
  La  La34  1  0.38480406  0.13060700  0.24603643  1
  La  La35  1  0.87137033  0.71957492  0.59916255  1
  La  La36  1  0.86209057  0.65195223  0.25615937  1
  Nb  Nb37  1  0.05035313  0.53092745  0.54438017  1
  Nb  Nb38  1  0.00828251  0.54181482  0.02756477  1
  Nb  Nb39  1  0.48398746  0.00646807  0.50182125  1
  Nb  Nb40  1  0.01762580  0.97939471  0.97793562  1
  Nb  Nb41  1  0.50520688  0.53853387  0.53516573  1
  Nb  Nb42  1  0.51015239  0.47655049  0.95158020  1
  Nb  Nb43  1  0.01494671  0.01040299  0.48840578  1
  Nb  Nb44  1  0.50537170  0.99399112  0.00427070  1
  O  O45  1  0.07653572  0.96792133  0.66019622  1
  O  O46  1  0.04397315  0.32695376  0.90126474  1
  O  O47  1  0.12622112  0.61718544  0.94207020  1
  O  O48  1  0.08738336  0.70602020  0.68444184  1
  O  O49  1  0.07600794  0.88995511  0.40139667  1
  O  O50  1  0.08761698  0.63870735  0.43796152  1
  O  O51  1  0.20037447  0.49827657  0.62339606  1
  O  O52  1  0.41646682  0.84379768  0.80783019  1
  O  O53  1  0.32522269  0.31594305  0.90680325  1
  O  O54  1  0.39791116  0.56275102  0.90001792  1
  O  O55  1  0.32845932  0.93508956  0.30722097  1
  O  O56  1  0.01358705  0.20643079  0.14912121  1
  O  O57  1  0.16790243  0.19976781  0.56417755  1
  O  O58  1  0.18636932  0.58794600  0.18409668  1
  O  O59  1  0.40085490  0.83993314  0.52905262  1
  O  O60  1  0.31915864  0.50505291  0.39881631  1
  O  O61  1  0.34484861  0.92735899  0.04806647  1
  O  O62  1  0.13182140  0.02325301  0.17786689  1
  O  O63  1  0.53491371  0.64448686  0.71429251  1
  O  O64  1  0.41810429  0.09338321  0.91398231  1
  O  O65  1  0.54701752  0.40544172  0.80638984  1
  O  O66  1  0.39051701  0.33066719  0.46382284  1
  O  O67  1  0.18261036  0.12541357  0.99566713  1
  O  O68  1  0.56467679  0.91255090  0.39348840  1
  O  O69  1  0.41411029  0.08765712  0.62169483  1
  O  O70  1  0.84215255  0.90167569  0.99712197  1
  O  O71  1  0.61969055  0.68341420  0.50255388  1
  O  O72  1  0.47692342  0.62051060  0.18731843  1
  O  O73  1  0.57426232  0.88724262  0.10232059  1
  O  O74  1  0.47776544  0.34989360  0.24267038  1
  O  O75  1  0.88915957  0.00864965  0.82064210  1
  O  O76  1  0.68171777  0.08130997  0.98193731  1
  O  O77  1  0.68475223  0.52569212  0.60807254  1
  O  O78  1  0.58325626  0.20038451  0.49642227  1
  O  O79  1  0.83799434  0.44095857  0.82503951  1
  O  O80  1  0.82375060  0.80725202  0.42005744  1
  O  O81  1  0.98300063  0.80264811  0.86155464  1
  O  O82  1  0.67308337  0.09750708  0.69143470  1
  O  O83  1  0.61903864  0.42909066  0.09092802  1
  O  O84  1  0.69004806  0.66920055  0.06824536  1
  O  O85  1  0.62541784  0.17548364  0.21268805  1
  O  O86  1  0.79618993  0.51797972  0.39680742  1
  O  O87  1  0.90926975  0.40169396  0.57945107  1
  O  O88  1  0.93719430  0.11818074  0.60459890  1
  O  O89  1  0.95861038  0.36012618  0.35482135  1
  O  O90  1  0.97520079  0.68771485  0.10698091  1
  O  O91  1  0.89552617  0.40913177  0.07801028  1
  O  O92  1  0.90152581  0.01567197  0.31508811  1
