# generated using pymatgen
data_Sb2S4O15
_symmetry_space_group_name_H-M   'P 1'
_cell_length_a   7.20288501
_cell_length_b   9.45350110
_cell_length_c   18.13106839
_cell_angle_alpha   100.53374574
_cell_angle_beta   90.00000000
_cell_angle_gamma   90.00000000
_symmetry_Int_Tables_number   1
_chemical_formula_structural   Sb2S4O15
_chemical_formula_sum   'Sb8 S16 O60'
_cell_volume   1213.78340102
_cell_formula_units_Z   4
loop_
 _symmetry_equiv_pos_site_id
 _symmetry_equiv_pos_as_xyz
  1  'x, y, z'
loop_
 _atom_site_type_symbol
 _atom_site_label
 _atom_site_symmetry_multiplicity
 _atom_site_fract_x
 _atom_site_fract_y
 _atom_site_fract_z
 _atom_site_occupancy
  Sb  Sb0  1  0.33326392  0.11734843  0.64304582  1
  Sb  Sb1  1  0.16673608  0.61734843  0.14304582  1
  Sb  Sb2  1  0.66673608  0.88265157  0.35695418  1
  Sb  Sb3  1  0.83326392  0.38265157  0.85695418  1
  Sb  Sb4  1  0.84616277  0.39257607  0.35669985  1
  Sb  Sb5  1  0.65383723  0.89257607  0.85669985  1
  Sb  Sb6  1  0.15383723  0.60742393  0.64330015  1
  Sb  Sb7  1  0.34616277  0.10742393  0.14330015  1
  S  S8  1  0.54154329  0.22541726  0.49065889  1
  S  S9  1  0.95845671  0.72541726  0.99065889  1
  S  S10  1  0.45845671  0.77458274  0.50934111  1
  S  S11  1  0.04154329  0.27458274  0.00934111  1
  S  S12  1  0.25265388  0.41186005  0.77787312  1
  S  S13  1  0.24734612  0.91186005  0.27787312  1
  S  S14  1  0.74734612  0.58813995  0.22212688  1
  S  S15  1  0.75265388  0.08813995  0.72212688  1
  S  S16  1  0.94114762  0.25965104  0.51568945  1
  S  S17  1  0.55885238  0.75965104  0.01568945  1
  S  S18  1  0.05885238  0.74034896  0.48431055  1
  S  S19  1  0.44114762  0.24034896  0.98431055  1
  S  S20  1  0.26073389  0.40932223  0.27141865  1
  S  S21  1  0.23926611  0.90932223  0.77141865  1
  S  S22  1  0.73926611  0.59067777  0.72858135  1
  S  S23  1  0.76073389  0.09067777  0.22858135  1
  O  O24  1  0.18780349  0.55507409  0.76665253  1
  O  O25  1  0.31219651  0.05507409  0.26665253  1
  O  O26  1  0.81219651  0.44492591  0.23334747  1
  O  O27  1  0.68780349  0.94492591  0.73334747  1
  O  O28  1  0.10510432  0.34234968  0.81984689  1
  O  O29  1  0.39489568  0.84234968  0.31984689  1
  O  O30  1  0.89489568  0.65765032  0.18015311  1
  O  O31  1  0.60510432  0.15765032  0.68015311  1
  O  O32  1  0.44583964  0.26325375  0.56421874  1
  O  O33  1  0.05416036  0.76325375  0.06421874  1
  O  O34  1  0.55416036  0.73674625  0.43578126  1
  O  O35  1  0.94583964  0.23674625  0.93578126  1
  O  O36  1  0.25548015  0.32077134  0.69775692  1
  O  O37  1  0.24451985  0.82077134  0.19775692  1
  O  O38  1  0.74451985  0.67922866  0.30224308  1
  O  O39  1  0.75548015  0.17922866  0.80224308  1
  O  O40  1  0.46616696  0.09852235  0.44292843  1
  O  O41  1  0.03383304  0.59852235  0.94292843  1
  O  O42  1  0.53383304  0.90147765  0.55707157  1
  O  O43  1  0.96616696  0.40147765  0.05707157  1
  O  O44  1  0.57658002  0.35046522  0.45713353  1
  O  O45  1  0.92341998  0.85046522  0.95713353  1
  O  O46  1  0.42341998  0.64953478  0.54286647  1
  O  O47  1  0.07658002  0.14953478  0.04286647  1
  O  O48  1  0.42761017  0.40884903  0.81514123  1
  O  O49  1  0.07238983  0.90884903  0.31514123  1
  O  O50  1  0.57238983  0.59115097  0.18485877  1
  O  O51  1  0.92761017  0.09115097  0.68485877  1
  O  O52  1  0.74863094  0.16584867  0.51371056  1
  O  O53  1  0.75136906  0.66584867  0.01371056  1
  O  O54  1  0.25136906  0.83415133  0.48628944  1
  O  O55  1  0.24863094  0.33415133  0.98628944  1
  O  O56  1  0.07378658  0.16261403  0.53813850  1
  O  O57  1  0.42621342  0.66261403  0.03813850  1
  O  O58  1  0.92621342  0.83738597  0.46186150  1
  O  O59  1  0.57378658  0.33738597  0.96186150  1
  O  O60  1  0.91370920  0.39848263  0.56384802  1
  O  O61  1  0.58629080  0.89848263  0.06384802  1
  O  O62  1  0.08629080  0.60151737  0.43615198  1
  O  O63  1  0.41370920  0.10151737  0.93615198  1
  O  O64  1  0.97105156  0.27168591  0.43498291  1
  O  O65  1  0.52894844  0.77168591  0.93498291  1
  O  O66  1  0.02894844  0.72831409  0.56501709  1
  O  O67  1  0.47105156  0.22831409  0.06501709  1
  O  O68  1  0.11228237  0.34396915  0.31409773  1
  O  O69  1  0.38771763  0.84396915  0.81409773  1
  O  O70  1  0.88771763  0.65603085  0.68590227  1
  O  O71  1  0.61228237  0.15603085  0.18590227  1
  O  O72  1  0.19475060  0.55215751  0.25804057  1
  O  O73  1  0.30524940  0.05215751  0.75804057  1
  O  O74  1  0.80524940  0.44784249  0.74195943  1
  O  O75  1  0.69475060  0.94784249  0.24195943  1
  O  O76  1  0.26498294  0.31497042  0.19241660  1
  O  O77  1  0.23501706  0.81497042  0.69241660  1
  O  O78  1  0.73501706  0.68502958  0.80758340  1
  O  O79  1  0.76498294  0.18502958  0.30758340  1
  O  O80  1  0.43538918  0.41158469  0.30915611  1
  O  O81  1  0.06461082  0.91158469  0.80915611  1
  O  O82  1  0.56461082  0.58841531  0.69084389  1
  O  O83  1  0.93538918  0.08841531  0.19084389  1
