# generated using pymatgen
data_TlSb3F18
_symmetry_space_group_name_H-M   'P 1'
_cell_length_a   8.87579483
_cell_length_b   9.73039989
_cell_length_c   9.73052266
_cell_angle_alpha   120.00086386
_cell_angle_beta   90.00034874
_cell_angle_gamma   90.00013509
_symmetry_Int_Tables_number   1
_chemical_formula_structural   TlSb3F18
_chemical_formula_sum   'Tl2 Sb6 F36'
_cell_volume   727.78141805
_cell_formula_units_Z   2
loop_
 _symmetry_equiv_pos_site_id
 _symmetry_equiv_pos_as_xyz
  1  'x, y, z'
loop_
 _atom_site_type_symbol
 _atom_site_label
 _atom_site_symmetry_multiplicity
 _atom_site_fract_x
 _atom_site_fract_y
 _atom_site_fract_z
 _atom_site_occupancy
  Tl  Tl0  1  0.42842380  0.66666558  0.33333254  1
  Tl  Tl1  1  0.57157620  0.33333442  0.66666746  1
  Sb  Sb2  1  0.24325397  0.01830417  0.36471610  1
  Sb  Sb3  1  0.24324714  0.63528985  0.65359292  1
  Sb  Sb4  1  0.24324749  0.34640726  0.98169292  1
  Sb  Sb5  1  0.75674603  0.98169583  0.63528390  1
  Sb  Sb6  1  0.75675286  0.36471015  0.34640708  1
  Sb  Sb7  1  0.75675251  0.65359274  0.01830708  1
  F  F8  1  0.59662333  0.52790370  0.38884197  1
  F  F9  1  0.59662313  0.61115709  0.13906042  1
  F  F10  1  0.59661470  0.86092611  0.47208997  1
  F  F11  1  0.40337667  0.47209630  0.61115803  1
  F  F12  1  0.40337687  0.38884291  0.86093958  1
  F  F13  1  0.40338530  0.13907389  0.52791003  1
  F  F14  1  0.09750856  0.89290752  0.21407285  1
  F  F15  1  0.09750080  0.78593252  0.67883880  1
  F  F16  1  0.09750688  0.32116399  0.10709254  1
  F  F17  1  0.90249144  0.10709248  0.78592715  1
  F  F18  1  0.90249920  0.21406748  0.32116120  1
  F  F19  1  0.90249312  0.67883601  0.89290746  1
  F  F20  1  0.10329897  0.13577911  0.52658080  1
  F  F21  1  0.10329552  0.47341678  0.60919744  1
  F  F22  1  0.10329439  0.39080192  0.86421900  1
  F  F23  1  0.89670103  0.86422089  0.47341920  1
  F  F24  1  0.89670448  0.52658322  0.39080256  1
  F  F25  1  0.89670561  0.60919808  0.13578100  1
  F  F26  1  0.40535904  0.76296375  0.64374897  1
  F  F27  1  0.40535626  0.35625969  0.11921876  1
  F  F28  1  0.40535988  0.88078242  0.23703365  1
  F  F29  1  0.59464096  0.23703625  0.35625103  1
  F  F30  1  0.59464374  0.64374031  0.88078124  1
  F  F31  1  0.59464012  0.11921758  0.76296635  1
  F  F32  1  0.26750436  0.16256040  0.29131061  1
  F  F33  1  0.26750539  0.70869290  0.87125450  1
  F  F34  1  0.26750679  0.12874138  0.83743607  1
  F  F35  1  0.73249564  0.83743960  0.70868939  1
  F  F36  1  0.73249461  0.29130710  0.12874550  1
  F  F37  1  0.73249321  0.87125862  0.16256393  1
  F  F38  1  0.25651753  0.86547515  0.44693336  1
  F  F39  1  0.25650752  0.55305784  0.41854595  1
  F  F40  1  0.25650593  0.58145673  0.13451517  1
  F  F41  1  0.74348247  0.13452485  0.55306664  1
  F  F42  1  0.74349248  0.44694216  0.58145405  1
  F  F43  1  0.74349407  0.41854327  0.86548483  1
