# generated using pymatgen
data_RbNa10Al11Si13O48
_symmetry_space_group_name_H-M   'P 1'
_cell_length_a   12.74578369
_cell_length_b   12.26570402
_cell_length_c   12.22004053
_cell_angle_alpha   90.02856619
_cell_angle_beta   89.49384555
_cell_angle_gamma   90.09085267
_symmetry_Int_Tables_number   1
_chemical_formula_structural   RbNa10Al11Si13O48
_chemical_formula_sum   'Rb1 Na10 Al11 Si13 O48'
_cell_volume   1910.35520977
_cell_formula_units_Z   1
loop_
 _symmetry_equiv_pos_site_id
 _symmetry_equiv_pos_as_xyz
  1  'x, y, z'
loop_
 _atom_site_type_symbol
 _atom_site_label
 _atom_site_symmetry_multiplicity
 _atom_site_fract_x
 _atom_site_fract_y
 _atom_site_fract_z
 _atom_site_occupancy
  Rb  Rb0  1  0.52517769  0.49430636  0.01715031  1
  Na  Na1  1  0.20267942  0.20908887  0.19015839  1
  Na  Na2  1  0.20688847  0.19682630  0.80532471  1
  Na  Na3  1  0.20203353  0.79214540  0.18900421  1
  Na  Na4  1  0.20544318  0.80502001  0.80512345  1
  Na  Na5  1  0.80441346  0.49774767  0.80737907  1
  Na  Na6  1  0.78763039  0.81624642  0.49847994  1
  Na  Na7  1  0.77708608  0.19042356  0.19541649  1
  Na  Na8  1  0.78573967  0.17391128  0.80972948  1
  Na  Na9  1  0.78161750  0.82008869  0.17946471  1
  Na  Na10  1  0.78987790  0.83106415  0.82258053  1
  Al  Al11  1  0.18064262  -0.00003706  0.62911768  1
  Al  Al12  1  0.18154062  0.37382927  0.99519868  1
  Al  Al13  1  0.18161473  0.62476846  0.99463093  1
  Al  Al14  1  0.61341081  0.99978782  0.19310399  1
  Al  Al15  1  0.61332200  0.19214934  0.00334606  1
  Al  Al16  1  0.61741677  0.99911013  0.81210849  1
  Al  Al17  1  0.61068343  0.80526340  0.00222576  1
  Al  Al18  1  0.82879118  0.00358469  0.36046524  1
  Al  Al19  1  0.83365195  0.00258431  0.63725014  1
  Al  Al20  1  0.82479634  0.36095176  0.00478950  1
  Al  Al21  1  0.82649831  0.63721314  0.00429325  1
  Si  Si22  1  0.00457054  0.18528689  0.36572786  1
  Si  Si23  1  0.99966087  0.37040391  0.18638819  1
  Si  Si24  1  0.00778987  0.18833557  0.62873734  1
  Si  Si25  1  0.00061923  0.62784122  0.18590792  1
  Si  Si26  1  0.99967471  0.36628130  0.81149271  1
  Si  Si27  1  0.00212147  0.81385428  0.36481561  1
  Si  Si28  1  0.00019010  0.63042813  0.81057807  1
  Si  Si29  1  0.00385240  0.80948507  0.62855467  1
  Si  Si30  1  0.17673238  -0.00000153  0.36549036  1
  Si  Si31  1  0.37157905  0.99899742  0.18806588  1
  Si  Si32  1  0.36941180  0.18291494  0.00083238  1
  Si  Si33  1  0.37584769  0.99869518  0.81228912  1
  Si  Si34  1  0.37022773  0.81404291  0.00072078  1
  O  O35  1  0.01794731  0.30144594  0.30131064  1
  O  O36  1  0.98671549  0.49946444  0.22128851  1
  O  O37  1  0.00814790  0.30792732  0.69023620  1
  O  O38  1  0.01820227  0.69901692  0.29997240  1
  O  O39  1  0.99552153  0.78338105  0.49579806  1
  O  O40  1  0.11148791  0.11228315  0.33333097  1
  O  O41  1  0.10515015  0.35001361  0.11424411  1
  O  O42  1  0.10590026  0.34217939  0.87792973  1
  O  O43  1  0.10577168  0.89010968  0.33429235  1
  O  O44  1  0.11570316  0.12391652  0.65970155  1
  O  O45  1  0.10668792  0.64823080  0.11485311  1
  O  O46  1  0.10672387  0.65550143  0.87639102  1
  O  O47  1  0.10809370  0.87918633  0.65858932  1
  O  O48  1  0.21218452  0.99766939  0.49035393  1
  O  O49  1  0.24040815  0.49946927  0.98860772  1
  O  O50  1  0.27325293  0.99575910  0.27768472  1
  O  O51  1  0.27045368  0.26540129  0.00012636  1
  O  O52  1  0.27968350  0.99524457  0.72549594  1
  O  O53  1  0.26803933  0.73545652  0.99982746  1
  O  O54  1  0.34528624  0.10824266  0.11319779  1
  O  O55  1  0.35082029  0.10725158  0.89010055  1
  O  O56  1  0.34861683  0.88916527  0.11295314  1
  O  O57  1  0.35382627  0.89012261  0.89049985  1
  O  O58  1  0.48143823  0.00171478  0.24678478  1
  O  O59  1  0.48018831  0.24438901  0.00349859  1
  O  O60  1  0.47902229  0.74880130  0.00283479  1
  O  O61  1  0.48853051  0.00103492  0.75610311  1
  O  O62  1  0.63176726  0.12217267  0.12434739  1
  O  O63  1  0.63412980  0.12085979  0.88308837  1
  O  O64  1  0.62585859  0.87788774  0.12214479  1
  O  O65  1  0.62972768  0.87563120  0.88108783  1
  O  O66  1  0.71759832  0.99567549  0.28544918  1
  O  O67  1  0.72731022  0.99798169  0.72316464  1
  O  O68  1  0.70280211  0.30174272  0.00506324  1
  O  O69  1  0.70831450  0.70358379  0.00542360  1
  O  O70  1  0.81123952  0.49942073  0.98867947  1
  O  O71  1  0.81443357  0.99429825  0.49939640  1
  O  O72  1  0.90341813  0.12006363  0.32181378  1
  O  O73  1  0.90689952  0.12028085  0.67246617  1
  O  O74  1  0.89644443  0.32374608  0.12399187  1
  O  O75  1  0.89325076  0.32416903  0.87537059  1
  O  O76  1  0.89818260  0.67540535  0.12320074  1
  O  O77  1  0.89390047  0.67326135  0.87381535  1
  O  O78  1  0.89495683  0.87345208  0.32794376  1
  O  O79  1  0.89574741  0.86982720  0.66561401  1
  O  O80  1  0.00278517  0.21102377  0.49654006  1
  O  O81  1  0.98435291  0.49855178  0.78389460  1
  O  O82  1  0.00844210  0.69024671  0.68985557  1
