# generated using pymatgen
data_Cs5Mo8P(H3O16)2
_symmetry_space_group_name_H-M   'P 1'
_cell_length_a   9.15440321
_cell_length_b   12.66728221
_cell_length_c   16.74592782
_cell_angle_alpha   90.00000764
_cell_angle_beta   90.00027969
_cell_angle_gamma   111.18303579
_symmetry_Int_Tables_number   1
_chemical_formula_structural   Cs5Mo8P(H3O16)2
_chemical_formula_sum   'Cs10 Mo16 P2 H12 O64'
_cell_volume   1810.67007116
_cell_formula_units_Z   2
loop_
 _symmetry_equiv_pos_site_id
 _symmetry_equiv_pos_as_xyz
  1  'x, y, z'
loop_
 _atom_site_type_symbol
 _atom_site_label
 _atom_site_symmetry_multiplicity
 _atom_site_fract_x
 _atom_site_fract_y
 _atom_site_fract_z
 _atom_site_occupancy
  Cs  Cs0  1  0.12024452  0.24044784  0.24999351  1
  Cs  Cs1  1  0.87975070  0.75954509  0.74996956  1
  Cs  Cs2  1  0.11694245  0.23393657  0.96191338  1
  Cs  Cs3  1  0.88304089  0.76607773  0.03810620  1
  Cs  Cs4  1  0.11694660  0.23391661  0.53809394  1
  Cs  Cs5  1  0.88303755  0.76605750  0.46191842  1
  Cs  Cs6  1  0.36096991  0.72194179  0.02726334  1
  Cs  Cs7  1  0.63903930  0.27804034  0.97272260  1
  Cs  Cs8  1  0.36096602  0.72194967  0.47272689  1
  Cs  Cs9  1  0.63902364  0.27803306  0.52726570  1
  Mo  Mo10  1  0.91482254  0.47563310  0.14871667  1
  Mo  Mo11  1  0.43917340  0.52433939  0.85127271  1
  Mo  Mo12  1  0.91484023  0.47567383  0.35128115  1
  Mo  Mo13  1  0.43919921  0.52437937  0.64870765  1
  Mo  Mo14  1  0.08515277  0.52431121  0.85126902  1
  Mo  Mo15  1  0.56080557  0.47562351  0.14871764  1
  Mo  Mo16  1  0.08516894  0.52435936  0.64870864  1
  Mo  Mo17  1  0.56082050  0.47565042  0.35128233  1
  Mo  Mo18  1  0.70297640  0.03494618  0.15321478  1
  Mo  Mo19  1  0.66804612  0.96509157  0.84678938  1
  Mo  Mo20  1  0.70296166  0.03491780  0.34679529  1
  Mo  Mo21  1  0.66802515  0.96505161  0.65320464  1
  Mo  Mo22  1  0.29704756  0.96510199  0.84679031  1
  Mo  Mo23  1  0.33198499  0.03496405  0.15321607  1
  Mo  Mo24  1  0.29701360  0.96505250  0.65320272  1
  Mo  Mo25  1  0.33196918  0.03492553  0.34679519  1
  P  P26  1  0.62762654  0.25522831  0.25000697  1
  P  P27  1  0.37237872  0.74477080  0.74999849  1
  H  H28  1  0.81188047  0.62377212  0.25001101  1
  H  H29  1  0.18811741  0.37622282  0.75000366  1
  H  H30  1  0.44384294  0.88768621  0.25000288  1
  H  H31  1  0.55615933  0.11232144  0.74999807  1
  H  H32  1  0.99159774  0.15156550  0.75000411  1
  H  H33  1  0.84003728  0.84843102  0.25000893  1
  H  H34  1  0.00839985  0.84843297  0.25000917  1
  H  H35  1  0.15996015  0.15156739  0.75000398  1
  H  H36  1  0.26103455  0.69403125  0.25000632  1
  H  H37  1  0.56698773  0.30597424  0.75000497  1
  H  H38  1  0.73897166  0.30596724  0.75000945  1
  H  H39  1  0.43301714  0.69402413  0.25000601  1
  O  O40  1  0.76999639  0.54000628  0.25000911  1
  O  O41  1  0.22999406  0.45998874  0.75000224  1
  O  O42  1  0.66667289  0.33333349  0.17473343  1
  O  O43  1  0.33333496  0.66666916  0.82527086  1
  O  O44  1  0.66667279  0.33333092  0.32528027  1
  O  O45  1  0.33332326  0.66666293  0.67472600  1
  O  O46  1  0.96756093  0.42366726  0.25000385  1
  O  O47  1  0.54388825  0.57632620  0.74999581  1
  O  O48  1  0.03242608  0.57631885  0.74999559  1
  O  O49  1  0.45611127  0.42367435  0.25000436  1
  O  O50  1  0.75355850  0.50710644  0.08785766  1
  O  O51  1  0.24642048  0.49285217  0.91213232  1
  O  O52  1  0.75357611  0.50714203  0.41214013  1
  O  O53  1  0.24643699  0.49288728  0.58784924  1
  O  O54  1  0.97155238  0.39167255  0.08256771  1
  O  O55  1  0.57984421  0.60829085  0.91743381  1
  O  O56  1  0.97156692  0.39172867  0.41744039  1
  O  O57  1  0.57989125  0.60832152  0.58256693  1
  O  O58  1  0.02842006  0.60824516  0.91742732  1
  O  O59  1  0.42011526  0.39167455  0.08257339  1
  O  O60  1  0.02843669  0.60832364  0.58256275  1
  O  O61  1  0.42015481  0.39172218  0.41743607  1
  O  O62  1  0.06014475  0.61017666  0.14333242  1
  O  O63  1  0.44996253  0.38979282  0.85665569  1
  O  O64  1  0.06016511  0.61022237  0.35664882  1
  O  O65  1  0.44996510  0.38981672  0.64331570  1
  O  O66  1  0.93982906  0.38975567  0.85663793  1
  O  O67  1  0.55003564  0.61017811  0.14332374  1
  O  O68  1  0.93984770  0.38981316  0.64331601  1
  O  O69  1  0.55004878  0.61021642  0.35666134  1
  O  O70  1  0.48621743  0.97243483  0.25001092  1
  O  O71  1  0.51378586  0.02757297  0.75000621  1
  O  O72  1  0.72689644  0.17803649  0.25000286  1
  O  O73  1  0.54884905  0.82196662  0.74998932  1
  O  O74  1  0.27311032  0.82196551  0.74999386  1
  O  O75  1  0.45115798  0.17803556  0.25000200  1
  O  O76  1  0.79642581  0.00023107  0.25000340  1
  O  O77  1  0.79619095  0.99976517  0.74999539  1
  O  O78  1  0.20357663  0.99977014  0.74999460  1
  O  O79  1  0.20382152  0.00025263  0.25000468  1
  O  O80  1  0.54306923  0.08611688  0.11044071  1
  O  O81  1  0.45695288  0.91393214  0.88956807  1
  O  O82  1  0.54305610  0.08608262  0.38957250  1
  O  O83  1  0.45692751  0.91389152  0.61043140  1
  O  O84  1  0.86827077  0.12293735  0.10256397  1
  O  O85  1  0.74531502  0.87710199  0.89744941  1
  O  O86  1  0.86824674  0.12290372  0.39745039  1
  O  O87  1  0.74530912  0.87705445  0.60254972  1
  O  O88  1  0.13176261  0.87710033  0.89744223  1
  O  O89  1  0.25469932  0.12295123  0.10255687  1
  O  O90  1  0.13172203  0.87706007  0.60255381  1
  O  O91  1  0.25469575  0.12292590  0.39745796  1
  O  O92  1  0.65307354  0.90319297  0.10745847  1
  O  O93  1  0.74990818  0.09684995  0.89253855  1
  O  O94  1  0.65307431  0.90315655  0.39254773  1
  O  O95  1  0.74986462  0.09679759  0.60744792  1
  O  O96  1  0.34693425  0.09685660  0.89253694  1
  O  O97  1  0.25013514  0.90320363  0.10746138  1
  O  O98  1  0.34691718  0.09680245  0.60744630  1
  O  O99  1  0.25009770  0.90317299  0.39254859  1
  O  O100  1  0.10151614  0.20303919  0.75000858  1
  O  O101  1  0.89848134  0.79695872  0.25001392  1
  O  O102  1  0.37122684  0.74241771  0.25002263  1
  O  O103  1  0.62877754  0.25758223  0.75001606  1
