# generated using pymatgen
data_YbCo5P3
_symmetry_space_group_name_H-M   'P 1'
_cell_length_a   3.60320467
_cell_length_b   10.23192468
_cell_length_c   11.69131274
_cell_angle_alpha   90.00000000
_cell_angle_beta   90.00000000
_cell_angle_gamma   90.00000000
_symmetry_Int_Tables_number   1
_chemical_formula_structural   YbCo5P3
_chemical_formula_sum   'Yb4 Co20 P12'
_cell_volume   431.03203039
_cell_formula_units_Z   4
loop_
 _symmetry_equiv_pos_site_id
 _symmetry_equiv_pos_as_xyz
  1  'x, y, z'
loop_
 _atom_site_type_symbol
 _atom_site_label
 _atom_site_symmetry_multiplicity
 _atom_site_fract_x
 _atom_site_fract_y
 _atom_site_fract_z
 _atom_site_occupancy
  Yb  Yb0  1  0.25000000  0.58306334  0.70375380  1
  Yb  Yb1  1  0.25000000  0.91693666  0.20375380  1
  Yb  Yb2  1  0.75000000  0.41693666  0.29624620  1
  Yb  Yb3  1  0.75000000  0.08306334  0.79624620  1
  Co  Co4  1  0.25000000  0.71682609  0.99047741  1
  Co  Co5  1  0.25000000  0.78317391  0.49047741  1
  Co  Co6  1  0.75000000  0.28317391  0.00952259  1
  Co  Co7  1  0.75000000  0.21682609  0.50952259  1
  Co  Co8  1  0.25000000  0.40723385  0.48817775  1
  Co  Co9  1  0.25000000  0.09276615  0.98817775  1
  Co  Co10  1  0.75000000  0.59276615  0.51182225  1
  Co  Co11  1  0.75000000  0.90723385  0.01182225  1
  Co  Co12  1  0.25000000  0.22032047  0.17584794  1
  Co  Co13  1  0.25000000  0.27967953  0.67584794  1
  Co  Co14  1  0.75000000  0.77967953  0.82415206  1
  Co  Co15  1  0.75000000  0.72032047  0.32415206  1
  Co  Co16  1  0.25000000  0.88252719  0.69850641  1
  Co  Co17  1  0.25000000  0.61747281  0.19850641  1
  Co  Co18  1  0.75000000  0.11747281  0.30149359  1
  Co  Co19  1  0.75000000  0.38252719  0.80149359  1
  Co  Co20  1  0.25000000  0.46720589  0.93173755  1
  Co  Co21  1  0.25000000  0.03279411  0.43173755  1
  Co  Co22  1  0.75000000  0.53279411  0.06826245  1
  Co  Co23  1  0.75000000  0.96720589  0.56826245  1
  P  P24  1  0.25000000  0.41793059  0.11180599  1
  P  P25  1  0.25000000  0.08206941  0.61180599  1
  P  P26  1  0.75000000  0.58206941  0.88819401  1
  P  P27  1  0.75000000  0.91793059  0.38819401  1
  P  P28  1  0.25000000  0.26999372  0.86980087  1
  P  P29  1  0.25000000  0.23000628  0.36980087  1
  P  P30  1  0.75000000  0.73000628  0.13019913  1
  P  P31  1  0.75000000  0.76999372  0.63019913  1
  P  P32  1  0.25000000  0.60090376  0.39071141  1
  P  P33  1  0.25000000  0.89909624  0.89071141  1
  P  P34  1  0.75000000  0.39909624  0.60928859  1
  P  P35  1  0.75000000  0.10090376  0.10928859  1
