# generated using pymatgen
data_CeMg5Ru2
_symmetry_space_group_name_H-M   'P 1'
_cell_length_a   7.26257597
_cell_length_b   9.71447721
_cell_length_c   9.71447721
_cell_angle_alpha   90.00000000
_cell_angle_beta   90.00000000
_cell_angle_gamma   90.00000000
_symmetry_Int_Tables_number   1
_chemical_formula_structural   CeMg5Ru2
_chemical_formula_sum   'Ce4 Mg20 Ru8'
_cell_volume   685.37704682
_cell_formula_units_Z   4
loop_
 _symmetry_equiv_pos_site_id
 _symmetry_equiv_pos_as_xyz
  1  'x, y, z'
loop_
 _atom_site_type_symbol
 _atom_site_label
 _atom_site_symmetry_multiplicity
 _atom_site_fract_x
 _atom_site_fract_y
 _atom_site_fract_z
 _atom_site_occupancy
  Ce  Ce0  1  0.57445272  0.75000000  0.75000000  1
  Ce  Ce1  1  0.07445272  0.75000000  0.75000000  1
  Ce  Ce2  1  0.42554728  0.25000000  0.25000000  1
  Ce  Ce3  1  0.92554728  0.25000000  0.25000000  1
  Mg  Mg4  1  0.00000000  0.50000000  0.50000000  1
  Mg  Mg5  1  0.50000000  0.50000000  0.00000000  1
  Mg  Mg6  1  0.50000000  0.00000000  0.50000000  1
  Mg  Mg7  1  0.00000000  0.00000000  0.00000000  1
  Mg  Mg8  1  0.84790652  0.04683187  0.70031305  1
  Mg  Mg9  1  0.34790652  0.04683187  0.79968695  1
  Mg  Mg10  1  0.34790652  0.45316813  0.70031305  1
  Mg  Mg11  1  0.84790652  0.45316813  0.79968695  1
  Mg  Mg12  1  0.84790652  0.70031305  0.04683187  1
  Mg  Mg13  1  0.34790652  0.79968695  0.04683187  1
  Mg  Mg14  1  0.34790652  0.70031305  0.45316813  1
  Mg  Mg15  1  0.84790652  0.79968695  0.45316813  1
  Mg  Mg16  1  0.15209348  0.95316813  0.29968695  1
  Mg  Mg17  1  0.65209348  0.95316813  0.20031305  1
  Mg  Mg18  1  0.65209348  0.54683187  0.29968695  1
  Mg  Mg19  1  0.15209348  0.54683187  0.20031305  1
  Mg  Mg20  1  0.15209348  0.29968695  0.95316813  1
  Mg  Mg21  1  0.65209348  0.20031305  0.95316813  1
  Mg  Mg22  1  0.65209348  0.29968695  0.54683187  1
  Mg  Mg23  1  0.15209348  0.20031305  0.54683187  1
  Ru  Ru24  1  0.65871511  0.58556590  0.58556590  1
  Ru  Ru25  1  0.15871511  0.58556590  0.91443410  1
  Ru  Ru26  1  0.15871511  0.91443410  0.58556590  1
  Ru  Ru27  1  0.65871511  0.91443410  0.91443410  1
  Ru  Ru28  1  0.34128489  0.41443410  0.41443410  1
  Ru  Ru29  1  0.84128489  0.41443410  0.08556590  1
  Ru  Ru30  1  0.84128489  0.08556590  0.41443410  1
  Ru  Ru31  1  0.34128489  0.08556590  0.08556590  1
