# generated using pymatgen
data_InH10N3O14
_symmetry_space_group_name_H-M   'P 1'
_cell_length_a   7.06097448
_cell_length_b   7.06097448
_cell_length_c   11.63130140
_cell_angle_alpha   88.50203435
_cell_angle_beta   88.50203435
_cell_angle_gamma   83.18249679
_symmetry_Int_Tables_number   1
_chemical_formula_structural   InH10N3O14
_chemical_formula_sum   'In2 H20 N6 O28'
_cell_volume   575.45379582
_cell_formula_units_Z   2
loop_
 _symmetry_equiv_pos_site_id
 _symmetry_equiv_pos_as_xyz
  1  'x, y, z'
loop_
 _atom_site_type_symbol
 _atom_site_label
 _atom_site_symmetry_multiplicity
 _atom_site_fract_x
 _atom_site_fract_y
 _atom_site_fract_z
 _atom_site_occupancy
  In  In0  1  0.81537483  0.18462517  0.25000000  1
  In  In1  1  0.18462517  0.81537483  0.75000000  1
  H  H2  1  0.08504332  0.41500907  0.29997848  1
  H  H3  1  0.58499093  0.91495668  0.20002152  1
  H  H4  1  0.91495668  0.58499093  0.70002152  1
  H  H5  1  0.41500907  0.08504332  0.79997848  1
  H  H6  1  0.08865811  0.41175302  0.16257937  1
  H  H7  1  0.58824698  0.91134189  0.33742063  1
  H  H8  1  0.91134189  0.58824698  0.83742063  1
  H  H9  1  0.41175302  0.08865811  0.66257937  1
  H  H10  1  0.76077158  0.10508831  0.01653897  1
  H  H11  1  0.89491169  0.23922842  0.48346103  1
  H  H12  1  0.23922842  0.89491169  0.98346103  1
  H  H13  1  0.10508831  0.76077158  0.51653897  1
  H  H14  1  0.75503987  0.33894543  0.01937211  1
  H  H15  1  0.66105457  0.24496013  0.48062789  1
  H  H16  1  0.24496013  0.66105457  0.98062789  1
  H  H17  1  0.33894543  0.75503987  0.51937211  1
  H  H18  1  0.47162315  0.43132317  0.30654321  1
  H  H19  1  0.56867683  0.52837685  0.19345679  1
  H  H20  1  0.52837685  0.56867683  0.69345679  1
  H  H21  1  0.43132317  0.47162315  0.80654321  1
  N  N22  1  0.10967609  0.89032391  0.25000000  1
  N  N23  1  0.89032391  0.10967609  0.75000000  1
  N  N24  1  0.27604492  0.29279129  0.49607787  1
  N  N25  1  0.70720871  0.72395508  0.00392213  1
  N  N26  1  0.72395508  0.70720871  0.50392213  1
  N  N27  1  0.29279129  0.27604492  0.99607787  1
  O  O28  1  0.00233045  0.41080598  0.23247743  1
  O  O29  1  0.58919402  -0.00233045  0.26752257  1
  O  O30  1  -0.00233045  0.58919402  0.76752257  1
  O  O31  1  0.41080598  0.00233045  0.73247743  1
  O  O32  1  0.76033990  0.21774154  0.06519584  1
  O  O33  1  0.78225846  0.23966010  0.43480416  1
  O  O34  1  0.23966010  0.78225846  0.93480416  1
  O  O35  1  0.21774154  0.76033990  0.56519584  1
  O  O36  1  0.57876512  0.42123488  0.25000000  1
  O  O37  1  0.42123488  0.57876512  0.75000000  1
  O  O38  1  0.24099806  0.75900194  0.25000000  1
  O  O39  1  0.75900194  0.24099806  0.75000000  1
  O  O40  1  0.98033401  0.90791710  0.17296803  1
  O  O41  1  0.09208290  0.01966599  0.32703197  1
  O  O42  1  0.01966599  0.09208290  0.82703197  1
  O  O43  1  0.90791710  0.98033401  0.67296803  1
  O  O44  1  0.12414183  0.25869450  0.54555408  1
  O  O45  1  0.74130550  0.87585817  0.95444592  1
  O  O46  1  0.87585817  0.74130550  0.45444592  1
  O  O47  1  0.25869450  0.12414183  0.04555408  1
  O  O48  1  0.27597741  0.39033810  0.40262508  1
  O  O49  1  0.60966190  0.72402259  0.09737492  1
  O  O50  1  0.72402259  0.60966190  0.59737492  1
  O  O51  1  0.39033810  0.27597741  0.90262508  1
  O  O52  1  0.43560361  0.23031702  0.54184861  1
  O  O53  1  0.76968298  0.56439639  0.95815139  1
  O  O54  1  0.56439639  0.76968298  0.45815139  1
  O  O55  1  0.23031702  0.43560361  0.04184861  1
