# generated using pymatgen
data_Nb2Pb2Se4O15
_symmetry_space_group_name_H-M   'P 1'
_cell_length_a   7.18774476
_cell_length_b   7.87915181
_cell_length_c   13.98835254
_cell_angle_alpha   94.27225462
_cell_angle_beta   104.88731978
_cell_angle_gamma   90.00000000
_symmetry_Int_Tables_number   1
_chemical_formula_structural   Nb2Pb2Se4O15
_chemical_formula_sum   'Nb4 Pb4 Se8 O30'
_cell_volume   763.33700509
_cell_formula_units_Z   2
loop_
 _symmetry_equiv_pos_site_id
 _symmetry_equiv_pos_as_xyz
  1  'x, y, z'
loop_
 _atom_site_type_symbol
 _atom_site_label
 _atom_site_symmetry_multiplicity
 _atom_site_fract_x
 _atom_site_fract_y
 _atom_site_fract_z
 _atom_site_occupancy
  Nb  Nb0  1  0.07833151  0.73726342  0.14203234  1
  Nb  Nb1  1  0.93629918  0.76273658  0.85796766  1
  Nb  Nb2  1  0.92166849  0.26273658  0.85796766  1
  Nb  Nb3  1  0.06370082  0.23726342  0.14203234  1
  Pb  Pb4  1  0.18748087  0.68364290  0.59317102  1
  Pb  Pb5  1  0.59430985  0.81635710  0.40682898  1
  Pb  Pb6  1  0.81251913  0.31635710  0.40682898  1
  Pb  Pb7  1  0.40569015  0.18364290  0.59317102  1
  Se  Se8  1  0.08079846  0.93731757  0.37779901  1
  Se  Se9  1  0.70299945  0.56268243  0.62220099  1
  Se  Se10  1  0.91920154  0.06268243  0.62220099  1
  Se  Se11  1  0.29700055  0.43731757  0.37779901  1
  Se  Se12  1  0.65713521  0.51363721  0.15857839  1
  Se  Se13  1  0.49855682  0.98636279  0.84142161  1
  Se  Se14  1  0.34286479  0.48636279  0.84142161  1
  Se  Se15  1  0.50144318  0.01363721  0.15857839  1
  O  O16  1  0.95245884  0.81296504  0.43465886  1
  O  O17  1  0.51779998  0.68703496  0.56534114  1
  O  O18  1  0.04754116  0.18703496  0.56534114  1
  O  O19  1  0.48220002  0.31296504  0.43465886  1
  O  O20  1  0.29796848  0.95023204  0.46808493  1
  O  O21  1  0.82988355  0.54976796  0.53191507  1
  O  O22  1  0.70203152  0.04976796  0.53191507  1
  O  O23  1  0.17011645  0.45023204  0.46808493  1
  O  O24  1  0.15499630  0.78665380  0.29723594  1
  O  O25  1  0.85776035  0.71334620  0.70276406  1
  O  O26  1  0.84500370  0.21334620  0.70276406  1
  O  O27  1  0.14223965  0.28665380  0.29723594  1
  O  O28  1  0.79983169  0.33608631  0.15039932  1
  O  O29  1  0.64943237  0.16391369  0.84960068  1
  O  O30  1  0.20016831  0.66391369  0.84960068  1
  O  O31  1  0.35056763  0.83608631  0.15039932  1
  O  O32  1  0.65987039  0.53073104  0.28033048  1
  O  O33  1  0.37953991  0.96926896  0.71966952  1
  O  O34  1  0.34012961  0.46926896  0.71966952  1
  O  O35  1  0.62046009  0.03073104  0.28033048  1
  O  O36  1  0.80391559  0.68887306  0.14845826  1
  O  O37  1  0.65545733  0.81112694  0.85154174  1
  O  O38  1  0.19608441  0.31112694  0.85154174  1
  O  O39  1  0.34454267  0.18887306  0.14845826  1
  O  O40  1  0.14905787  0.51584586  0.14956641  1
  O  O41  1  0.99949146  0.98415414  0.85043359  1
  O  O42  1  0.85094213  0.48415414  0.85043359  1
  O  O43  1  0.00050854  0.01584586  0.14956641  1
  O  O44  1  0.00357873  0.75000000  0.00000000  1
  O  O45  1  0.99642127  0.25000000  0.00000000  1
