# generated using pymatgen
data_CsInTe2
_symmetry_space_group_name_H-M   'P 1'
_cell_length_a   9.07172575
_cell_length_b   9.07172575
_cell_length_c   18.36186726
_cell_angle_alpha   97.08926092
_cell_angle_beta   97.08926092
_cell_angle_gamma   90.03090709
_symmetry_Int_Tables_number   1
_chemical_formula_structural   CsInTe2
_chemical_formula_sum   'Cs8 In8 Te16'
_cell_volume   1487.90488754
_cell_formula_units_Z   8
loop_
 _symmetry_equiv_pos_site_id
 _symmetry_equiv_pos_as_xyz
  1  'x, y, z'
loop_
 _atom_site_type_symbol
 _atom_site_label
 _atom_site_symmetry_multiplicity
 _atom_site_fract_x
 _atom_site_fract_y
 _atom_site_fract_z
 _atom_site_occupancy
  Cs  Cs0  1  0.77849926  0.65272887  0.11166572  1
  Cs  Cs1  1  0.34727113  0.22150074  0.38833428  1
  Cs  Cs2  1  0.22150074  0.34727113  0.88833428  1
  Cs  Cs3  1  0.65272887  0.77849926  0.61166572  1
  Cs  Cs4  1  0.84864796  0.22331195  0.39617031  1
  Cs  Cs5  1  0.77668805  0.15135204  0.10382969  1
  Cs  Cs6  1  0.15135204  0.77668805  0.60382969  1
  Cs  Cs7  1  0.22331195  0.84864796  0.89617031  1
  In  In8  1  0.08539694  0.70901451  0.33416289  1
  In  In9  1  0.29098549  0.91460306  0.16583711  1
  In  In10  1  0.91460306  0.29098549  0.66583711  1
  In  In11  1  0.70901451  0.08539694  0.83416289  1
  In  In12  1  0.29116798  0.41856219  0.16680054  1
  In  In13  1  0.58143781  0.70883202  0.33319946  1
  In  In14  1  0.70883202  0.58143781  0.83319946  1
  In  In15  1  0.41856219  0.29116798  0.66680054  1
  Te  Te16  1  0.26686124  0.64179642  0.07060008  1
  Te  Te17  1  0.35820358  0.73313876  0.42939992  1
  Te  Te18  1  0.73313876  0.35820358  0.92939992  1
  Te  Te19  1  0.64179642  0.26686124  0.57060008  1
  Te  Te20  1  0.85633398  0.73316016  0.42818858  1
  Te  Te21  1  0.26683984  0.14366602  0.07181142  1
  Te  Te22  1  0.14366602  0.26683984  0.57181142  1
  Te  Te23  1  0.73316016  0.85633398  0.92818858  1
  Te  Te24  1  0.05053844  0.42589412  0.25069393  1
  Te  Te25  1  0.57410588  0.94946156  0.24930607  1
  Te  Te26  1  0.94946156  0.57410588  0.74930607  1
  Te  Te27  1  0.42589412  0.05053844  0.75069393  1
  Te  Te28  1  0.05049376  0.94950624  0.25000000  1
  Te  Te29  1  0.94950624  0.05049376  0.75000000  1
  Te  Te30  1  0.57448721  0.42551279  0.25000000  1
  Te  Te31  1  0.42551279  0.57448721  0.75000000  1
