# generated using pymatgen
data_NaFeP2(O3F)2
_symmetry_space_group_name_H-M   'P 1'
_cell_length_a   6.56675438
_cell_length_b   6.55292606
_cell_length_c   14.40797065
_cell_angle_alpha   90.00000000
_cell_angle_beta   90.00000000
_cell_angle_gamma   96.05316590
_symmetry_Int_Tables_number   1
_chemical_formula_structural   NaFeP2(O3F)2
_chemical_formula_sum   'Na4 Fe4 P8 O24 F8'
_cell_volume   616.53914996
_cell_formula_units_Z   4
loop_
 _symmetry_equiv_pos_site_id
 _symmetry_equiv_pos_as_xyz
  1  'x, y, z'
loop_
 _atom_site_type_symbol
 _atom_site_label
 _atom_site_symmetry_multiplicity
 _atom_site_fract_x
 _atom_site_fract_y
 _atom_site_fract_z
 _atom_site_occupancy
  Na  Na0  1  0.99560561  0.31007288  0.07653070  1
  Na  Na1  1  0.50439439  0.68992712  0.57653070  1
  Na  Na2  1  0.00439439  0.68992712  0.92346930  1
  Na  Na3  1  0.49560561  0.31007288  0.42346930  1
  Fe  Fe4  1  0.63513070  0.27074179  0.89108626  1
  Fe  Fe5  1  0.86486930  0.72925821  0.39108626  1
  Fe  Fe6  1  0.36486930  0.72925821  0.10891374  1
  Fe  Fe7  1  0.13513070  0.27074179  0.60891374  1
  P  P8  1  0.13113945  0.22917514  0.84461262  1
  P  P9  1  0.36886055  0.77082486  0.34461262  1
  P  P10  1  0.86886055  0.77082486  0.15538738  1
  P  P11  1  0.63113945  0.22917514  0.65538738  1
  P  P12  1  0.48060432  0.24501025  0.10636617  1
  P  P13  1  0.01939568  0.75498975  0.60636617  1
  P  P14  1  0.51939568  0.75498975  0.89363383  1
  P  P15  1  0.98060432  0.24501025  0.39363383  1
  O  O16  1  0.64938957  0.25955244  0.03234069  1
  O  O17  1  0.85061043  0.74044756  0.53234069  1
  O  O18  1  0.35061043  0.74044756  0.96765931  1
  O  O19  1  0.14938957  0.25955244  0.46765931  1
  O  O20  1  0.36159410  0.03464337  0.11705012  1
  O  O21  1  0.13840590  0.96535663  0.61705012  1
  O  O22  1  0.63840590  0.96535663  0.88294988  1
  O  O23  1  0.86159410  0.03464337  0.38294988  1
  O  O24  1  0.33065700  0.25340743  0.89838748  1
  O  O25  1  0.16934300  0.74659257  0.39838748  1
  O  O26  1  0.66934300  0.74659257  0.10161252  1
  O  O27  1  0.83065700  0.25340743  0.60161252  1
  O  O28  1  0.33770471  0.41382061  0.10102801  1
  O  O29  1  0.16229529  0.58617939  0.60102801  1
  O  O30  1  0.66229529  0.58617939  0.89897199  1
  O  O31  1  0.83770471  0.41382061  0.39897199  1
  O  O32  1  0.14378400  0.30186626  0.74527453  1
  O  O33  1  0.35621600  0.69813374  0.24527453  1
  O  O34  1  0.85621600  0.69813374  0.25472547  1
  O  O35  1  0.64378400  0.30186626  0.75472547  1
  O  O36  1  0.95914538  0.31020718  0.90187421  1
  O  O37  1  0.54085462  0.68979282  0.40187421  1
  O  O38  1  0.04085462  0.68979282  0.09812579  1
  O  O39  1  0.45914538  0.31020718  0.59812579  1
  F  F40  1  0.93034342  0.01353113  0.16066586  1
  F  F41  1  0.56965658  0.98646887  0.66066586  1
  F  F42  1  0.06965658  0.98646887  0.83933414  1
  F  F43  1  0.43034342  0.01353113  0.33933414  1
  F  F44  1  0.60760344  0.28696332  0.19985026  1
  F  F45  1  0.89239656  0.71303668  0.69985026  1
  F  F46  1  0.39239656  0.71303668  0.80014974  1
  F  F47  1  0.10760344  0.28696332  0.30014974  1
