# generated using pymatgen
data_CsReS2
_symmetry_space_group_name_H-M   'P 1'
_cell_length_a   11.51478720
_cell_length_b   11.85120728
_cell_length_c   21.20945493
_cell_angle_alpha   90.00000000
_cell_angle_beta   90.00000000
_cell_angle_gamma   90.00000000
_symmetry_Int_Tables_number   1
_chemical_formula_structural   CsReS2
_chemical_formula_sum   'Cs24 Re24 S48'
_cell_volume   2894.32981251
_cell_formula_units_Z   24
loop_
 _symmetry_equiv_pos_site_id
 _symmetry_equiv_pos_as_xyz
  1  'x, y, z'
loop_
 _atom_site_type_symbol
 _atom_site_label
 _atom_site_symmetry_multiplicity
 _atom_site_fract_x
 _atom_site_fract_y
 _atom_site_fract_z
 _atom_site_occupancy
  Cs  Cs0  1  0.00440102  0.64282825  0.15867182  1
  Cs  Cs1  1  0.49559898  0.14282825  0.34132818  1
  Cs  Cs2  1  0.99559898  0.35717175  0.65867182  1
  Cs  Cs3  1  0.50440102  0.85717175  0.84132818  1
  Cs  Cs4  1  0.99559898  0.35717175  0.84132818  1
  Cs  Cs5  1  0.50440102  0.85717175  0.65867182  1
  Cs  Cs6  1  0.00440102  0.64282825  0.34132818  1
  Cs  Cs7  1  0.49559898  0.14282825  0.15867182  1
  Cs  Cs8  1  0.26759871  0.91712341  0.07083222  1
  Cs  Cs9  1  0.23240129  0.41712341  0.42916778  1
  Cs  Cs10  1  0.73240129  0.08287659  0.57083222  1
  Cs  Cs11  1  0.76759871  0.58287659  0.92916778  1
  Cs  Cs12  1  0.73240129  0.08287659  0.92916778  1
  Cs  Cs13  1  0.76759871  0.58287659  0.57083222  1
  Cs  Cs14  1  0.26759871  0.91712341  0.42916778  1
  Cs  Cs15  1  0.23240129  0.41712341  0.07083222  1
  Cs  Cs16  1  0.80572569  0.86577786  0.07891598  1
  Cs  Cs17  1  0.69427431  0.36577786  0.42108402  1
  Cs  Cs18  1  0.19427431  0.13422214  0.57891598  1
  Cs  Cs19  1  0.30572569  0.63422214  0.92108402  1
  Cs  Cs20  1  0.19427431  0.13422214  0.92108402  1
  Cs  Cs21  1  0.30572569  0.63422214  0.57891598  1
  Cs  Cs22  1  0.80572569  0.86577786  0.42108402  1
  Cs  Cs23  1  0.69427431  0.36577786  0.07891598  1
  Re  Re24  1  0.85853887  0.23024840  0.25000000  1
  Re  Re25  1  0.64146113  0.73024840  0.25000000  1
  Re  Re26  1  0.14146113  0.76975160  0.75000000  1
  Re  Re27  1  0.35853887  0.26975160  0.75000000  1
  Re  Re28  1  0.41891187  0.78652930  0.25000000  1
  Re  Re29  1  0.08108813  0.28652930  0.25000000  1
  Re  Re30  1  0.58108813  0.21347070  0.75000000  1
  Re  Re31  1  0.91891187  0.71347070  0.75000000  1
  Re  Re32  1  0.36155776  0.56957878  0.25000000  1
  Re  Re33  1  0.13844224  0.06957878  0.25000000  1
  Re  Re34  1  0.63844224  0.43042122  0.75000000  1
  Re  Re35  1  0.86155776  0.93042122  0.75000000  1
  Re  Re36  1  0.91657622  0.01396216  0.25000000  1
  Re  Re37  1  0.58342378  0.51396216  0.25000000  1
  Re  Re38  1  0.08342378  0.98603784  0.75000000  1
  Re  Re39  1  0.41657622  0.48603784  0.75000000  1
  Re  Re40  1  0.99891403  0.15138527  0.16027584  1
  Re  Re41  1  0.50108597  0.65138527  0.33972416  1
  Re  Re42  1  0.00108597  0.84861473  0.66027584  1
  Re  Re43  1  0.49891403  0.34861473  0.83972416  1
  Re  Re44  1  0.00108597  0.84861473  0.83972416  1
  Re  Re45  1  0.49891403  0.34861473  0.66027584  1
  Re  Re46  1  0.99891403  0.15138527  0.33972416  1
  Re  Re47  1  0.50108597  0.65138527  0.16027584  1
  S  S48  1  0.05091488  0.95068368  0.16995874  1
  S  S49  1  0.44908512  0.45068368  0.33004126  1
  S  S50  1  0.94908512  0.04931632  0.66995874  1
  S  S51  1  0.55091488  0.54931632  0.83004126  1
  S  S52  1  0.94908512  0.04931632  0.83004126  1
  S  S53  1  0.55091488  0.54931632  0.66995874  1
  S  S54  1  0.05091488  0.95068368  0.33004126  1
  S  S55  1  0.44908512  0.45068368  0.16995874  1
  S  S56  1  0.29625878  0.70073469  0.33035520  1
  S  S57  1  0.20374122  0.20073469  0.16964480  1
  S  S58  1  0.70374122  0.29926531  0.83035520  1
  S  S59  1  0.79625878  0.79926531  0.66964480  1
  S  S60  1  0.70374122  0.29926531  0.66964480  1
  S  S61  1  0.79625878  0.79926531  0.83035520  1
  S  S62  1  0.29625878  0.70073469  0.16964480  1
  S  S63  1  0.20374122  0.20073469  0.33035520  1
  S  S64  1  0.94576668  0.34875889  0.16950956  1
  S  S65  1  0.55423332  0.84875889  0.33049044  1
  S  S66  1  0.05423332  0.65124111  0.66950956  1
  S  S67  1  0.44576668  0.15124111  0.83049044  1
  S  S68  1  0.05423332  0.65124111  0.83049044  1
  S  S69  1  0.44576668  0.15124111  0.66950956  1
  S  S70  1  0.94576668  0.34875889  0.33049044  1
  S  S71  1  0.55423332  0.84875889  0.16950956  1
  S  S72  1  0.79404174  0.09865294  0.16917008  1
  S  S73  1  0.70595826  0.59865294  0.33082992  1
  S  S74  1  0.20595826  0.90134706  0.66917008  1
  S  S75  1  0.29404174  0.40134706  0.83082992  1
  S  S76  1  0.20595826  0.90134706  0.83082992  1
  S  S77  1  0.29404174  0.40134706  0.66917008  1
  S  S78  1  0.79404174  0.09865294  0.33082992  1
  S  S79  1  0.70595826  0.59865294  0.16917008  1
  S  S80  1  0.50025568  0.66065468  0.04658164  1
  S  S81  1  -0.00025568  0.16065468  0.45341836  1
  S  S82  1  0.49974432  0.33934532  0.54658164  1
  S  S83  1  0.00025568  0.83934532  0.95341836  1
  S  S84  1  0.49974432  0.33934532  0.95341836  1
  S  S85  1  0.00025568  0.83934532  0.54658164  1
  S  S86  1  0.50025568  0.66065468  0.45341836  1
  S  S87  1  -0.00025568  0.16065468  0.04658164  1
  S  S88  1  0.83583604  0.81814555  0.25000000  1
  S  S89  1  0.66416396  0.31814555  0.25000000  1
  S  S90  1  0.16416396  0.18185445  0.75000000  1
  S  S91  1  0.33583604  0.68185445  0.75000000  1
  S  S92  1  0.33162539  0.97762886  0.25000000  1
  S  S93  1  0.16837461  0.47762886  0.25000000  1
  S  S94  1  0.66837461  0.02237114  0.75000000  1
  S  S95  1  0.83162539  0.52237114  0.75000000  1
