# generated using pymatgen
data_NaSm(PO3)4
_symmetry_space_group_name_H-M   'P 1'
_cell_length_a   7.28379350
_cell_length_b   9.97956107
_cell_length_c   13.24947917
_cell_angle_alpha   90.00000000
_cell_angle_beta   90.00000000
_cell_angle_gamma   90.45465109
_symmetry_Int_Tables_number   1
_chemical_formula_structural   NaSm(PO3)4
_chemical_formula_sum   'Na4 Sm4 P16 O48'
_cell_volume   963.06189270
_cell_formula_units_Z   4
loop_
 _symmetry_equiv_pos_site_id
 _symmetry_equiv_pos_as_xyz
  1  'x, y, z'
loop_
 _atom_site_type_symbol
 _atom_site_label
 _atom_site_symmetry_multiplicity
 _atom_site_fract_x
 _atom_site_fract_y
 _atom_site_fract_z
 _atom_site_occupancy
  Na  Na0  1  0.49960459  0.06454899  0.77820105  1
  Na  Na1  1  0.99960459  0.56454899  0.72179895  1
  Na  Na2  1  0.50039541  0.93545101  0.22179895  1
  Na  Na3  1  0.00039541  0.43545101  0.27820105  1
  Sm  Sm4  1  0.01287384  0.97697628  0.78158168  1
  Sm  Sm5  1  0.51287384  0.47697628  0.71841832  1
  Sm  Sm6  1  0.98712616  0.02302372  0.21841832  1
  Sm  Sm7  1  0.48712616  0.52302372  0.28158168  1
  P  P8  1  0.74967658  0.24350809  0.89904608  1
  P  P9  1  0.24967658  0.74350809  0.60095392  1
  P  P10  1  0.25032342  0.75649191  0.10095392  1
  P  P11  1  0.75032342  0.25649191  0.39904608  1
  P  P12  1  0.37808778  0.76378215  0.88510534  1
  P  P13  1  0.87808778  0.26378215  0.61489466  1
  P  P14  1  0.62191222  0.23621785  0.11489466  1
  P  P15  1  0.12191222  0.73621785  0.38510534  1
  P  P16  1  0.76864956  0.69835764  0.90942206  1
  P  P17  1  0.26864956  0.19835764  0.59057794  1
  P  P18  1  0.23135044  0.30164236  0.09057794  1
  P  P19  1  0.73135044  0.80164236  0.40942206  1
  P  P20  1  0.14597664  0.30404427  0.87223222  1
  P  P21  1  0.64597664  0.80404427  0.62776778  1
  P  P22  1  0.85402336  0.69595573  0.12776778  1
  P  P23  1  0.35402336  0.19595573  0.37223222  1
  O  O24  1  0.73774271  0.58243126  0.83894721  1
  O  O25  1  0.23774271  0.08243126  0.66105279  1
  O  O26  1  0.26225729  0.41756874  0.16105279  1
  O  O27  1  0.76225729  0.91756874  0.33894721  1
  O  O28  1  0.21839251  0.39528149  0.79069418  1
  O  O29  1  0.71839251  0.89528149  0.70930582  1
  O  O30  1  0.78160749  0.60471851  0.20930582  1
  O  O31  1  0.28160749  0.10471851  0.29069418  1
  O  O32  1  0.78364355  0.63515814  0.02160081  1
  O  O33  1  0.28364355  0.13515814  0.47839919  1
  O  O34  1  0.21635645  0.36484186  0.97839919  1
  O  O35  1  0.71635645  0.86484186  0.52160081  1
  O  O36  1  0.30284847  0.89744940  0.85418686  1
  O  O37  1  0.80284847  0.39744940  0.64581314  1
  O  O38  1  0.69715153  0.10255060  0.14581314  1
  O  O39  1  0.19715153  0.60255060  0.35418686  1
  O  O40  1  0.59492496  0.29636095  0.83477169  1
  O  O41  1  0.09492496  0.79636095  0.66522831  1
  O  O42  1  0.40507504  0.70363905  0.16522831  1
  O  O43  1  0.90507504  0.20363905  0.33477169  1
  O  O44  1  0.58760302  0.79006912  0.91964747  1
  O  O45  1  0.08760302  0.29006912  0.58035253  1
  O  O46  1  0.41239698  0.20993088  0.08035253  1
  O  O47  1  0.91239698  0.70993088  0.41964747  1
  O  O48  1  0.71558900  0.29002809  0.01348432  1
  O  O49  1  0.21558900  0.79002809  0.48651568  1
  O  O50  1  0.28441100  0.70997191  0.98651568  1
  O  O51  1  0.78441100  0.20997191  0.51348432  1
  O  O52  1  0.17860978  0.15618594  0.86638503  1
  O  O53  1  0.67860978  0.65618594  0.63361497  1
  O  O54  1  0.82139022  0.84381406  0.13361497  1
  O  O55  1  0.32139022  0.34381406  0.36638503  1
  O  O56  1  0.36775217  0.65070639  0.81090895  1
  O  O57  1  0.86775217  0.15070639  0.68909105  1
  O  O58  1  0.63224783  0.34929361  0.18909105  1
  O  O59  1  0.13224783  0.84929361  0.31090895  1
  O  O60  1  0.78702090  0.09560821  0.89161916  1
  O  O61  1  0.28702090  0.59560821  0.60838084  1
  O  O62  1  0.21297910  0.90439179  0.10838084  1
  O  O63  1  0.71297910  0.40439179  0.39161916  1
  O  O64  1  0.92859935  0.33364834  0.87630531  1
  O  O65  1  0.42859935  0.83364834  0.62369469  1
  O  O66  1  0.07140065  0.66635166  0.12369469  1
  O  O67  1  0.57140065  0.16635166  0.37630531  1
  O  O68  1  0.92766946  0.79122125  0.88873492  1
  O  O69  1  0.42766946  0.29122125  0.61126508  1
  O  O70  1  0.07233054  0.20877875  0.11126508  1
  O  O71  1  0.57233054  0.70877875  0.38873492  1
