# generated using pymatgen
data_Rb2Fe2As2O9
_symmetry_space_group_name_H-M   'P 1'
_cell_length_a   5.88347331
_cell_length_b   8.70303266
_cell_length_c   19.10946389
_cell_angle_alpha   90.00000000
_cell_angle_beta   90.00000000
_cell_angle_gamma   90.00000000
_symmetry_Int_Tables_number   1
_chemical_formula_structural   Rb2Fe2As2O9
_chemical_formula_sum   'Rb8 Fe8 As8 O36'
_cell_volume   978.48214268
_cell_formula_units_Z   4
loop_
 _symmetry_equiv_pos_site_id
 _symmetry_equiv_pos_as_xyz
  1  'x, y, z'
loop_
 _atom_site_type_symbol
 _atom_site_label
 _atom_site_symmetry_multiplicity
 _atom_site_fract_x
 _atom_site_fract_y
 _atom_site_fract_z
 _atom_site_occupancy
  Rb  Rb0  1  0.75000000  0.61132852  0.36150107  1
  Rb  Rb1  1  0.75000000  0.11132852  0.13849893  1
  Rb  Rb2  1  0.25000000  0.38867148  0.63849893  1
  Rb  Rb3  1  0.25000000  0.88867148  0.86150107  1
  Rb  Rb4  1  0.75000000  0.49368761  0.77507335  1
  Rb  Rb5  1  0.75000000  -0.00631239  0.72492665  1
  Rb  Rb6  1  0.25000000  0.50631239  0.22492665  1
  Rb  Rb7  1  0.25000000  0.00631239  0.27507335  1
  Fe  Fe8  1  0.75000000  0.21519348  0.93837878  1
  Fe  Fe9  1  0.75000000  0.71519348  0.56162122  1
  Fe  Fe10  1  0.25000000  0.78480652  0.06162122  1
  Fe  Fe11  1  0.25000000  0.28480652  0.43837878  1
  Fe  Fe12  1  -0.00000000  0.50000000  -0.00000000  1
  Fe  Fe13  1  0.50000000  -0.00000000  0.50000000  1
  Fe  Fe14  1  0.50000000  0.50000000  -0.00000000  1
  Fe  Fe15  1  0.00000000  -0.00000000  0.50000000  1
  As  As16  1  0.75000000  0.68163274  0.14030593  1
  As  As17  1  0.75000000  0.18163274  0.35969407  1
  As  As18  1  0.25000000  0.31836726  0.85969407  1
  As  As19  1  0.25000000  0.81836726  0.64030593  1
  As  As20  1  0.75000000  0.82172496  0.94388336  1
  As  As21  1  0.75000000  0.32172496  0.55611664  1
  As  As22  1  0.25000000  0.17827504  0.05611664  1
  As  As23  1  0.25000000  0.67827504  0.44388336  1
  O  O24  1  0.75000000  0.44222119  0.93760574  1
  O  O25  1  0.75000000  0.94222119  0.56239426  1
  O  O26  1  0.25000000  0.55777881  0.06239426  1
  O  O27  1  0.25000000  0.05777881  0.43760574  1
  O  O28  1  0.75000000  0.53928830  0.07415171  1
  O  O29  1  0.75000000  0.03928830  0.42584829  1
  O  O30  1  0.25000000  0.46071170  0.92584829  1
  O  O31  1  0.25000000  0.96071170  0.57415171  1
  O  O32  1  0.99243965  0.73248713  0.97846547  1
  O  O33  1  0.50756035  0.23248713  0.52153453  1
  O  O34  1  0.49243965  0.26751287  0.02153453  1
  O  O35  1  0.00756035  0.76751287  0.47846547  1
  O  O36  1  0.00756035  0.26751287  0.02153453  1
  O  O37  1  0.49243965  0.76751287  0.47846547  1
  O  O38  1  0.50756035  0.73248713  0.97846547  1
  O  O39  1  0.99243965  0.23248713  0.52153453  1
  O  O40  1  0.75000000  0.00679721  0.97393452  1
  O  O41  1  0.75000000  0.50679721  0.52606548  1
  O  O42  1  0.25000000  0.99320279  0.02606548  1
  O  O43  1  0.25000000  0.49320279  0.47393452  1
  O  O44  1  0.99011615  0.79736702  0.13183864  1
  O  O45  1  0.50988385  0.29736702  0.36816136  1
  O  O46  1  0.49011615  0.20263298  0.86816136  1
  O  O47  1  0.00988385  0.70263298  0.63183864  1
  O  O48  1  0.00988385  0.20263298  0.86816136  1
  O  O49  1  0.49011615  0.70263298  0.63183864  1
  O  O50  1  0.50988385  0.79736702  0.13183864  1
  O  O51  1  0.99011615  0.29736702  0.36816136  1
  O  O52  1  0.75000000  0.80836663  0.85583280  1
  O  O53  1  0.75000000  0.30836663  0.64416720  1
  O  O54  1  0.25000000  0.19163337  0.14416720  1
  O  O55  1  0.25000000  0.69163337  0.35583280  1
  O  O56  1  0.75000000  0.59077580  0.21770486  1
  O  O57  1  0.75000000  0.09077580  0.28229514  1
  O  O58  1  0.25000000  0.40922420  0.78229514  1
  O  O59  1  0.25000000  0.90922420  0.71770486  1
