# generated using pymatgen
data_DyAgS2
_symmetry_space_group_name_H-M   'P 1'
_cell_length_a   7.63636333
_cell_length_b   7.64471089
_cell_length_c   12.71427328
_cell_angle_alpha   89.91027495
_cell_angle_beta   90.00000000
_cell_angle_gamma   90.00000000
_symmetry_Int_Tables_number   1
_chemical_formula_structural   DyAgS2
_chemical_formula_sum   'Dy8 Ag8 S16'
_cell_volume   742.23026419
_cell_formula_units_Z   8
loop_
 _symmetry_equiv_pos_site_id
 _symmetry_equiv_pos_as_xyz
  1  'x, y, z'
loop_
 _atom_site_type_symbol
 _atom_site_label
 _atom_site_symmetry_multiplicity
 _atom_site_fract_x
 _atom_site_fract_y
 _atom_site_fract_z
 _atom_site_occupancy
  Dy  Dy0  1  0.49575840  0.25350735  0.99656340  1
  Dy  Dy1  1  0.99575840  0.74649265  0.00343660  1
  Dy  Dy2  1  0.74347113  0.99818722  0.24625086  1
  Dy  Dy3  1  0.24347113  0.00181278  0.75374914  1
  Dy  Dy4  1  0.25135692  0.49796871  0.25293461  1
  Dy  Dy5  1  0.75135692  0.50203129  0.74706539  1
  Dy  Dy6  1  0.99739584  0.24732597  0.49681565  1
  Dy  Dy7  1  0.49739584  0.75267403  0.50318435  1
  Ag  Ag8  1  0.74823771  0.50131527  0.20997554  1
  Ag  Ag9  1  0.24823771  0.49868473  0.79002446  1
  Ag  Ag10  1  0.24734654  0.00238934  0.30317652  1
  Ag  Ag11  1  0.74734654  0.99761066  0.69682348  1
  Ag  Ag12  1  0.99700399  0.24576051  0.96882751  1
  Ag  Ag13  1  0.49700399  0.75423949  0.03117249  1
  Ag  Ag14  1  0.49803023  0.25484506  0.47190374  1
  Ag  Ag15  1  0.99803023  0.74515494  0.52809626  1
  S  S16  1  0.22317685  0.97591178  0.53603455  1
  S  S17  1  0.72317685  0.02408822  0.46396545  1
  S  S18  1  0.76782288  0.52013738  0.52874733  1
  S  S19  1  0.26782288  0.47986262  0.47125267  1
  S  S20  1  0.47722878  0.27189530  0.77845594  1
  S  S21  1  0.97722878  0.72810470  0.22154406  1
  S  S22  1  0.52062182  0.27180061  0.21312154  1
  S  S23  1  0.02062182  0.72819939  0.78687846  1
  S  S24  1  0.01788842  0.22776187  0.27918964  1
  S  S25  1  0.51788842  0.77223813  0.72081036  1
  S  S26  1  0.47421916  0.77196157  0.28684856  1
  S  S27  1  0.97421916  0.22803843  0.71315144  1
  S  S28  1  0.72711601  0.98074869  0.02898663  1
  S  S29  1  0.22711601  0.01925131  0.97101337  1
  S  S30  1  0.27032531  0.52369201  0.03619098  1
  S  S31  1  0.77032531  0.47630799  0.96380902  1
