# generated using pymatgen
data_Cs2PH3SeO8
_symmetry_space_group_name_H-M   'P 1'
_cell_length_a   8.03139884
_cell_length_b   10.36491847
_cell_length_c   12.48301753
_cell_angle_alpha   90.81825411
_cell_angle_beta   90.00000000
_cell_angle_gamma   90.00000000
_symmetry_Int_Tables_number   1
_chemical_formula_structural   Cs2PH3SeO8
_chemical_formula_sum   'Cs8 P4 H12 Se4 O32'
_cell_volume   1039.04025791
_cell_formula_units_Z   4
loop_
 _symmetry_equiv_pos_site_id
 _symmetry_equiv_pos_as_xyz
  1  'x, y, z'
loop_
 _atom_site_type_symbol
 _atom_site_label
 _atom_site_symmetry_multiplicity
 _atom_site_fract_x
 _atom_site_fract_y
 _atom_site_fract_z
 _atom_site_occupancy
  Cs  Cs0  1  0.16492199  0.83500926  0.55398958  1
  Cs  Cs1  1  0.66492199  0.66499074  0.44601042  1
  Cs  Cs2  1  0.83507801  0.16499074  0.44601042  1
  Cs  Cs3  1  0.33507801  0.33500926  0.55398958  1
  Cs  Cs4  1  0.16164152  0.32537139  0.06156232  1
  Cs  Cs5  1  0.66164152  0.17462861  0.93843768  1
  Cs  Cs6  1  0.83835848  0.67462861  0.93843768  1
  Cs  Cs7  1  0.33835848  0.82537139  0.06156232  1
  P  P8  1  0.16787092  0.57407783  0.32524044  1
  P  P9  1  0.66787092  0.92592217  0.67475956  1
  P  P10  1  0.83212908  0.42592217  0.67475956  1
  P  P11  1  0.33212908  0.07407783  0.32524044  1
  H  H12  1  0.37683465  0.57001527  0.20241713  1
  H  H13  1  0.87683465  0.92998473  0.79758287  1
  H  H14  1  0.62316535  0.42998473  0.79758287  1
  H  H15  1  0.12316535  0.07001527  0.20241713  1
  H  H16  1  0.99484522  0.26580203  0.74243114  1
  H  H17  1  0.49484522  0.23419797  0.25756886  1
  H  H18  1  0.00515478  0.73419797  0.25756886  1
  H  H19  1  0.50515478  0.76580203  0.74243114  1
  H  H20  1  0.94972473  0.43769258  0.31065218  1
  H  H21  1  0.44972473  0.06230742  0.68934782  1
  H  H22  1  0.05027527  0.56230742  0.68934782  1
  H  H23  1  0.55027527  0.93769258  0.31065218  1
  Se  Se24  1  0.16630573  0.06792456  0.82360258  1
  Se  Se25  1  0.66630573  0.43207544  0.17639742  1
  Se  Se26  1  0.83369427  0.93207544  0.17639742  1
  Se  Se27  1  0.33369427  0.56792456  0.82360258  1
  O  O28  1  0.29104081  0.58810939  0.41471881  1
  O  O29  1  0.79104081  0.91189061  0.58528119  1
  O  O30  1  0.70895919  0.41189061  0.58528119  1
  O  O31  1  0.20895919  0.08810939  0.41471881  1
  O  O32  1  0.02946642  0.68209141  0.32749144  1
  O  O33  1  0.52946642  0.81790859  0.67250856  1
  O  O34  1  0.97053358  0.31790859  0.67250856  1
  O  O35  1  0.47053358  0.18209141  0.32749144  1
  O  O36  1  0.07339170  0.44008933  0.33297000  1
  O  O37  1  0.57339170  0.05991067  0.66703000  1
  O  O38  1  0.92660830  0.55991067  0.66703000  1
  O  O39  1  0.42660830  0.94008933  0.33297000  1
  O  O40  1  0.24798083  0.57900663  0.20949451  1
  O  O41  1  0.74798083  0.92099337  0.79050549  1
  O  O42  1  0.75201917  0.42099337  0.79050549  1
  O  O43  1  0.25201917  0.07900663  0.20949451  1
  O  O44  1  0.30306248  0.07247148  0.92312440  1
  O  O45  1  0.80306248  0.42752852  0.07687560  1
  O  O46  1  0.69693752  0.92752852  0.07687560  1
  O  O47  1  0.19693752  0.57247148  0.92312440  1
  O  O48  1  0.26130984  0.08262241  0.70415716  1
  O  O49  1  0.76130984  0.41737759  0.29584284  1
  O  O50  1  0.73869016  0.91737759  0.29584284  1
  O  O51  1  0.23869016  0.58262241  0.70415716  1
  O  O52  1  0.02906416  0.19054598  0.84001911  1
  O  O53  1  0.52906416  0.30945402  0.15998089  1
  O  O54  1  0.97093584  0.80945402  0.15998089  1
  O  O55  1  0.47093584  0.69054598  0.84001911  1
  O  O56  1  0.06032766  0.92751610  0.82394726  1
  O  O57  1  0.56032766  0.57248390  0.17605274  1
  O  O58  1  0.93967234  0.07248390  0.17605274  1
  O  O59  1  0.43967234  0.42751610  0.82394726  1
