# generated using pymatgen
data_Ge3Rh2S3
_symmetry_space_group_name_H-M   'P 1'
_cell_length_a   8.38681591
_cell_length_b   8.38681642
_cell_length_c   8.38681591
_cell_angle_alpha   89.90577380
_cell_angle_beta   90.09422677
_cell_angle_gamma   90.09422620
_symmetry_Int_Tables_number   1
_chemical_formula_structural   Ge3Rh2S3
_chemical_formula_sum   'Ge12 Rh8 S12'
_cell_volume   589.91521569
_cell_formula_units_Z   4
loop_
 _symmetry_equiv_pos_site_id
 _symmetry_equiv_pos_as_xyz
  1  'x, y, z'
loop_
 _atom_site_type_symbol
 _atom_site_label
 _atom_site_symmetry_multiplicity
 _atom_site_fract_x
 _atom_site_fract_y
 _atom_site_fract_z
 _atom_site_occupancy
  Ge  Ge0  1  0.08741801  0.25419833  0.10822218  1
  Ge  Ge1  1  0.89177782  0.91258199  0.25419833  1
  Ge  Ge2  1  0.74580167  0.10822218  0.91258199  1
  Ge  Ge3  1  0.40746074  0.25124374  0.39825182  1
  Ge  Ge4  1  0.60174818  0.59253926  0.25124374  1
  Ge  Ge5  1  0.74875626  0.39825182  0.59253926  1
  Ge  Ge6  1  0.58792810  0.75444598  0.89821431  1
  Ge  Ge7  1  0.10178569  0.41207190  0.75444598  1
  Ge  Ge8  1  0.24555402  0.89821431  0.41207190  1
  Ge  Ge9  1  0.90637690  0.75132344  0.60728727  1
  Ge  Ge10  1  0.39271273  0.09362310  0.75132344  1
  Ge  Ge11  1  0.24867656  0.60728727  0.09362310  1
  Rh  Rh12  1  0.99948578  0.00051422  0.00051422  1
  Rh  Rh13  1  0.49475510  0.50524490  0.50524490  1
  Rh  Rh14  1  0.50042067  0.99900842  0.49961797  1
  Rh  Rh15  1  0.50038203  0.49957933  0.99900842  1
  Rh  Rh16  1  0.00099158  0.49961797  0.49957933  1
  Rh  Rh17  1  0.99416544  0.50647607  0.00600344  1
  Rh  Rh18  1  0.99399656  0.00583456  0.50647607  1
  Rh  Rh19  1  0.49352393  0.00600344  0.00583456  1
  S  S20  1  0.88810961  0.60749191  0.25296948  1
  S  S21  1  0.74703052  0.11189039  0.60749191  1
  S  S22  1  0.39250809  0.25296948  0.11189039  1
  S  S23  1  0.89222145  0.75590176  0.89351387  1
  S  S24  1  0.10648613  0.10777855  0.75590176  1
  S  S25  1  0.24409824  0.89351387  0.10777855  1
  S  S26  1  0.60215532  0.74976191  0.61196882  1
  S  S27  1  0.38803118  0.39784468  0.74976191  1
  S  S28  1  0.25023809  0.61196882  0.39784468  1
  S  S29  1  0.74751234  0.39467647  0.89743225  1
  S  S30  1  0.10256775  0.25248766  0.39467647  1
  S  S31  1  0.60532353  0.89743225  0.25248766  1
