# generated using pymatgen
data_Er11(In3Si2)2
_symmetry_space_group_name_H-M   'P 1'
_cell_length_a   11.37808352
_cell_length_b   11.37808352
_cell_length_c   11.37808352
_cell_angle_alpha   90.11135662
_cell_angle_beta   119.93572907
_cell_angle_gamma   119.93572907
_symmetry_Int_Tables_number   1
_chemical_formula_structural   Er11(In3Si2)2
_chemical_formula_sum   'Er22 In12 Si8'
_cell_volume   1042.58904661
_cell_formula_units_Z   2
loop_
 _symmetry_equiv_pos_site_id
 _symmetry_equiv_pos_as_xyz
  1  'x, y, z'
loop_
 _atom_site_type_symbol
 _atom_site_label
 _atom_site_symmetry_multiplicity
 _atom_site_fract_x
 _atom_site_fract_y
 _atom_site_fract_z
 _atom_site_occupancy
  Er  Er0  1  0.74978677  0.06612934  0.31634257  1
  Er  Er1  1  0.25021323  0.56655580  0.31634257  1
  Er  Er2  1  0.74978677  0.31634257  0.06612934  1
  Er  Er3  1  0.25021323  0.31634257  0.56655580  1
  Er  Er4  1  0.25021323  0.93387066  0.68365743  1
  Er  Er5  1  0.74978677  0.43344420  0.68365743  1
  Er  Er6  1  0.25021323  0.68365743  0.93387066  1
  Er  Er7  1  0.74978677  0.68365743  0.43344420  1
  Er  Er8  1  0.65255992  0.75435537  0.10179546  1
  Er  Er9  1  0.34744008  0.44923554  0.10179546  1
  Er  Er10  1  0.65255992  0.10179546  0.75435537  1
  Er  Er11  1  0.34744008  0.10179546  0.44923554  1
  Er  Er12  1  0.34744008  0.24564463  0.89820454  1
  Er  Er13  1  0.65255992  0.55076446  0.89820454  1
  Er  Er14  1  0.34744008  0.89820454  0.24564463  1
  Er  Er15  1  0.65255992  0.89820454  0.55076446  1
  Er  Er16  1  0.33637097  0.66818548  0.66818548  1
  Er  Er17  1  0.66362903  0.33181452  0.33181452  1
  Er  Er18  1  -0.00000000  0.33181452  0.66818548  1
  Er  Er19  1  0.00000000  0.66818548  0.33181452  1
  Er  Er20  1  0.00000000  0.17059922  0.17059922  1
  Er  Er21  1  -0.00000000  0.82940078  0.82940078  1
  In  In22  1  0.58946299  0.96597871  0.96597871  1
  In  In23  1  0.41053701  0.37651572  0.37651572  1
  In  In24  1  -0.00000000  0.37651572  0.96597871  1
  In  In25  1  -0.00000000  0.96597871  0.37651572  1
  In  In26  1  0.41053701  0.03402129  0.03402129  1
  In  In27  1  0.58946299  0.62348428  0.62348428  1
  In  In28  1  -0.00000000  0.62348428  0.03402129  1
  In  In29  1  -0.00000000  0.03402129  0.62348428  1
  In  In30  1  0.74244941  0.87122471  0.87122471  1
  In  In31  1  0.25755059  0.12877529  0.12877529  1
  In  In32  1  0.00000000  0.12877529  0.87122471  1
  In  In33  1  -0.00000000  0.87122471  0.12877529  1
  Si  Si34  1  0.34774851  0.50000000  0.84774851  1
  Si  Si35  1  0.65225149  0.50000000  0.15225149  1
  Si  Si36  1  0.65225149  0.15225149  0.50000000  1
  Si  Si37  1  0.34774851  0.84774851  0.50000000  1
  Si  Si38  1  0.00000000  0.38479082  0.38479082  1
  Si  Si39  1  -0.00000000  0.61520918  0.61520918  1
  Si  Si40  1  0.50000000  0.75000000  0.25000000  1
  Si  Si41  1  0.50000000  0.25000000  0.75000000  1
