# generated using pymatgen
data_Sr2La14Mg4(Ga4O15)3
_symmetry_space_group_name_H-M   'P 1'
_cell_length_a   5.55512176
_cell_length_b   5.57775076
_cell_length_c   44.80593921
_cell_angle_alpha   60.76107689
_cell_angle_beta   60.68138402
_cell_angle_gamma   60.47789971
_symmetry_Int_Tables_number   1
_chemical_formula_structural   Sr2La14Mg4(Ga4O15)3
_chemical_formula_sum   'Sr2 La14 Mg4 Ga12 O45'
_cell_volume   995.86352101
_cell_formula_units_Z   1
loop_
 _symmetry_equiv_pos_site_id
 _symmetry_equiv_pos_as_xyz
  1  'x, y, z'
loop_
 _atom_site_type_symbol
 _atom_site_label
 _atom_site_symmetry_multiplicity
 _atom_site_fract_x
 _atom_site_fract_y
 _atom_site_fract_z
 _atom_site_occupancy
  Sr  Sr0  1  0.25824065  0.26284794  0.02427619  1
  Sr  Sr1  1  0.25631070  0.25561698  0.15434350  1
  La  La2  1  0.27818807  0.25294222  0.27873081  1
  La  La3  1  0.79405247  0.73675803  0.08902564  1
  La  La4  1  0.20762098  0.23144980  0.41538622  1
  La  La5  1  0.75772750  0.74521198  0.21573797  1
  La  La6  1  0.24519733  0.24183963  0.53381019  1
  La  La7  1  0.70407242  0.79443832  0.34934445  1
  La  La8  1  0.24700487  0.24604526  0.65719530  1
  La  La9  1  0.74856097  0.75287032  0.47043062  1
  La  La10  1  0.25309126  0.25244736  0.77942694  1
  La  La11  1  0.75196650  0.74855672  0.59500935  1
  La  La12  1  0.25155233  0.26743485  0.90192171  1
  La  La13  1  0.75075939  0.74991189  0.71819645  1
  La  La14  1  0.74912062  0.74981508  0.84200139  1
  La  La15  1  0.75005377  0.75678803  0.96345837  1
  Mg  Mg16  1  0.97060229  0.96167229  0.25690863  1
  Mg  Mg17  1  0.94849371  0.97966501  0.38120288  1
  Mg  Mg18  1  0.53889570  0.51158871  0.18499909  1
  Mg  Mg19  1  0.52171893  0.51956280  0.31591705  1
  Ga  Ga20  1  0.00550932  0.01374198  0.99377860  1
  Ga  Ga21  1  0.98464990  0.00242960  0.12872872  1
  Ga  Ga22  1  0.52698383  0.52922480  0.05155560  1
  Ga  Ga23  1  0.99129915  0.98419976  0.50419969  1
  Ga  Ga24  1  0.99772522  0.99607329  0.62625188  1
  Ga  Ga25  1  0.48650061  0.49551826  0.44029331  1
  Ga  Ga26  1  0.00038417  0.99988254  0.74947903  1
  Ga  Ga27  1  0.49788879  0.49541188  0.56479554  1
  Ga  Ga28  1  0.00357707  0.00710214  0.87190594  1
  Ga  Ga29  1  0.50086122  0.50000370  0.68766144  1
  Ga  Ga30  1  0.50552234  0.50425435  0.81049671  1
  Ga  Ga31  1  0.50331912  0.50847689  0.93409474  1
  O  O32  1  0.27043200  0.76510418  0.02239256  1
  O  O33  1  0.26213824  0.61114146  0.09308238  1
  O  O34  1  0.68940979  0.17876718  0.04290028  1
  O  O35  1  0.90351051  0.27277501  0.08723898  1
  O  O36  1  0.33827814  0.86066770  0.13600015  1
  O  O37  1  0.79841545  0.72417207  0.02055031  1
  O  O38  1  0.17891800  0.67224848  0.22131591  1
  O  O39  1  0.69944247  0.21228157  0.16352922  1
  O  O40  1  0.76240353  0.27561033  0.22237474  1
  O  O41  1  0.34622968  0.90096618  0.25804445  1
  O  O42  1  0.81982581  0.71395964  0.15599196  1
  O  O43  1  0.18880525  0.83945919  0.33641357  1
  O  O44  1  0.64909203  0.22052996  0.29405676  1
  O  O45  1  0.18099675  0.29845089  0.46880752  1
  O  O46  1  0.58802579  0.21356103  0.36164150  1
  O  O47  1  0.29484575  0.77340747  0.40093459  1
  O  O48  1  0.86728253  0.62703107  0.29853410  1
  O  O49  1  0.21318263  0.77949313  0.46781689  1
  O  O50  1  0.76626630  0.22729480  0.41224771  1
  O  O51  1  0.17971341  0.31291192  0.59424148  1
  O  O52  1  0.67187954  0.20539843  0.48182089  1
  O  O53  1  0.32761523  0.74980807  0.52431241  1
  O  O54  1  0.77948030  0.67683598  0.41872369  1
  O  O55  1  0.23520650  0.81152412  0.58760542  1
  O  O56  1  0.76144341  0.18491311  0.54107139  1
  O  O57  1  0.18072440  0.31946153  0.71930706  1
  O  O58  1  0.67082220  0.23299748  0.60525816  1
  O  O59  1  0.32101363  0.74975399  0.64839171  1
  O  O60  1  0.81405496  0.66921988  0.53917481  1
  O  O61  1  0.25328578  0.81975267  0.71018496  1
  O  O62  1  0.75332774  0.18031638  0.66549605  1
  O  O63  1  0.18734395  0.32216544  0.84408720  1
  O  O64  1  0.68173491  0.24879902  0.72730375  1
  O  O65  1  0.31922920  0.74839020  0.77209938  1
  O  O66  1  0.82021558  0.67535055  0.65866510  1
  O  O67  1  0.26458829  0.82964003  0.83243297  1
  O  O68  1  0.74845140  0.17781330  0.78939477  1
  O  O69  1  0.18703501  0.32688518  0.96762262  1
  O  O70  1  0.69075007  0.26972776  0.84937105  1
  O  O71  1  0.31044666  0.73767041  0.89622216  1
  O  O72  1  0.82485209  0.68016756  0.77924773  1
  O  O73  1  0.27055547  0.83830051  0.95474369  1
  O  O74  1  0.74952355  0.18141414  0.91262475  1
  O  O75  1  0.71091667  0.29739728  0.97023468  1
  O  O76  1  0.81723820  0.69628428  0.89967862  1
