# generated using pymatgen
data_Ba5Cr3O13
_symmetry_space_group_name_H-M   'P 1'
_cell_length_a   8.02039220
_cell_length_b   10.60002593
_cell_length_c   10.54706876
_cell_angle_alpha   120.07208668
_cell_angle_beta   90.00000000
_cell_angle_gamma   90.00000000
_symmetry_Int_Tables_number   1
_chemical_formula_structural   Ba5Cr3O13
_chemical_formula_sum   'Ba10 Cr6 O26'
_cell_volume   775.97729771
_cell_formula_units_Z   2
loop_
 _symmetry_equiv_pos_site_id
 _symmetry_equiv_pos_as_xyz
  1  'x, y, z'
loop_
 _atom_site_type_symbol
 _atom_site_label
 _atom_site_symmetry_multiplicity
 _atom_site_fract_x
 _atom_site_fract_y
 _atom_site_fract_z
 _atom_site_occupancy
  Ba  Ba0  1  0.49845433  0.32662401  0.65407904  1
  Ba  Ba1  1  0.99845433  0.67337599  0.34592096  1
  Ba  Ba2  1  -0.00001009  0.32674776  0.65393131  1
  Ba  Ba3  1  0.49998991  0.67325224  0.34606869  1
  Ba  Ba4  1  0.25017556  0.76944863  0.98684011  1
  Ba  Ba5  1  0.25030671  0.00868206  0.77124373  1
  Ba  Ba6  1  0.25052780  0.22373145  0.24609001  1
  Ba  Ba7  1  0.75017556  0.23055137  0.01315989  1
  Ba  Ba8  1  0.75030671  0.99131794  0.22875627  1
  Ba  Ba9  1  0.75052780  0.77626855  0.75390999  1
  Cr  Cr10  1  0.24943371  0.96347878  0.37086898  1
  Cr  Cr11  1  0.24932800  0.62488091  0.59219494  1
  Cr  Cr12  1  0.24912595  0.40675698  0.03521442  1
  Cr  Cr13  1  0.74943371  0.03652122  0.62913102  1
  Cr  Cr14  1  0.74932800  0.37511909  0.40780506  1
  Cr  Cr15  1  0.74912595  0.59324302  0.96478558  1
  O  O16  1  0.24919916  0.15327963  0.47827385  1
  O  O17  1  0.24940834  0.51993807  0.67627117  1
  O  O18  1  0.24939414  0.33300617  0.85279939  1
  O  O19  1  0.74919916  0.84672037  0.52172615  1
  O  O20  1  0.74940834  0.48006193  0.32372883  1
  O  O21  1  0.74939414  0.66699383  0.14720061  1
  O  O22  1  0.24930477  0.87034866  0.46640628  1
  O  O23  1  0.24895512  0.53283155  0.40253063  1
  O  O24  1  0.24890112  0.58897530  0.11991073  1
  O  O25  1  0.74930477  0.12965134  0.53359372  1
  O  O26  1  0.74895512  0.46716845  0.59746937  1
  O  O27  1  0.74890112  0.41102470  0.88008927  1
  O  O28  1  0.42528532  0.90497492  0.26286672  1
  O  O29  1  0.42468074  0.73398306  0.64251637  1
  O  O30  1  0.41758917  0.35479931  0.08913928  1
  O  O31  1  0.92528532  0.09502508  0.73713328  1
  O  O32  1  0.92468074  0.26601694  0.35748363  1
  O  O33  1  0.91758917  0.64520069  0.91086072  1
  O  O34  1  0.57343425  0.09373053  0.73770018  1
  O  O35  1  0.57398249  0.26530504  0.35585105  1
  O  O36  1  0.58039785  0.64635583  0.91162154  1
  O  O37  1  0.07343425  0.90626947  0.26229982  1
  O  O38  1  0.07398249  0.73469496  0.64414895  1
  O  O39  1  0.08039785  0.35364417  0.08837846  1
  O  O40  1  0.28112557  0.00410859  0.00234980  1
  O  O41  1  0.78112557  0.99589141  0.99765020  1
