# generated using pymatgen
data_Dy2H4(SO4)3
_symmetry_space_group_name_H-M   'P 1'
_cell_length_a   6.79039053
_cell_length_b   6.79039053
_cell_length_c   12.88338879
_cell_angle_alpha   79.88506005
_cell_angle_beta   79.88506005
_cell_angle_gamma   60.41444016
_symmetry_Int_Tables_number   1
_chemical_formula_structural   Dy2H4(SO4)3
_chemical_formula_sum   'Dy4 H8 S6 O24'
_cell_volume   505.81387221
_cell_formula_units_Z   2
loop_
 _symmetry_equiv_pos_site_id
 _symmetry_equiv_pos_as_xyz
  1  'x, y, z'
loop_
 _atom_site_type_symbol
 _atom_site_label
 _atom_site_symmetry_multiplicity
 _atom_site_fract_x
 _atom_site_fract_y
 _atom_site_fract_z
 _atom_site_occupancy
  Dy  Dy0  1  0.18887933  0.21574671  0.82585496  1
  Dy  Dy1  1  0.78425329  0.81112067  0.67414504  1
  Dy  Dy2  1  0.81112067  0.78425329  0.17414504  1
  Dy  Dy3  1  0.21574671  0.18887933  0.32585496  1
  H  H4  1  0.85213419  0.05532271  0.91700924  1
  H  H5  1  0.94467729  0.14786581  0.58299076  1
  H  H6  1  0.14786581  0.94467729  0.08299076  1
  H  H7  1  0.05532271  0.85213419  0.41700924  1
  H  H8  1  0.69752088  0.28583169  0.85307808  1
  H  H9  1  0.71416831  0.30247912  0.64692192  1
  H  H10  1  0.30247912  0.71416831  0.14692192  1
  H  H11  1  0.28583169  0.69752088  0.35307808  1
  S  S12  1  0.25330891  0.30312962  0.57777211  1
  S  S13  1  0.69687038  0.74669109  0.92222789  1
  S  S14  1  0.74669109  0.69687038  0.42222789  1
  S  S15  1  0.30312962  0.25330891  0.07777211  1
  S  S16  1  0.32932418  0.67067582  0.75000000  1
  S  S17  1  0.67067582  0.32932418  0.25000000  1
  O  O18  1  0.03688840  0.41421602  0.65950449  1
  O  O19  1  0.58578398  0.96311160  0.84049551  1
  O  O20  1  0.96311160  0.58578398  0.34049551  1
  O  O21  1  0.41421602  0.03688840  0.15950449  1
  O  O22  1  0.40576513  0.10508741  0.65667778  1
  O  O23  1  0.89491259  0.59423487  0.84332222  1
  O  O24  1  0.59423487  0.89491259  0.34332222  1
  O  O25  1  0.10508741  0.40576513  0.15667778  1
  O  O26  1  0.18264463  0.19333170  0.50687709  1
  O  O27  1  0.80666830  0.81735537  0.99312291  1
  O  O28  1  0.81735537  0.80666830  0.49312291  1
  O  O29  1  0.19333170  0.18264463  0.00687709  1
  O  O30  1  0.36855383  0.44416758  0.80799241  1
  O  O31  1  0.55583242  0.63144617  0.69200759  1
  O  O32  1  0.63144617  0.55583242  0.19200759  1
  O  O33  1  0.44416758  0.36855383  0.30799241  1
  O  O34  1  0.25139960  0.83960499  0.82671361  1
  O  O35  1  0.16039501  0.74860040  0.67328639  1
  O  O36  1  0.74860040  0.16039501  0.17328639  1
  O  O37  1  0.83960499  0.25139960  0.32671361  1
  O  O38  1  0.84561885  0.19980073  0.88186319  1
  O  O39  1  0.80019927  0.15438115  0.61813681  1
  O  O40  1  0.15438115  0.80019927  0.11813681  1
  O  O41  1  0.19980073  0.84561885  0.38186319  1
