# generated using pymatgen
data_Y15Ni32
_symmetry_space_group_name_H-M   'P 1'
_cell_length_a   10.17308255
_cell_length_b   10.17308255
_cell_length_c   10.17308255
_cell_angle_alpha   60.00000000
_cell_angle_beta   60.00000000
_cell_angle_gamma   60.00000000
_symmetry_Int_Tables_number   1
_chemical_formula_structural   Y15Ni32
_chemical_formula_sum   'Y15 Ni32'
_cell_volume   744.46229811
_cell_formula_units_Z   1
loop_
 _symmetry_equiv_pos_site_id
 _symmetry_equiv_pos_as_xyz
  1  'x, y, z'
loop_
 _atom_site_type_symbol
 _atom_site_label
 _atom_site_symmetry_multiplicity
 _atom_site_fract_x
 _atom_site_fract_y
 _atom_site_fract_z
 _atom_site_occupancy
  Y  Y0  1  0.50000000  0.50000000  0.50000000  1
  Y  Y1  1  0.28853682  0.90382106  0.90382106  1
  Y  Y2  1  0.90382106  0.28853682  0.90382106  1
  Y  Y3  1  0.90382106  0.90382106  0.28853682  1
  Y  Y4  1  0.90382106  0.90382106  0.90382106  1
  Y  Y5  1  0.88051675  0.37316108  0.37316108  1
  Y  Y6  1  0.37316108  0.88051675  0.37316108  1
  Y  Y7  1  0.37316108  0.37316108  0.88051675  1
  Y  Y8  1  0.37316108  0.37316108  0.37316108  1
  Y  Y9  1  0.51511295  0.98488705  0.98488705  1
  Y  Y10  1  0.51511295  0.98488705  0.51511295  1
  Y  Y11  1  0.51511295  0.51511295  0.98488705  1
  Y  Y12  1  0.98488705  0.51511295  0.51511295  1
  Y  Y13  1  0.98488705  0.51511295  0.98488705  1
  Y  Y14  1  0.98488705  0.98488705  0.51511295  1
  Ni  Ni15  1  0.93426854  0.68857715  0.68857715  1
  Ni  Ni16  1  0.68857715  0.93426854  0.68857715  1
  Ni  Ni17  1  0.68857715  0.68857715  0.93426854  1
  Ni  Ni18  1  0.68857715  0.68857715  0.68857715  1
  Ni  Ni19  1  0.43421797  0.18859401  0.18859401  1
  Ni  Ni20  1  0.18859401  0.43421797  0.18859401  1
  Ni  Ni21  1  0.18859401  0.18859401  0.43421797  1
  Ni  Ni22  1  0.18859401  0.18859401  0.18859401  1
  Ni  Ni23  1  0.94125482  0.67266559  0.19303979  1
  Ni  Ni24  1  0.94125482  0.19303979  0.19303979  1
  Ni  Ni25  1  0.94125482  0.19303979  0.67266559  1
  Ni  Ni26  1  0.67266559  0.94125482  0.19303979  1
  Ni  Ni27  1  0.19303979  0.94125482  0.67266559  1
  Ni  Ni28  1  0.19303979  0.94125482  0.19303979  1
  Ni  Ni29  1  0.19303979  0.19303979  0.94125482  1
  Ni  Ni30  1  0.19303979  0.67266559  0.94125482  1
  Ni  Ni31  1  0.67266559  0.19303979  0.94125482  1
  Ni  Ni32  1  0.19303979  0.19303979  0.67266559  1
  Ni  Ni33  1  0.67266559  0.19303979  0.19303979  1
  Ni  Ni34  1  0.19303979  0.67266559  0.19303979  1
  Ni  Ni35  1  0.43693012  0.18738957  0.68784015  1
  Ni  Ni36  1  0.43693012  0.68784015  0.68784015  1
  Ni  Ni37  1  0.43693012  0.68784015  0.18738957  1
  Ni  Ni38  1  0.18738957  0.43693012  0.68784015  1
  Ni  Ni39  1  0.68784015  0.43693012  0.18738957  1
  Ni  Ni40  1  0.68784015  0.43693012  0.68784015  1
  Ni  Ni41  1  0.68784015  0.68784015  0.43693012  1
  Ni  Ni42  1  0.68784015  0.18738957  0.43693012  1
  Ni  Ni43  1  0.18738957  0.68784015  0.43693012  1
  Ni  Ni44  1  0.68784015  0.68784015  0.18738957  1
  Ni  Ni45  1  0.18738957  0.68784015  0.68784015  1
  Ni  Ni46  1  0.68784015  0.18738957  0.68784015  1
