# generated using pymatgen
data_Sc4B12Rh17
_symmetry_space_group_name_H-M   'P 1'
_cell_length_a   9.23398634
_cell_length_b   10.80314391
_cell_length_c   16.19886775
_cell_angle_alpha   90.00000000
_cell_angle_beta   100.92794549
_cell_angle_gamma   90.00000000
_symmetry_Int_Tables_number   1
_chemical_formula_structural   Sc4B12Rh17
_chemical_formula_sum   'Sc16 B48 Rh68'
_cell_volume   1586.63281595
_cell_formula_units_Z   4
loop_
 _symmetry_equiv_pos_site_id
 _symmetry_equiv_pos_as_xyz
  1  'x, y, z'
loop_
 _atom_site_type_symbol
 _atom_site_label
 _atom_site_symmetry_multiplicity
 _atom_site_fract_x
 _atom_site_fract_y
 _atom_site_fract_z
 _atom_site_occupancy
  Sc  Sc0  1  0.00432481  0.37392015  0.75647236  1
  Sc  Sc1  1  0.99567519  0.87392015  0.74352764  1
  Sc  Sc2  1  0.99567519  0.62607985  0.24352764  1
  Sc  Sc3  1  0.00432481  0.12607985  0.25647236  1
  Sc  Sc4  1  0.25265339  0.12381108  0.99917116  1
  Sc  Sc5  1  0.74734661  0.62381108  0.50082884  1
  Sc  Sc6  1  0.74734661  0.87618892  0.00082884  1
  Sc  Sc7  1  0.25265339  0.37618892  0.49917116  1
  Sc  Sc8  1  0.52774639  0.12222895  0.75038762  1
  Sc  Sc9  1  0.47225361  0.62222895  0.74961238  1
  Sc  Sc10  1  0.47225361  0.87777105  0.24961238  1
  Sc  Sc11  1  0.52774639  0.37777105  0.25038762  1
  Sc  Sc12  1  0.77060857  0.13867874  0.51373682  1
  Sc  Sc13  1  0.22939143  0.63867874  0.98626318  1
  Sc  Sc14  1  0.22939143  0.86132126  0.48626318  1
  Sc  Sc15  1  0.77060857  0.36132126  0.01373682  1
  B  B16  1  0.00342744  0.45252781  0.59668374  1
  B  B17  1  0.99657256  0.95252781  0.90331626  1
  B  B18  1  0.99657256  0.54747219  0.40331626  1
  B  B19  1  0.00342744  0.04747219  0.09668374  1
  B  B20  1  0.00540588  0.77428943  0.59088732  1
  B  B21  1  0.99459412  0.27428943  0.90911268  1
  B  B22  1  0.99459412  0.22571057  0.40911268  1
  B  B23  1  0.00540588  0.72571057  0.09088732  1
  B  B24  1  0.04838235  0.12277384  0.70398384  1
  B  B25  1  0.95161765  0.62277384  0.79601616  1
  B  B26  1  0.95161765  0.87722616  0.29601616  1
  B  B27  1  0.04838235  0.37722616  0.20398384  1
  B  B28  1  0.07695258  0.13423460  0.50472747  1
  B  B29  1  0.92304742  0.63423460  0.99527253  1
  B  B30  1  0.92304742  0.86576540  0.49527253  1
  B  B31  1  0.07695258  0.36576540  0.00472747  1
  B  B32  1  0.28841227  0.44782040  0.80010402  1
  B  B33  1  0.71158773  0.94782040  0.69989598  1
  B  B34  1  0.71158773  0.55217960  0.19989598  1
  B  B35  1  0.28841227  0.05217960  0.30010402  1
  B  B36  1  0.30908731  0.11480812  0.85219809  1
  B  B37  1  0.69091269  0.61480812  0.64780191  1
  B  B38  1  0.69091269  0.88519188  0.14780191  1
  B  B39  1  0.30908731  0.38519188  0.35219809  1
  B  B40  1  0.34049188  0.94014776  0.63906869  1
  B  B41  1  0.65950812  0.44014776  0.86093131  1
  B  B42  1  0.65950812  0.05985224  0.36093131  1
  B  B43  1  0.34049188  0.55985224  0.13906869  1
  B  B44  1  0.34204997  0.29732571  0.64900793  1
  B  B45  1  0.65795003  0.79732571  0.85099207  1
  B  B46  1  0.65795003  0.70267429  0.35099207  1
  B  B47  1  0.34204997  0.20267429  0.14900793  1
  B  B48  1  0.42792967  0.12913274  0.50199039  1
  B  B49  1  0.57207033  0.62913274  0.99800961  1
  B  B50  1  0.57207033  0.87086726  0.49800961  1
  B  B51  1  0.42792967  0.37086726  0.00199039  1
  B  B52  1  0.60355464  0.37784150  0.50482214  1
  B  B53  1  0.39644536  0.87784150  0.99517786  1
  B  B54  1  0.39644536  0.62215850  0.49517786  1
  B  B55  1  0.60355464  0.12215850  0.00482214  1
  B  B56  1  0.68612661  0.11868790  0.90656173  1
  B  B57  1  0.31387339  0.61868790  0.59343827  1
  B  B58  1  0.31387339  0.88131210  0.09343827  1
  B  B59  1  0.68612661  0.38131210  0.40656173  1
  B  B60  1  0.71463812  0.29734877  0.70813959  1
  B  B61  1  0.28536188  0.79734877  0.79186041  1
  B  B62  1  0.28536188  0.70265123  0.29186041  1
  B  B63  1  0.71463812  0.20265123  0.20813959  1
  Rh  Rh64  1  0.04241005  0.98714073  0.58895003  1
  Rh  Rh65  1  0.95758995  0.48714073  0.91104997  1
  Rh  Rh66  1  0.95758995  0.01285927  0.41104997  1
  Rh  Rh67  1  0.04241005  0.51285927  0.08895003  1
  Rh  Rh68  1  0.04387624  0.25440441  0.60415397  1
  Rh  Rh69  1  0.95612376  0.75440441  0.89584603  1
  Rh  Rh70  1  0.95612376  0.74559559  0.39584603  1
  Rh  Rh71  1  0.04387624  0.24559559  0.10415397  1
  Rh  Rh72  1  0.06803418  0.12007054  0.83989293  1
  Rh  Rh73  1  0.93196582  0.62007054  0.66010707  1
  Rh  Rh74  1  0.93196582  0.87992946  0.16010707  1
  Rh  Rh75  1  0.06803418  0.37992946  0.33989293  1
  Rh  Rh76  1  0.08662627  0.89093053  0.03474276  1
  Rh  Rh77  1  0.91337373  0.39093053  0.46525724  1
  Rh  Rh78  1  0.91337373  0.10906947  0.96525724  1
  Rh  Rh79  1  0.08662627  0.60906947  0.53474276  1
  Rh  Rh80  1  0.21604105  0.89584470  0.89384944  1
  Rh  Rh81  1  0.78395895  0.39584470  0.60615056  1
  Rh  Rh82  1  0.78395895  0.10415530  0.10615056  1
  Rh  Rh83  1  0.21604105  0.60415530  0.39384944  1
  Rh  Rh84  1  0.21871462  0.35293262  0.91117252  1
  Rh  Rh85  1  0.78128538  0.85293262  0.58882748  1
  Rh  Rh86  1  0.78128538  0.64706738  0.08882748  1
  Rh  Rh87  1  0.21871462  0.14706738  0.41117252  1
  Rh  Rh88  1  0.23190125  0.77233416  0.65599432  1
  Rh  Rh89  1  0.76809875  0.27233416  0.84400568  1
  Rh  Rh90  1  0.76809875  0.22766584  0.34400568  1
  Rh  Rh91  1  0.23190125  0.72766584  0.15599432  1
  Rh  Rh92  1  0.23627815  0.46890151  0.66253339  1
  Rh  Rh93  1  0.76372185  0.96890151  0.83746661  1
  Rh  Rh94  1  0.76372185  0.53109849  0.33746661  1
  Rh  Rh95  1  0.23627815  0.03109849  0.16253339  1
  Rh  Rh96  1  0.24337802  0.99913476  0.74233537  1
  Rh  Rh97  1  0.75662198  0.49913476  0.75766463  1
  Rh  Rh98  1  0.75662198  0.00086524  0.25766463  1
  Rh  Rh99  1  0.24337802  0.50086524  0.24233537  1
  Rh  Rh100  1  0.25289538  0.25011805  0.75671812  1
  Rh  Rh101  1  0.74710462  0.75011805  0.74328188  1
  Rh  Rh102  1  0.74710462  0.74988195  0.24328188  1
  Rh  Rh103  1  0.25289538  0.24988195  0.25671812  1
  Rh  Rh104  1  0.28424293  0.12298770  0.59008374  1
  Rh  Rh105  1  0.71575707  0.62298770  0.90991626  1
  Rh  Rh106  1  0.71575707  0.87701230  0.40991626  1
  Rh  Rh107  1  0.28424293  0.37701230  0.09008374  1
  Rh  Rh108  1  0.46593550  0.49197335  0.90627386  1
  Rh  Rh109  1  0.53406450  0.99197335  0.59372614  1
  Rh  Rh110  1  0.53406450  0.50802665  0.09372614  1
  Rh  Rh111  1  0.46593550  0.00802665  0.40627386  1
  Rh  Rh112  1  0.48945135  0.24566574  0.90944461  1
  Rh  Rh113  1  0.51054865  0.74566574  0.59055539  1
  Rh  Rh114  1  0.51054865  0.75433426  0.09055539  1
  Rh  Rh115  1  0.48945135  0.25433426  0.40944461  1
  Rh  Rh116  1  0.50398881  0.37263510  0.75087810  1
  Rh  Rh117  1  0.49601119  0.87263510  0.74912190  1
  Rh  Rh118  1  0.49601119  0.62736490  0.24912190  1
  Rh  Rh119  1  0.50398881  0.12736490  0.25087810  1
  Rh  Rh120  1  0.50915459  0.49945859  0.59239137  1
  Rh  Rh121  1  0.49084541  0.99945859  0.90760863  1
  Rh  Rh122  1  0.49084541  0.50054141  0.40760863  1
  Rh  Rh123  1  0.50915459  0.00054141  0.09239137  1
  Rh  Rh124  1  0.53670030  0.25529291  0.59650495  1
  Rh  Rh125  1  0.46329970  0.75529291  0.90349505  1
  Rh  Rh126  1  0.46329970  0.74470709  0.40349505  1
  Rh  Rh127  1  0.53670030  0.24470709  0.09650495  1
  Rh  Rh128  1  0.81509662  0.12206482  0.68381606  1
  Rh  Rh129  1  0.18490338  0.62206482  0.81618394  1
  Rh  Rh130  1  0.18490338  0.87793518  0.31618394  1
  Rh  Rh131  1  0.81509662  0.37793518  0.18381606  1
