# generated using pymatgen
data_Cs2Cd2(MoO4)3
_symmetry_space_group_name_H-M   'P 1'
_cell_length_a   11.54103667
_cell_length_b   11.54103667
_cell_length_c   11.54103667
_cell_angle_alpha   90.00000000
_cell_angle_beta   90.00000000
_cell_angle_gamma   90.00000000
_symmetry_Int_Tables_number   1
_chemical_formula_structural   Cs2Cd2(MoO4)3
_chemical_formula_sum   'Cs8 Cd8 Mo12 O48'
_cell_volume   1537.21446621
_cell_formula_units_Z   4
loop_
 _symmetry_equiv_pos_site_id
 _symmetry_equiv_pos_as_xyz
  1  'x, y, z'
loop_
 _atom_site_type_symbol
 _atom_site_label
 _atom_site_symmetry_multiplicity
 _atom_site_fract_x
 _atom_site_fract_y
 _atom_site_fract_z
 _atom_site_occupancy
  Cs  Cs0  1  0.42914552  0.92914552  0.57085448  1
  Cs  Cs1  1  0.92914552  0.57085448  0.42914552  1
  Cs  Cs2  1  0.57085448  0.42914552  0.92914552  1
  Cs  Cs3  1  0.07085448  0.07085448  0.07085448  1
  Cs  Cs4  1  0.20315620  0.70315620  0.79684380  1
  Cs  Cs5  1  0.70315620  0.79684380  0.20315620  1
  Cs  Cs6  1  0.79684380  0.20315620  0.70315620  1
  Cs  Cs7  1  0.29684380  0.29684380  0.29684380  1
  Cd  Cd8  1  0.91463777  0.41463777  0.08536223  1
  Cd  Cd9  1  0.41463777  0.08536223  0.91463777  1
  Cd  Cd10  1  0.08536223  0.91463777  0.41463777  1
  Cd  Cd11  1  0.58536223  0.58536223  0.58536223  1
  Cd  Cd12  1  0.64410812  0.14410812  0.35589188  1
  Cd  Cd13  1  0.14410812  0.35589188  0.64410812  1
  Cd  Cd14  1  0.35589188  0.64410812  0.14410812  1
  Cd  Cd15  1  0.85589188  0.85589188  0.85589188  1
  Mo  Mo16  1  0.22876039  0.37184308  0.95687796  1
  Mo  Mo17  1  0.04312204  0.72876039  0.12815692  1
  Mo  Mo18  1  0.87184308  0.54312204  0.77123961  1
  Mo  Mo19  1  0.72876039  0.12815692  0.04312204  1
  Mo  Mo20  1  0.54312204  0.77123961  0.87184308  1
  Mo  Mo21  1  0.37184308  0.95687796  0.22876039  1
  Mo  Mo22  1  0.77123961  0.87184308  0.54312204  1
  Mo  Mo23  1  0.95687796  0.22876039  0.37184308  1
  Mo  Mo24  1  0.12815692  0.04312204  0.72876039  1
  Mo  Mo25  1  0.27123961  0.62815692  0.45687796  1
  Mo  Mo26  1  0.45687796  0.27123961  0.62815692  1
  Mo  Mo27  1  0.62815692  0.45687796  0.27123961  1
  O  O28  1  0.08086118  0.35081010  0.99847467  1
  O  O29  1  0.00152533  0.58086118  0.14918990  1
  O  O30  1  0.85081010  0.50152533  0.91913882  1
  O  O31  1  0.58086118  0.14918990  0.00152533  1
  O  O32  1  0.50152533  0.91913882  0.85081010  1
  O  O33  1  0.35081010  0.99847467  0.08086118  1
  O  O34  1  0.91913882  0.85081010  0.50152533  1
  O  O35  1  0.99847467  0.08086118  0.35081010  1
  O  O36  1  0.14918990  0.00152533  0.58086118  1
  O  O37  1  0.41913882  0.64918990  0.49847467  1
  O  O38  1  0.49847467  0.41913882  0.64918990  1
  O  O39  1  0.64918990  0.49847467  0.41913882  1
  O  O40  1  0.30228098  0.23675120  0.97910603  1
  O  O41  1  0.02089397  0.80228098  0.26324880  1
  O  O42  1  0.73675120  0.52089397  0.69771902  1
  O  O43  1  0.80228098  0.26324880  0.02089397  1
  O  O44  1  0.52089397  0.69771902  0.73675120  1
  O  O45  1  0.23675120  0.97910603  0.30228098  1
  O  O46  1  0.69771902  0.73675120  0.52089397  1
  O  O47  1  0.97910603  0.30228098  0.23675120  1
  O  O48  1  0.26324880  0.02089397  0.80228098  1
  O  O49  1  0.19771902  0.76324880  0.47910603  1
  O  O50  1  0.47910603  0.19771902  0.76324880  1
  O  O51  1  0.76324880  0.47910603  0.19771902  1
  O  O52  1  0.23944892  0.42127403  0.80869202  1
  O  O53  1  0.19130798  0.73944892  0.07872597  1
  O  O54  1  0.92127403  0.69130798  0.76055108  1
  O  O55  1  0.73944892  0.07872597  0.19130798  1
  O  O56  1  0.69130798  0.76055108  0.92127403  1
  O  O57  1  0.42127403  0.80869202  0.23944892  1
  O  O58  1  0.76055108  0.92127403  0.69130798  1
  O  O59  1  0.80869202  0.23944892  0.42127403  1
  O  O60  1  0.07872597  0.19130798  0.73944892  1
  O  O61  1  0.26055108  0.57872597  0.30869202  1
  O  O62  1  0.30869202  0.26055108  0.57872597  1
  O  O63  1  0.57872597  0.30869202  0.26055108  1
  O  O64  1  0.29828344  0.47678681  0.04833205  1
  O  O65  1  0.95166795  0.79828344  0.02321319  1
  O  O66  1  0.97678681  0.45166795  0.70171656  1
  O  O67  1  0.79828344  0.02321319  0.95166795  1
  O  O68  1  0.45166795  0.70171656  0.97678681  1
  O  O69  1  0.47678681  0.04833205  0.29828344  1
  O  O70  1  0.70171656  0.97678681  0.45166795  1
  O  O71  1  0.04833205  0.29828344  0.47678681  1
  O  O72  1  0.02321319  0.95166795  0.79828344  1
  O  O73  1  0.20171656  0.52321319  0.54833205  1
  O  O74  1  0.54833205  0.20171656  0.52321319  1
  O  O75  1  0.52321319  0.54833205  0.20171656  1
