# generated using pymatgen
data_CsMoN3O11
_symmetry_space_group_name_H-M   'P 1'
_cell_length_a   8.07967755
_cell_length_b   8.07967755
_cell_length_c   10.23725709
_cell_angle_alpha   70.18623095
_cell_angle_beta   70.18623095
_cell_angle_gamma   64.85025345
_symmetry_Int_Tables_number   1
_chemical_formula_structural   CsMoN3O11
_chemical_formula_sum   'Cs2 Mo2 N6 O22'
_cell_volume   554.02575451
_cell_formula_units_Z   2
loop_
 _symmetry_equiv_pos_site_id
 _symmetry_equiv_pos_as_xyz
  1  'x, y, z'
loop_
 _atom_site_type_symbol
 _atom_site_label
 _atom_site_symmetry_multiplicity
 _atom_site_fract_x
 _atom_site_fract_y
 _atom_site_fract_z
 _atom_site_occupancy
  Cs  Cs0  1  0.00261163  0.99738837  0.00000000  1
  Cs  Cs1  1  0.38792724  0.61207276  0.50000000  1
  Mo  Mo2  1  0.29318314  0.30493477  0.21968447  1
  Mo  Mo3  1  0.69506523  0.70681686  0.78031553  1
  N  N4  1  0.93062590  0.31364673  0.28148542  1
  N  N5  1  0.68635327  0.06937410  0.71851458  1
  N  N6  1  0.21140737  0.13658901  0.54271496  1
  N  N7  1  0.86341099  0.78859263  0.45728504  1
  N  N8  1  0.21572142  0.47743987  0.92283809  1
  N  N9  1  0.52256013  0.78427858  0.07716191  1
  O  O10  1  0.50361331  0.17137590  0.12984221  1
  O  O11  1  0.82862410  0.49638669  0.87015779  1
  O  O12  1  0.34344502  0.45447640  0.27301082  1
  O  O13  1  0.54552360  0.65655498  0.72698918  1
  O  O14  1  0.07346444  0.21081287  0.20108605  1
  O  O15  1  0.78918713  0.92653556  0.79891395  1
  O  O16  1  0.97186430  0.41814190  0.32731172  1
  O  O17  1  0.58185810  0.02813570  0.67268828  1
  O  O18  1  0.77290408  0.30879130  0.31011935  1
  O  O19  1  0.69120870  0.22709592  0.68988065  1
  O  O20  1  0.27374915  0.10255536  0.40667636  1
  O  O21  1  0.89744464  0.72625085  0.59332364  1
  O  O22  1  0.18723313  0.29080949  0.55582917  1
  O  O23  1  0.70919051  0.81276687  0.44417083  1
  O  O24  1  0.18770450  0.00151102  0.63846106  1
  O  O25  1  0.99848898  0.81229550  0.36153894  1
  O  O26  1  0.19795585  0.51541333  0.04966033  1
  O  O27  1  0.48458667  0.80204415  0.95033967  1
  O  O28  1  0.28055973  0.31274784  0.91397163  1
  O  O29  1  0.68725216  0.71944027  0.08602837  1
  O  O30  1  0.16369023  0.61813664  0.82968615  1
  O  O31  1  0.38186336  0.83630977  0.17031385  1
