# generated using pymatgen
data_La6CoCl11
_symmetry_space_group_name_H-M   'P 1'
_cell_length_a   11.43571171
_cell_length_b   11.43571171
_cell_length_c   14.71215955
_cell_angle_alpha   90.00000000
_cell_angle_beta   90.00000000
_cell_angle_gamma   90.00000000
_symmetry_Int_Tables_number   1
_chemical_formula_structural   La6CoCl11
_chemical_formula_sum   'La24 Co4 Cl44'
_cell_volume   1923.99005528
_cell_formula_units_Z   4
loop_
 _symmetry_equiv_pos_site_id
 _symmetry_equiv_pos_as_xyz
  1  'x, y, z'
loop_
 _atom_site_type_symbol
 _atom_site_label
 _atom_site_symmetry_multiplicity
 _atom_site_fract_x
 _atom_site_fract_y
 _atom_site_fract_z
 _atom_site_occupancy
  La  La0  1  0.02118784  0.23865175  0.49216955  1
  La  La1  1  0.47881216  0.26134825  0.49216955  1
  La  La2  1  0.73865175  0.97881216  0.99216955  1
  La  La3  1  0.76134825  0.52118784  0.99216955  1
  La  La4  1  0.97881216  0.76134825  0.50783045  1
  La  La5  1  0.52118784  0.73865175  0.50783045  1
  La  La6  1  0.26134825  0.02118784  0.00783045  1
  La  La7  1  0.23865175  0.47881216  0.00783045  1
  La  La8  1  0.68698516  0.01552370  0.35228736  1
  La  La9  1  0.81301484  0.48447630  0.35228736  1
  La  La10  1  0.51552370  0.31301484  0.85228736  1
  La  La11  1  0.98447630  0.18698516  0.85228736  1
  La  La12  1  0.31301484  0.98447630  0.64771264  1
  La  La13  1  0.18698516  0.51552370  0.64771264  1
  La  La14  1  0.48447630  0.68698516  0.14771264  1
  La  La15  1  0.01552370  0.81301484  0.14771264  1
  La  La16  1  0.64219914  0.00702338  0.62465428  1
  La  La17  1  0.85780086  0.49297662  0.62465428  1
  La  La18  1  0.50702338  0.35780086  0.12465428  1
  La  La19  1  0.99297662  0.14219914  0.12465428  1
  La  La20  1  0.35780086  0.99297662  0.37534572  1
  La  La21  1  0.14219914  0.50702338  0.37534572  1
  La  La22  1  0.49297662  0.64219914  0.87534572  1
  La  La23  1  0.00702338  0.85780086  0.87534572  1
  Co  Co24  1  -0.00000000  0.50000000  0.50000000  1
  Co  Co25  1  0.50000000  0.00000000  0.50000000  1
  Co  Co26  1  -0.00000000  0.00000000  0.00000000  1
  Co  Co27  1  0.50000000  0.50000000  0.00000000  1
  Cl  Cl28  1  0.85173595  0.00177080  0.50541891  1
  Cl  Cl29  1  0.64826405  0.49822920  0.50541891  1
  Cl  Cl30  1  0.50177080  0.14826405  0.00541891  1
  Cl  Cl31  1  0.99822920  0.35173595  0.00541891  1
  Cl  Cl32  1  0.14826405  0.99822920  0.49458109  1
  Cl  Cl33  1  0.35173595  0.50177080  0.49458109  1
  Cl  Cl34  1  0.49822920  0.85173595  0.99458109  1
  Cl  Cl35  1  0.00177080  0.64826405  0.99458109  1
  Cl  Cl36  1  0.89035325  0.23893888  0.65093713  1
  Cl  Cl37  1  0.60964675  0.26106112  0.65093713  1
  Cl  Cl38  1  0.73893888  0.10964675  0.15093713  1
  Cl  Cl39  1  0.76106112  0.39035325  0.15093713  1
  Cl  Cl40  1  0.10964675  0.76106112  0.34906287  1
  Cl  Cl41  1  0.39035325  0.73893888  0.34906287  1
  Cl  Cl42  1  0.26106112  0.89035325  0.84906287  1
  Cl  Cl43  1  0.23893888  0.60964675  0.84906287  1
  Cl  Cl44  1  0.99547477  0.30101690  0.29934364  1
  Cl  Cl45  1  0.50452523  0.19898310  0.29934364  1
  Cl  Cl46  1  0.80101690  0.00452523  0.79934364  1
  Cl  Cl47  1  0.69898310  0.49547477  0.79934364  1
  Cl  Cl48  1  0.00452523  0.69898310  0.70065636  1
  Cl  Cl49  1  0.49547477  0.80101690  0.70065636  1
  Cl  Cl50  1  0.19898310  0.99547477  0.20065636  1
  Cl  Cl51  1  0.30101690  0.50452523  0.20065636  1
  Cl  Cl52  1  0.75000000  0.25000000  0.41682427  1
  Cl  Cl53  1  0.75000000  0.25000000  0.91682427  1
  Cl  Cl54  1  0.25000000  0.75000000  0.58317573  1
  Cl  Cl55  1  0.25000000  0.75000000  0.08317573  1
  Cl  Cl56  1  0.25000000  0.25000000  0.39300745  1
  Cl  Cl57  1  0.75000000  0.75000000  0.89300745  1
  Cl  Cl58  1  0.75000000  0.75000000  0.60699255  1
  Cl  Cl59  1  0.25000000  0.25000000  0.10699255  1
  Cl  Cl60  1  0.75000000  0.75000000  0.37893062  1
  Cl  Cl61  1  0.25000000  0.25000000  0.87893062  1
  Cl  Cl62  1  0.25000000  0.25000000  0.62106938  1
  Cl  Cl63  1  0.75000000  0.75000000  0.12106938  1
  Cl  Cl64  1  0.52117311  0.92898756  0.22071982  1
  Cl  Cl65  1  0.97882689  0.57101244  0.22071982  1
  Cl  Cl66  1  0.42898756  0.47882689  0.72071982  1
  Cl  Cl67  1  0.07101244  0.02117311  0.72071982  1
  Cl  Cl68  1  0.47882689  0.07101244  0.77928018  1
  Cl  Cl69  1  0.02117311  0.42898756  0.77928018  1
  Cl  Cl70  1  0.57101244  0.52117311  0.27928018  1
  Cl  Cl71  1  0.92898756  0.97882689  0.27928018  1
