# generated using pymatgen
data_Tb2B6Os
_symmetry_space_group_name_H-M   'P 1'
_cell_length_a   3.67892816
_cell_length_b   9.19968629
_cell_length_c   11.57206482
_cell_angle_alpha   90.00000000
_cell_angle_beta   90.00000000
_cell_angle_gamma   90.00000000
_symmetry_Int_Tables_number   1
_chemical_formula_structural   Tb2B6Os
_chemical_formula_sum   'Tb8 B24 Os4'
_cell_volume   391.65635974
_cell_formula_units_Z   4
loop_
 _symmetry_equiv_pos_site_id
 _symmetry_equiv_pos_as_xyz
  1  'x, y, z'
loop_
 _atom_site_type_symbol
 _atom_site_label
 _atom_site_symmetry_multiplicity
 _atom_site_fract_x
 _atom_site_fract_y
 _atom_site_fract_z
 _atom_site_occupancy
  Tb  Tb0  1  0.00000000  0.32262136  0.41352341  1
  Tb  Tb1  1  -0.00000000  0.67737864  0.58647659  1
  Tb  Tb2  1  0.00000000  0.82262136  0.08647659  1
  Tb  Tb3  1  -0.00000000  0.17737864  0.91352341  1
  Tb  Tb4  1  0.00000000  0.94490702  0.37318953  1
  Tb  Tb5  1  -0.00000000  0.05509298  0.62681047  1
  Tb  Tb6  1  -0.00000000  0.44490702  0.12681047  1
  Tb  Tb7  1  0.00000000  0.55509298  0.87318953  1
  B  B8  1  0.50000000  0.55449426  0.43277510  1
  B  B9  1  0.50000000  0.44550574  0.56722490  1
  B  B10  1  0.50000000  0.05449426  0.06722490  1
  B  B11  1  0.50000000  0.94550574  0.93277510  1
  B  B12  1  0.50000000  0.74800998  0.42039567  1
  B  B13  1  0.50000000  0.25199002  0.57960433  1
  B  B14  1  0.50000000  0.24800998  0.07960433  1
  B  B15  1  0.50000000  0.75199002  0.92039567  1
  B  B16  1  0.50000000  0.79103260  0.26786185  1
  B  B17  1  0.50000000  0.20896740  0.73213815  1
  B  B18  1  0.50000000  0.29103260  0.23213815  1
  B  B19  1  0.50000000  0.70896740  0.76786185  1
  B  B20  1  0.50000000  0.63298418  0.18606247  1
  B  B21  1  0.50000000  0.36701582  0.81393753  1
  B  B22  1  0.50000000  0.13298418  0.31393753  1
  B  B23  1  0.50000000  0.86701582  0.68606247  1
  B  B24  1  0.50000000  0.98504431  0.21300467  1
  B  B25  1  0.50000000  0.01495569  0.78699533  1
  B  B26  1  0.50000000  0.48504431  0.28699533  1
  B  B27  1  0.50000000  0.51495569  0.71300467  1
  B  B28  1  0.50000000  0.61200450  0.03102205  1
  B  B29  1  0.50000000  0.38799550  0.96897795  1
  B  B30  1  0.50000000  0.11200450  0.46897795  1
  B  B31  1  0.50000000  0.88799550  0.53102205  1
  Os  Os32  1  -0.00000000  0.63828923  0.32160871  1
  Os  Os33  1  0.00000000  0.36171077  0.67839129  1
  Os  Os34  1  -0.00000000  0.13828923  0.17839129  1
  Os  Os35  1  0.00000000  0.86171077  0.82160871  1
