# generated using pymatgen
data_Nd2US5
_symmetry_space_group_name_H-M   'P 1'
_cell_length_a   7.50673518
_cell_length_b   8.09706733
_cell_length_c   11.95469420
_cell_angle_alpha   90.00000000
_cell_angle_beta   90.00000000
_cell_angle_gamma   90.00000000
_symmetry_Int_Tables_number   1
_chemical_formula_structural   Nd2US5
_chemical_formula_sum   'Nd8 U4 S20'
_cell_volume   726.63668056
_cell_formula_units_Z   4
loop_
 _symmetry_equiv_pos_site_id
 _symmetry_equiv_pos_as_xyz
  1  'x, y, z'
loop_
 _atom_site_type_symbol
 _atom_site_label
 _atom_site_symmetry_multiplicity
 _atom_site_fract_x
 _atom_site_fract_y
 _atom_site_fract_z
 _atom_site_occupancy
  Nd  Nd0  1  0.97648834  0.00047069  0.17734844  1
  Nd  Nd1  1  0.52351166  0.49952931  0.67734844  1
  Nd  Nd2  1  0.02351166  0.50047069  0.82265156  1
  Nd  Nd3  1  0.47648834  0.99952931  0.32265156  1
  Nd  Nd4  1  0.02351166  0.99952931  0.82265156  1
  Nd  Nd5  1  0.47648834  0.50047069  0.32265156  1
  Nd  Nd6  1  0.97648834  0.49952931  0.17734844  1
  Nd  Nd7  1  0.52351166  0.00047069  0.67734844  1
  U  U8  1  0.42780536  0.75000000  0.00868408  1
  U  U9  1  0.07219464  0.75000000  0.50868408  1
  U  U10  1  0.57219464  0.25000000  0.99131592  1
  U  U11  1  0.92780536  0.25000000  0.49131592  1
  S  S12  1  0.66008382  0.54267212  0.90515678  1
  S  S13  1  0.83991618  0.95732788  0.40515678  1
  S  S14  1  0.33991618  0.04267212  0.09484322  1
  S  S15  1  0.16008382  0.45732788  0.59484322  1
  S  S16  1  0.33991618  0.45732788  0.09484322  1
  S  S17  1  0.16008382  0.04267212  0.59484322  1
  S  S18  1  0.66008382  0.95732788  0.90515678  1
  S  S19  1  0.83991618  0.54267212  0.40515678  1
  S  S20  1  0.66986936  0.75000000  0.18585008  1
  S  S21  1  0.83013064  0.75000000  0.68585008  1
  S  S22  1  0.33013064  0.25000000  0.81414992  1
  S  S23  1  0.16986936  0.25000000  0.31414992  1
  S  S24  1  0.04584295  0.75000000  0.00064513  1
  S  S25  1  0.45415705  0.75000000  0.50064513  1
  S  S26  1  0.95415705  0.25000000  0.99935487  1
  S  S27  1  0.54584295  0.25000000  0.49935487  1
  S  S28  1  0.30366421  0.75000000  0.78628316  1
  S  S29  1  0.19633579  0.75000000  0.28628316  1
  S  S30  1  0.69633579  0.25000000  0.21371684  1
  S  S31  1  0.80366421  0.25000000  0.71371684  1
