# generated using pymatgen
data_NdCo5P3
_symmetry_space_group_name_H-M   'P 1'
_cell_length_a   3.69860531
_cell_length_b   10.36690803
_cell_length_c   11.82933909
_cell_angle_alpha   90.00000000
_cell_angle_beta   90.00000000
_cell_angle_gamma   90.00000000
_symmetry_Int_Tables_number   1
_chemical_formula_structural   NdCo5P3
_chemical_formula_sum   'Nd4 Co20 P12'
_cell_volume   453.57354453
_cell_formula_units_Z   4
loop_
 _symmetry_equiv_pos_site_id
 _symmetry_equiv_pos_as_xyz
  1  'x, y, z'
loop_
 _atom_site_type_symbol
 _atom_site_label
 _atom_site_symmetry_multiplicity
 _atom_site_fract_x
 _atom_site_fract_y
 _atom_site_fract_z
 _atom_site_occupancy
  Nd  Nd0  1  0.25000000  0.58338045  0.70330839  1
  Nd  Nd1  1  0.25000000  0.91661955  0.20330839  1
  Nd  Nd2  1  0.75000000  0.41661955  0.29669161  1
  Nd  Nd3  1  0.75000000  0.08338045  0.79669161  1
  Co  Co4  1  0.25000000  0.71429605  0.98909101  1
  Co  Co5  1  0.25000000  0.78570395  0.48909101  1
  Co  Co6  1  0.75000000  0.28570395  0.01090899  1
  Co  Co7  1  0.75000000  0.21429605  0.51090899  1
  Co  Co8  1  0.25000000  0.40604320  0.48924886  1
  Co  Co9  1  0.25000000  0.09395680  0.98924886  1
  Co  Co10  1  0.75000000  0.59395680  0.51075114  1
  Co  Co11  1  0.75000000  0.90604320  0.01075114  1
  Co  Co12  1  0.25000000  0.22028843  0.17534779  1
  Co  Co13  1  0.25000000  0.27971157  0.67534779  1
  Co  Co14  1  0.75000000  0.77971157  0.82465221  1
  Co  Co15  1  0.75000000  0.72028843  0.32465221  1
  Co  Co16  1  0.25000000  0.88186685  0.69679568  1
  Co  Co17  1  0.25000000  0.61813315  0.19679568  1
  Co  Co18  1  0.75000000  0.11813315  0.30320432  1
  Co  Co19  1  0.75000000  0.38186685  0.80320432  1
  Co  Co20  1  0.25000000  0.46698281  0.93344758  1
  Co  Co21  1  0.25000000  0.03301719  0.43344758  1
  Co  Co22  1  0.75000000  0.53301719  0.06655242  1
  Co  Co23  1  0.75000000  0.96698281  0.56655242  1
  P  P24  1  0.25000000  0.41883857  0.11023074  1
  P  P25  1  0.25000000  0.08116143  0.61023074  1
  P  P26  1  0.75000000  0.58116143  0.88976926  1
  P  P27  1  0.75000000  0.91883857  0.38976926  1
  P  P28  1  0.25000000  0.27398454  0.86984522  1
  P  P29  1  0.25000000  0.22601546  0.36984522  1
  P  P30  1  0.75000000  0.72601546  0.13015478  1
  P  P31  1  0.75000000  0.77398454  0.63015478  1
  P  P32  1  0.25000000  0.60398532  0.39253429  1
  P  P33  1  0.25000000  0.89601468  0.89253429  1
  P  P34  1  0.75000000  0.39601468  0.60746571  1
  P  P35  1  0.75000000  0.10398532  0.10746571  1
