# generated using pymatgen
data_P4H35C4(NO)16
_symmetry_space_group_name_H-M   'P 1'
_cell_length_a   13.98107509
_cell_length_b   10.72976589
_cell_length_c   10.86593630
_cell_angle_alpha   53.89878536
_cell_angle_beta   41.41962500
_cell_angle_gamma   39.97694290
_symmetry_Int_Tables_number   1
_chemical_formula_structural   P4H35C4(NO)16
_chemical_formula_sum   'P4 H35 C4 N16 O16'
_cell_volume   692.43117748
_cell_formula_units_Z   1
loop_
 _symmetry_equiv_pos_site_id
 _symmetry_equiv_pos_as_xyz
  1  'x, y, z'
loop_
 _atom_site_type_symbol
 _atom_site_label
 _atom_site_symmetry_multiplicity
 _atom_site_fract_x
 _atom_site_fract_y
 _atom_site_fract_z
 _atom_site_occupancy
  P  P0  1  0.22177509  0.24080869  0.01572071  1
  P  P1  1  0.72463267  0.24473371  0.00842156  1
  P  P2  1  0.27822491  0.75919131  0.98427929  1
  P  P3  1  0.77536733  0.75526629  0.99157844  1
  H  H4  1  0.00705567  0.99008858  0.00157562  1
  H  H5  1  0.04842194  0.31005545  0.37227740  1
  H  H6  1  0.49294433  0.00991142  0.99842438  1
  H  H7  1  0.33278610  0.24958522  0.17060504  1
  H  H8  1  0.04910044  0.22624034  0.73947904  1
  H  H9  1  0.40613705  0.21540173  0.27297965  1
  H  H10  1  0.06654371  0.70926848  0.38358594  1
  H  H11  1  0.33982568  0.06750488  0.64617804  1
  H  H12  1  0.75000000  0.00000000  0.00000000  1
  H  H13  1  0.22239295  0.30104229  0.64867617  1
  H  H14  1  0.06171347  0.48953350  0.83967398  1
  H  H15  1  0.43828653  0.51046650  0.16032602  1
  H  H16  1  0.27760705  0.69895771  0.35132383  1
  H  H17  1  0.16017432  0.93249512  0.35382196  1
  H  H18  1  0.54802888  0.31028504  0.37269232  1
  H  H19  1  0.43345629  0.29073152  0.61641406  1
  H  H20  1  0.09386295  0.78459827  0.72702035  1
  H  H21  1  0.45089956  0.77375966  0.26052096  1
  H  H22  1  0.83332235  0.24849913  0.17069065  1
  H  H23  1  0.16721390  0.75041478  0.82939496  1
  H  H24  1  0.54924033  0.22580438  0.73913201  1
  H  H25  1  0.90986093  0.21174352  0.27006346  1
  H  H26  1  0.56735072  0.70820808  0.38367176  1
  H  H27  1  0.45157806  0.68994455  0.62772260  1
  H  H28  1  0.84195055  0.06845050  0.64240640  1
  H  H29  1  0.72190416  0.30284439  0.64782512  1
  H  H30  1  0.56070275  0.49036581  0.83834548  1
  H  H31  1  0.93929725  0.50963419  0.16165452  1
  H  H32  1  0.77809584  0.69715561  0.35217488  1
  H  H33  1  0.65804945  0.93154950  0.35759360  1
  H  H34  1  0.93264928  0.29179192  0.61632824  1
  H  H35  1  0.59013907  0.78825648  0.72993654  1
  H  H36  1  0.95075967  0.77419562  0.26086799  1
  H  H37  1  0.66667765  0.75150087  0.82930935  1
  H  H38  1  0.95197112  0.68971496  0.62730768  1
  C  C39  1  0.17067217  0.24889809  0.45740175  1
  C  C40  1  0.67099080  0.24924942  0.45695215  1
  C  C41  1  0.32932783  0.75110191  0.54259825  1
  C  C42  1  0.82900920  0.75075058  0.54304785  1
  N  N43  1  0.05007957  0.26771972  0.48384375  1
  N  N44  1  0.31089779  0.24352144  0.28658255  1
  N  N45  1  0.15044768  0.23471250  0.60677173  1
  N  N46  1  0.28491460  0.19865340  0.57964836  1
  N  N47  1  0.21508540  0.80134660  0.42035164  1
  N  N48  1  0.55013202  0.26799087  0.48378229  1
  N  N49  1  0.34955232  0.76528750  0.39322827  1
  N  N50  1  0.18910221  0.75647856  0.71341745  1
  N  N51  1  0.81083223  0.24461111  0.28611436  1
  N  N52  1  0.65048331  0.23457112  0.60672164  1
  N  N53  1  0.44992043  0.73228028  0.51615625  1
  N  N54  1  0.78406135  0.20019186  0.57957281  1
  N  N55  1  0.71593865  0.79980814  0.42042719  1
  N  N56  1  0.84951669  0.76542888  0.39327836  1
  N  N57  1  0.68916777  0.75538889  0.71388564  1
  N  N58  1  0.94986798  0.73200913  0.51621771  1
  O  O59  1  0.19719720  0.08495381  0.11162519  1
  O  O60  1  0.05590255  0.41226579  0.15790925  1
  O  O61  1  0.10698909  0.83162420  0.02420077  1
  O  O62  1  0.26997801  0.66618534  0.16390512  1
  O  O63  1  0.70522829  0.08196456  0.09451317  1
  O  O64  1  0.55331329  0.40644551  0.16065143  1
  O  O65  1  0.23002199  0.33381466  0.83609488  1
  O  O66  1  0.39301091  0.16837580  0.97579923  1
  O  O67  1  0.61008644  0.83003040  0.02281353  1
  O  O68  1  0.77034951  0.66210589  0.16844196  1
  O  O69  1  0.44409745  0.58773421  0.84209075  1
  O  O70  1  0.30280280  0.91504619  0.88837481  1
  O  O71  1  0.72965049  0.33789411  0.83155804  1
  O  O72  1  0.88991356  0.16996960  0.97718647  1
  O  O73  1  0.94668671  0.59355449  0.83934857  1
  O  O74  1  0.79477171  0.91803544  0.90548683  1
