# generated using pymatgen
data_Rb3Cd(BO2)5
_symmetry_space_group_name_H-M   'P 1'
_cell_length_a   8.02796843
_cell_length_b   8.12789773
_cell_length_c   20.49062518
_cell_angle_alpha   90.00000000
_cell_angle_beta   90.00000000
_cell_angle_gamma   116.69717026
_symmetry_Int_Tables_number   1
_chemical_formula_structural   Rb3Cd(BO2)5
_chemical_formula_sum   'Rb12 Cd4 B20 O40'
_cell_volume   1194.48835976
_cell_formula_units_Z   4
loop_
 _symmetry_equiv_pos_site_id
 _symmetry_equiv_pos_as_xyz
  1  'x, y, z'
loop_
 _atom_site_type_symbol
 _atom_site_label
 _atom_site_symmetry_multiplicity
 _atom_site_fract_x
 _atom_site_fract_y
 _atom_site_fract_z
 _atom_site_occupancy
  Rb  Rb0  1  0.34526777  0.01695527  0.42119282  1
  Rb  Rb1  1  0.84526777  0.51695527  0.07880718  1
  Rb  Rb2  1  0.65473223  0.98304473  0.57880718  1
  Rb  Rb3  1  0.15473223  0.48304473  0.92119282  1
  Rb  Rb4  1  0.79036041  0.47689011  0.43596888  1
  Rb  Rb5  1  0.29036041  0.97689011  0.06403112  1
  Rb  Rb6  1  0.20963959  0.52310989  0.56403112  1
  Rb  Rb7  1  0.70963959  0.02310989  0.93596888  1
  Rb  Rb8  1  0.50771528  0.79633328  0.24614364  1
  Rb  Rb9  1  0.00771528  0.29633328  0.25385636  1
  Rb  Rb10  1  0.49228472  0.20366672  0.75385636  1
  Rb  Rb11  1  0.99228472  0.70366672  0.74614364  1
  Cd  Cd12  1  0.32248634  0.49459367  0.39206524  1
  Cd  Cd13  1  0.82248634  0.99459367  0.10793476  1
  Cd  Cd14  1  0.67751366  0.50540633  0.60793476  1
  Cd  Cd15  1  0.17751366  0.00540633  0.89206524  1
  B  B16  1  0.95805246  0.14084148  0.41926680  1
  B  B17  1  0.45805246  0.64084148  0.08073320  1
  B  B18  1  0.04194754  0.85915852  0.58073320  1
  B  B19  1  0.54194754  0.35915852  0.91926680  1
  B  B20  1  0.66558323  0.84788436  0.42175970  1
  B  B21  1  0.16558323  0.34788436  0.07824030  1
  B  B22  1  0.33441677  0.15211564  0.57824030  1
  B  B23  1  0.83441677  0.65211564  0.92175970  1
  B  B24  1  0.47710995  0.33247564  0.28139338  1
  B  B25  1  0.97710995  0.83247564  0.21860662  1
  B  B26  1  0.52289005  0.66752436  0.71860662  1
  B  B27  1  0.02289005  0.16752436  0.78139338  1
  B  B28  1  0.90994378  0.88857372  0.33623963  1
  B  B29  1  0.40994378  0.38857372  0.16376037  1
  B  B30  1  0.09005622  0.11142628  0.66376037  1
  B  B31  1  0.59005622  0.61142628  0.83623963  1
  B  B32  1  0.09427519  0.71235601  0.30915427  1
  B  B33  1  0.59427519  0.21235601  0.19084573  1
  B  B34  1  0.90572481  0.28764399  0.69084573  1
  B  B35  1  0.40572481  0.78764399  0.80915427  1
  O  O36  1  0.06354207  0.30825105  0.44561764  1
  O  O37  1  0.56354207  0.80825105  0.05438236  1
  O  O38  1  0.93645793  0.69174895  0.55438236  1
  O  O39  1  0.43645793  0.19174895  0.94561764  1
  O  O40  1  0.46646270  0.35095177  0.34650328  1
  O  O41  1  0.96646270  0.85095177  0.15349672  1
  O  O42  1  0.53353730  0.64904823  0.65349672  1
  O  O43  1  0.03353730  0.14904823  0.84650328  1
  O  O44  1  0.01080499  0.78107821  0.35359825  1
  O  O45  1  0.51080499  0.28107821  0.14640175  1
  O  O46  1  0.98919501  0.21892179  0.64640175  1
  O  O47  1  0.48919501  0.71892179  0.85359825  1
  O  O48  1  0.07389446  0.73434753  0.24155041  1
  O  O49  1  0.57389446  0.23434753  0.25844959  1
  O  O50  1  0.92610554  0.26565247  0.75844959  1
  O  O51  1  0.42610554  0.76565247  0.74155041  1
  O  O52  1  0.50598076  0.73811539  0.45357312  1
  O  O53  1  0.00598076  0.23811539  0.04642688  1
  O  O54  1  0.49401924  0.26188461  0.54642688  1
  O  O55  1  0.99401924  0.76188461  0.95357312  1
  O  O56  1  0.22005544  0.97314606  0.55305400  1
  O  O57  1  0.72005544  0.47314606  0.94694600  1
  O  O58  1  0.77994456  0.02685394  0.44694600  1
  O  O59  1  0.27994456  0.52685394  0.05305400  1
  O  O60  1  0.89848130  0.90313473  0.26457208  1
  O  O61  1  0.39848130  0.40313473  0.23542792  1
  O  O62  1  0.10151870  0.09686527  0.73542792  1
  O  O63  1  0.60151870  0.59686527  0.76457208  1
  O  O64  1  0.51261197  0.57599625  0.13516675  1
  O  O65  1  0.01261197  0.07599625  0.36483325  1
  O  O66  1  0.48738803  0.42400375  0.86483325  1
  O  O67  1  0.98738803  0.92400375  0.63516675  1
  O  O68  1  0.19584034  0.62774955  0.32839390  1
  O  O69  1  0.69584034  0.12774955  0.17160610  1
  O  O70  1  0.80415966  0.37225045  0.67160610  1
  O  O71  1  0.30415966  0.87225045  0.82839390  1
  O  O72  1  0.71896889  0.79517948  0.36431386  1
  O  O73  1  0.21896889  0.29517948  0.13568614  1
  O  O74  1  0.28103111  0.20482052  0.63568614  1
  O  O75  1  0.78103111  0.70482052  0.86431386  1
