# generated using pymatgen
data_ErFe5P3
_symmetry_space_group_name_H-M   'P 1'
_cell_length_a   3.63624210
_cell_length_b   10.23429191
_cell_length_c   11.77239780
_cell_angle_alpha   90.00000000
_cell_angle_beta   90.00000000
_cell_angle_gamma   90.00000000
_symmetry_Int_Tables_number   1
_chemical_formula_structural   ErFe5P3
_chemical_formula_sum   'Er4 Fe20 P12'
_cell_volume   438.10228637
_cell_formula_units_Z   4
loop_
 _symmetry_equiv_pos_site_id
 _symmetry_equiv_pos_as_xyz
  1  'x, y, z'
loop_
 _atom_site_type_symbol
 _atom_site_label
 _atom_site_symmetry_multiplicity
 _atom_site_fract_x
 _atom_site_fract_y
 _atom_site_fract_z
 _atom_site_occupancy
  Er  Er0  1  0.25000000  0.58121258  0.70453375  1
  Er  Er1  1  0.25000000  0.91878742  0.20453375  1
  Er  Er2  1  0.75000000  0.41878742  0.29546625  1
  Er  Er3  1  0.75000000  0.08121258  0.79546625  1
  Fe  Fe4  1  0.25000000  0.70775911  0.98806786  1
  Fe  Fe5  1  0.25000000  0.79224089  0.48806786  1
  Fe  Fe6  1  0.75000000  0.29224089  0.01193214  1
  Fe  Fe7  1  0.75000000  0.20775911  0.51193214  1
  Fe  Fe8  1  0.25000000  0.40502450  0.48990210  1
  Fe  Fe9  1  0.25000000  0.09497550  0.98990210  1
  Fe  Fe10  1  0.75000000  0.59497550  0.51009790  1
  Fe  Fe11  1  0.75000000  0.90502450  0.01009790  1
  Fe  Fe12  1  0.25000000  0.21973219  0.17625302  1
  Fe  Fe13  1  0.25000000  0.28026781  0.67625302  1
  Fe  Fe14  1  0.75000000  0.78026781  0.82374698  1
  Fe  Fe15  1  0.75000000  0.71973219  0.32374698  1
  Fe  Fe16  1  0.25000000  0.87674843  0.70102737  1
  Fe  Fe17  1  0.25000000  0.62325157  0.20102737  1
  Fe  Fe18  1  0.75000000  0.12325157  0.29897263  1
  Fe  Fe19  1  0.75000000  0.37674843  0.79897263  1
  Fe  Fe20  1  0.25000000  0.46373430  0.93319054  1
  Fe  Fe21  1  0.25000000  0.03626570  0.43319054  1
  Fe  Fe22  1  0.75000000  0.53626570  0.06680946  1
  Fe  Fe23  1  0.75000000  0.96373430  0.56680946  1
  P  P24  1  0.25000000  0.42124646  0.11292777  1
  P  P25  1  0.25000000  0.07875354  0.61292777  1
  P  P26  1  0.75000000  0.57875354  0.88707223  1
  P  P27  1  0.75000000  0.92124646  0.38707223  1
  P  P28  1  0.25000000  0.26522035  0.87147413  1
  P  P29  1  0.25000000  0.23477965  0.37147413  1
  P  P30  1  0.75000000  0.73477965  0.12852587  1
  P  P31  1  0.75000000  0.76522035  0.62852587  1
  P  P32  1  0.25000000  0.60051022  0.39582320  1
  P  P33  1  0.25000000  0.89948978  0.89582320  1
  P  P34  1  0.75000000  0.39948978  0.60417680  1
  P  P35  1  0.75000000  0.10051022  0.10417680  1
