# generated using pymatgen
data_Cs9Fe2Se7
_symmetry_space_group_name_H-M   'P 1'
_cell_length_a   14.34839790
_cell_length_b   14.34839790
_cell_length_c   14.34839790
_cell_angle_alpha   90.00000000
_cell_angle_beta   90.00000000
_cell_angle_gamma   90.00000000
_symmetry_Int_Tables_number   1
_chemical_formula_structural   Cs9Fe2Se7
_chemical_formula_sum   'Cs36 Fe8 Se28'
_cell_volume   2953.99826018
_cell_formula_units_Z   4
loop_
 _symmetry_equiv_pos_site_id
 _symmetry_equiv_pos_as_xyz
  1  'x, y, z'
loop_
 _atom_site_type_symbol
 _atom_site_label
 _atom_site_symmetry_multiplicity
 _atom_site_fract_x
 _atom_site_fract_y
 _atom_site_fract_z
 _atom_site_occupancy
  Cs  Cs0  1  0.20162057  0.16710816  0.50213063  1
  Cs  Cs1  1  0.49786937  0.70162057  0.33289184  1
  Cs  Cs2  1  0.66710816  0.99786937  0.79837943  1
  Cs  Cs3  1  0.70162057  0.33289184  0.49786937  1
  Cs  Cs4  1  0.99786937  0.79837943  0.66710816  1
  Cs  Cs5  1  0.16710816  0.50213063  0.20162057  1
  Cs  Cs6  1  0.79837943  0.66710816  0.99786937  1
  Cs  Cs7  1  0.50213063  0.20162057  0.16710816  1
  Cs  Cs8  1  0.33289184  0.49786937  0.70162057  1
  Cs  Cs9  1  0.29837943  0.83289184  0.00213063  1
  Cs  Cs10  1  0.00213063  0.29837943  0.83289184  1
  Cs  Cs11  1  0.83289184  0.00213063  0.29837943  1
  Cs  Cs12  1  0.70714668  0.82326972  0.54291459  1
  Cs  Cs13  1  0.45708541  0.20714668  0.67673028  1
  Cs  Cs14  1  0.32326972  0.95708541  0.29285332  1
  Cs  Cs15  1  0.20714668  0.67673028  0.45708541  1
  Cs  Cs16  1  0.95708541  0.29285332  0.32326972  1
  Cs  Cs17  1  0.82326972  0.54291459  0.70714668  1
  Cs  Cs18  1  0.29285332  0.32326972  0.95708541  1
  Cs  Cs19  1  0.54291459  0.70714668  0.82326972  1
  Cs  Cs20  1  0.67673028  0.45708541  0.20714668  1
  Cs  Cs21  1  0.79285332  0.17673028  0.04291459  1
  Cs  Cs22  1  0.04291459  0.79285332  0.17673028  1
  Cs  Cs23  1  0.17673028  0.04291459  0.79285332  1
  Cs  Cs24  1  0.08279360  0.58279360  0.91720640  1
  Cs  Cs25  1  0.58279360  0.91720640  0.08279360  1
  Cs  Cs26  1  0.91720640  0.08279360  0.58279360  1
  Cs  Cs27  1  0.41720640  0.41720640  0.41720640  1
  Cs  Cs28  1  0.26149841  0.76149841  0.73850159  1
  Cs  Cs29  1  0.76149841  0.73850159  0.26149841  1
  Cs  Cs30  1  0.73850159  0.26149841  0.76149841  1
  Cs  Cs31  1  0.23850159  0.23850159  0.23850159  1
  Cs  Cs32  1  0.44138611  0.94138611  0.55861389  1
  Cs  Cs33  1  0.94138611  0.55861389  0.44138611  1
  Cs  Cs34  1  0.55861389  0.44138611  0.94138611  1
  Cs  Cs35  1  0.05861389  0.05861389  0.05861389  1
  Fe  Fe36  1  0.92942941  0.42942941  0.07057059  1
  Fe  Fe37  1  0.42942941  0.07057059  0.92942941  1
  Fe  Fe38  1  0.07057059  0.92942941  0.42942941  1
  Fe  Fe39  1  0.57057059  0.57057059  0.57057059  1
  Fe  Fe40  1  0.60019019  0.10019019  0.39980981  1
  Fe  Fe41  1  0.10019019  0.39980981  0.60019019  1
  Fe  Fe42  1  0.39980981  0.60019019  0.10019019  1
  Fe  Fe43  1  0.89980981  0.89980981  0.89980981  1
  Se  Se44  1  0.66247239  0.08813308  0.55873965  1
  Se  Se45  1  0.44126035  0.16247239  0.41186692  1
  Se  Se46  1  0.58813308  0.94126035  0.33752761  1
  Se  Se47  1  0.16247239  0.41186692  0.44126035  1
  Se  Se48  1  0.94126035  0.33752761  0.58813308  1
  Se  Se49  1  0.08813308  0.55873965  0.66247239  1
  Se  Se50  1  0.33752761  0.58813308  0.94126035  1
  Se  Se51  1  0.55873965  0.66247239  0.08813308  1
  Se  Se52  1  0.41186692  0.44126035  0.16247239  1
  Se  Se53  1  0.83752761  0.91186692  0.05873965  1
  Se  Se54  1  0.05873965  0.83752761  0.91186692  1
  Se  Se55  1  0.91186692  0.05873965  0.83752761  1
  Se  Se56  1  0.18250621  0.92292016  0.55209765  1
  Se  Se57  1  0.44790235  0.68250621  0.57707984  1
  Se  Se58  1  0.42292016  0.94790235  0.81749379  1
  Se  Se59  1  0.68250621  0.57707984  0.44790235  1
  Se  Se60  1  0.94790235  0.81749379  0.42292016  1
  Se  Se61  1  0.92292016  0.55209765  0.18250621  1
  Se  Se62  1  0.81749379  0.42292016  0.94790235  1
  Se  Se63  1  0.55209765  0.18250621  0.92292016  1
  Se  Se64  1  0.57707984  0.44790235  0.68250621  1
  Se  Se65  1  0.31749379  0.07707984  0.05209765  1
  Se  Se66  1  0.05209765  0.31749379  0.07707984  1
  Se  Se67  1  0.07707984  0.05209765  0.31749379  1
  Se  Se68  1  0.70100197  0.20100197  0.29899803  1
  Se  Se69  1  0.20100197  0.29899803  0.70100197  1
  Se  Se70  1  0.29899803  0.70100197  0.20100197  1
  Se  Se71  1  0.79899803  0.79899803  0.79899803  1
