# generated using pymatgen
data_Gd2Nb2S7O30
_symmetry_space_group_name_H-M   'P 1'
_cell_length_a   7.19319137
_cell_length_b   12.90517782
_cell_length_c   12.90517782
_cell_angle_alpha   90.00000000
_cell_angle_beta   90.00000000
_cell_angle_gamma   90.00000000
_symmetry_Int_Tables_number   1
_chemical_formula_structural   Gd2Nb2S7O30
_chemical_formula_sum   'Gd4 Nb4 S14 O60'
_cell_volume   1197.98009102
_cell_formula_units_Z   2
loop_
 _symmetry_equiv_pos_site_id
 _symmetry_equiv_pos_as_xyz
  1  'x, y, z'
loop_
 _atom_site_type_symbol
 _atom_site_label
 _atom_site_symmetry_multiplicity
 _atom_site_fract_x
 _atom_site_fract_y
 _atom_site_fract_z
 _atom_site_occupancy
  Gd  Gd0  1  0.59219860  0.80116917  0.30116917  1
  Gd  Gd1  1  0.40780140  0.69883083  0.80116917  1
  Gd  Gd2  1  0.59219860  0.19883083  0.69883083  1
  Gd  Gd3  1  0.40780140  0.30116917  0.19883083  1
  Nb  Nb4  1  0.98241796  0.63819991  0.13819991  1
  Nb  Nb5  1  0.01758204  0.86180009  0.63819991  1
  Nb  Nb6  1  0.98241796  0.36180009  0.86180009  1
  Nb  Nb7  1  0.01758204  0.13819991  0.36180009  1
  S  S8  1  0.34548525  0.50000000  0.00000000  1
  S  S9  1  0.65451475  -0.00000000  0.50000000  1
  S  S10  1  0.89562966  0.37678873  0.12321127  1
  S  S11  1  0.10437034  0.12321127  0.62321127  1
  S  S12  1  0.89562966  0.62321127  0.87678873  1
  S  S13  1  0.10437034  0.87678873  0.37678873  1
  S  S14  1  0.29660579  0.56458543  0.32363417  1
  S  S15  1  0.70339421  0.93541457  0.82363417  1
  S  S16  1  0.29660579  0.43541457  0.67636583  1
  S  S17  1  0.70339421  0.06458543  0.17636583  1
  S  S18  1  0.70339421  0.67636583  0.56458543  1
  S  S19  1  0.29660579  0.82363417  0.06458543  1
  S  S20  1  0.70339421  0.32363417  0.43541457  1
  S  S21  1  0.29660579  0.17636583  0.93541457  1
  O  O22  1  0.79239587  0.70049705  0.20049705  1
  O  O23  1  0.20760413  0.79950295  0.70049705  1
  O  O24  1  0.79239587  0.29950295  0.79950295  1
  O  O25  1  0.20760413  0.20049705  0.29950295  1
  O  O26  1  0.45995214  0.56714003  0.93285997  1
  O  O27  1  0.54004786  0.93285997  0.43285997  1
  O  O28  1  0.45995214  0.43285997  0.06714003  1
  O  O29  1  0.54004786  0.06714003  0.56714003  1
  O  O30  1  0.22488436  0.56609427  0.06609427  1
  O  O31  1  0.77511564  0.93390573  0.56609427  1
  O  O32  1  0.22488436  0.43390573  0.93390573  1
  O  O33  1  0.77511564  0.06609427  0.43390573  1
  O  O34  1  0.07931877  0.34359832  0.15640168  1
  O  O35  1  0.92068123  0.15640168  0.65640168  1
  O  O36  1  0.07931877  0.65640168  0.84359832  1
  O  O37  1  0.92068123  0.84359832  0.34359832  1
  O  O38  1  0.74272655  0.32398622  0.17601378  1
  O  O39  1  0.25727345  0.17601378  0.67601378  1
  O  O40  1  0.74272655  0.67601378  0.82398622  1
  O  O41  1  0.25727345  0.82398622  0.32398622  1
  O  O42  1  0.87220592  0.49139560  0.14176563  1
  O  O43  1  0.12779408  0.00860440  0.64176563  1
  O  O44  1  0.87220592  0.50860440  0.85823437  1
  O  O45  1  0.12779408  0.99139560  0.35823437  1
  O  O46  1  0.12779408  0.85823437  0.49139560  1
  O  O47  1  0.87220592  0.64176563  0.99139560  1
  O  O48  1  0.12779408  0.14176563  0.50860440  1
  O  O49  1  0.87220592  0.35823437  0.00860440  1
  O  O50  1  0.45157683  0.63103117  0.28944353  1
  O  O51  1  0.54842317  0.86896883  0.78944353  1
  O  O52  1  0.45157683  0.36896883  0.71055647  1
  O  O53  1  0.54842317  0.13103117  0.21055647  1
  O  O54  1  0.54842317  0.71055647  0.63103117  1
  O  O55  1  0.45157683  0.78944353  0.13103117  1
  O  O56  1  0.54842317  0.28944353  0.36896883  1
  O  O57  1  0.45157683  0.21055647  0.86896883  1
  O  O58  1  0.32417509  0.45682462  0.29150550  1
  O  O59  1  0.67582491  0.04317538  0.79150550  1
  O  O60  1  0.32417509  0.54317538  0.70849450  1
  O  O61  1  0.67582491  0.95682462  0.20849450  1
  O  O62  1  0.67582491  0.70849450  0.45682462  1
  O  O63  1  0.32417509  0.79150550  0.95682462  1
  O  O64  1  0.67582491  0.29150550  0.54317538  1
  O  O65  1  0.32417509  0.20849450  0.04317538  1
  O  O66  1  0.26716764  0.57536098  0.43513207  1
  O  O67  1  0.73283236  0.92463902  0.93513207  1
  O  O68  1  0.26716764  0.42463902  0.56486793  1
  O  O69  1  0.73283236  0.07536098  0.06486793  1
  O  O70  1  0.73283236  0.56486793  0.57536098  1
  O  O71  1  0.26716764  0.93513207  0.07536098  1
  O  O72  1  0.73283236  0.43513207  0.42463902  1
  O  O73  1  0.26716764  0.06486793  0.92463902  1
  O  O74  1  0.11977268  0.60527658  0.26943771  1
  O  O75  1  0.88022732  0.89472342  0.76943771  1
  O  O76  1  0.11977268  0.39472342  0.73056229  1
  O  O77  1  0.88022732  0.10527658  0.23056229  1
  O  O78  1  0.88022732  0.73056229  0.60527658  1
  O  O79  1  0.11977268  0.76943771  0.10527658  1
  O  O80  1  0.88022732  0.26943771  0.39472342  1
  O  O81  1  0.11977268  0.23056229  0.89472342  1
