# generated using pymatgen
data_Na2MoH2O3F4
_symmetry_space_group_name_H-M   'P 1'
_cell_length_a   5.50311155
_cell_length_b   5.83138023
_cell_length_c   19.46319824
_cell_angle_alpha   90.00000000
_cell_angle_beta   90.00000000
_cell_angle_gamma   90.00000000
_symmetry_Int_Tables_number   1
_chemical_formula_structural   Na2MoH2O3F4
_chemical_formula_sum   'Na8 Mo4 H8 O12 F16'
_cell_volume   624.58835441
_cell_formula_units_Z   4
loop_
 _symmetry_equiv_pos_site_id
 _symmetry_equiv_pos_as_xyz
  1  'x, y, z'
loop_
 _atom_site_type_symbol
 _atom_site_label
 _atom_site_symmetry_multiplicity
 _atom_site_fract_x
 _atom_site_fract_y
 _atom_site_fract_z
 _atom_site_occupancy
  Na  Na0  1  0.26127592  0.76163201  0.36182349  1
  Na  Na1  1  0.23872408  0.23836799  0.86182349  1
  Na  Na2  1  0.76127592  0.73836799  0.63817651  1
  Na  Na3  1  0.73872408  0.26163201  0.13817651  1
  Na  Na4  1  0.73976638  0.81770055  0.25027647  1
  Na  Na5  1  0.76023362  0.18229945  0.75027647  1
  Na  Na6  1  0.23976638  0.68229945  0.74972353  1
  Na  Na7  1  0.26023362  0.31770055  0.24972353  1
  Mo  Mo8  1  0.76513765  0.26048981  0.36408609  1
  Mo  Mo9  1  0.73486235  0.73951019  0.86408609  1
  Mo  Mo10  1  0.26513765  0.23951019  0.63591391  1
  Mo  Mo11  1  0.23486235  0.76048981  0.13591391  1
  H  H12  1  0.30275139  0.97231604  0.49805583  1
  H  H13  1  0.19724861  0.02768396  0.99805583  1
  H  H14  1  0.80275139  0.52768396  0.50194417  1
  H  H15  1  0.69724861  0.47231604  0.00194417  1
  H  H16  1  0.50509272  0.78502732  0.49504805  1
  H  H17  1  0.99490728  0.21497268  0.99504805  1
  H  H18  1  0.00509272  0.71497268  0.50495195  1
  H  H19  1  0.49490728  0.28502732  0.00495195  1
  O  O20  1  0.64201344  0.28435235  0.44567713  1
  O  O21  1  0.85798656  0.71564765  0.94567713  1
  O  O22  1  0.14201344  0.21564765  0.55432287  1
  O  O23  1  0.35798656  0.78435235  0.05432287  1
  O  O24  1  0.03426664  0.41519844  0.37053256  1
  O  O25  1  0.46573336  0.58480156  0.87053256  1
  O  O26  1  0.53426664  0.08480156  0.62946744  1
  O  O27  1  0.96573336  0.91519844  0.12946744  1
  O  O28  1  0.33728084  0.81814749  0.48034465  1
  O  O29  1  0.16271916  0.18185251  0.98034465  1
  O  O30  1  0.83728084  0.68185251  0.51965535  1
  O  O31  1  0.66271916  0.31814749  0.01965535  1
  F  F32  1  0.85991573  0.20575972  0.25740354  1
  F  F33  1  0.64008427  0.79424028  0.75740354  1
  F  F34  1  0.35991573  0.29424028  0.74259646  1
  F  F35  1  0.14008427  0.70575972  0.24259646  1
  F  F36  1  0.90206269  0.95176107  0.37137890  1
  F  F37  1  0.59793731  0.04823893  0.87137890  1
  F  F38  1  0.40206269  0.54823893  0.62862110  1
  F  F39  1  0.09793731  0.45176107  0.12862110  1
  F  F40  1  0.47524754  0.07319838  0.32250540  1
  F  F41  1  0.02475246  0.92680162  0.82250540  1
  F  F42  1  0.97524754  0.42680162  0.67749460  1
  F  F43  1  0.52475246  0.57319838  0.17749460  1
  F  F44  1  0.57384124  0.51916221  0.32468862  1
  F  F45  1  0.92615876  0.48083779  0.82468862  1
  F  F46  1  0.07384124  0.98083779  0.67531138  1
  F  F47  1  0.42615876  0.01916221  0.17531138  1
