# generated using pymatgen
data_K2Na2Nd4Nb2O13
_symmetry_space_group_name_H-M   'P 1'
_cell_length_a   5.78377543
_cell_length_b   11.44575219
_cell_length_c   12.64859367
_cell_angle_alpha   115.82905515
_cell_angle_beta   103.21661244
_cell_angle_gamma   90.00000000
_symmetry_Int_Tables_number   1
_chemical_formula_structural   K2Na2Nd4Nb2O13
_chemical_formula_sum   'K4 Na4 Nd8 Nb4 O26'
_cell_volume   728.96197155
_cell_formula_units_Z   2
loop_
 _symmetry_equiv_pos_site_id
 _symmetry_equiv_pos_as_xyz
  1  'x, y, z'
loop_
 _atom_site_type_symbol
 _atom_site_label
 _atom_site_symmetry_multiplicity
 _atom_site_fract_x
 _atom_site_fract_y
 _atom_site_fract_z
 _atom_site_occupancy
  K  K0  1  0.20077355  0.86688712  0.50124373  1
  K  K1  1  0.69952981  0.63311288  0.49875627  1
  K  K2  1  0.79922645  0.13311288  0.49875627  1
  K  K3  1  0.30047019  0.36688712  0.50124373  1
  Na  Na4  1  0.12428086  0.52427113  0.31870785  1
  Na  Na5  1  0.80557301  0.97572887  0.68129215  1
  Na  Na6  1  0.87571914  0.47572887  0.68129215  1
  Na  Na7  1  0.19442699  0.02427113  0.31870785  1
  Nd  Nd8  1  0.39153235  0.04914962  0.87277275  1
  Nd  Nd9  1  0.51875960  0.45085038  0.12722725  1
  Nd  Nd10  1  0.60846765  0.95085038  0.12722725  1
  Nd  Nd11  1  0.48124040  0.54914962  0.87277275  1
  Nd  Nd12  1  0.02673487  0.67332910  0.12689378  1
  Nd  Nd13  1  0.89984108  0.82667090  0.87310622  1
  Nd  Nd14  1  0.97326513  0.32667090  0.87310622  1
  Nd  Nd15  1  0.10015892  0.17332910  0.12689378  1
  Nb  Nb16  1  0.31540445  0.71589722  0.69572963  1
  Nb  Nb17  1  0.61967482  0.78410278  0.30427037  1
  Nb  Nb18  1  0.68459555  0.28410278  0.30427037  1
  Nb  Nb19  1  0.38032518  0.21589722  0.69572963  1
  O  O20  1  0.09657887  0.85849974  0.73427914  1
  O  O21  1  0.36229973  0.64150026  0.26572086  1
  O  O22  1  0.90342113  0.14150026  0.26572086  1
  O  O23  1  0.63770027  0.35849974  0.73427914  1
  O  O24  1  0.13938463  0.12268023  0.72879805  1
  O  O25  1  0.41058658  0.37731977  0.27120195  1
  O  O26  1  0.86061537  0.87731977  0.27120195  1
  O  O27  1  0.58941342  0.62268023  0.72879805  1
  O  O28  1  0.82344746  0.64007154  0.26298982  1
  O  O29  1  0.56045765  0.85992846  0.73701018  1
  O  O30  1  0.17655254  0.35992846  0.73701018  1
  O  O31  1  0.43954235  0.14007154  0.26298982  1
  O  O32  1  0.20174386  0.62262553  0.52778789  1
  O  O33  1  0.67395597  0.87737447  0.47221211  1
  O  O34  1  0.79825614  0.37737447  0.47221211  1
  O  O35  1  0.32604403  0.12262553  0.52778789  1
  O  O36  1  0.75909176  0.75000000  -0.00000000  1
  O  O37  1  0.24090824  0.25000000  -0.00000000  1
  O  O38  1  0.62646968  0.15741131  0.79319415  1
  O  O39  1  0.83327553  0.34258869  0.20680585  1
  O  O40  1  0.37353032  0.84258869  0.20680585  1
  O  O41  1  0.16672447  0.65741131  0.79319415  1
  O  O42  1  0.24947929  0.97713973  0.00252395  1
  O  O43  1  0.24695533  0.52286027  0.99747605  1
  O  O44  1  0.75052071  0.02286027  0.99747605  1
  O  O45  1  0.75304467  0.47713973  0.00252395  1
