# generated using pymatgen
data_Eu3TaAs3O
_symmetry_space_group_name_H-M   'P 1'
_cell_length_a   6.24340904
_cell_length_b   10.57832579
_cell_length_c   12.78732630
_cell_angle_alpha   90.00000000
_cell_angle_beta   90.00000000
_cell_angle_gamma   90.00000000
_symmetry_Int_Tables_number   1
_chemical_formula_structural   Eu3TaAs3O
_chemical_formula_sum   'Eu12 Ta4 As12 O4'
_cell_volume   844.53659811
_cell_formula_units_Z   4
loop_
 _symmetry_equiv_pos_site_id
 _symmetry_equiv_pos_as_xyz
  1  'x, y, z'
loop_
 _atom_site_type_symbol
 _atom_site_label
 _atom_site_symmetry_multiplicity
 _atom_site_fract_x
 _atom_site_fract_y
 _atom_site_fract_z
 _atom_site_occupancy
  Eu  Eu0  1  0.25374905  0.04138083  0.37292011  1
  Eu  Eu1  1  0.75374905  0.45861917  0.12707989  1
  Eu  Eu2  1  0.74625095  0.54138083  0.62707989  1
  Eu  Eu3  1  0.24625095  0.95861917  0.87292011  1
  Eu  Eu4  1  0.74625095  0.95861917  0.62707989  1
  Eu  Eu5  1  0.24625095  0.54138083  0.87292011  1
  Eu  Eu6  1  0.25374905  0.45861917  0.37292011  1
  Eu  Eu7  1  0.75374905  0.04138083  0.12707989  1
  Eu  Eu8  1  0.76742796  0.75000000  0.37182537  1
  Eu  Eu9  1  0.26742796  0.75000000  0.12817463  1
  Eu  Eu10  1  0.23257204  0.25000000  0.62817463  1
  Eu  Eu11  1  0.73257204  0.25000000  0.87182537  1
  Ta  Ta12  1  0.66090926  0.25000000  0.45101180  1
  Ta  Ta13  1  0.16090926  0.25000000  0.04898820  1
  Ta  Ta14  1  0.33909074  0.75000000  0.54898820  1
  Ta  Ta15  1  0.83909074  0.75000000  0.95101180  1
  As  As16  1  0.26527178  0.75000000  0.35992220  1
  As  As17  1  0.76527178  0.75000000  0.14007780  1
  As  As18  1  0.73472822  0.25000000  0.64007780  1
  As  As19  1  0.23472822  0.25000000  0.85992220  1
  As  As20  1  0.76274583  0.04214312  0.37536702  1
  As  As21  1  0.26274583  0.45785688  0.12463298  1
  As  As22  1  0.23725417  0.54214312  0.62463298  1
  As  As23  1  0.73725417  0.95785688  0.87536702  1
  As  As24  1  0.23725417  0.95785688  0.62463298  1
  As  As25  1  0.73725417  0.54214312  0.87536702  1
  As  As26  1  0.76274583  0.45785688  0.37536702  1
  As  As27  1  0.26274583  0.04214312  0.12463298  1
  O  O28  1  0.85549699  0.25000000  0.05593958  1
  O  O29  1  0.35549699  0.25000000  0.44406042  1
  O  O30  1  0.14450301  0.75000000  0.94406042  1
  O  O31  1  0.64450301  0.75000000  0.55593958  1
