# generated using pymatgen
data_Cu3P8(Se2Br)3
_symmetry_space_group_name_H-M   'P 1'
_cell_length_a   6.59349681
_cell_length_b   11.62688141
_cell_length_c   27.46489016
_cell_angle_alpha   90.00000000
_cell_angle_beta   90.00000000
_cell_angle_gamma   90.00000000
_symmetry_Int_Tables_number   1
_chemical_formula_structural   Cu3P8(Se2Br)3
_chemical_formula_sum   'Cu12 P32 Se24 Br12'
_cell_volume   2105.50806717
_cell_formula_units_Z   4
loop_
 _symmetry_equiv_pos_site_id
 _symmetry_equiv_pos_as_xyz
  1  'x, y, z'
loop_
 _atom_site_type_symbol
 _atom_site_label
 _atom_site_symmetry_multiplicity
 _atom_site_fract_x
 _atom_site_fract_y
 _atom_site_fract_z
 _atom_site_occupancy
  Cu  Cu0  1  0.29817711  0.63782805  0.75000000  1
  Cu  Cu1  1  0.79817711  0.86217195  0.75000000  1
  Cu  Cu2  1  0.70182289  0.36217195  0.25000000  1
  Cu  Cu3  1  0.20182289  0.13782805  0.25000000  1
  Cu  Cu4  1  0.76085272  0.63885314  0.99629034  1
  Cu  Cu5  1  0.26085272  0.86114686  0.50370966  1
  Cu  Cu6  1  0.23914728  0.36114686  0.49629034  1
  Cu  Cu7  1  0.73914728  0.13885314  0.00370966  1
  Cu  Cu8  1  0.23914728  0.36114686  0.00370966  1
  Cu  Cu9  1  0.73914728  0.13885314  0.49629034  1
  Cu  Cu10  1  0.76085272  0.63885314  0.50370966  1
  Cu  Cu11  1  0.26085272  0.86114686  0.99629034  1
  P  P12  1  0.40141764  0.54712807  0.81818133  1
  P  P13  1  0.90141764  0.95287193  0.68181867  1
  P  P14  1  0.59858236  0.45287193  0.31818133  1
  P  P15  1  0.09858236  0.04712807  0.18181867  1
  P  P16  1  0.59858236  0.45287193  0.18181867  1
  P  P17  1  0.09858236  0.04712807  0.31818133  1
  P  P18  1  0.40141764  0.54712807  0.68181867  1
  P  P19  1  0.90141764  0.95287193  0.81818133  1
  P  P20  1  0.36067396  0.42538678  0.93177918  1
  P  P21  1  0.86067396  0.07461322  0.56822082  1
  P  P22  1  0.63932604  0.57461322  0.43177918  1
  P  P23  1  0.13932604  0.92538678  0.06822082  1
  P  P24  1  0.63932604  0.57461322  0.06822082  1
  P  P25  1  0.13932604  0.92538678  0.43177918  1
  P  P26  1  0.36067396  0.42538678  0.56822082  1
  P  P27  1  0.86067396  0.07461322  0.93177918  1
  P  P28  1  0.65409184  0.36378072  0.89786150  1
  P  P29  1  0.15409184  0.13621928  0.60213850  1
  P  P30  1  0.34590816  0.63621928  0.39786150  1
  P  P31  1  0.84590816  0.86378072  0.10213850  1
  P  P32  1  0.34590816  0.63621928  0.10213850  1
  P  P33  1  0.84590816  0.86378072  0.39786150  1
  P  P34  1  0.65409184  0.36378072  0.60213850  1
  P  P35  1  0.15409184  0.13621928  0.89786150  1
  P  P36  1  0.62821517  0.54395070  0.93043659  1
  P  P37  1  0.12821517  0.95604930  0.56956341  1
  P  P38  1  0.37178483  0.45604930  0.43043659  1
  P  P39  1  0.87178483  0.04395070  0.06956341  1
  P  P40  1  0.37178483  0.45604930  0.06956341  1
  P  P41  1  0.87178483  0.04395070  0.43043659  1
  P  P42  1  0.62821517  0.54395070  0.56956341  1
  P  P43  1  0.12821517  0.95604930  0.93043659  1
  Se  Se44  1  0.57595282  0.66667435  0.86826761  1
  Se  Se45  1  0.07595282  0.83332565  0.63173239  1
  Se  Se46  1  0.42404718  0.33332565  0.36826761  1
  Se  Se47  1  0.92404718  0.16667435  0.13173239  1
  Se  Se48  1  0.42404718  0.33332565  0.13173239  1
  Se  Se49  1  0.92404718  0.16667435  0.36826761  1
  Se  Se50  1  0.57595282  0.66667435  0.63173239  1
  Se  Se51  1  0.07595282  0.83332565  0.86826761  1
  Se  Se52  1  0.15671989  0.47908335  0.86950793  1
  Se  Se53  1  0.65671989  0.02091665  0.63049207  1
  Se  Se54  1  0.84328011  0.52091665  0.36950793  1
  Se  Se55  1  0.34328011  0.97908335  0.13049207  1
  Se  Se56  1  0.84328011  0.52091665  0.13049207  1
  Se  Se57  1  0.34328011  0.97908335  0.36950793  1
  Se  Se58  1  0.15671989  0.47908335  0.63049207  1
  Se  Se59  1  0.65671989  0.02091665  0.86950793  1
  Se  Se60  1  0.61097706  0.38923477  0.81696266  1
  Se  Se61  1  0.11097706  0.11076523  0.68303734  1
  Se  Se62  1  0.38902294  0.61076523  0.31696266  1
  Se  Se63  1  0.88902294  0.88923477  0.18303734  1
  Se  Se64  1  0.38902294  0.61076523  0.18303734  1
  Se  Se65  1  0.88902294  0.88923477  0.31696266  1
  Se  Se66  1  0.61097706  0.38923477  0.68303734  1
  Se  Se67  1  0.11097706  0.11076523  0.81696266  1
  Br  Br68  1  0.92597126  0.65965837  0.75000000  1
  Br  Br69  1  0.42597126  0.84034163  0.75000000  1
  Br  Br70  1  0.07402874  0.34034163  0.25000000  1
  Br  Br71  1  0.57402874  0.15965837  0.25000000  1
  Br  Br72  1  0.13022689  0.66030762  0.98796093  1
  Br  Br73  1  0.63022689  0.83969238  0.51203907  1
  Br  Br74  1  0.86977311  0.33969238  0.48796093  1
  Br  Br75  1  0.36977311  0.16030762  0.01203907  1
  Br  Br76  1  0.86977311  0.33969238  0.01203907  1
  Br  Br77  1  0.36977311  0.16030762  0.48796093  1
  Br  Br78  1  0.13022689  0.66030762  0.51203907  1
  Br  Br79  1  0.63022689  0.83969238  0.98796093  1
