# generated using pymatgen
data_P4Se3Br2
_symmetry_space_group_name_H-M   'P 1'
_cell_length_a   10.65504135
_cell_length_b   10.65504135
_cell_length_c   13.34329508
_cell_angle_alpha   107.69484450
_cell_angle_beta   107.69484450
_cell_angle_gamma   99.39114127
_symmetry_Int_Tables_number   1
_chemical_formula_structural   P4Se3Br2
_chemical_formula_sum   'P16 Se12 Br8'
_cell_volume   1319.28589999
_cell_formula_units_Z   4
loop_
 _symmetry_equiv_pos_site_id
 _symmetry_equiv_pos_as_xyz
  1  'x, y, z'
loop_
 _atom_site_type_symbol
 _atom_site_label
 _atom_site_symmetry_multiplicity
 _atom_site_fract_x
 _atom_site_fract_y
 _atom_site_fract_z
 _atom_site_occupancy
  P  P0  1  0.30986093  0.85701991  0.42168311  1
  P  P1  1  0.14298009  0.69013907  0.07831689  1
  P  P2  1  0.69013907  0.14298009  0.57831689  1
  P  P3  1  0.85701991  0.30986093  0.92168311  1
  P  P4  1  0.00101358  0.72171299  0.16888362  1
  P  P5  1  0.27828701  0.99898642  0.33111638  1
  P  P6  1  0.99898642  0.27828701  0.83111638  1
  P  P7  1  0.72171299  0.00101358  0.66888362  1
  P  P8  1  0.64488185  0.59330000  0.41380593  1
  P  P9  1  0.40670000  0.35511815  0.08619407  1
  P  P10  1  0.35511815  0.40670000  0.58619407  1
  P  P11  1  0.59330000  0.64488185  0.91380593  1
  P  P12  1  0.63175750  0.40600581  0.13321737  1
  P  P13  1  0.59399419  0.36824250  0.36678263  1
  P  P14  1  0.36824250  0.59399419  0.86678263  1
  P  P15  1  0.40600581  0.63175750  0.63321737  1
  Se  Se16  1  0.13107151  0.66195683  0.30850966  1
  Se  Se17  1  0.33804317  0.86892849  0.19149034  1
  Se  Se18  1  0.86892849  0.33804317  0.69149034  1
  Se  Se19  1  0.66195683  0.13107151  0.80850966  1
  Se  Se20  1  0.04784198  0.95215802  0.25000000  1
  Se  Se21  1  0.95215802  0.04784198  0.75000000  1
  Se  Se22  1  0.66112375  0.62293515  0.25350069  1
  Se  Se23  1  0.37706485  0.33887625  0.24649931  1
  Se  Se24  1  0.33887625  0.37706485  0.74649931  1
  Se  Se25  1  0.62293515  0.66112375  0.75350069  1
  Se  Se26  1  0.70508327  0.29491673  0.25000000  1
  Se  Se27  1  0.29491673  0.70508327  0.75000000  1
  Br  Br28  1  0.23983179  0.95780699  0.56486994  1
  Br  Br29  1  0.04219301  0.76016821  0.93513006  1
  Br  Br30  1  0.76016821  0.04219301  0.43513006  1
  Br  Br31  1  0.95780699  0.23983179  0.06486994  1
  Br  Br32  1  0.86914758  0.64919176  0.53011360  1
  Br  Br33  1  0.35080824  0.13085242  0.96988640  1
  Br  Br34  1  0.13085242  0.35080824  0.46988640  1
  Br  Br35  1  0.64919176  0.86914758  0.03011360  1
