# generated using pymatgen
data_Ho11(In3Ge2)2
_symmetry_space_group_name_H-M   'P 1'
_cell_length_a   11.47535993
_cell_length_b   11.47535993
_cell_length_c   11.47535993
_cell_angle_alpha   90.05142536
_cell_angle_beta   119.97031400
_cell_angle_gamma   119.97031400
_symmetry_Int_Tables_number   1
_chemical_formula_structural   Ho11(In3Ge2)2
_chemical_formula_sum   'Ho22 In12 Ge8'
_cell_volume   1069.00217069
_cell_formula_units_Z   2
loop_
 _symmetry_equiv_pos_site_id
 _symmetry_equiv_pos_as_xyz
  1  'x, y, z'
loop_
 _atom_site_type_symbol
 _atom_site_label
 _atom_site_symmetry_multiplicity
 _atom_site_fract_x
 _atom_site_fract_y
 _atom_site_fract_z
 _atom_site_occupancy
  Ho  Ho0  1  0.74990007  0.06464802  0.31474795  1
  Ho  Ho1  1  0.25009993  0.56484788  0.31474795  1
  Ho  Ho2  1  0.74990007  0.31474795  0.06464802  1
  Ho  Ho3  1  0.25009993  0.31474795  0.56484788  1
  Ho  Ho4  1  0.25009993  0.93535198  0.68525205  1
  Ho  Ho5  1  0.74990007  0.43515212  0.68525205  1
  Ho  Ho6  1  0.25009993  0.68525205  0.93535198  1
  Ho  Ho7  1  0.74990007  0.68525205  0.43515212  1
  Ho  Ho8  1  0.65502167  0.75661544  0.10159377  1
  Ho  Ho9  1  0.34497833  0.44657211  0.10159377  1
  Ho  Ho10  1  0.65502167  0.10159377  0.75661544  1
  Ho  Ho11  1  0.34497833  0.10159377  0.44657211  1
  Ho  Ho12  1  0.34497833  0.24338456  0.89840623  1
  Ho  Ho13  1  0.65502167  0.55342789  0.89840623  1
  Ho  Ho14  1  0.34497833  0.89840623  0.24338456  1
  Ho  Ho15  1  0.65502167  0.89840623  0.55342789  1
  Ho  Ho16  1  0.34001776  0.67000888  0.67000888  1
  Ho  Ho17  1  0.65998224  0.32999112  0.32999112  1
  Ho  Ho18  1  -0.00000000  0.32999112  0.67000888  1
  Ho  Ho19  1  0.00000000  0.67000888  0.32999112  1
  Ho  Ho20  1  -0.00000000  0.16793179  0.16793179  1
  Ho  Ho21  1  -0.00000000  0.83206821  0.83206821  1
  In  In22  1  0.58921709  0.96622595  0.96622595  1
  In  In23  1  0.41078291  0.37700886  0.37700886  1
  In  In24  1  -0.00000000  0.37700886  0.96622595  1
  In  In25  1  -0.00000000  0.96622595  0.37700886  1
  In  In26  1  0.41078291  0.03377405  0.03377405  1
  In  In27  1  0.58921709  0.62299114  0.62299114  1
  In  In28  1  0.00000000  0.62299114  0.03377405  1
  In  In29  1  0.00000000  0.03377405  0.62299114  1
  In  In30  1  0.74247272  0.87123636  0.87123636  1
  In  In31  1  0.25752728  0.12876364  0.12876364  1
  In  In32  1  -0.00000000  0.12876364  0.87123636  1
  In  In33  1  0.00000000  0.87123636  0.12876364  1
  Ge  Ge34  1  0.34759660  0.50000000  0.84759660  1
  Ge  Ge35  1  0.65240340  0.50000000  0.15240340  1
  Ge  Ge36  1  0.65240340  0.15240340  0.50000000  1
  Ge  Ge37  1  0.34759660  0.84759660  0.50000000  1
  Ge  Ge38  1  -0.00000000  0.38475130  0.38475130  1
  Ge  Ge39  1  0.00000000  0.61524870  0.61524870  1
  Ge  Ge40  1  0.50000000  0.75000000  0.25000000  1
  Ge  Ge41  1  0.50000000  0.25000000  0.75000000  1
