# generated using pymatgen
data_K3HRhC5N5O
_symmetry_space_group_name_H-M   'P 1'
_cell_length_a   7.66488555
_cell_length_b   8.71485169
_cell_length_c   9.03310000
_cell_angle_alpha   89.64124982
_cell_angle_beta   80.36170316
_cell_angle_gamma   78.81218932
_symmetry_Int_Tables_number   1
_chemical_formula_structural   K3HRhC5N5O
_chemical_formula_sum   'K6 H2 Rh2 C10 N10 O2'
_cell_volume   583.35939439
_cell_formula_units_Z   2
loop_
 _symmetry_equiv_pos_site_id
 _symmetry_equiv_pos_as_xyz
  1  'x, y, z'
loop_
 _atom_site_type_symbol
 _atom_site_label
 _atom_site_symmetry_multiplicity
 _atom_site_fract_x
 _atom_site_fract_y
 _atom_site_fract_z
 _atom_site_occupancy
  K  K0  1  0.66051238  0.63043959  0.17289528  1
  K  K1  1  0.33948762  0.36956041  0.82710472  1
  K  K2  1  0.30602016  0.91123068  0.82480894  1
  K  K3  1  0.69397984  0.08876932  0.17519106  1
  K  K4  1  0.12406642  0.69143571  0.31183486  1
  K  K5  1  0.87593358  0.30856429  0.68816514  1
  H  H6  1  0.99523186  0.93039173  0.69268157  1
  H  H7  1  0.00476814  0.06960827  0.30731843  1
  Rh  Rh8  1  0.86228782  0.80853391  0.73597519  1
  Rh  Rh9  1  0.13771218  0.19146609  0.26402481  1
  C  C10  1  0.69596535  -0.00492470  0.80721531  1
  C  C11  1  0.30403465  0.00492470  0.19278469  1
  C  C12  1  0.22658457  0.64692281  0.60139158  1
  C  C13  1  0.77341543  0.35307719  0.39860842  1
  C  C14  1  0.93767615  0.78787014  0.93743326  1
  C  C15  1  0.06232385  0.21212986  0.06256674  1
  C  C16  1  0.79156294  0.84590468  0.52947897  1
  C  C17  1  0.20843706  0.15409532  0.47052103  1
  C  C18  1  0.67967979  0.65985061  0.79113013  1
  C  C19  1  0.32032021  0.34014939  0.20886987  1
  N  N20  1  0.97845380  0.77789682  0.05808333  1
  N  N21  1  0.02154620  0.22210318  0.94191667  1
  N  N22  1  0.59771447  0.11221160  0.85523226  1
  N  N23  1  0.40228553  0.88778840  0.14476774  1
  N  N24  1  0.74856922  0.87194942  0.41123094  1
  N  N25  1  0.25143078  0.12805058  0.58876906  1
  N  N26  1  0.09376479  0.60018707  0.66193488  1
  N  N27  1  0.90623521  0.39981293  0.33806512  1
  N  N28  1  0.56995733  0.58290544  0.82703089  1
  N  N29  1  0.43004267  0.41709456  0.17296911  1
  O  O30  1  0.35829001  0.69055330  0.53522612  1
  O  O31  1  0.64170999  0.30944670  0.46477388  1
