# generated using pymatgen
data_Cu5Se4(ClO6)2
_symmetry_space_group_name_H-M   'P 1'
_cell_length_a   7.61398908
_cell_length_b   8.44956687
_cell_length_c   11.04640250
_cell_angle_alpha   90.00000000
_cell_angle_beta   90.78824857
_cell_angle_gamma   90.00000000
_symmetry_Int_Tables_number   1
_chemical_formula_structural   Cu5Se4(ClO6)2
_chemical_formula_sum   'Cu10 Se8 Cl4 O24'
_cell_volume   710.60205584
_cell_formula_units_Z   2
loop_
 _symmetry_equiv_pos_site_id
 _symmetry_equiv_pos_as_xyz
  1  'x, y, z'
loop_
 _atom_site_type_symbol
 _atom_site_label
 _atom_site_symmetry_multiplicity
 _atom_site_fract_x
 _atom_site_fract_y
 _atom_site_fract_z
 _atom_site_occupancy
  Cu  Cu0  1  0.34020220  0.13185406  0.36876137  1
  Cu  Cu1  1  0.15979780  0.63185406  0.63123863  1
  Cu  Cu2  1  0.65979780  0.86814594  0.63123863  1
  Cu  Cu3  1  0.84020220  0.36814594  0.36876137  1
  Cu  Cu4  1  -0.00000000  -0.00000000  0.50000000  1
  Cu  Cu5  1  0.50000000  0.50000000  0.50000000  1
  Cu  Cu6  1  0.42165379  0.00706337  0.86119831  1
  Cu  Cu7  1  0.07834621  0.50706337  0.13880169  1
  Cu  Cu8  1  0.57834621  0.99293663  0.13880169  1
  Cu  Cu9  1  0.92165379  0.49293663  0.86119831  1
  Se  Se10  1  0.49625756  0.40261911  0.18047729  1
  Se  Se11  1  0.00374244  0.90261911  0.81952271  1
  Se  Se12  1  0.50374244  0.59738089  0.81952271  1
  Se  Se13  1  0.99625756  0.09738089  0.18047729  1
  Se  Se14  1  0.32976739  0.18774766  0.62459562  1
  Se  Se15  1  0.17023261  0.68774766  0.37540438  1
  Se  Se16  1  0.67023261  0.81225234  0.37540438  1
  Se  Se17  1  0.82976739  0.31225234  0.62459562  1
  Cl  Cl18  1  0.34493422  0.88367023  0.03727277  1
  Cl  Cl19  1  0.15506578  0.38367023  0.96272723  1
  Cl  Cl20  1  0.65506578  0.11632977  0.96272723  1
  Cl  Cl21  1  0.84493422  0.61632977  0.03727277  1
  O  O22  1  0.31159109  0.51435422  0.21317167  1
  O  O23  1  0.18840891  0.01435422  0.78682833  1
  O  O24  1  0.68840891  0.48564578  0.78682833  1
  O  O25  1  0.81159109  0.98564578  0.21317167  1
  O  O26  1  0.43722109  0.21070720  0.22066021  1
  O  O27  1  0.06277891  0.71070720  0.77933979  1
  O  O28  1  0.56277891  0.78929280  0.77933979  1
  O  O29  1  0.93722109  0.28929280  0.22066021  1
  O  O30  1  0.12224281  0.03024545  0.30160543  1
  O  O31  1  0.37775719  0.53024545  0.69839457  1
  O  O32  1  0.87775719  0.96975455  0.69839457  1
  O  O33  1  0.62224281  0.46975455  0.30160543  1
  O  O34  1  0.25546453  0.03839092  0.52098683  1
  O  O35  1  0.24453547  0.53839092  0.47901317  1
  O  O36  1  0.74453547  0.96160908  0.47901317  1
  O  O37  1  0.75546453  0.46160908  0.52098683  1
  O  O38  1  0.45314133  0.26713769  0.50065037  1
  O  O39  1  0.04685867  0.76713769  0.49934963  1
  O  O40  1  0.54685867  0.73286231  0.49934963  1
  O  O41  1  0.95314133  0.23286231  0.50065037  1
  O  O42  1  0.49827768  0.09586453  0.70177084  1
  O  O43  1  0.00172232  0.59586453  0.29822916  1
  O  O44  1  0.50172232  0.90413547  0.29822916  1
  O  O45  1  0.99827768  0.40413547  0.70177084  1
