# generated using pymatgen
data_Lu6Al43Mo4
_symmetry_space_group_name_H-M   'P 1'
_cell_length_a   11.02377370
_cell_length_b   11.02416267
_cell_length_c   17.48551339
_cell_angle_alpha   89.99991968
_cell_angle_beta   90.00016059
_cell_angle_gamma   119.99883702
_symmetry_Int_Tables_number   1
_chemical_formula_structural   Lu6Al43Mo4
_chemical_formula_sum   'Lu12 Al86 Mo8'
_cell_volume   1840.30586968
_cell_formula_units_Z   2
loop_
 _symmetry_equiv_pos_site_id
 _symmetry_equiv_pos_as_xyz
  1  'x, y, z'
loop_
 _atom_site_type_symbol
 _atom_site_label
 _atom_site_symmetry_multiplicity
 _atom_site_fract_x
 _atom_site_fract_y
 _atom_site_fract_z
 _atom_site_occupancy
  Lu  Lu0  1  0.53152066  1.00000000  0.59528208  1
  Lu  Lu1  1  0.46847108  0.46848153  0.59528183  1
  Lu  Lu2  1  0.99998955  0.53151847  0.59528183  1
  Lu  Lu3  1  0.46847934  0.00000000  0.40471792  1
  Lu  Lu4  1  0.53152892  0.53151847  0.40471817  1
  Lu  Lu5  1  0.00001045  0.46848153  0.40471817  1
  Lu  Lu6  1  0.46848007  0.00000000  0.09528186  1
  Lu  Lu7  1  0.53152770  0.53151762  0.09528073  1
  Lu  Lu8  1  0.00001008  0.46848238  0.09528073  1
  Lu  Lu9  1  0.53151993  1.00000000  0.90471814  1
  Lu  Lu10  1  0.46847230  0.46848238  0.90471927  1
  Lu  Lu11  1  0.99998992  0.53151762  0.90471927  1
  Al  Al12  1  0.15799776  0.39469651  0.66318043  1
  Al  Al13  1  0.23669016  0.84200579  0.66318415  1
  Al  Al14  1  0.60529024  0.76329642  0.66318275  1
  Al  Al15  1  0.76330125  0.60530349  0.66318043  1
  Al  Al16  1  0.39468437  0.15799421  0.66318415  1
  Al  Al17  1  0.84199381  0.23670358  0.66318275  1
  Al  Al18  1  0.84200224  0.60530349  0.33681957  1
  Al  Al19  1  0.76330984  0.15799421  0.33681585  1
  Al  Al20  1  0.39470976  0.23670358  0.33681725  1
  Al  Al21  1  0.23669875  0.39469651  0.33681957  1
  Al  Al22  1  0.60531563  0.84200579  0.33681585  1
  Al  Al23  1  0.15800619  0.76329642  0.33681725  1
  Al  Al24  1  0.84200324  0.60530537  0.16318063  1
  Al  Al25  1  0.76330922  0.15799362  0.16318477  1
  Al  Al26  1  0.39470858  0.23670325  0.16318247  1
  Al  Al27  1  0.23669787  0.39469463  0.16318063  1
  Al  Al28  1  0.60531560  0.84200638  0.16318477  1
  Al  Al29  1  0.15800533  0.76329675  0.16318247  1
  Al  Al30  1  0.15799676  0.39469463  0.83681937  1
  Al  Al31  1  0.23669078  0.84200638  0.83681523  1
  Al  Al32  1  0.60529142  0.76329675  0.83681753  1
  Al  Al33  1  0.76330213  0.60530537  0.83681937  1
  Al  Al34  1  0.39468440  0.15799362  0.83681523  1
  Al  Al35  1  0.84199467  0.23670325  0.83681753  1
  Al  Al36  1  0.15918513  1.00000000  0.11479032  1
  Al  Al37  1  0.84081067  0.84080554  0.11478948  1
  Al  Al38  1  0.00000513  0.15919446  0.11478948  1
  Al  Al39  1  0.84081487  0.00000000  0.88520968  1
  Al  Al40  1  0.15918933  0.15919446  0.88521052  1
  Al  Al41  1  0.99999487  0.84080554  0.88521052  1
  Al  Al42  1  0.84081675  0.00000000  0.61478826  1
  Al  Al43  1  0.15918721  0.15919029  0.61478758  1
  Al  Al44  1  -0.00000307  0.84080971  0.61478758  1
  Al  Al45  1  0.15918325  1.00000000  0.38521174  1
  Al  Al46  1  0.84081279  0.84080971  0.38521242  1
  Al  Al47  1  0.00000307  0.15919029  0.38521242  1
  Al  Al48  1  0.25482123  1.00000000  0.53057722  1
  Al  Al49  1  0.74517602  0.74517406  0.53057689  1
  Al  Al50  1  0.00000195  0.25482594  0.53057689  1
  Al  Al51  1  0.74517877  0.00000000  0.46942278  1
  Al  Al52  1  0.25482398  0.25482594  0.46942311  1
  Al  Al53  1  0.99999805  0.74517406  0.46942311  1
  Al  Al54  1  0.74517612  0.00000000  0.03057691  1
  Al  Al55  1  0.25482741  0.25482679  0.03057795  1
  Al  Al56  1  0.00000062  0.74517321  0.03057795  1
  Al  Al57  1  0.25482388  1.00000000  0.96942309  1
  Al  Al58  1  0.74517259  0.74517321  0.96942205  1
  Al  Al59  1  -0.00000062  0.25482679  0.96942205  1
  Al  Al60  1  0.14744819  0.59594715  0.74999873  1
  Al  Al61  1  0.44849540  0.85254574  0.74999973  1
  Al  Al62  1  0.40405149  0.55150459  0.74999934  1
  Al  Al63  1  0.55150104  0.40405285  0.74999873  1
  Al  Al64  1  0.59594966  0.14745426  0.74999973  1
  Al  Al65  1  0.85254690  0.44849541  0.74999934  1
  Al  Al66  1  0.85255181  0.40405285  0.25000127  1
  Al  Al67  1  0.55150460  0.14745426  0.25000027  1
  Al  Al68  1  0.59594851  0.44849541  0.25000066  1
  Al  Al69  1  0.44849896  0.59594715  0.25000127  1
  Al  Al70  1  0.40405034  0.85254574  0.25000027  1
  Al  Al71  1  0.14745310  0.55150459  0.25000066  1
  Al  Al72  1  0.24682514  0.49365029  0.50000000  1
  Al  Al73  1  0.24682427  0.75318400  0.49999583  1
  Al  Al74  1  0.50635973  0.75318400  0.50000417  1
  Al  Al75  1  0.75317486  0.50634971  0.50000000  1
  Al  Al76  1  0.49364027  0.24681600  0.49999583  1
  Al  Al77  1  0.75317573  0.24681600  0.50000417  1
  Al  Al78  1  0.75317324  0.50634648  0.00000000  1
  Al  Al79  1  0.75317489  0.24681788  0.99999517  1
  Al  Al80  1  0.49364299  0.24681788  0.00000483  1
  Al  Al81  1  0.24682676  0.49365352  -0.00000000  1
  Al  Al82  1  0.50635701  0.75318212  0.99999517  1
  Al  Al83  1  0.24682511  0.75318212  0.00000483  1
  Al  Al84  1  0.33332893  0.66667017  0.62595702  1
  Al  Al85  1  0.66665876  0.33332983  0.62595702  1
  Al  Al86  1  0.66667107  0.33332983  0.37404298  1
  Al  Al87  1  0.33334124  0.66667017  0.37404298  1
  Al  Al88  1  0.66666969  0.33332881  0.12595617  1
  Al  Al89  1  0.33334088  0.66667119  0.12595617  1
  Al  Al90  1  0.33333031  0.66667119  0.87404383  1
  Al  Al91  1  0.66665912  0.33332881  0.87404383  1
  Al  Al92  1  0.14693198  1.00000000  0.74999860  1
  Al  Al93  1  0.85305629  0.85305265  0.74999990  1
  Al  Al94  1  0.00000363  0.14694735  0.74999990  1
  Al  Al95  1  0.85306802  0.00000000  0.25000140  1
  Al  Al96  1  0.14694371  0.14694735  0.25000010  1
  Al  Al97  1  -0.00000363  0.85305265  0.25000010  1
  Mo  Mo98  1  0.72775525  0.00000000  0.75000083  1
  Mo  Mo99  1  0.27222156  0.27223180  0.74999850  1
  Mo  Mo100  1  0.99998976  0.72776820  0.74999850  1
  Mo  Mo101  1  0.27224475  1.00000000  0.24999917  1
  Mo  Mo102  1  0.72777844  0.72776820  0.25000150  1
  Mo  Mo103  1  0.00001024  0.27223180  0.25000150  1
  Mo  Mo104  1  -0.00000000  -0.00000000  0.50000000  1
  Mo  Mo105  1  -0.00000000  -0.00000000  0.00000000  1
