# generated using pymatgen
data_Cs3NpH8O9
_symmetry_space_group_name_H-M   'P 1'
_cell_length_a   8.30667656
_cell_length_b   8.76680306
_cell_length_c   8.76680306
_cell_angle_alpha   84.28988042
_cell_angle_beta   86.46780759
_cell_angle_gamma   86.46780759
_symmetry_Int_Tables_number   1
_chemical_formula_structural   Cs3NpH8O9
_chemical_formula_sum   'Cs6 Np2 H16 O18'
_cell_volume   633.06016862
_cell_formula_units_Z   2
loop_
 _symmetry_equiv_pos_site_id
 _symmetry_equiv_pos_as_xyz
  1  'x, y, z'
loop_
 _atom_site_type_symbol
 _atom_site_label
 _atom_site_symmetry_multiplicity
 _atom_site_fract_x
 _atom_site_fract_y
 _atom_site_fract_z
 _atom_site_occupancy
  Cs  Cs0  1  0.55041990  0.61115519  0.78536296  1
  Cs  Cs1  1  0.94958010  0.21463704  0.38884481  1
  Cs  Cs2  1  0.44958010  0.38884481  0.21463704  1
  Cs  Cs3  1  0.05041990  0.78536296  0.61115519  1
  Cs  Cs4  1  0.25000000  0.93064005  0.06935995  1
  Cs  Cs5  1  0.75000000  0.06935995  0.93064005  1
  Np  Np6  1  0.00000000  0.50000000  0.00000000  1
  Np  Np7  1  0.50000000  -0.00000000  0.50000000  1
  H  H8  1  0.91981105  0.44184723  0.68961583  1
  H  H9  1  0.58018895  0.31038417  0.55815277  1
  H  H10  1  0.08018895  0.55815277  0.31038417  1
  H  H11  1  0.41981105  0.68961583  0.44184723  1
  H  H12  1  0.18912559  0.08259701  0.71346877  1
  H  H13  1  0.31087441  0.28653123  0.91740299  1
  H  H14  1  0.81087441  0.91740299  0.28653123  1
  H  H15  1  0.68912559  0.71346877  0.08259701  1
  H  H16  1  0.06298521  0.22411760  0.74780849  1
  H  H17  1  0.43701479  0.25219151  0.77588240  1
  H  H18  1  0.93701479  0.77588240  0.25219151  1
  H  H19  1  0.56298521  0.74780849  0.22411760  1
  H  H20  1  0.16364650  0.45092437  0.61058308  1
  H  H21  1  0.33635350  0.38941692  0.54907563  1
  H  H22  1  0.83635350  0.54907563  0.38941692  1
  H  H23  1  0.66364650  0.61058308  0.45092437  1
  O  O24  1  0.88142130  0.68513668  0.92735037  1
  O  O25  1  0.61857870  0.07264963  0.31486332  1
  O  O26  1  0.11857870  0.31486332  0.07264963  1
  O  O27  1  0.38142130  0.92735037  0.68513668  1
  O  O28  1  0.19879221  0.59564162  0.95550579  1
  O  O29  1  0.30120779  0.04449421  0.40435838  1
  O  O30  1  0.80120779  0.40435838  0.04449421  1
  O  O31  1  0.69879221  0.95550579  0.59564162  1
  O  O32  1  0.01764844  0.41379143  0.74451974  1
  O  O33  1  0.48235156  0.25548026  0.58620857  1
  O  O34  1  0.98235156  0.58620857  0.25548026  1
  O  O35  1  0.51764844  0.74451974  0.41379143  1
  O  O36  1  0.07674261  0.10905750  0.74644555  1
  O  O37  1  0.42325739  0.25355445  0.89094250  1
  O  O38  1  0.92325739  0.89094250  0.25355445  1
  O  O39  1  0.57674261  0.74644555  0.10905750  1
  O  O40  1  0.25000000  0.47350340  0.52649660  1
  O  O41  1  0.75000000  0.52649660  0.47350340  1
