# generated using pymatgen
data_Ge3(SbO3)4
_symmetry_space_group_name_H-M   'P 1'
_cell_length_a   9.22293903
_cell_length_b   9.22293903
_cell_length_c   9.22293903
_cell_angle_alpha   109.47122063
_cell_angle_beta   109.47122063
_cell_angle_gamma   109.47122063
_symmetry_Int_Tables_number   1
_chemical_formula_structural   Ge3(SbO3)4
_chemical_formula_sum   'Ge6 Sb8 O24'
_cell_volume   603.92933009
_cell_formula_units_Z   2
loop_
 _symmetry_equiv_pos_site_id
 _symmetry_equiv_pos_as_xyz
  1  'x, y, z'
loop_
 _atom_site_type_symbol
 _atom_site_label
 _atom_site_symmetry_multiplicity
 _atom_site_fract_x
 _atom_site_fract_y
 _atom_site_fract_z
 _atom_site_occupancy
  Ge  Ge0  1  0.87500000  0.12500000  0.25000000  1
  Ge  Ge1  1  0.62500000  0.37500000  0.75000000  1
  Ge  Ge2  1  0.75000000  0.62500000  0.37500000  1
  Ge  Ge3  1  0.25000000  0.87500000  0.12500000  1
  Ge  Ge4  1  0.12500000  0.25000000  0.87500000  1
  Ge  Ge5  1  0.37500000  0.75000000  0.62500000  1
  Sb  Sb6  1  0.00000000  0.50000000  0.19480329  1
  Sb  Sb7  1  0.19480329  -0.00000000  0.50000000  1
  Sb  Sb8  1  0.30519671  0.30519671  0.30519671  1
  Sb  Sb9  1  0.50000000  0.19480329  0.00000000  1
  Sb  Sb10  1  0.69480329  -0.00000000  0.50000000  1
  Sb  Sb11  1  -0.00000000  0.50000000  0.69480329  1
  Sb  Sb12  1  0.80519671  0.80519671  0.80519671  1
  Sb  Sb13  1  0.50000000  0.69480329  -0.00000000  1
  O  O14  1  0.71401878  0.91438497  0.05877320  1
  O  O15  1  0.64438823  0.58561503  0.79963381  1
  O  O16  1  0.85561177  0.15524558  0.44122680  1
  O  O17  1  0.78598122  0.34475442  0.70036619  1
  O  O18  1  0.55877320  0.41438497  0.21401878  1
  O  O19  1  0.29963381  0.08561503  0.14438823  1
  O  O20  1  0.94122680  0.65524558  0.35561177  1
  O  O21  1  0.20036619  0.84475442  0.28598122  1
  O  O22  1  0.91438497  0.05877320  0.71401878  1
  O  O23  1  0.58561503  0.79963381  0.64438823  1
  O  O24  1  0.15524558  0.44122680  0.85561177  1
  O  O25  1  0.34475442  0.70036619  0.78598122  1
  O  O26  1  0.41438497  0.21401878  0.55877320  1
  O  O27  1  0.08561503  0.14438823  0.29963381  1
  O  O28  1  0.65524558  0.35561177  0.94122680  1
  O  O29  1  0.84475442  0.28598122  0.20036619  1
  O  O30  1  0.05877320  0.71401878  0.91438497  1
  O  O31  1  0.79963381  0.64438823  0.58561503  1
  O  O32  1  0.44122680  0.85561177  0.15524558  1
  O  O33  1  0.70036619  0.78598122  0.34475442  1
  O  O34  1  0.21401878  0.55877320  0.41438497  1
  O  O35  1  0.14438823  0.29963381  0.08561503  1
  O  O36  1  0.35561177  0.94122680  0.65524558  1
  O  O37  1  0.28598122  0.20036619  0.84475442  1
