# generated using pymatgen
data_Sb2H18C3(IN)9
_symmetry_space_group_name_H-M   'P 1'
_cell_length_a   9.56691617
_cell_length_b   9.56691617
_cell_length_c   22.07705023
_cell_angle_alpha   90.00000000
_cell_angle_beta   90.00000000
_cell_angle_gamma   113.88885711
_symmetry_Int_Tables_number   1
_chemical_formula_structural   Sb2H18C3(IN)9
_chemical_formula_sum   'Sb4 H36 C6 I18 N18'
_cell_volume   1847.52042731
_cell_formula_units_Z   2
loop_
 _symmetry_equiv_pos_site_id
 _symmetry_equiv_pos_as_xyz
  1  'x, y, z'
loop_
 _atom_site_type_symbol
 _atom_site_label
 _atom_site_symmetry_multiplicity
 _atom_site_fract_x
 _atom_site_fract_y
 _atom_site_fract_z
 _atom_site_occupancy
  Sb  Sb0  1  0.72774507  0.27225493  0.15518513  1
  Sb  Sb1  1  0.27225493  0.72774507  0.84481487  1
  Sb  Sb2  1  0.72774507  0.27225493  0.34481487  1
  Sb  Sb3  1  0.27225493  0.72774507  0.65518513  1
  H  H4  1  0.83064139  0.33645769  0.93030179  1
  H  H5  1  0.33645769  0.83064139  0.06969821  1
  H  H6  1  0.83064139  0.33645769  0.56969821  1
  H  H7  1  0.33645769  0.83064139  0.43030179  1
  H  H8  1  0.16935861  0.66354231  0.06969821  1
  H  H9  1  0.66354231  0.16935861  0.93030179  1
  H  H10  1  0.16935861  0.66354231  0.43030179  1
  H  H11  1  0.66354231  0.16935861  0.56969821  1
  H  H12  1  0.42271732  0.35014058  0.88311897  1
  H  H13  1  0.35014058  0.42271732  0.11688103  1
  H  H14  1  0.42271732  0.35014058  0.61688103  1
  H  H15  1  0.35014058  0.42271732  0.38311897  1
  H  H16  1  0.57728268  0.64985942  0.11688103  1
  H  H17  1  0.64985942  0.57728268  0.88311897  1
  H  H18  1  0.57728268  0.64985942  0.38311897  1
  H  H19  1  0.64985942  0.57728268  0.61688103  1
  H  H20  1  0.42812904  0.18005958  0.90770964  1
  H  H21  1  0.18005958  0.42812904  0.09229036  1
  H  H22  1  0.42812904  0.18005958  0.59229036  1
  H  H23  1  0.18005958  0.42812904  0.40770964  1
  H  H24  1  0.57187096  0.81994042  0.09229036  1
  H  H25  1  0.81994042  0.57187096  0.90770964  1
  H  H26  1  0.57187096  0.81994042  0.40770964  1
  H  H27  1  0.81994042  0.57187096  0.59229036  1
  H  H28  1  0.11432353  0.71821703  0.25000000  1
  H  H29  1  0.71821703  0.11432353  0.75000000  1
  H  H30  1  0.88567647  0.28178297  0.75000000  1
  H  H31  1  0.28178297  0.88567647  0.25000000  1
  H  H32  1  0.86157572  0.90695045  0.25000000  1
  H  H33  1  0.90695045  0.86157572  0.75000000  1
  H  H34  1  0.13842428  0.09304955  0.75000000  1
  H  H35  1  0.09304955  0.13842428  0.25000000  1
  H  H36  1  0.87658988  0.73199431  0.25000000  1
  H  H37  1  0.73199431  0.87658988  0.75000000  1
  H  H38  1  0.12341012  0.26800569  0.75000000  1
  H  H39  1  0.26800569  0.12341012  0.25000000  1
  C  C40  1  0.63566241  0.36433759  0.90773797  1
  C  C41  1  0.36433759  0.63566241  0.09226203  1
  C  C42  1  0.63566241  0.36433759  0.59226203  1
  C  C43  1  0.36433759  0.63566241  0.40773797  1
  C  C44  1  0.08196496  0.91803504  0.25000000  1
  C  C45  1  0.91803504  0.08196496  0.75000000  1
  I  I46  1  0.01022083  0.39687102  0.25000000  1
  I  I47  1  0.39687102  0.01022083  0.75000000  1
  I  I48  1  0.98977917  0.60312898  0.75000000  1
  I  I49  1  0.60312898  0.98977917  0.25000000  1
  I  I50  1  0.87803721  0.12196279  0.08214637  1
  I  I51  1  0.12196279  0.87803721  0.91785363  1
  I  I52  1  0.87803721  0.12196279  0.41785363  1
  I  I53  1  0.12196279  0.87803721  0.58214637  1
  I  I54  1  0.57062558  0.42937442  0.25000000  1
  I  I55  1  0.42937442  0.57062558  0.75000000  1
  I  I56  1  0.44388303  0.14824241  0.08535486  1
  I  I57  1  0.14824241  0.44388303  0.91464514  1
  I  I58  1  0.44388303  0.14824241  0.41464514  1
  I  I59  1  0.14824241  0.44388303  0.58535486  1
  I  I60  1  0.55611697  0.85175759  0.91464514  1
  I  I61  1  0.85175759  0.55611697  0.08535486  1
  I  I62  1  0.55611697  0.85175759  0.58535486  1
  I  I63  1  0.85175759  0.55611697  0.41464514  1
  N  N64  1  0.71440180  0.28559820  0.92724231  1
  N  N65  1  0.28559820  0.71440180  0.07275769  1
  N  N66  1  0.71440180  0.28559820  0.57275769  1
  N  N67  1  0.28559820  0.71440180  0.42724231  1
  N  N68  1  0.48530542  0.29255505  0.89753002  1
  N  N69  1  0.29255505  0.48530542  0.10246998  1
  N  N70  1  0.48530542  0.29255505  0.60246998  1
  N  N71  1  0.29255505  0.48530542  0.39753002  1
  N  N72  1  0.51469458  0.70744495  0.10246998  1
  N  N73  1  0.70744495  0.51469458  0.89753002  1
  N  N74  1  0.51469458  0.70744495  0.39753002  1
  N  N75  1  0.70744495  0.51469458  0.60246998  1
  N  N76  1  0.16531778  0.83468222  0.25000000  1
  N  N77  1  0.83468222  0.16531778  0.75000000  1
  N  N78  1  0.92934000  0.84793174  0.25000000  1
  N  N79  1  0.84793174  0.92934000  0.75000000  1
  N  N80  1  0.07066000  0.15206826  0.75000000  1
  N  N81  1  0.15206826  0.07066000  0.25000000  1
