# generated using pymatgen
data_Cs6Ho21Te34Cl
_symmetry_space_group_name_H-M   'P 1'
_cell_length_a   14.46665119
_cell_length_b   14.46665119
_cell_length_c   14.45506953
_cell_angle_alpha   114.24403227
_cell_angle_beta   114.24403227
_cell_angle_gamma   97.66038860
_symmetry_Int_Tables_number   1
_chemical_formula_structural   Cs6Ho21Te34Cl
_chemical_formula_sum   'Cs6 Ho21 Te34 Cl1'
_cell_volume   2343.42783278
_cell_formula_units_Z   1
loop_
 _symmetry_equiv_pos_site_id
 _symmetry_equiv_pos_as_xyz
  1  'x, y, z'
loop_
 _atom_site_type_symbol
 _atom_site_label
 _atom_site_symmetry_multiplicity
 _atom_site_fract_x
 _atom_site_fract_y
 _atom_site_fract_z
 _atom_site_occupancy
  Cs  Cs0  1  0.04223667  0.80535288  0.27675597  1
  Cs  Cs1  1  0.80535288  0.04223667  0.27675597  1
  Cs  Cs2  1  0.95776333  0.19464712  0.72324403  1
  Cs  Cs3  1  0.19464712  0.95776333  0.72324403  1
  Cs  Cs4  1  0.78014679  0.78014679  0.42552030  1
  Cs  Cs5  1  0.21985321  0.21985321  0.57447970  1
  Ho  Ho6  1  0.69958964  0.30041036  0.00000000  1
  Ho  Ho7  1  0.30041036  0.69958964  0.00000000  1
  Ho  Ho8  1  0.04603888  0.45778552  0.24930933  1
  Ho  Ho9  1  0.45778552  0.04603888  0.24930933  1
  Ho  Ho10  1  0.95396112  0.54221448  0.75069067  1
  Ho  Ho11  1  0.54221448  0.95396112  0.75069067  1
  Ho  Ho12  1  0.83010379  0.42751830  0.37747043  1
  Ho  Ho13  1  0.42751830  0.83010379  0.37747043  1
  Ho  Ho14  1  0.16989621  0.57248170  0.62252957  1
  Ho  Ho15  1  0.57248170  0.16989621  0.62252957  1
  Ho  Ho16  1  0.90181035  0.09818965  0.00000000  1
  Ho  Ho17  1  0.09818965  0.90181035  0.00000000  1
  Ho  Ho18  1  0.26633884  0.47061896  0.11069101  1
  Ho  Ho19  1  0.47061896  0.26633884  0.11069101  1
  Ho  Ho20  1  0.73366116  0.52938104  0.88930899  1
  Ho  Ho21  1  0.52938104  0.73366116  0.88930899  1
  Ho  Ho22  1  0.39876806  0.60123194  0.50000000  1
  Ho  Ho23  1  0.60123194  0.39876806  0.50000000  1
  Ho  Ho24  1  0.50000000  0.50000000  0.00000000  1
  Ho  Ho25  1  0.24485121  0.24485121  0.25217210  1
  Ho  Ho26  1  0.75514879  0.75514879  0.74782790  1
  Te  Te27  1  0.68760667  0.68760667  0.06617870  1
  Te  Te28  1  0.31239333  0.31239333  0.93382130  1
  Te  Te29  1  0.05915223  0.05915223  0.18684455  1
  Te  Te30  1  0.94084777  0.94084777  0.81315545  1
  Te  Te31  1  0.08804533  0.28876027  0.06784573  1
  Te  Te32  1  0.28876027  0.08804533  0.06784573  1
  Te  Te33  1  0.91195467  0.71123973  0.93215427  1
  Te  Te34  1  0.71123973  0.91195467  0.93215427  1
  Te  Te35  1  0.88593782  0.48562442  0.06268447  1
  Te  Te36  1  0.48562442  0.88593782  0.06268447  1
  Te  Te37  1  0.11406218  0.51437558  0.93731553  1
  Te  Te38  1  0.51437558  0.11406218  0.93731553  1
  Te  Te39  1  0.86557889  0.26571609  0.18765476  1
  Te  Te40  1  0.26571609  0.86557889  0.18765476  1
  Te  Te41  1  0.13442111  0.73428391  0.81234524  1
  Te  Te42  1  0.73428391  0.13442111  0.81234524  1
  Te  Te43  1  0.24139281  0.63674652  0.31046509  1
  Te  Te44  1  0.63674652  0.24139281  0.31046509  1
  Te  Te45  1  0.75860719  0.36325348  0.68953491  1
  Te  Te46  1  0.36325348  0.75860719  0.68953491  1
  Te  Te47  1  0.01299233  0.61600041  0.44131002  1
  Te  Te48  1  0.61600041  0.01299233  0.44131002  1
  Te  Te49  1  0.98700767  0.38399959  0.55868998  1
  Te  Te50  1  0.38399959  0.98700767  0.55868998  1
  Te  Te51  1  0.21211014  0.41615215  0.43737133  1
  Te  Te52  1  0.41615215  0.21211014  0.43737133  1
  Te  Te53  1  0.78788986  0.58384785  0.56262867  1
  Te  Te54  1  0.58384785  0.78788986  0.56262867  1
  Te  Te55  1  0.65818716  0.45915016  0.18721751  1
  Te  Te56  1  0.45915016  0.65818716  0.18721751  1
  Te  Te57  1  0.34181284  0.54084984  0.81278249  1
  Te  Te58  1  0.54084984  0.34181284  0.81278249  1
  Te  Te59  1  0.43154149  0.43154149  0.30918686  1
  Te  Te60  1  0.56845851  0.56845851  0.69081314  1
  Cl  Cl61  1  -0.00000000  0.00000000  0.50000000  1
