# generated using pymatgen
data_CsSe4
_symmetry_space_group_name_H-M   'P 1'
_cell_length_a   10.43483283
_cell_length_b   14.10646488
_cell_length_c   19.72740536
_cell_angle_alpha   90.00000000
_cell_angle_beta   90.00000000
_cell_angle_gamma   90.00000000
_symmetry_Int_Tables_number   1
_chemical_formula_structural   CsSe4
_chemical_formula_sum   'Cs16 Se64'
_cell_volume   2903.84650675
_cell_formula_units_Z   16
loop_
 _symmetry_equiv_pos_site_id
 _symmetry_equiv_pos_as_xyz
  1  'x, y, z'
loop_
 _atom_site_type_symbol
 _atom_site_label
 _atom_site_symmetry_multiplicity
 _atom_site_fract_x
 _atom_site_fract_y
 _atom_site_fract_z
 _atom_site_occupancy
  Cs  Cs0  1  0.96759898  0.38779881  0.25000000  1
  Cs  Cs1  1  0.03240102  0.61220119  0.75000000  1
  Cs  Cs2  1  0.96759898  0.11220119  0.75000000  1
  Cs  Cs3  1  0.03240102  0.88779881  0.25000000  1
  Cs  Cs4  1  0.64960688  0.61600992  0.25000000  1
  Cs  Cs5  1  0.35039312  0.38399008  0.75000000  1
  Cs  Cs6  1  0.64960688  0.88399008  0.75000000  1
  Cs  Cs7  1  0.35039312  0.11600992  0.25000000  1
  Cs  Cs8  1  0.88233141  0.25000000  0.50000000  1
  Cs  Cs9  1  0.11766859  0.75000000  0.00000000  1
  Cs  Cs10  1  0.11766859  0.75000000  0.50000000  1
  Cs  Cs11  1  0.88233141  0.25000000  0.00000000  1
  Cs  Cs12  1  0.40137634  0.25000000  0.50000000  1
  Cs  Cs13  1  0.59862366  0.75000000  0.00000000  1
  Cs  Cs14  1  0.59862366  0.75000000  0.50000000  1
  Cs  Cs15  1  0.40137634  0.25000000  0.00000000  1
  Se  Se16  1  0.18391240  0.64002364  0.25000000  1
  Se  Se17  1  0.81608760  0.35997636  0.75000000  1
  Se  Se18  1  0.18391240  0.85997636  0.75000000  1
  Se  Se19  1  0.81608760  0.14002364  0.25000000  1
  Se  Se20  1  0.31301051  0.59758127  0.34539918  1
  Se  Se21  1  0.68698949  0.40241873  0.84539918  1
  Se  Se22  1  0.31301051  0.90241873  0.65460082  1
  Se  Se23  1  0.68698949  0.09758127  0.15460082  1
  Se  Se24  1  0.68698949  0.40241873  0.65460082  1
  Se  Se25  1  0.31301051  0.59758127  0.15460082  1
  Se  Se26  1  0.68698949  0.09758127  0.34539918  1
  Se  Se27  1  0.31301051  0.90241873  0.84539918  1
  Se  Se28  1  0.30056830  0.42597816  0.34390977  1
  Se  Se29  1  0.69943170  0.57402184  0.84390977  1
  Se  Se30  1  0.30056830  0.07402184  0.65609023  1
  Se  Se31  1  0.69943170  0.92597816  0.15609023  1
  Se  Se32  1  0.69943170  0.57402184  0.65609023  1
  Se  Se33  1  0.30056830  0.42597816  0.15609023  1
  Se  Se34  1  0.69943170  0.92597816  0.34390977  1
  Se  Se35  1  0.30056830  0.07402184  0.84390977  1
  Se  Se36  1  0.45584367  0.38737277  0.25000000  1
  Se  Se37  1  0.54415633  0.61262723  0.75000000  1
  Se  Se38  1  0.45584367  0.11262723  0.75000000  1
  Se  Se39  1  0.54415633  0.88737277  0.25000000  1
  Se  Se40  1  0.64840857  0.33547654  0.35108924  1
  Se  Se41  1  0.35159143  0.66452346  0.85108924  1
  Se  Se42  1  0.64840857  0.16452346  0.64891076  1
  Se  Se43  1  0.35159143  0.83547654  0.14891076  1
  Se  Se44  1  0.35159143  0.66452346  0.64891076  1
  Se  Se45  1  0.64840857  0.33547654  0.14891076  1
  Se  Se46  1  0.35159143  0.83547654  0.35108924  1
  Se  Se47  1  0.64840857  0.16452346  0.85108924  1
  Se  Se48  1  0.60432411  0.45771673  0.43031968  1
  Se  Se49  1  0.39567589  0.54228327  0.93031968  1
  Se  Se50  1  0.60432411  0.04228327  0.56968032  1
  Se  Se51  1  0.39567589  0.95771673  0.06968032  1
  Se  Se52  1  0.39567589  0.54228327  0.56968032  1
  Se  Se53  1  0.60432411  0.45771673  0.06968032  1
  Se  Se54  1  0.39567589  0.95771673  0.43031968  1
  Se  Se55  1  0.60432411  0.04228327  0.93031968  1
  Se  Se56  1  0.80629030  0.51048871  0.47604332  1
  Se  Se57  1  0.19370970  0.48951129  0.97604332  1
  Se  Se58  1  0.80629030  0.98951129  0.52395668  1
  Se  Se59  1  0.19370970  0.01048871  0.02395668  1
  Se  Se60  1  0.19370970  0.48951129  0.52395668  1
  Se  Se61  1  0.80629030  0.51048871  0.02395668  1
  Se  Se62  1  0.19370970  0.01048871  0.47604332  1
  Se  Se63  1  0.80629030  0.98951129  0.97604332  1
  Se  Se64  1  0.92323772  0.58483755  0.38709344  1
  Se  Se65  1  0.07676228  0.41516245  0.88709344  1
  Se  Se66  1  0.92323772  0.91516245  0.61290656  1
  Se  Se67  1  0.07676228  0.08483755  0.11290656  1
  Se  Se68  1  0.07676228  0.41516245  0.61290656  1
  Se  Se69  1  0.92323772  0.58483755  0.11290656  1
  Se  Se70  1  0.07676228  0.08483755  0.38709344  1
  Se  Se71  1  0.92323772  0.91516245  0.88709344  1
  Se  Se72  1  0.85498681  0.74575227  0.37412802  1
  Se  Se73  1  0.14501319  0.25424773  0.87412802  1
  Se  Se74  1  0.85498681  0.75424773  0.62587198  1
  Se  Se75  1  0.14501319  0.24575227  0.12587198  1
  Se  Se76  1  0.14501319  0.25424773  0.62587198  1
  Se  Se77  1  0.85498681  0.74575227  0.12587198  1
  Se  Se78  1  0.14501319  0.24575227  0.37412802  1
  Se  Se79  1  0.85498681  0.75424773  0.87412802  1
