# generated using pymatgen
data_MgTl2H12(SO7)2
_symmetry_space_group_name_H-M   'P 1'
_cell_length_a   6.34920117
_cell_length_b   9.35372682
_cell_length_c   12.67648763
_cell_angle_alpha   90.00000000
_cell_angle_beta   90.00000000
_cell_angle_gamma   105.92471160
_symmetry_Int_Tables_number   1
_chemical_formula_structural   MgTl2H12(SO7)2
_chemical_formula_sum   'Mg2 Tl4 H24 S4 O28'
_cell_volume   723.94833987
_cell_formula_units_Z   2
loop_
 _symmetry_equiv_pos_site_id
 _symmetry_equiv_pos_as_xyz
  1  'x, y, z'
loop_
 _atom_site_type_symbol
 _atom_site_label
 _atom_site_symmetry_multiplicity
 _atom_site_fract_x
 _atom_site_fract_y
 _atom_site_fract_z
 _atom_site_occupancy
  Mg  Mg0  1  0.00000000  0.50000000  0.50000000  1
  Mg  Mg1  1  0.00000000  0.00000000  0.00000000  1
  Tl  Tl2  1  0.34888909  0.61274630  0.13512041  1
  Tl  Tl3  1  0.65111091  0.88725370  0.63512041  1
  Tl  Tl4  1  0.65111091  0.38725370  0.86487959  1
  Tl  Tl5  1  0.34888909  0.11274630  0.36487959  1
  H  H6  1  0.31827696  0.71627338  0.40461219  1
  H  H7  1  0.68172304  0.78372662  0.90461219  1
  H  H8  1  0.68172304  0.28372662  0.59538781  1
  H  H9  1  0.31827696  0.21627338  0.09538781  1
  H  H10  1  0.08599763  0.74237295  0.37164427  1
  H  H11  1  0.91400237  0.75762705  0.87164427  1
  H  H12  1  0.91400237  0.25762705  0.62835573  1
  H  H13  1  0.08599763  0.24237295  0.12835573  1
  H  H14  1  0.93136084  0.23145984  0.40021733  1
  H  H15  1  0.06863916  0.26854016  0.90021733  1
  H  H16  1  0.06863916  0.76854016  0.59978267  1
  H  H17  1  0.93136084  0.73145984  0.09978267  1
  H  H18  1  0.99228363  0.35561372  0.31230302  1
  H  H19  1  0.00771637  0.14438628  0.81230302  1
  H  H20  1  0.00771637  0.64438628  0.68769698  1
  H  H21  1  0.99228363  0.85561372  0.18769698  1
  H  H22  1  0.33815647  0.40012422  0.56116974  1
  H  H23  1  0.66184353  0.09987578  0.06116974  1
  H  H24  1  0.66184353  0.59987578  0.43883026  1
  H  H25  1  0.33815647  0.90012422  0.93883026  1
  H  H26  1  0.32509285  0.52539007  0.64190014  1
  H  H27  1  0.67490715  0.97460993  0.14190014  1
  H  H28  1  0.67490715  0.47460993  0.35809986  1
  H  H29  1  0.32509285  0.02539007  0.85809986  1
  S  S30  1  0.73505708  0.90303178  0.35851275  1
  S  S31  1  0.26494292  0.59696822  0.85851275  1
  S  S32  1  0.26494292  0.09696822  0.64148725  1
  S  S33  1  0.73505708  0.40303178  0.14148725  1
  O  O34  1  0.59781302  0.91478061  0.26533408  1
  O  O35  1  0.40218698  0.58521939  0.76533408  1
  O  O36  1  0.40218698  0.08521939  0.73466592  1
  O  O37  1  0.59781302  0.41478061  0.23466592  1
  O  O38  1  0.78121118  0.04288964  0.42162710  1
  O  O39  1  0.21878882  0.45711036  0.92162710  1
  O  O40  1  0.21878882  0.95711036  0.57837290  1
  O  O41  1  0.78121118  0.54288964  0.07837290  1
  O  O42  1  0.61091436  0.77728474  0.42743931  1
  O  O43  1  0.38908564  0.72271526  0.92743931  1
  O  O44  1  0.38908564  0.22271526  0.57256069  1
  O  O45  1  0.61091436  0.27728474  0.07256069  1
  O  O46  1  0.94588044  0.87414872  0.32322134  1
  O  O47  1  0.05411956  0.62585128  0.82322134  1
  O  O48  1  0.05411956  0.12585128  0.67677866  1
  O  O49  1  0.94588044  0.37414872  0.17677866  1
  O  O50  1  0.16119569  0.66689616  0.39269206  1
  O  O51  1  0.83880431  0.83310384  0.89269206  1
  O  O52  1  0.83880431  0.33310384  0.60730794  1
  O  O53  1  0.16119569  0.16689616  0.10730794  1
  O  O54  1  0.01873717  0.33536412  0.38735976  1
  O  O55  1  0.98126283  0.16463588  0.88735976  1
  O  O56  1  0.98126283  0.66463588  0.61264024  1
  O  O57  1  0.01873717  0.83536412  0.11264024  1
  O  O58  1  0.29185414  0.49245469  0.56781100  1
  O  O59  1  0.70814586  0.00754531  0.06781100  1
  O  O60  1  0.70814586  0.50754531  0.43218900  1
  O  O61  1  0.29185414  0.99245469  0.93218900  1
