# generated using pymatgen
data_Yb5Ni19P12
_symmetry_space_group_name_H-M   'P 1'
_cell_length_a   3.68239244
_cell_length_b   9.11201338
_cell_length_c   14.32772370
_cell_angle_alpha   103.72813679
_cell_angle_beta   97.38325926
_cell_angle_gamma   90.00000000
_symmetry_Int_Tables_number   1
_chemical_formula_structural   Yb5Ni19P12
_chemical_formula_sum   'Yb5 Ni19 P12'
_cell_volume   462.91448541
_cell_formula_units_Z   1
loop_
 _symmetry_equiv_pos_site_id
 _symmetry_equiv_pos_as_xyz
  1  'x, y, z'
loop_
 _atom_site_type_symbol
 _atom_site_label
 _atom_site_symmetry_multiplicity
 _atom_site_fract_x
 _atom_site_fract_y
 _atom_site_fract_z
 _atom_site_occupancy
  Yb  Yb0  1  -0.00000000  -0.00000000  0.00000000  1
  Yb  Yb1  1  0.07855495  0.68485537  0.15710991  1
  Yb  Yb2  1  0.92144505  0.31514463  0.84289009  1
  Yb  Yb3  1  0.32472268  0.73075700  0.64944535  1
  Yb  Yb4  1  0.67527732  0.26924300  0.35055465  1
  Ni  Ni5  1  0.50000000  0.50000000  0.00000000  1
  Ni  Ni6  1  0.71987698  0.00750538  0.43975396  1
  Ni  Ni7  1  0.28012302  0.99249462  0.56024604  1
  Ni  Ni8  1  0.65087839  0.59356457  0.30175678  1
  Ni  Ni9  1  0.34912161  0.40643543  0.69824322  1
  Ni  Ni10  1  0.74228749  0.59376914  0.48457497  1
  Ni  Ni11  1  0.25771251  0.40623086  0.51542503  1
  Ni  Ni12  1  0.84338919  0.01081862  0.68677839  1
  Ni  Ni13  1  0.15661081  0.98918138  0.31322161  1
  Ni  Ni14  1  0.97388390  0.66303416  0.94776780  1
  Ni  Ni15  1  0.02611610  0.33696584  0.05223220  1
  Ni  Ni16  1  0.58729295  0.95001972  0.17458591  1
  Ni  Ni17  1  0.41270705  0.04998028  0.82541409  1
  Ni  Ni18  1  0.43417862  0.79946141  0.86835723  1
  Ni  Ni19  1  0.56582138  0.20053859  0.13164277  1
  Ni  Ni20  1  0.88319480  0.61272232  0.76638961  1
  Ni  Ni21  1  0.11680520  0.38727768  0.23361039  1
  Ni  Ni22  1  0.20522898  0.77296893  0.41045796  1
  Ni  Ni23  1  0.79477102  0.22703107  0.58954204  1
  P  P24  1  0.76719855  0.84255699  0.53439709  1
  P  P25  1  0.23280145  0.15744301  0.46560291  1
  P  P26  1  0.65030660  0.83755540  0.30061320  1
  P  P27  1  0.34969340  0.16244460  0.69938680  1
  P  P28  1  0.89897829  0.87692629  0.79795657  1
  P  P29  1  0.10102171  0.12307371  0.20204343  1
  P  P30  1  0.19382958  0.51922843  0.38765916  1
  P  P31  1  0.80617042  0.48077157  0.61234084  1
  P  P32  1  0.51497235  0.77112319  0.02994470  1
  P  P33  1  0.48502765  0.22887681  0.97005530  1
  P  P34  1  0.42470394  0.55063831  0.84940787  1
  P  P35  1  0.57529606  0.44936169  0.15059213  1
