# generated using pymatgen
data_Na3SmMn3(AsO5)3
_symmetry_space_group_name_H-M   'P 1'
_cell_length_a   6.12645583
_cell_length_b   11.27568459
_cell_length_c   11.27578017
_cell_angle_alpha   120.00067286
_cell_angle_beta   90.00000000
_cell_angle_gamma   90.00000000
_symmetry_Int_Tables_number   1
_chemical_formula_structural   Na3SmMn3(AsO5)3
_chemical_formula_sum   'Na6 Sm2 Mn6 As6 O30'
_cell_volume   674.56920786
_cell_formula_units_Z   2
loop_
 _symmetry_equiv_pos_site_id
 _symmetry_equiv_pos_as_xyz
  1  'x, y, z'
loop_
 _atom_site_type_symbol
 _atom_site_label
 _atom_site_symmetry_multiplicity
 _atom_site_fract_x
 _atom_site_fract_y
 _atom_site_fract_z
 _atom_site_occupancy
  Na  Na0  1  0.25000000  0.16006159  0.88997710  1
  Na  Na1  1  0.25000000  0.11002459  0.27009543  1
  Na  Na2  1  0.25000000  0.72991543  0.83993309  1
  Na  Na3  1  0.75000000  0.83993841  0.11002290  1
  Na  Na4  1  0.75000000  0.88997541  0.72990457  1
  Na  Na5  1  0.75000000  0.27008457  0.16006691  1
  Sm  Sm6  1  0.75000000  0.66665943  0.33332928  1
  Sm  Sm7  1  0.25000000  0.33334057  0.66667072  1
  Mn  Mn8  1  0.50000000  0.50000000  0.00000000  1
  Mn  Mn9  1  0.50000000  0.00000000  0.50000000  1
  Mn  Mn10  1  0.50000000  0.50000000  0.50000000  1
  Mn  Mn11  1  -0.00000000  0.50000000  0.00000000  1
  Mn  Mn12  1  0.00000000  0.00000000  0.50000000  1
  Mn  Mn13  1  0.00000000  0.50000000  0.50000000  1
  As  As14  1  0.25000000  0.78618809  0.18570330  1
  As  As15  1  0.25000000  0.81429838  0.60048519  1
  As  As16  1  0.25000000  0.39950861  0.21380725  1
  As  As17  1  0.75000000  0.21381191  0.81429670  1
  As  As18  1  0.75000000  0.18570162  0.39951481  1
  As  As19  1  0.75000000  0.60049139  0.78619275  1
  O  O20  1  0.75000000  0.47567518  0.08943264  1
  O  O21  1  0.75000000  0.91056533  0.38624228  1
  O  O22  1  0.75000000  0.61375575  0.52432146  1
  O  O23  1  0.25000000  0.52432482  0.91056736  1
  O  O24  1  0.25000000  0.08943467  0.61375772  1
  O  O25  1  0.25000000  0.38624425  0.47567854  1
  O  O26  1  0.48225463  0.69171906  0.17397996  1
  O  O27  1  0.48225339  0.82601431  0.51773934  1
  O  O28  1  0.48225486  0.48225989  0.30827573  1
  O  O29  1  0.98225463  0.30828094  0.82602004  1
  O  O30  1  0.98225339  0.17398569  0.48226066  1
  O  O31  1  0.98225486  0.51774011  0.69172427  1
  O  O32  1  0.51774537  0.30828094  0.82602004  1
  O  O33  1  0.51774661  0.17398569  0.48226066  1
  O  O34  1  0.51774514  0.51774011  0.69172427  1
  O  O35  1  0.01774537  0.69171906  0.17397996  1
  O  O36  1  0.01774661  0.82601431  0.51773934  1
  O  O37  1  0.01774514  0.48225989  0.30827573  1
  O  O38  1  0.25000000  0.92680613  0.34875248  1
  O  O39  1  0.25000000  0.65124151  0.57805198  1
  O  O40  1  0.25000000  0.42194394  0.07318907  1
  O  O41  1  0.75000000  0.07319387  0.65124752  1
  O  O42  1  0.75000000  0.34875849  0.42194802  1
  O  O43  1  0.75000000  0.57805606  0.92681093  1
  O  O44  1  0.25000000  0.85004103  0.07844678  1
  O  O45  1  0.25000000  0.92154882  0.77159141  1
  O  O46  1  0.25000000  0.22840590  0.14995899  1
  O  O47  1  0.75000000  0.14995897  0.92155322  1
  O  O48  1  0.75000000  0.07845118  0.22840859  1
  O  O49  1  0.75000000  0.77159410  0.85004101  1
