# generated using pymatgen
data_HgTe3H12C4N
_symmetry_space_group_name_H-M   'P 1'
_cell_length_a   10.56215186
_cell_length_b   22.29623317
_cell_length_c   11.22349161
_cell_angle_alpha   90.00000000
_cell_angle_beta   110.46588817
_cell_angle_gamma   90.00000000
_symmetry_Int_Tables_number   1
_chemical_formula_structural   HgTe3H12C4N
_chemical_formula_sum   'Hg8 Te24 H96 C32 N8'
_cell_volume   2476.25919786
_cell_formula_units_Z   8
loop_
 _symmetry_equiv_pos_site_id
 _symmetry_equiv_pos_as_xyz
  1  'x, y, z'
loop_
 _atom_site_type_symbol
 _atom_site_label
 _atom_site_symmetry_multiplicity
 _atom_site_fract_x
 _atom_site_fract_y
 _atom_site_fract_z
 _atom_site_occupancy
  Hg  Hg0  1  0.46198750  0.53569918  0.25417325  1
  Hg  Hg1  1  0.96198750  0.96430082  0.75417325  1
  Hg  Hg2  1  0.53801250  0.46430082  0.74582675  1
  Hg  Hg3  1  0.03801250  0.03569918  0.24582675  1
  Hg  Hg4  1  0.40405506  0.38835165  0.39961107  1
  Hg  Hg5  1  0.90405506  0.11164835  0.89961107  1
  Hg  Hg6  1  0.59594494  0.61164835  0.60038893  1
  Hg  Hg7  1  0.09594494  0.88835165  0.10038893  1
  Te  Te8  1  0.35045096  0.42622198  0.14906992  1
  Te  Te9  1  0.85045096  0.07377802  0.64906992  1
  Te  Te10  1  0.64954904  0.57377802  0.85093008  1
  Te  Te11  1  0.14954904  0.92622198  0.35093008  1
  Te  Te12  1  0.31195505  0.58597167  0.41945689  1
  Te  Te13  1  0.81195505  0.91402833  0.91945689  1
  Te  Te14  1  0.68804495  0.41402833  0.58054311  1
  Te  Te15  1  0.18804495  0.08597167  0.08054311  1
  Te  Te16  1  0.72319194  0.52267132  0.47169915  1
  Te  Te17  1  0.22319194  0.97732868  0.97169915  1
  Te  Te18  1  0.27680806  0.47732868  0.52830085  1
  Te  Te19  1  0.77680806  0.02267132  0.02830085  1
  Te  Te20  1  0.36078257  0.27308029  0.48772262  1
  Te  Te21  1  0.86078257  0.22691971  0.98772262  1
  Te  Te22  1  0.63921743  0.72691971  0.51227738  1
  Te  Te23  1  0.13921743  0.77308029  0.01227738  1
  Te  Te24  1  0.56564268  0.27885785  0.72523589  1
  Te  Te25  1  0.06564268  0.22114215  0.22523589  1
  Te  Te26  1  0.43435732  0.72114215  0.27476411  1
  Te  Te27  1  0.93435732  0.77885785  0.77476411  1
  Te  Te28  1  0.52482282  0.64014236  0.13360471  1
  Te  Te29  1  0.02482282  0.85985764  0.63360471  1
  Te  Te30  1  0.47517718  0.35985764  0.86639529  1
  Te  Te31  1  0.97517718  0.14014236  0.36639529  1
  H  H32  1  0.75590573  0.74142407  0.23682115  1
  H  H33  1  0.25590573  0.75857593  0.73682115  1
  H  H34  1  0.24409427  0.25857593  0.76317885  1
  H  H35  1  0.74409427  0.24142407  0.26317885  1
  H  H36  1  0.86345200  0.78733276  0.36430046  1
  H  H37  1  0.36345200  0.71266724  0.86430046  1
  H  H38  1  0.13654800  0.21266724  0.63569954  1
  H  H39  1  0.63654800  0.28733276  0.13569954  1
  H  H40  1  0.87831616  0.79151572  0.20945941  1
  H  H41  1  0.37831616  0.70848428  0.70945941  1
  H  H42  1  0.12168384  0.20848428  0.79054059  1
  H  H43  1  0.62168384  0.29151572  0.29054059  1
  H  H44  1  0.10773878  0.77270090  0.29065184  1
  H  H45  1  0.60773878  0.72729910  0.79065184  1
  H  H46  1  0.89226122  0.22729910  0.70934816  1
  H  H47  1  0.39226122  0.27270090  0.20934816  1
  H  H48  1  0.10236313  0.76970632  0.44885372  1
  H  H49  1  0.60236313  0.73029368  0.94885372  1
  H  H50  1  0.89763687  0.23029368  0.55114628  1
  H  H51  1  0.39763687  0.26970632  0.05114628  1
  H  H52  1  0.17554618  0.70817603  0.38926235  1
  H  H53  1  0.67554618  0.79182397  0.88926235  1
  H  H54  1  0.82445382  0.29182397  0.61073765  1
  H  H55  1  0.32445382  0.20817603  0.11073765  1
  H  H56  1  0.97137820  0.70065483  0.13072617  1
  H  H57  1  0.47137820  0.79934517  0.63072617  1
  H  H58  1  0.02862180  0.29934517  0.86927383  1
  H  H59  1  0.52862180  0.20065483  0.36927383  1
  H  H60  1  0.02795696  0.63878023  0.23957871  1
  H  H61  1  0.52795696  0.86121977  0.73957871  1
  H  H62  1  0.97204304  0.36121977  0.76042129  1
  H  H63  1  0.47204304  0.13878023  0.26042129  1
  H  H64  1  0.84927487  0.65446510  0.16968483  1
  H  H65  1  0.34927487  0.84553490  0.66968483  1
  H  H66  1  0.15072513  0.34553490  0.83031517  1
  H  H67  1  0.65072513  0.15446510  0.33031517  1
  H  H68  1  0.02931326  0.64182101  0.44181028  1
  H  H69  1  0.52931326  0.85817899  0.94181028  1
  H  H70  1  0.97068674  0.35817899  0.55818972  1
  H  H71  1  0.47068674  0.14182101  0.05818972  1
  H  H72  1  0.95311214  0.70280838  0.50053028  1
  H  H73  1  0.45311214  0.79719162  0.00053028  1
  H  H74  1  0.04688786  0.29719162  0.49946972  1
  H  H75  1  0.54688786  0.20280838  0.99946972  1
  H  H76  1  0.84817293  0.65221198  0.38253087  1
  H  H77  1  0.34817293  0.84778802  0.88253087  1
  H  H78  1  0.15182707  0.34778802  0.61746913  1
  H  H79  1  0.65182707  0.15221198  0.11746913  1
  H  H80  1  0.99928402  0.41660849  0.04940064  1
  H  H81  1  0.49928402  0.08339151  0.54940064  1
  H  H82  1  0.00071598  0.58339151  0.95059936  1
  H  H83  1  0.50071598  0.91660849  0.45059936  1
  H  H84  1  0.84095842  0.37729252  0.01597038  1
  H  H85  1  0.34095842  0.12270748  0.51597038  1
  H  H86  1  0.15904158  0.62270748  0.98402962  1
  H  H87  1  0.65904158  0.87729252  0.48402962  1
  H  H88  1  0.84030937  0.45391780  0.96529033  1
  H  H89  1  0.34030937  0.04608220  0.46529033  1
  H  H90  1  0.15969063  0.54608220  0.03470967  1
  H  H91  1  0.65969063  0.95391780  0.53470967  1
  H  H92  1  0.68630086  0.40764360  0.12112629  1
  H  H93  1  0.18630086  0.09235640  0.62112629  1
  H  H94  1  0.31369914  0.59235640  0.87887371  1
  H  H95  1  0.81369914  0.90764360  0.37887371  1
  H  H96  1  0.73807233  0.46415573  0.24460107  1
  H  H97  1  0.23807233  0.03584427  0.74460107  1
  H  H98  1  0.26192767  0.53584427  0.75539893  1
  H  H99  1  0.76192767  0.96415573  0.25539893  1
  H  H100  1  0.69422851  0.48468259  0.07959744  1
  H  H101  1  0.19422851  0.01531741  0.57959744  1
  H  H102  1  0.30577149  0.51531741  0.92040256  1
  H  H103  1  0.80577149  0.98468259  0.42040256  1
  H  H104  1  0.05950415  0.39666084  0.28361785  1
  H  H105  1  0.55950415  0.10333916  0.78361785  1
  H  H106  1  0.94049585  0.60333916  0.71638215  1
  H  H107  1  0.44049585  0.89666084  0.21638215  1
  H  H108  1  0.93645329  0.41621465  0.35385652  1
  H  H109  1  0.43645329  0.08378535  0.85385652  1
  H  H110  1  0.06354671  0.58378535  0.64614348  1
  H  H111  1  0.56354671  0.91621465  0.14614348  1
  H  H112  1  0.90573662  0.35422870  0.24305905  1
  H  H113  1  0.40573662  0.14577130  0.74305905  1
  H  H114  1  0.09426338  0.64577130  0.75694095  1
  H  H115  1  0.59426338  0.85422870  0.25694095  1
  H  H116  1  0.90187268  0.53481078  0.12763780  1
  H  H117  1  0.40187268  0.96518922  0.62763780  1
  H  H118  1  0.09812732  0.46518922  0.87236220  1
  H  H119  1  0.59812732  0.03481078  0.37236220  1
  H  H120  1  0.95259159  0.51319310  0.29318439  1
  H  H121  1  0.45259159  0.98680690  0.79318439  1
  H  H122  1  0.04740841  0.48680690  0.70681561  1
  H  H123  1  0.54740841  0.01319310  0.20681561  1
  H  H124  1  0.06047872  0.49621990  0.20448776  1
  H  H125  1  0.56047872  0.00378010  0.70448776  1
  H  H126  1  0.93952128  0.50378010  0.79551224  1
  H  H127  1  0.43952128  0.99621990  0.29551224  1
  C  C128  1  0.85626530  0.76224261  0.27813356  1
  C  C129  1  0.35626530  0.73775739  0.77813356  1
  C  C130  1  0.14373470  0.23775739  0.72186644  1
  C  C131  1  0.64373470  0.26224261  0.22186644  1
  C  C132  1  0.09775492  0.74340709  0.36490506  1
  C  C133  1  0.59775492  0.75659291  0.86490506  1
  C  C134  1  0.90224508  0.25659291  0.63509494  1
  C  C135  1  0.40224508  0.24340709  0.13509494  1
  C  C136  1  0.95119999  0.67403521  0.20424814  1
  C  C137  1  0.45119999  0.82596479  0.70424814  1
  C  C138  1  0.04880001  0.32596479  0.79575186  1
  C  C139  1  0.54880001  0.17403521  0.29575186  1
  C  C140  1  0.94666807  0.67469512  0.41864618  1
  C  C141  1  0.44666807  0.82530488  0.91864618  1
  C  C142  1  0.05333193  0.32530488  0.58135382  1
  C  C143  1  0.55333193  0.17469512  0.08135382  1
  C  C144  1  0.89223657  0.42083896  0.03867087  1
  C  C145  1  0.39223657  0.07916104  0.53867087  1
  C  C146  1  0.10776343  0.57916104  0.96132913  1
  C  C147  1  0.60776343  0.92083896  0.46132913  1
  C  C148  1  0.73969246  0.45010426  0.15145705  1
  C  C149  1  0.23969246  0.04989574  0.65145705  1
  C  C150  1  0.26030754  0.54989574  0.84854295  1
  C  C151  1  0.76030754  0.95010426  0.34854295  1
  C  C152  1  0.95115686  0.39879679  0.26829927  1
  C  C153  1  0.45115686  0.10120321  0.76829927  1
  C  C154  1  0.04884314  0.60120321  0.73170073  1
  C  C155  1  0.54884314  0.89879679  0.23170073  1
  C  C156  1  0.95557114  0.50141029  0.19941334  1
  C  C157  1  0.45557114  0.99858971  0.69941334  1
  C  C158  1  0.04442886  0.49858971  0.80058666  1
  C  C159  1  0.54442886  0.00141029  0.30058666  1
  N  N160  1  0.96173009  0.71371285  0.31567598  1
  N  N161  1  0.46173009  0.78628715  0.81567598  1
  N  N162  1  0.03826991  0.28628715  0.68432402  1
  N  N163  1  0.53826991  0.21371285  0.18432402  1
  N  N164  1  0.88468939  0.44230363  0.16313403  1
  N  N165  1  0.38468939  0.05769637  0.66313403  1
  N  N166  1  0.11531061  0.55769637  0.83686597  1
  N  N167  1  0.61531061  0.94230363  0.33686597  1
