# generated using pymatgen
data_Tb2(Ni2B)5
_symmetry_space_group_name_H-M   'P 1'
_cell_length_a   9.02213593
_cell_length_b   9.49121292
_cell_length_c   17.59174386
_cell_angle_alpha   90.00000000
_cell_angle_beta   90.00000000
_cell_angle_gamma   90.00000000
_symmetry_Int_Tables_number   1
_chemical_formula_structural   Tb2(Ni2B)5
_chemical_formula_sum   'Tb16 Ni80 B40'
_cell_volume   1506.39884901
_cell_formula_units_Z   8
loop_
 _symmetry_equiv_pos_site_id
 _symmetry_equiv_pos_as_xyz
  1  'x, y, z'
loop_
 _atom_site_type_symbol
 _atom_site_label
 _atom_site_symmetry_multiplicity
 _atom_site_fract_x
 _atom_site_fract_y
 _atom_site_fract_z
 _atom_site_occupancy
  Tb  Tb0  1  0.12495962  0.85810709  0.27811418  1
  Tb  Tb1  1  0.37504038  0.14189291  0.77811418  1
  Tb  Tb2  1  0.62495962  0.64189291  0.72188582  1
  Tb  Tb3  1  0.87504038  0.35810709  0.22188582  1
  Tb  Tb4  1  0.87504038  0.14189291  0.72188582  1
  Tb  Tb5  1  0.62495962  0.85810709  0.22188582  1
  Tb  Tb6  1  0.37504038  0.35810709  0.27811418  1
  Tb  Tb7  1  0.12495962  0.64189291  0.77811418  1
  Tb  Tb8  1  0.21869215  0.88707142  0.47976374  1
  Tb  Tb9  1  0.28130785  0.11292858  0.97976374  1
  Tb  Tb10  1  0.71869215  0.61292858  0.52023626  1
  Tb  Tb11  1  0.78130785  0.38707142  0.02023626  1
  Tb  Tb12  1  0.78130785  0.11292858  0.52023626  1
  Tb  Tb13  1  0.71869215  0.88707142  0.02023626  1
  Tb  Tb14  1  0.28130785  0.38707142  0.47976374  1
  Tb  Tb15  1  0.21869215  0.61292858  0.97976374  1
  Ni  Ni16  1  0.12157596  0.96127275  0.72706523  1
  Ni  Ni17  1  0.37842404  0.03872725  0.22706523  1
  Ni  Ni18  1  0.62157596  0.53872725  0.27293477  1
  Ni  Ni19  1  0.87842404  0.46127275  0.77293477  1
  Ni  Ni20  1  0.87842404  0.03872725  0.27293477  1
  Ni  Ni21  1  0.62157596  0.96127275  0.77293477  1
  Ni  Ni22  1  0.37842404  0.46127275  0.72706523  1
  Ni  Ni23  1  0.12157596  0.53872725  0.22706523  1
  Ni  Ni24  1  0.12642065  0.17626735  0.23708166  1
  Ni  Ni25  1  0.37357935  0.82373265  0.73708166  1
  Ni  Ni26  1  0.62642065  0.32373265  0.76291834  1
  Ni  Ni27  1  0.87357935  0.67626735  0.26291834  1
  Ni  Ni28  1  0.87357935  0.82373265  0.76291834  1
  Ni  Ni29  1  0.62642065  0.17626735  0.26291834  1
  Ni  Ni30  1  0.37357935  0.67626735  0.23708166  1
  Ni  Ni31  1  0.12642065  0.32373265  0.73708166  1
  Ni  Ni32  1  0.07885541  0.88648473  0.01554773  1
  Ni  Ni33  1  0.42114459  0.11351527  0.51554773  1
  Ni  Ni34  1  0.57885541  0.61351527  0.98445227  1
  Ni  Ni35  1  0.92114459  0.38648473  0.48445227  1
  Ni  Ni36  1  0.92114459  0.11351527  0.98445227  1
  Ni  Ni37  1  0.57885541  0.88648473  0.48445227  1
  Ni  Ni38  1  0.42114459  0.38648473  0.01554773  1
  Ni  Ni39  1  0.07885541  0.61351527  0.51554773  1
  Ni  Ni40  1  0.16170272  0.78121569  0.62776594  1
  Ni  Ni41  1  0.33829728  0.21878431  0.12776594  1
  Ni  Ni42  1  0.66170272  0.71878431  0.37223406  1
  Ni  Ni43  1  0.83829728  0.28121569  0.87223406  1
  Ni  Ni44  1  0.83829728  0.21878431  0.37223406  1
  Ni  Ni45  1  0.66170272  0.78121569  0.87223406  1
  Ni  Ni46  1  0.33829728  0.28121569  0.62776594  1
  Ni  Ni47  1  0.16170272  0.71878431  0.12776594  1
  Ni  Ni48  1  0.17693044  0.99431987  0.13139340  1
  Ni  Ni49  1  0.32306956  0.00568013  0.63139340  1
  Ni  Ni50  1  0.67693044  0.50568013  0.86860660  1
  Ni  Ni51  1  0.82306956  0.49431987  0.36860660  1
  Ni  Ni52  1  0.82306956  0.00568013  0.86860660  1
  Ni  Ni53  1  0.67693044  0.99431987  0.36860660  1
  Ni  Ni54  1  0.32306956  0.49431987  0.13139340  1
  Ni  Ni55  1  0.17693044  0.50568013  0.63139340  1
  Ni  Ni56  1  0.23018881  0.89304376  0.86507808  1
  Ni  Ni57  1  0.26981119  0.10695624  0.36507808  1
  Ni  Ni58  1  0.73018881  0.60695624  0.13492192  1
  Ni  Ni59  1  0.76981119  0.39304376  0.63492192  1
  Ni  Ni60  1  0.76981119  0.10695624  0.13492192  1
  Ni  Ni61  1  0.73018881  0.89304376  0.63492192  1
  Ni  Ni62  1  0.26981119  0.39304376  0.86507808  1
  Ni  Ni63  1  0.23018881  0.60695624  0.36507808  1
  Ni  Ni64  1  0.08920725  0.14703239  0.84992046  1
  Ni  Ni65  1  0.41079275  0.85296761  0.34992046  1
  Ni  Ni66  1  0.58920725  0.35296761  0.15007954  1
  Ni  Ni67  1  0.91079275  0.64703239  0.65007954  1
  Ni  Ni68  1  0.91079275  0.85296761  0.15007954  1
  Ni  Ni69  1  0.58920725  0.14703239  0.65007954  1
  Ni  Ni70  1  0.41079275  0.64703239  0.84992046  1
  Ni  Ni71  1  0.08920725  0.35296761  0.34992046  1
  Ni  Ni72  1  0.04394608  0.02146688  0.59644670  1
  Ni  Ni73  1  0.45605392  0.97853312  0.09644670  1
  Ni  Ni74  1  0.54394608  0.47853312  0.40355330  1
  Ni  Ni75  1  0.95605392  0.52146688  0.90355330  1
  Ni  Ni76  1  0.95605392  0.97853312  0.40355330  1
  Ni  Ni77  1  0.54394608  0.02146688  0.90355330  1
  Ni  Ni78  1  0.45605392  0.52146688  0.59644670  1
  Ni  Ni79  1  0.04394608  0.47853312  0.09644670  1
  Ni  Ni80  1  0.04466453  0.21804266  0.09881474  1
  Ni  Ni81  1  0.45533547  0.78195734  0.59881474  1
  Ni  Ni82  1  0.54466453  0.28195734  0.90118526  1
  Ni  Ni83  1  0.95533547  0.71804266  0.40118526  1
  Ni  Ni84  1  0.95533547  0.78195734  0.90118526  1
  Ni  Ni85  1  0.54466453  0.21804266  0.40118526  1
  Ni  Ni86  1  0.45533547  0.71804266  0.09881474  1
  Ni  Ni87  1  0.04466453  0.28195734  0.59881474  1
  Ni  Ni88  1  0.08188939  0.16670898  0.46888145  1
  Ni  Ni89  1  0.41811061  0.83329102  0.96888145  1
  Ni  Ni90  1  0.58188939  0.33329102  0.53111855  1
  Ni  Ni91  1  0.91811061  0.66670898  0.03111855  1
  Ni  Ni92  1  0.91811061  0.83329102  0.53111855  1
  Ni  Ni93  1  0.58188939  0.16670898  0.03111855  1
  Ni  Ni94  1  0.41811061  0.66670898  0.46888145  1
  Ni  Ni95  1  0.08188939  0.33329102  0.96888145  1
  B  B96  1  0.97615556  0.06452500  0.17659084  1
  B  B97  1  0.52384444  0.93547500  0.67659084  1
  B  B98  1  0.47615556  0.43547500  0.82340916  1
  B  B99  1  0.02384444  0.56452500  0.32340916  1
  B  B100  1  0.02384444  0.93547500  0.82340916  1
  B  B101  1  0.47615556  0.06452500  0.32340916  1
  B  B102  1  0.52384444  0.56452500  0.17659084  1
  B  B103  1  0.97615556  0.43547500  0.67659084  1
  B  B104  1  0.16713637  0.14980541  0.66606439  1
  B  B105  1  0.33286363  0.85019459  0.16606439  1
  B  B106  1  0.66713637  0.35019459  0.33393561  1
  B  B107  1  0.83286363  0.64980541  0.83393561  1
  B  B108  1  0.83286363  0.85019459  0.33393561  1
  B  B109  1  0.66713637  0.14980541  0.83393561  1
  B  B110  1  0.33286363  0.64980541  0.66606439  1
  B  B111  1  0.16713637  0.35019459  0.16606439  1
  B  B112  1  0.04663189  0.14194892  0.34447417  1
  B  B113  1  0.45336811  0.85805108  0.84447417  1
  B  B114  1  0.54663189  0.35805108  0.65552583  1
  B  B115  1  0.95336811  0.64194892  0.15552583  1
  B  B116  1  0.95336811  0.85805108  0.65552583  1
  B  B117  1  0.54663189  0.14194892  0.15552583  1
  B  B118  1  0.45336811  0.64194892  0.34447417  1
  B  B119  1  0.04663189  0.35805108  0.84447417  1
  B  B120  1  0.21324086  0.14828686  0.56106682  1
  B  B121  1  0.28675914  0.85171314  0.06106682  1
  B  B122  1  0.71324086  0.35171314  0.43893318  1
  B  B123  1  0.78675914  0.64828686  0.93893318  1
  B  B124  1  0.78675914  0.85171314  0.43893318  1
  B  B125  1  0.71324086  0.14828686  0.93893318  1
  B  B126  1  0.28675914  0.64828686  0.56106682  1
  B  B127  1  0.21324086  0.35171314  0.06106682  1
  B  B128  1  0.03853795  0.98076323  0.91817872  1
  B  B129  1  0.46146205  0.01923677  0.41817872  1
  B  B130  1  0.53853795  0.51923677  0.08182128  1
  B  B131  1  0.96146205  0.48076323  0.58182128  1
  B  B132  1  0.96146205  0.01923677  0.08182128  1
  B  B133  1  0.53853795  0.98076323  0.58182128  1
  B  B134  1  0.46146205  0.48076323  0.91817872  1
  B  B135  1  0.03853795  0.51923677  0.41817872  1
