# generated using pymatgen
data_K2PS3
_symmetry_space_group_name_H-M   'P 1'
_cell_length_a   8.51736481
_cell_length_b   12.08307797
_cell_length_c   13.48761080
_cell_angle_alpha   90.00000000
_cell_angle_beta   91.52574952
_cell_angle_gamma   90.00000000
_symmetry_Int_Tables_number   1
_chemical_formula_structural   K2PS3
_chemical_formula_sum   'K16 P8 S24'
_cell_volume   1387.59859092
_cell_formula_units_Z   8
loop_
 _symmetry_equiv_pos_site_id
 _symmetry_equiv_pos_as_xyz
  1  'x, y, z'
loop_
 _atom_site_type_symbol
 _atom_site_label
 _atom_site_symmetry_multiplicity
 _atom_site_fract_x
 _atom_site_fract_y
 _atom_site_fract_z
 _atom_site_occupancy
  K  K0  1  0.72444609  0.23556682  0.91224249  1
  K  K1  1  0.77555391  0.73556682  0.08775751  1
  K  K2  1  0.27555391  0.76443318  0.08775751  1
  K  K3  1  0.22444609  0.26443318  0.91224249  1
  K  K4  1  0.33886409  0.93142671  0.82310545  1
  K  K5  1  0.16113591  0.43142671  0.17689455  1
  K  K6  1  0.66113591  0.06857329  0.17689455  1
  K  K7  1  0.83886409  0.56857329  0.82310545  1
  K  K8  1  0.14020841  0.80294588  0.43522293  1
  K  K9  1  0.35979159  0.30294588  0.56477707  1
  K  K10  1  0.85979159  0.19705412  0.56477707  1
  K  K11  1  0.64020841  0.69705412  0.43522293  1
  K  K12  1  0.28533470  0.61293655  0.70218935  1
  K  K13  1  0.21466530  0.11293655  0.29781065  1
  K  K14  1  0.71466530  0.38706345  0.29781065  1
  K  K15  1  0.78533470  0.88706345  0.70218935  1
  P  P16  1  0.42770065  0.99522412  0.57078339  1
  P  P17  1  0.07229935  0.49522412  0.42921661  1
  P  P18  1  0.57229935  0.00477588  0.42921661  1
  P  P19  1  0.92770065  0.50477588  0.57078339  1
  P  P20  1  0.43707915  0.53095687  0.92879085  1
  P  P21  1  0.06292085  0.03095687  0.07120915  1
  P  P22  1  0.56292085  0.46904313  0.07120915  1
  P  P23  1  0.93707915  0.96904313  0.92879085  1
  S  S24  1  0.01891319  0.81250166  0.90518006  1
  S  S25  1  0.48108681  0.31250166  0.09481994  1
  S  S26  1  0.98108681  0.18749834  0.09481994  1
  S  S27  1  0.51891319  0.68749834  0.90518006  1
  S  S28  1  0.20230489  0.53007754  0.95482193  1
  S  S29  1  0.29769511  0.03007754  0.04517807  1
  S  S30  1  0.79769511  0.46992246  0.04517807  1
  S  S31  1  0.70230489  0.96992246  0.95482193  1
  S  S32  1  0.99815978  0.07458941  0.81815603  1
  S  S33  1  0.50184022  0.57458941  0.18184397  1
  S  S34  1  0.00184022  0.92541059  0.18184397  1
  S  S35  1  0.49815978  0.42541059  0.81815603  1
  S  S36  1  0.46256702  0.90619900  0.32567681  1
  S  S37  1  0.03743298  0.40619900  0.67432319  1
  S  S38  1  0.53743298  0.09380100  0.67432319  1
  S  S39  1  0.96256702  0.59380100  0.32567681  1
  S  S40  1  0.29408057  0.54530293  0.46431600  1
  S  S41  1  0.20591943  0.04530293  0.53568400  1
  S  S42  1  0.70591943  0.45469707  0.53568400  1
  S  S43  1  0.79408057  0.95469707  0.46431600  1
  S  S44  1  0.43882879  0.83171041  0.60974003  1
  S  S45  1  0.06117121  0.33171041  0.39025997  1
  S  S46  1  0.56117121  0.16828959  0.39025997  1
  S  S47  1  0.93882879  0.66828959  0.60974003  1
