# generated using pymatgen
data_Ce8Re13B12
_symmetry_space_group_name_H-M   'P 1'
_cell_length_a   7.84109797
_cell_length_b   7.84109797
_cell_length_c   7.84109820
_cell_angle_alpha   85.61180781
_cell_angle_beta   85.61180781
_cell_angle_gamma   85.61180439
_symmetry_Int_Tables_number   1
_chemical_formula_structural   Ce8Re13B12
_chemical_formula_sum   'Ce8 Re13 B12'
_cell_volume   478.05838073
_cell_formula_units_Z   1
loop_
 _symmetry_equiv_pos_site_id
 _symmetry_equiv_pos_as_xyz
  1  'x, y, z'
loop_
 _atom_site_type_symbol
 _atom_site_label
 _atom_site_symmetry_multiplicity
 _atom_site_fract_x
 _atom_site_fract_y
 _atom_site_fract_z
 _atom_site_occupancy
  Ce  Ce0  1  0.64472794  0.64472794  0.64472794  1
  Ce  Ce1  1  0.35527206  0.35527206  0.35527206  1
  Ce  Ce2  1  0.18395080  0.18395080  0.68540861  1
  Ce  Ce3  1  0.18395080  0.68540861  0.18395080  1
  Ce  Ce4  1  0.68540861  0.18395080  0.18395080  1
  Ce  Ce5  1  0.81604920  0.81604920  0.31459139  1
  Ce  Ce6  1  0.81604920  0.31459139  0.81604920  1
  Ce  Ce7  1  0.31459139  0.81604920  0.81604920  1
  Re  Re8  1  0.00000000  -0.00000000  -0.00000000  1
  Re  Re9  1  0.06692391  0.59468941  0.59468941  1
  Re  Re10  1  0.59468941  0.59468941  0.06692391  1
  Re  Re11  1  0.59468941  0.06692391  0.59468941  1
  Re  Re12  1  0.93307609  0.40531059  0.40531059  1
  Re  Re13  1  0.40531059  0.40531059  0.93307609  1
  Re  Re14  1  0.40531059  0.93307609  0.40531059  1
  Re  Re15  1  0.92258490  0.92258490  0.66956717  1
  Re  Re16  1  0.92258490  0.66956717  0.92258490  1
  Re  Re17  1  0.66956717  0.92258490  0.92258490  1
  Re  Re18  1  0.07741510  0.07741510  0.33043283  1
  Re  Re19  1  0.07741510  0.33043283  0.07741510  1
  Re  Re20  1  0.33043283  0.07741510  0.07741510  1
  B  B21  1  0.84718732  0.15281268  0.50000000  1
  B  B22  1  0.15281268  0.50000000  0.84718732  1
  B  B23  1  0.50000000  0.84718732  0.15281268  1
  B  B24  1  0.84718732  0.50000000  0.15281268  1
  B  B25  1  0.50000000  0.15281268  0.84718732  1
  B  B26  1  0.15281268  0.84718732  0.50000000  1
  B  B27  1  0.50000000  0.67149739  0.32850261  1
  B  B28  1  0.67149739  0.32850261  0.50000000  1
  B  B29  1  0.32850261  0.50000000  0.67149739  1
  B  B30  1  0.50000000  0.32850261  0.67149739  1
  B  B31  1  0.32850261  0.67149739  0.50000000  1
  B  B32  1  0.67149739  0.50000000  0.32850261  1
