# generated using pymatgen
data_Zr2V3Ge4
_symmetry_space_group_name_H-M   'P 1'
_cell_length_a   6.66950132
_cell_length_b   6.77665012
_cell_length_c   12.85345035
_cell_angle_alpha   90.00000000
_cell_angle_beta   90.00000000
_cell_angle_gamma   90.00000000
_symmetry_Int_Tables_number   1
_chemical_formula_structural   Zr2V3Ge4
_chemical_formula_sum   'Zr8 V12 Ge16'
_cell_volume   580.93581347
_cell_formula_units_Z   4
loop_
 _symmetry_equiv_pos_site_id
 _symmetry_equiv_pos_as_xyz
  1  'x, y, z'
loop_
 _atom_site_type_symbol
 _atom_site_label
 _atom_site_symmetry_multiplicity
 _atom_site_fract_x
 _atom_site_fract_y
 _atom_site_fract_z
 _atom_site_occupancy
  Zr  Zr0  1  0.51051900  0.32744318  0.40747426  1
  Zr  Zr1  1  0.01051900  0.17255682  0.09252574  1
  Zr  Zr2  1  0.48948100  0.67255682  0.90747426  1
  Zr  Zr3  1  0.98948100  0.82744318  0.59252574  1
  Zr  Zr4  1  0.48948100  0.67255682  0.59252574  1
  Zr  Zr5  1  0.98948100  0.82744318  0.90747426  1
  Zr  Zr6  1  0.51051900  0.32744318  0.09252574  1
  Zr  Zr7  1  0.01051900  0.17255682  0.40747426  1
  V  V8  1  0.66250119  0.98986726  0.25000000  1
  V  V9  1  0.16250119  0.51013274  0.25000000  1
  V  V10  1  0.33749881  0.01013274  0.75000000  1
  V  V11  1  0.83749881  0.48986726  0.75000000  1
  V  V12  1  0.33930264  0.83786662  0.37435622  1
  V  V13  1  0.83930264  0.66213338  0.12564378  1
  V  V14  1  0.66069736  0.16213338  0.87435622  1
  V  V15  1  0.16069736  0.33786662  0.62564378  1
  V  V16  1  0.66069736  0.16213338  0.62564378  1
  V  V17  1  0.16069736  0.33786662  0.87435622  1
  V  V18  1  0.33930264  0.83786662  0.12564378  1
  V  V19  1  0.83930264  0.66213338  0.37435622  1
  Ge  Ge20  1  0.30928968  0.14216019  0.25000000  1
  Ge  Ge21  1  0.80928968  0.35783981  0.25000000  1
  Ge  Ge22  1  0.69071032  0.85783981  0.75000000  1
  Ge  Ge23  1  0.19071032  0.64216019  0.75000000  1
  Ge  Ge24  1  0.32279943  0.04609482  0.54262652  1
  Ge  Ge25  1  0.82279943  0.45390518  0.95737348  1
  Ge  Ge26  1  0.67720057  0.95390518  0.04262652  1
  Ge  Ge27  1  0.17720057  0.54609482  0.45737348  1
  Ge  Ge28  1  0.67720057  0.95390518  0.45737348  1
  Ge  Ge29  1  0.17720057  0.54609482  0.04262652  1
  Ge  Ge30  1  0.32279943  0.04609482  0.95737348  1
  Ge  Ge31  1  0.82279943  0.45390518  0.54262652  1
  Ge  Ge32  1  0.53351126  0.62761326  0.25000000  1
  Ge  Ge33  1  0.03351126  0.87238674  0.25000000  1
  Ge  Ge34  1  0.46648874  0.37238674  0.75000000  1
  Ge  Ge35  1  0.96648874  0.12761326  0.75000000  1
