# generated using pymatgen
data_Yb5Zr3(Ni4As3)4
_symmetry_space_group_name_H-M   'P 1'
_cell_length_a   3.91133642
_cell_length_b   12.75438472
_cell_length_c   12.75584238
_cell_angle_alpha   119.99621687
_cell_angle_beta   90.00000000
_cell_angle_gamma   90.00000000
_symmetry_Int_Tables_number   1
_chemical_formula_structural   Yb5Zr3(Ni4As3)4
_chemical_formula_sum   'Yb5 Zr3 Ni16 As12'
_cell_volume   551.11345633
_cell_formula_units_Z   1
loop_
 _symmetry_equiv_pos_site_id
 _symmetry_equiv_pos_as_xyz
  1  'x, y, z'
loop_
 _atom_site_type_symbol
 _atom_site_label
 _atom_site_symmetry_multiplicity
 _atom_site_fract_x
 _atom_site_fract_y
 _atom_site_fract_z
 _atom_site_occupancy
  Yb  Yb0  1  0.50000000  0.00012053  0.18117400  1
  Yb  Yb1  1  0.50000000  0.18115140  1.00000000  1
  Yb  Yb2  1  0.50000000  0.81894653  0.81882600  1
  Yb  Yb3  1  0.00000000  0.33326001  0.66669171  1
  Yb  Yb4  1  0.00000000  0.66656830  0.33330829  1
  Zr  Zr5  1  0.00000000  0.00003261  0.56285730  1
  Zr  Zr6  1  0.00000000  0.56261623  0.00000000  1
  Zr  Zr7  1  0.00000000  0.43717532  0.43714270  1
  Ni  Ni8  1  0.50000000  -0.00000209  0.72369323  1
  Ni  Ni9  1  0.50000000  0.72372097  0.00000000  1
  Ni  Ni10  1  0.50000000  0.27630469  0.27630677  1
  Ni  Ni11  1  0.00000000  0.19167425  0.37425073  1
  Ni  Ni12  1  -0.00000000  0.18259443  0.80830615  1
  Ni  Ni13  1  0.00000000  0.62576909  0.81747057  1
  Ni  Ni14  1  0.00000000  0.81742352  0.62574927  1
  Ni  Ni15  1  -0.00000000  0.37428827  0.19169385  1
  Ni  Ni16  1  0.00000000  0.80829853  0.18252943  1
  Ni  Ni17  1  0.50000000  0.12141625  0.48120609  1
  Ni  Ni18  1  0.50000000  0.35978392  0.87860332  1
  Ni  Ni19  1  0.50000000  0.51881336  0.64024553  1
  Ni  Ni20  1  0.50000000  0.64021016  0.51879391  1
  Ni  Ni21  1  0.50000000  0.48118060  0.12139668  1
  Ni  Ni22  1  0.50000000  0.87856783  0.35975447  1
  Ni  Ni23  1  0.00000000  0.00002563  1.00000000  1
  As  As24  1  0.00000000  0.99997207  0.82260185  1
  As  As25  1  0.00000000  0.82272949  0.00000000  1
  As  As26  1  0.00000000  0.17737022  0.17739815  1
  As  As27  1  0.50000000  0.30743223  0.47962763  1
  As  As28  1  0.50000000  0.17218282  0.69258272  1
  As  As29  1  0.50000000  0.52029327  0.82778899  1
  As  As30  1  0.50000000  0.82780460  0.52037237  1
  As  As31  1  0.50000000  0.47960010  0.30741728  1
  As  As32  1  0.50000000  0.69250428  0.17221101  1
  As  As33  1  0.00000000  0.00005438  0.35362838  1
  As  As34  1  0.00000000  0.35359022  1.00000000  1
  As  As35  1  0.00000000  0.64642600  0.64637162  1
