# generated using pymatgen
data_KVAsO5
_symmetry_space_group_name_H-M   'P 1'
_cell_length_a   6.64017464
_cell_length_b   10.83650347
_cell_length_c   13.28788257
_cell_angle_alpha   90.00000000
_cell_angle_beta   90.00000000
_cell_angle_gamma   90.00000000
_symmetry_Int_Tables_number   1
_chemical_formula_structural   KVAsO5
_chemical_formula_sum   'K8 V8 As8 O40'
_cell_volume   956.14653939
_cell_formula_units_Z   8
loop_
 _symmetry_equiv_pos_site_id
 _symmetry_equiv_pos_as_xyz
  1  'x, y, z'
loop_
 _atom_site_type_symbol
 _atom_site_label
 _atom_site_symmetry_multiplicity
 _atom_site_fract_x
 _atom_site_fract_y
 _atom_site_fract_z
 _atom_site_occupancy
  K  K0  1  0.72560709  0.53192803  0.62238074  1
  K  K1  1  0.27439291  0.03192803  0.37761926  1
  K  K2  1  0.22560709  0.03192803  0.87761926  1
  K  K3  1  0.77439291  0.53192803  0.12238074  1
  K  K4  1  0.70804759  0.77702523  0.39415869  1
  K  K5  1  0.29195241  0.27702523  0.60584131  1
  K  K6  1  0.20804759  0.27702523  0.10584131  1
  K  K7  1  0.79195241  0.77702523  0.89415869  1
  V  V8  1  0.23006878  0.59417166  0.75201046  1
  V  V9  1  0.76993122  0.09417166  0.24798954  1
  V  V10  1  0.73006878  0.09417166  0.74798954  1
  V  V11  1  0.26993122  0.59417166  0.25201046  1
  V  V12  1  0.99789429  0.34504140  0.37457506  1
  V  V13  1  0.00210571  0.84504140  0.62542494  1
  V  V14  1  0.49789429  0.84504140  0.12542494  1
  V  V15  1  0.50210571  0.34504140  0.87457506  1
  As  As16  1  0.50176189  0.33175605  0.31909054  1
  As  As17  1  0.49823811  0.83175605  0.68090946  1
  As  As18  1  0.00176189  0.83175605  0.18090946  1
  As  As19  1  0.99823811  0.33175605  0.81909054  1
  As  As20  1  0.17631191  0.58608252  0.50167540  1
  As  As21  1  0.82368809  0.08608252  0.49832460  1
  As  As22  1  0.67631191  0.08608252  0.99832460  1
  As  As23  1  0.32368809  0.58608252  0.00167540  1
  O  O24  1  0.04755183  0.45042707  0.73581472  1
  O  O25  1  0.95244817  0.95042707  0.26418528  1
  O  O26  1  0.54755183  0.95042707  0.76418528  1
  O  O27  1  0.45244817  0.45042707  0.23581472  1
  O  O28  1  0.70173241  0.36697711  0.39579867  1
  O  O29  1  0.29826759  0.86697711  0.60420133  1
  O  O30  1  0.20173241  0.86697711  0.10420133  1
  O  O31  1  0.79826759  0.36697711  0.89579867  1
  O  O32  1  0.33620260  0.60142194  0.40072999  1
  O  O33  1  0.66379740  0.10142194  0.59927001  1
  O  O34  1  0.83620260  0.10142194  0.09927001  1
  O  O35  1  0.16379740  0.60142194  0.90072999  1
  O  O36  1  0.05169196  0.45698280  0.28575509  1
  O  O37  1  0.94830804  0.95698280  0.71424491  1
  O  O38  1  0.55169196  0.95698280  0.21424491  1
  O  O39  1  0.44830804  0.45698280  0.78575509  1
  O  O40  1  0.01257940  0.70692022  0.51602763  1
  O  O41  1  0.98742060  0.20692022  0.48397237  1
  O  O42  1  0.51257940  0.20692022  0.98397237  1
  O  O43  1  0.48742060  0.70692022  0.01602763  1
  O  O44  1  0.32573041  0.56683712  0.60716253  1
  O  O45  1  0.67426959  0.06683712  0.39283747  1
  O  O46  1  0.82573041  0.06683712  0.89283747  1
  O  O47  1  0.17426959  0.56683712  0.10716253  1
  O  O48  1  0.02788467  0.45571830  0.49400419  1
  O  O49  1  0.97211533  0.95571830  0.50599581  1
  O  O50  1  0.52788467  0.95571830  0.00599581  1
  O  O51  1  0.47211533  0.45571830  0.99400419  1
  O  O52  1  0.29880083  0.29621481  0.39369532  1
  O  O53  1  0.70119917  0.79621481  0.60630468  1
  O  O54  1  0.79880083  0.79621481  0.10630468  1
  O  O55  1  0.20119917  0.29621481  0.89369532  1
  O  O56  1  0.53907210  0.21070198  0.23597556  1
  O  O57  1  0.46092790  0.71070198  0.76402444  1
  O  O58  1  0.03907210  0.71070198  0.26402444  1
  O  O59  1  0.96092790  0.21070198  0.73597556  1
  O  O60  1  0.05190749  0.70592677  0.72171968  1
  O  O61  1  0.94809251  0.20592677  0.27828032  1
  O  O62  1  0.55190749  0.20592677  0.77828032  1
  O  O63  1  0.44809251  0.70592677  0.22171968  1
