# generated using pymatgen
data_Nd5Zr3(Ni4As3)4
_symmetry_space_group_name_H-M   'P 1'
_cell_length_a   3.98849551
_cell_length_b   12.83087373
_cell_length_c   12.83673589
_cell_angle_alpha   119.98489205
_cell_angle_beta   90.00000000
_cell_angle_gamma   90.00000000
_symmetry_Int_Tables_number   1
_chemical_formula_structural   Nd5Zr3(Ni4As3)4
_chemical_formula_sum   'Nd5 Zr3 Ni16 As12'
_cell_volume   569.00577209
_cell_formula_units_Z   1
loop_
 _symmetry_equiv_pos_site_id
 _symmetry_equiv_pos_as_xyz
  1  'x, y, z'
loop_
 _atom_site_type_symbol
 _atom_site_label
 _atom_site_symmetry_multiplicity
 _atom_site_fract_x
 _atom_site_fract_y
 _atom_site_fract_z
 _atom_site_occupancy
  Nd  Nd0  1  0.50000000  0.99991761  0.18524043  1
  Nd  Nd1  1  0.50000000  0.18526513  1.00000000  1
  Nd  Nd2  1  0.50000000  0.81467718  0.81475957  1
  Nd  Nd3  1  0.00000000  0.33330703  0.66666554  1
  Nd  Nd4  1  -0.00000000  0.66664148  0.33333446  1
  Zr  Zr5  1  0.00000000  -0.00000144  0.56575872  1
  Zr  Zr6  1  -0.00000000  0.56583469  0.00000000  1
  Zr  Zr7  1  0.00000000  0.43423984  0.43424128  1
  Ni  Ni8  1  0.50000000  0.99998587  0.72167185  1
  Ni  Ni9  1  0.50000000  0.72173193  0.00000000  1
  Ni  Ni10  1  0.50000000  0.27831402  0.27832815  1
  Ni  Ni11  1  -0.00000000  0.19336499  0.37561671  1
  Ni  Ni12  1  0.00000000  0.18229423  0.80660300  1
  Ni  Ni13  1  -0.00000000  0.62431101  0.81769845  1
  Ni  Ni14  1  -0.00000000  0.81774828  0.62438329  1
  Ni  Ni15  1  0.00000000  0.37569123  0.19339700  1
  Ni  Ni16  1  -0.00000000  0.80661256  0.18230155  1
  Ni  Ni17  1  0.50000000  0.11892707  0.48240242  1
  Ni  Ni18  1  0.50000000  0.36350642  0.88112135  1
  Ni  Ni19  1  0.50000000  0.51762735  0.63657050  1
  Ni  Ni20  1  0.50000000  0.63652465  0.51759758  1
  Ni  Ni21  1  0.50000000  0.48238507  0.11887865  1
  Ni  Ni22  1  0.50000000  0.88105686  0.36342950  1
  Ni  Ni23  1  -0.00000000  0.00002758  1.00000000  1
  As  As24  1  0.00000000  0.00000874  0.82048474  1
  As  As25  1  0.00000000  0.82047920  0.00000000  1
  As  As26  1  -0.00000000  0.17952399  0.17951526  1
  As  As27  1  0.50000000  0.30516587  0.47577284  1
  As  As28  1  0.50000000  0.17061173  0.69485007  1
  As  As29  1  0.50000000  0.52424206  0.82941058  1
  As  As30  1  0.50000000  0.82939303  0.52422716  1
  As  As31  1  0.50000000  0.47576166  0.30514993  1
  As  As32  1  0.50000000  0.69483148  0.17058942  1
  As  As33  1  0.00000000  0.99996500  0.35898736  1
  As  As34  1  -0.00000000  0.35894897  1.00000000  1
  As  As35  1  -0.00000000  0.64097764  0.64101264  1
