# generated using pymatgen
data_NiP2(PbO4)2
_symmetry_space_group_name_H-M   'P 1'
_cell_length_a   5.36063641
_cell_length_b   8.56095274
_cell_length_c   15.68508205
_cell_angle_alpha   90.00000000
_cell_angle_beta   90.00000000
_cell_angle_gamma   90.03269596
_symmetry_Int_Tables_number   1
_chemical_formula_structural   NiP2(PbO4)2
_chemical_formula_sum   'Ni4 P8 Pb8 O32'
_cell_volume   719.82209847
_cell_formula_units_Z   4
loop_
 _symmetry_equiv_pos_site_id
 _symmetry_equiv_pos_as_xyz
  1  'x, y, z'
loop_
 _atom_site_type_symbol
 _atom_site_label
 _atom_site_symmetry_multiplicity
 _atom_site_fract_x
 _atom_site_fract_y
 _atom_site_fract_z
 _atom_site_occupancy
  Ni  Ni0  1  0.78367580  0.02092382  0.13524131  1
  Ni  Ni1  1  0.21632420  0.47907618  0.63524131  1
  Ni  Ni2  1  0.21632420  0.97907618  0.86475869  1
  Ni  Ni3  1  0.78367580  0.52092382  0.36475869  1
  P  P4  1  0.74119154  0.40626931  0.16468301  1
  P  P5  1  0.25880846  0.09373069  0.66468301  1
  P  P6  1  0.25880846  0.59373069  0.83531699  1
  P  P7  1  0.74119154  0.90626931  0.33531699  1
  P  P8  1  0.24329691  0.42290744  0.42566649  1
  P  P9  1  0.75670309  0.07709256  0.92566649  1
  P  P10  1  0.75670309  0.57709256  0.57433351  1
  P  P11  1  0.24329691  0.92290744  0.07433351  1
  Pb  Pb12  1  0.75113315  0.67679669  0.99234696  1
  Pb  Pb13  1  0.24886685  0.82320331  0.49234696  1
  Pb  Pb14  1  0.24886685  0.32320331  0.00765304  1
  Pb  Pb15  1  0.75113315  0.17679669  0.50765304  1
  Pb  Pb16  1  0.26368342  0.18154780  0.26410859  1
  Pb  Pb17  1  0.73631658  0.31845220  0.76410859  1
  Pb  Pb18  1  0.73631658  0.81845220  0.73589141  1
  Pb  Pb19  1  0.26368342  0.68154780  0.23589141  1
  O  O20  1  0.49305537  0.49945942  0.15245713  1
  O  O21  1  0.50694463  0.00054058  0.65245713  1
  O  O22  1  0.50694463  0.50054058  0.84754287  1
  O  O23  1  0.49305537  0.99945942  0.34754287  1
  O  O24  1  0.66892691  0.23258575  0.18158155  1
  O  O25  1  0.33107309  0.26741425  0.68158155  1
  O  O26  1  0.33107309  0.76741425  0.81841845  1
  O  O27  1  0.66892691  0.73258575  0.31841845  1
  O  O28  1  0.89859837  0.46801048  0.24102970  1
  O  O29  1  0.10140163  0.03198952  0.74102970  1
  O  O30  1  0.10140163  0.53198952  0.75897030  1
  O  O31  1  0.89859837  0.96801048  0.25897030  1
  O  O32  1  0.89670692  0.42679548  0.08119288  1
  O  O33  1  0.10329308  0.07320452  0.58119288  1
  O  O34  1  0.10329308  0.57320452  0.91880712  1
  O  O35  1  0.89670692  0.92679548  0.41880712  1
  O  O36  1  0.32027965  0.39589532  0.51787633  1
  O  O37  1  0.67972035  0.10410468  0.01787633  1
  O  O38  1  0.67972035  0.60410468  0.48212367  1
  O  O39  1  0.32027965  0.89589532  0.98212367  1
  O  O40  1  0.14947775  0.59261422  0.40386134  1
  O  O41  1  0.85052225  0.90738578  0.90386134  1
  O  O42  1  0.85052225  0.40738578  0.59613866  1
  O  O43  1  0.14947775  0.09261422  0.09613866  1
  O  O44  1  0.01281564  0.31580656  0.40231893  1
  O  O45  1  0.98718436  0.18419344  0.90231893  1
  O  O46  1  0.98718436  0.68419344  0.59768107  1
  O  O47  1  0.01281564  0.81580656  0.09768107  1
  O  O48  1  0.45970570  0.38337592  0.36230673  1
  O  O49  1  0.54029430  0.11662408  0.86230673  1
  O  O50  1  0.54029430  0.61662408  0.63769327  1
  O  O51  1  0.45970570  0.88337592  0.13769327  1
