# generated using pymatgen
data_LiFe2(PO4)3
_symmetry_space_group_name_H-M   'P 1'
_cell_length_a   4.79956769
_cell_length_b   4.79956789
_cell_length_c   19.52748276
_cell_angle_alpha   89.26848235
_cell_angle_beta   89.26848231
_cell_angle_gamma   66.89651623
_symmetry_Int_Tables_number   1
_chemical_formula_structural   LiFe2(PO4)3
_chemical_formula_sum   'Li2 Fe4 P6 O24'
_cell_volume   413.70614180
_cell_formula_units_Z   2
loop_
 _symmetry_equiv_pos_site_id
 _symmetry_equiv_pos_as_xyz
  1  'x, y, z'
loop_
 _atom_site_type_symbol
 _atom_site_label
 _atom_site_symmetry_multiplicity
 _atom_site_fract_x
 _atom_site_fract_y
 _atom_site_fract_z
 _atom_site_occupancy
  Li  Li0  1  0.99986062  0.99986062  0.50109973  1
  Li  Li1  1  0.00013938  0.00013938  0.83223327  1
  Fe  Fe2  1  0.00542445  0.00542445  0.99830510  1
  Fe  Fe3  1  0.00000000  0.00000000  0.16666700  1
  Fe  Fe4  1  0.00000000  0.00000000  0.66666700  1
  Fe  Fe5  1  0.99457555  0.99457555  0.33502790  1
  P  P6  1  0.64885524  0.64885524  0.92073529  1
  P  P7  1  0.35114476  0.35114476  0.41259771  1
  P  P8  1  0.65127581  0.65127581  0.24930642  1
  P  P9  1  0.35578798  0.35578798  0.74584357  1
  P  P10  1  0.64421202  0.64421202  0.58749043  1
  P  P11  1  0.34872419  0.34872419  0.08402658  1
  O  O12  1  0.77753426  0.29782398  0.92377817  1
  O  O13  1  0.70217602  0.22246574  0.40955483  1
  O  O14  1  0.76760087  0.76760087  0.98215430  1
  O  O15  1  0.77391978  0.29319661  0.59070886  1
  O  O16  1  0.76119672  0.76119672  0.18435202  1
  O  O17  1  0.22608022  0.70680339  0.74262414  1
  O  O18  1  0.29782398  0.77753426  0.92377817  1
  O  O19  1  0.22079619  0.70564746  0.08426859  1
  O  O20  1  0.29319661  0.77391978  0.59070886  1
  O  O21  1  0.74006605  0.74006605  0.51850142  1
  O  O22  1  0.70680339  0.22608022  0.74262414  1
  O  O23  1  0.25729111  0.25729111  0.48248956  1
  O  O24  1  0.22246574  0.70217602  0.40955483  1
  O  O25  1  0.29435254  0.77920381  0.24906441  1
  O  O26  1  0.75633314  0.75633314  0.31422601  1
  O  O27  1  0.70564746  0.22079619  0.08426859  1
  O  O28  1  0.77920381  0.29435254  0.24906441  1
  O  O29  1  0.24366686  0.24366686  0.01910699  1
  O  O30  1  0.74270889  0.74270889  0.85084444  1
  O  O31  1  0.23880328  0.23880328  0.14898098  1
  O  O32  1  0.23881448  0.23881448  0.68354475  1
  O  O33  1  0.23239913  0.23239913  0.35117870  1
  O  O34  1  0.25993395  0.25993395  0.81483258  1
  O  O35  1  0.76118552  0.76118552  0.64978825  1
