# generated using pymatgen
data_Cs4Os2Cl10O
_symmetry_space_group_name_H-M   'P 1'
_cell_length_a   12.00212486
_cell_length_b   12.67609091
_cell_length_c   14.20922787
_cell_angle_alpha   90.00000000
_cell_angle_beta   90.00000000
_cell_angle_gamma   90.00000000
_symmetry_Int_Tables_number   1
_chemical_formula_structural   Cs4Os2Cl10O
_chemical_formula_sum   'Cs16 Os8 Cl40 O4'
_cell_volume   2161.79229529
_cell_formula_units_Z   4
loop_
 _symmetry_equiv_pos_site_id
 _symmetry_equiv_pos_as_xyz
  1  'x, y, z'
loop_
 _atom_site_type_symbol
 _atom_site_label
 _atom_site_symmetry_multiplicity
 _atom_site_fract_x
 _atom_site_fract_y
 _atom_site_fract_z
 _atom_site_occupancy
  Cs  Cs0  1  0.28761258  0.89552312  0.13675391  1
  Cs  Cs1  1  0.21238742  0.39552312  0.86324609  1
  Cs  Cs2  1  0.78761258  0.10447688  0.36324609  1
  Cs  Cs3  1  0.71238742  0.60447688  0.63675391  1
  Cs  Cs4  1  0.71238742  0.10447688  0.86324609  1
  Cs  Cs5  1  0.78761258  0.60447688  0.13675391  1
  Cs  Cs6  1  0.21238742  0.89552312  0.63675391  1
  Cs  Cs7  1  0.28761258  0.39552312  0.36324609  1
  Cs  Cs8  1  0.02087720  0.78359156  0.36038110  1
  Cs  Cs9  1  0.47912280  0.28359156  0.63961890  1
  Cs  Cs10  1  0.52087720  0.21640844  0.13961890  1
  Cs  Cs11  1  0.97912280  0.71640844  0.86038110  1
  Cs  Cs12  1  0.97912280  0.21640844  0.63961890  1
  Cs  Cs13  1  0.52087720  0.71640844  0.36038110  1
  Cs  Cs14  1  0.47912280  0.78359156  0.86038110  1
  Cs  Cs15  1  0.02087720  0.28359156  0.13961890  1
  Os  Os16  1  0.41387646  0.55444795  0.09364571  1
  Os  Os17  1  0.08612354  0.05444795  0.90635429  1
  Os  Os18  1  0.91387646  0.44555205  0.40635429  1
  Os  Os19  1  0.58612354  0.94555205  0.59364571  1
  Os  Os20  1  0.58612354  0.44555205  0.90635429  1
  Os  Os21  1  0.91387646  0.94555205  0.09364571  1
  Os  Os22  1  0.08612354  0.55444795  0.59364571  1
  Os  Os23  1  0.41387646  0.05444795  0.40635429  1
  Cl  Cl24  1  0.30278512  0.62635092  0.21618107  1
  Cl  Cl25  1  0.19721488  0.12635092  0.78381893  1
  Cl  Cl26  1  0.80278512  0.37364908  0.28381893  1
  Cl  Cl27  1  0.69721488  0.87364908  0.71618107  1
  Cl  Cl28  1  0.69721488  0.37364908  0.78381893  1
  Cl  Cl29  1  0.80278512  0.87364908  0.21618107  1
  Cl  Cl30  1  0.19721488  0.62635092  0.71618107  1
  Cl  Cl31  1  0.30278512  0.12635092  0.28381893  1
  Cl  Cl32  1  0.01890697  0.78411632  0.10086193  1
  Cl  Cl33  1  0.48109303  0.28411632  0.89913807  1
  Cl  Cl34  1  0.51890697  0.21588368  0.39913807  1
  Cl  Cl35  1  0.98109303  0.71588368  0.60086193  1
  Cl  Cl36  1  0.98109303  0.21588368  0.89913807  1
  Cl  Cl37  1  0.51890697  0.71588368  0.10086193  1
  Cl  Cl38  1  0.48109303  0.78411632  0.60086193  1
  Cl  Cl39  1  0.01890697  0.28411632  0.39913807  1
  Cl  Cl40  1  0.21641051  0.63459178  0.48788781  1
  Cl  Cl41  1  0.28358949  0.13459178  0.51211219  1
  Cl  Cl42  1  0.71641051  0.36540822  0.01211219  1
  Cl  Cl43  1  0.78358949  0.86540822  0.98788781  1
  Cl  Cl44  1  0.78358949  0.36540822  0.51211219  1
  Cl  Cl45  1  0.71641051  0.86540822  0.48788781  1
  Cl  Cl46  1  0.28358949  0.63459178  0.98788781  1
  Cl  Cl47  1  0.21641051  0.13459178  0.01211219  1
  Cl  Cl48  1  0.02928673  0.51677730  0.28341625  1
  Cl  Cl49  1  0.47071327  0.01677730  0.71658375  1
  Cl  Cl50  1  0.52928673  0.48322270  0.21658375  1
  Cl  Cl51  1  0.97071327  0.98322270  0.78341625  1
  Cl  Cl52  1  0.97071327  0.48322270  0.71658375  1
  Cl  Cl53  1  0.52928673  0.98322270  0.28341625  1
  Cl  Cl54  1  0.47071327  0.51677730  0.78341625  1
  Cl  Cl55  1  0.02928673  0.01677730  0.21658375  1
  Cl  Cl56  1  0.29762079  0.90084071  0.39610749  1
  Cl  Cl57  1  0.20237921  0.40084071  0.60389251  1
  Cl  Cl58  1  0.79762079  0.09915929  0.10389251  1
  Cl  Cl59  1  0.70237921  0.59915929  0.89610749  1
  Cl  Cl60  1  0.70237921  0.09915929  0.60389251  1
  Cl  Cl61  1  0.79762079  0.59915929  0.39610749  1
  Cl  Cl62  1  0.20237921  0.90084071  0.89610749  1
  Cl  Cl63  1  0.29762079  0.40084071  0.10389251  1
  O  O64  1  -0.00000000  0.50000000  0.50000000  1
  O  O65  1  0.50000000  -0.00000000  0.50000000  1
  O  O66  1  0.50000000  0.50000000  0.00000000  1
  O  O67  1  -0.00000000  -0.00000000  -0.00000000  1
