# generated using pymatgen
data_Lu2(TeO3)3
_symmetry_space_group_name_H-M   'P 1'
_cell_length_a   6.98549217
_cell_length_b   13.35914479
_cell_length_c   14.70222246
_cell_angle_alpha   110.21633729
_cell_angle_beta   90.63314194
_cell_angle_gamma   100.11943055
_symmetry_Int_Tables_number   1
_chemical_formula_structural   Lu2(TeO3)3
_chemical_formula_sum   'Lu12 Te18 O54'
_cell_volume   1263.63165697
_cell_formula_units_Z   6
loop_
 _symmetry_equiv_pos_site_id
 _symmetry_equiv_pos_as_xyz
  1  'x, y, z'
loop_
 _atom_site_type_symbol
 _atom_site_label
 _atom_site_symmetry_multiplicity
 _atom_site_fract_x
 _atom_site_fract_y
 _atom_site_fract_z
 _atom_site_occupancy
  Lu  Lu0  1  0.75523873  0.54070443  0.46520035  1
  Lu  Lu1  1  0.24476127  0.45929557  0.53479965  1
  Lu  Lu2  1  0.25119133  0.94196149  0.52777577  1
  Lu  Lu3  1  0.74880867  0.05803851  0.47222423  1
  Lu  Lu4  1  0.16610414  0.72954937  0.66211303  1
  Lu  Lu5  1  0.83389586  0.27045063  0.33788697  1
  Lu  Lu6  1  0.82039520  0.77620765  0.33171930  1
  Lu  Lu7  1  0.17960480  0.22379235  0.66828070  1
  Lu  Lu8  1  0.92340823  0.66386133  0.07453984  1
  Lu  Lu9  1  0.07659177  0.33613867  0.92546016  1
  Lu  Lu10  1  0.51201510  0.76090493  0.96979636  1
  Lu  Lu11  1  0.48798490  0.23909507  0.03020364  1
  Te  Te12  1  0.77387827  0.82664109  0.57029549  1
  Te  Te13  1  0.22612173  0.17335891  0.42970451  1
  Te  Te14  1  0.64618734  0.15189815  0.70568911  1
  Te  Te15  1  0.35381266  0.84810185  0.29431089  1
  Te  Te16  1  0.93325186  0.96827525  0.22803043  1
  Te  Te17  1  0.06674814  0.03172475  0.77196957  1
  Te  Te18  1  0.63775804  0.64414043  0.72494486  1
  Te  Te19  1  0.36224196  0.35585957  0.27505514  1
  Te  Te20  1  0.73017596  0.35381105  0.57903124  1
  Te  Te21  1  0.26982404  0.64618895  0.42096876  1
  Te  Te22  1  0.04204476  0.81066379  0.93170913  1
  Te  Te23  1  0.95795524  0.18933621  0.06829087  1
  Te  Te24  1  0.51146814  0.96426140  0.85824639  1
  Te  Te25  1  0.48853186  0.03573860  0.14175361  1
  Te  Te26  1  0.13599227  0.52522509  0.80744706  1
  Te  Te27  1  0.86400773  0.47477491  0.19255294  1
  Te  Te28  1  0.62412182  0.42060198  0.88359553  1
  Te  Te29  1  0.37587818  0.57939802  0.11640447  1
  O  O30  1  0.85045847  0.91276428  0.48967927  1
  O  O31  1  0.14954153  0.08723572  0.51032073  1
  O  O32  1  0.04582136  0.84843854  0.61410855  1
  O  O33  1  0.95417864  0.15156146  0.38589145  1
  O  O34  1  0.79541487  0.70343967  0.44915773  1
  O  O35  1  0.20458513  0.29656033  0.55084227  1
  O  O36  1  0.54438506  0.03678349  0.58597777  1
  O  O37  1  0.45561494  0.96321651  0.41402223  1
  O  O38  1  0.49994922  0.25459265  0.68422249  1
  O  O39  1  0.50005078  0.74540735  0.31577751  1
  O  O40  1  0.85928279  0.18508749  0.63142173  1
  O  O41  1  0.14071721  0.81491251  0.36857827  1
  O  O42  1  0.77841869  0.93866905  0.32434242  1
  O  O43  1  0.22158131  0.06133095  0.67565758  1
  O  O44  1  0.81252565  0.99561324  0.70482136  1
  O  O45  1  0.18747435  0.00438676  0.29517864  1
  O  O46  1  0.93674942  0.81596731  0.18626696  1
  O  O47  1  0.06325058  0.18403269  0.81373304  1
  O  O48  1  0.65637147  0.78630806  0.82099408  1
  O  O49  1  0.34362853  0.21369194  0.17900592  1
  O  O50  1  0.41266375  0.64042260  0.64886196  1
  O  O51  1  0.58733625  0.35957740  0.35113804  1
  O  O52  1  0.81517201  0.66838281  0.62804996  1
  O  O53  1  0.18482799  0.33161719  0.37195004  1
  O  O54  1  0.36006404  0.78034698  0.52308687  1
  O  O55  1  0.63993596  0.21965302  0.47691313  1
  O  O56  1  0.56156266  0.44753182  0.56093767  1
  O  O57  1  0.43843734  0.55246818  0.43906233  1
  O  O58  1  0.10094097  0.59799340  0.51024186  1
  O  O59  1  0.89905903  0.40200660  0.48975814  1
  O  O60  1  0.06508335  0.71933456  0.80281235  1
  O  O61  1  0.93491665  0.28066544  0.19718765  1
  O  O62  1  0.81642741  0.25513607  0.99841405  1
  O  O63  1  0.18357259  0.74486393  0.00158595  1
  O  O64  1  0.81452831  0.72093734  0.95991435  1
  O  O65  1  0.18547169  0.27906266  0.04008565  1
  O  O66  1  0.34679528  0.88815696  0.74415660  1
  O  O67  1  0.65320472  0.11184304  0.25584340  1
  O  O68  1  0.61385480  0.91135239  0.10192181  1
  O  O69  1  0.38614520  0.08864761  0.89807819  1
  O  O70  1  0.37672434  0.89061127  0.93821660  1
  O  O71  1  0.62327566  0.10938873  0.06178340  1
  O  O72  1  0.10138247  0.50438093  0.67381517  1
  O  O73  1  0.89861753  0.49561907  0.32618483  1
  O  O74  1  0.39337270  0.60847636  0.84232950  1
  O  O75  1  0.60662730  0.39152364  0.15767050  1
  O  O76  1  0.80311732  0.61548864  0.20940912  1
  O  O77  1  0.19688268  0.38451136  0.79059088  1
  O  O78  1  0.55316834  0.67156036  0.07003613  1
  O  O79  1  0.44683166  0.32843964  0.92996387  1
  O  O80  1  0.81057781  0.33209951  0.83308811  1
  O  O81  1  0.18942219  0.66790049  0.16691189  1
  O  O82  1  0.78982348  0.49412867  0.00018618  1
  O  O83  1  0.21017652  0.50587133  0.99981382  1
