# generated using pymatgen
data_Tm6Al43Mo4
_symmetry_space_group_name_H-M   'P 1'
_cell_length_a   11.03124403
_cell_length_b   11.03127199
_cell_length_c   17.52411053
_cell_angle_alpha   90.00000000
_cell_angle_beta   90.00000000
_cell_angle_gamma   119.99991599
_symmetry_Int_Tables_number   1
_chemical_formula_structural   Tm6Al43Mo4
_chemical_formula_sum   'Tm12 Al86 Mo8'
_cell_volume   1846.78810261
_cell_formula_units_Z   2
loop_
 _symmetry_equiv_pos_site_id
 _symmetry_equiv_pos_as_xyz
  1  'x, y, z'
loop_
 _atom_site_type_symbol
 _atom_site_label
 _atom_site_symmetry_multiplicity
 _atom_site_fract_x
 _atom_site_fract_y
 _atom_site_fract_z
 _atom_site_occupancy
  Tm  Tm0  1  0.53109219  -0.00000000  0.59526016  1
  Tm  Tm1  1  0.46890096  0.46890724  0.59525932  1
  Tm  Tm2  1  0.99999372  0.53109276  0.59525932  1
  Tm  Tm3  1  0.46890781  0.00000000  0.40473984  1
  Tm  Tm4  1  0.53109904  0.53109276  0.40474068  1
  Tm  Tm5  1  0.00000628  0.46890724  0.40474068  1
  Tm  Tm6  1  0.46890781  0.00000000  0.09526016  1
  Tm  Tm7  1  0.53109904  0.53109276  0.09525932  1
  Tm  Tm8  1  0.00000628  0.46890724  0.09525932  1
  Tm  Tm9  1  0.53109219  -0.00000000  0.90473984  1
  Tm  Tm10  1  0.46890096  0.46890724  0.90474068  1
  Tm  Tm11  1  0.99999372  0.53109276  0.90474068  1
  Al  Al12  1  0.15811496  0.39479637  0.66325190  1
  Al  Al13  1  0.23667289  0.84189139  0.66325384  1
  Al  Al14  1  0.60520425  0.76332037  0.66325526  1
  Al  Al15  1  0.76331859  0.60520363  0.66325190  1
  Al  Al16  1  0.39478150  0.15810861  0.66325384  1
  Al  Al17  1  0.84188389  0.23667963  0.66325526  1
  Al  Al18  1  0.84188504  0.60520363  0.33674810  1
  Al  Al19  1  0.76332711  0.15810861  0.33674616  1
  Al  Al20  1  0.39479575  0.23667963  0.33674474  1
  Al  Al21  1  0.23668141  0.39479637  0.33674810  1
  Al  Al22  1  0.60521850  0.84189139  0.33674616  1
  Al  Al23  1  0.15811611  0.76332037  0.33674474  1
  Al  Al24  1  0.84188504  0.60520363  0.16325190  1
  Al  Al25  1  0.76332711  0.15810861  0.16325384  1
  Al  Al26  1  0.39479575  0.23667963  0.16325526  1
  Al  Al27  1  0.23668141  0.39479637  0.16325190  1
  Al  Al28  1  0.60521850  0.84189139  0.16325384  1
  Al  Al29  1  0.15811611  0.76332037  0.16325526  1
  Al  Al30  1  0.15811496  0.39479637  0.83674810  1
  Al  Al31  1  0.23667289  0.84189139  0.83674616  1
  Al  Al32  1  0.60520425  0.76332037  0.83674474  1
  Al  Al33  1  0.76331859  0.60520363  0.83674810  1
  Al  Al34  1  0.39478150  0.15810861  0.83674616  1
  Al  Al35  1  0.84188389  0.23667963  0.83674474  1
  Al  Al36  1  0.15930993  0.00000000  0.11469518  1
  Al  Al37  1  0.84069022  0.84069005  0.11468667  1
  Al  Al38  1  0.00000017  0.15930995  0.11468667  1
  Al  Al39  1  0.84069007  1.00000000  0.88530482  1
  Al  Al40  1  0.15930978  0.15930995  0.88531333  1
  Al  Al41  1  -0.00000017  0.84069005  0.88531333  1
  Al  Al42  1  0.84069007  1.00000000  0.61469518  1
  Al  Al43  1  0.15930978  0.15930995  0.61468667  1
  Al  Al44  1  -0.00000017  0.84069005  0.61468667  1
  Al  Al45  1  0.15930993  0.00000000  0.38530482  1
  Al  Al46  1  0.84069022  0.84069005  0.38531333  1
  Al  Al47  1  0.00000017  0.15930995  0.38531333  1
  Al  Al48  1  0.25462849  0.00000000  0.53049345  1
  Al  Al49  1  0.74537241  0.74536889  0.53048952  1
  Al  Al50  1  0.00000352  0.25463111  0.53048952  1
  Al  Al51  1  0.74537151  1.00000000  0.46950655  1
  Al  Al52  1  0.25462759  0.25463111  0.46951048  1
  Al  Al53  1  0.99999648  0.74536889  0.46951048  1
  Al  Al54  1  0.74537151  1.00000000  0.03049345  1
  Al  Al55  1  0.25462759  0.25463111  0.03048952  1
  Al  Al56  1  0.99999648  0.74536889  0.03048952  1
  Al  Al57  1  0.25462849  0.00000000  0.96950655  1
  Al  Al58  1  0.74537241  0.74536889  0.96951048  1
  Al  Al59  1  0.00000352  0.25463111  0.96951048  1
  Al  Al60  1  0.14725848  0.59594045  0.75000000  1
  Al  Al61  1  0.44868224  0.85273992  0.75000000  1
  Al  Al62  1  0.40405687  0.55132281  0.75000000  1
  Al  Al63  1  0.55131803  0.40405955  0.75000000  1
  Al  Al64  1  0.59594232  0.14726008  0.75000000  1
  Al  Al65  1  0.85273406  0.44867719  0.75000000  1
  Al  Al66  1  0.85274152  0.40405955  0.25000000  1
  Al  Al67  1  0.55131776  0.14726008  0.25000000  1
  Al  Al68  1  0.59594313  0.44867719  0.25000000  1
  Al  Al69  1  0.44868197  0.59594045  0.25000000  1
  Al  Al70  1  0.40405768  0.85273992  0.25000000  1
  Al  Al71  1  0.14726594  0.55132281  0.25000000  1
  Al  Al72  1  0.24700591  0.49401182  0.50000000  1
  Al  Al73  1  0.24700003  0.75299379  0.49999666  1
  Al  Al74  1  0.50599376  0.75299379  0.50000334  1
  Al  Al75  1  0.75299409  0.50598818  0.50000000  1
  Al  Al76  1  0.49400624  0.24700621  0.49999666  1
  Al  Al77  1  0.75299997  0.24700621  0.50000334  1
  Al  Al78  1  0.75299409  0.50598818  0.00000000  1
  Al  Al79  1  0.75299997  0.24700621  0.99999666  1
  Al  Al80  1  0.49400624  0.24700621  0.00000334  1
  Al  Al81  1  0.24700591  0.49401182  0.00000000  1
  Al  Al82  1  0.50599376  0.75299379  0.99999666  1
  Al  Al83  1  0.24700003  0.75299379  0.00000334  1
  Al  Al84  1  0.33331936  0.66667278  0.62612227  1
  Al  Al85  1  0.66664658  0.33332722  0.62612227  1
  Al  Al86  1  0.66668064  0.33332722  0.37387773  1
  Al  Al87  1  0.33335342  0.66667278  0.37387773  1
  Al  Al88  1  0.66668064  0.33332722  0.12612227  1
  Al  Al89  1  0.33335342  0.66667278  0.12612227  1
  Al  Al90  1  0.33331936  0.66667278  0.87387773  1
  Al  Al91  1  0.66664658  0.33332722  0.87387773  1
  Al  Al92  1  0.14717277  0.00000000  0.75000000  1
  Al  Al93  1  0.85281524  0.85284075  0.75000000  1
  Al  Al94  1  -0.00002550  0.14715925  0.75000000  1
  Al  Al95  1  0.85282723  1.00000000  0.25000000  1
  Al  Al96  1  0.14718476  0.14715925  0.25000000  1
  Al  Al97  1  0.00002550  0.85284075  0.25000000  1
  Mo  Mo98  1  0.72844337  1.00000000  0.75000000  1
  Mo  Mo99  1  0.27158540  0.27158705  0.75000000  1
  Mo  Mo100  1  0.99999836  0.72841295  0.75000000  1
  Mo  Mo101  1  0.27155663  0.00000000  0.25000000  1
  Mo  Mo102  1  0.72841460  0.72841295  0.25000000  1
  Mo  Mo103  1  0.00000164  0.27158705  0.25000000  1
  Mo  Mo104  1  -0.00000000  -0.00000000  0.50000000  1
  Mo  Mo105  1  -0.00000000  -0.00000000  0.00000000  1
