# generated using pymatgen
data_Ho3C4
_symmetry_space_group_name_H-M   'P 1'
_cell_length_a   8.06664683
_cell_length_b   8.06664683
_cell_length_c   15.92218697
_cell_angle_alpha   90.00000000
_cell_angle_beta   90.00000000
_cell_angle_gamma   90.00000000
_symmetry_Int_Tables_number   1
_chemical_formula_structural   Ho3C4
_chemical_formula_sum   'Ho30 C40'
_cell_volume   1036.06930186
_cell_formula_units_Z   10
loop_
 _symmetry_equiv_pos_site_id
 _symmetry_equiv_pos_as_xyz
  1  'x, y, z'
loop_
 _atom_site_type_symbol
 _atom_site_label
 _atom_site_symmetry_multiplicity
 _atom_site_fract_x
 _atom_site_fract_y
 _atom_site_fract_z
 _atom_site_occupancy
  Ho  Ho0  1  0.50000000  0.50000000  0.50000000  1
  Ho  Ho1  1  0.00000000  -0.00000000  0.00000000  1
  Ho  Ho2  1  0.50000000  0.50000000  0.18758520  1
  Ho  Ho3  1  0.00000000  -0.00000000  0.68758520  1
  Ho  Ho4  1  0.50000000  0.50000000  0.81241480  1
  Ho  Ho5  1  0.00000000  0.00000000  0.31241480  1
  Ho  Ho6  1  0.70262265  0.90478387  0.50000000  1
  Ho  Ho7  1  0.29737735  0.09521613  0.50000000  1
  Ho  Ho8  1  0.79737735  0.40478387  -0.00000000  1
  Ho  Ho9  1  0.20262265  0.59521613  -0.00000000  1
  Ho  Ho10  1  0.90478387  0.29737735  0.50000000  1
  Ho  Ho11  1  0.09521613  0.70262265  0.50000000  1
  Ho  Ho12  1  0.40478387  0.20262265  -0.00000000  1
  Ho  Ho13  1  0.59521613  0.79737735  0.00000000  1
  Ho  Ho14  1  0.78815008  0.60060384  0.35348083  1
  Ho  Ho15  1  0.21184992  0.39939616  0.35348083  1
  Ho  Ho16  1  0.71184992  0.10060384  0.85348083  1
  Ho  Ho17  1  0.28815008  0.89939616  0.85348083  1
  Ho  Ho18  1  0.60060384  0.21184992  0.35348083  1
  Ho  Ho19  1  0.39939616  0.78815008  0.35348083  1
  Ho  Ho20  1  0.10060384  0.28815008  0.85348083  1
  Ho  Ho21  1  0.89939616  0.71184992  0.85348083  1
  Ho  Ho22  1  0.21184992  0.39939616  0.64651917  1
  Ho  Ho23  1  0.78815008  0.60060384  0.64651917  1
  Ho  Ho24  1  0.28815008  0.89939616  0.14651917  1
  Ho  Ho25  1  0.71184992  0.10060384  0.14651917  1
  Ho  Ho26  1  0.39939616  0.78815008  0.64651917  1
  Ho  Ho27  1  0.60060384  0.21184992  0.64651917  1
  Ho  Ho28  1  0.89939616  0.71184992  0.14651917  1
  Ho  Ho29  1  0.10060384  0.28815008  0.14651917  1
  C  C30  1  0.50000000  0.50000000  0.95894689  1
  C  C31  1  0.00000000  0.00000000  0.45894689  1
  C  C32  1  0.50000000  0.50000000  0.04105311  1
  C  C33  1  0.00000000  -0.00000000  0.54105311  1
  C  C34  1  0.50000000  0.50000000  0.34385550  1
  C  C35  1  0.00000000  -0.00000000  0.84385550  1
  C  C36  1  0.50000000  0.50000000  0.65614450  1
  C  C37  1  0.00000000  0.00000000  0.15614450  1
  C  C38  1  0.60683446  0.19653876  0.50000000  1
  C  C39  1  0.39316554  0.80346124  0.50000000  1
  C  C40  1  0.89316554  0.69653876  0.00000000  1
  C  C41  1  0.10683446  0.30346124  -0.00000000  1
  C  C42  1  0.19653876  0.39316554  0.50000000  1
  C  C43  1  0.80346124  0.60683446  0.50000000  1
  C  C44  1  0.69653876  0.10683446  0.00000000  1
  C  C45  1  0.30346124  0.89316554  0.00000000  1
  C  C46  1  0.69191385  0.90090519  0.32788246  1
  C  C47  1  0.30808615  0.09909481  0.32788246  1
  C  C48  1  0.80808615  0.40090519  0.82788246  1
  C  C49  1  0.19191385  0.59909481  0.82788246  1
  C  C50  1  0.90090519  0.30808615  0.32788246  1
  C  C51  1  0.09909481  0.69191385  0.32788246  1
  C  C52  1  0.40090519  0.19191385  0.82788246  1
  C  C53  1  0.59909481  0.80808615  0.82788246  1
  C  C54  1  0.30808615  0.09909481  0.67211754  1
  C  C55  1  0.69191385  0.90090519  0.67211754  1
  C  C56  1  0.19191385  0.59909481  0.17211754  1
  C  C57  1  0.80808615  0.40090519  0.17211754  1
  C  C58  1  0.09909481  0.69191385  0.67211754  1
  C  C59  1  0.90090519  0.30808615  0.67211754  1
  C  C60  1  0.59909481  0.80808615  0.17211754  1
  C  C61  1  0.40090519  0.19191385  0.17211754  1
  C  C62  1  0.64945650  0.85054350  0.25000000  1
  C  C63  1  0.35054350  0.14945650  0.25000000  1
  C  C64  1  0.85054350  0.35054350  0.75000000  1
  C  C65  1  0.14945650  0.64945650  0.75000000  1
  C  C66  1  0.85054350  0.35054350  0.25000000  1
  C  C67  1  0.14945650  0.64945650  0.25000000  1
  C  C68  1  0.35054350  0.14945650  0.75000000  1
  C  C69  1  0.64945650  0.85054350  0.75000000  1
