# generated using pymatgen
data_Ca2VP3O11
_symmetry_space_group_name_H-M   'P 1'
_cell_length_a   6.48841007
_cell_length_b   6.74557056
_cell_length_c   19.37163595
_cell_angle_alpha   90.00000000
_cell_angle_beta   99.23920679
_cell_angle_gamma   90.00000000
_symmetry_Int_Tables_number   1
_chemical_formula_structural   Ca2VP3O11
_chemical_formula_sum   'Ca8 V4 P12 O44'
_cell_volume   836.85872398
_cell_formula_units_Z   4
loop_
 _symmetry_equiv_pos_site_id
 _symmetry_equiv_pos_as_xyz
  1  'x, y, z'
loop_
 _atom_site_type_symbol
 _atom_site_label
 _atom_site_symmetry_multiplicity
 _atom_site_fract_x
 _atom_site_fract_y
 _atom_site_fract_z
 _atom_site_occupancy
  Ca  Ca0  1  0.66887903  0.85522057  0.57773256  1
  Ca  Ca1  1  0.33112097  0.35522057  0.92226744  1
  Ca  Ca2  1  0.33112097  0.14477943  0.42226744  1
  Ca  Ca3  1  0.66887903  0.64477943  0.07773256  1
  Ca  Ca4  1  0.67028995  0.51056486  0.77226819  1
  Ca  Ca5  1  0.32971005  0.01056486  0.72773181  1
  Ca  Ca6  1  0.32971005  0.48943514  0.22773181  1
  Ca  Ca7  1  0.67028995  0.98943514  0.27226819  1
  V  V8  1  0.94692636  0.35546602  0.62208665  1
  V  V9  1  0.05307364  0.85546602  0.87791335  1
  V  V10  1  0.05307364  0.64453398  0.37791335  1
  V  V11  1  0.94692636  0.14453398  0.12208665  1
  P  P12  1  0.42816958  0.34560622  0.58804231  1
  P  P13  1  0.57183042  0.84560622  0.91195769  1
  P  P14  1  0.57183042  0.65439378  0.41195769  1
  P  P15  1  0.42816958  0.15439378  0.08804231  1
  P  P16  1  0.17190828  0.70476650  0.54854640  1
  P  P17  1  0.82809172  0.20476650  0.95145360  1
  P  P18  1  0.82809172  0.29523350  0.45145360  1
  P  P19  1  0.17190828  0.79523350  0.04854640  1
  P  P20  1  0.18460704  0.51140625  0.77356360  1
  P  P21  1  0.81539296  0.01140625  0.72643640  1
  P  P22  1  0.81539296  0.48859375  0.22643640  1
  P  P23  1  0.18460704  0.98859375  0.27356360  1
  O  O24  1  0.98206438  0.62831726  0.58137411  1
  O  O25  1  0.01793562  0.12831726  0.91862589  1
  O  O26  1  0.01793562  0.37168274  0.41862589  1
  O  O27  1  0.98206438  0.87168274  0.08137411  1
  O  O28  1  0.27399791  0.29721675  0.63866834  1
  O  O29  1  0.72600209  0.79721675  0.86133166  1
  O  O30  1  0.72600209  0.70278325  0.36133166  1
  O  O31  1  0.27399791  0.20278325  0.13866834  1
  O  O32  1  0.30906282  0.84163769  0.59708575  1
  O  O33  1  0.69093718  0.34163769  0.90291425  1
  O  O34  1  0.69093718  0.15836231  0.40291425  1
  O  O35  1  0.30906282  0.65836231  0.09708575  1
  O  O36  1  0.63212334  0.44044549  0.62537412  1
  O  O37  1  0.36787666  0.94044549  0.87462588  1
  O  O38  1  0.36787666  0.55955451  0.37462588  1
  O  O39  1  0.63212334  0.05955451  0.12537412  1
  O  O40  1  0.46889181  0.17460884  0.54117596  1
  O  O41  1  0.53110819  0.67460884  0.95882404  1
  O  O42  1  0.53110819  0.82539116  0.45882404  1
  O  O43  1  0.46889181  0.32539116  0.04117596  1
  O  O44  1  0.90645639  0.21898416  0.52580628  1
  O  O45  1  0.09354361  0.71898416  0.97419372  1
  O  O46  1  0.09354361  0.78101584  0.47419372  1
  O  O47  1  0.90645639  0.28101584  0.02580628  1
  O  O48  1  0.31156074  0.51194118  0.53498982  1
  O  O49  1  0.68843926  0.01194118  0.96501018  1
  O  O50  1  0.68843926  0.48805882  0.46501018  1
  O  O51  1  0.31156074  0.98805882  0.03498982  1
  O  O52  1  0.98625804  0.46541716  0.71912802  1
  O  O53  1  0.01374196  0.96541716  0.78087198  1
  O  O54  1  0.01374196  0.53458284  0.28087198  1
  O  O55  1  0.98625804  0.03458284  0.21912802  1
  O  O56  1  0.32625465  0.66710046  0.74866474  1
  O  O57  1  0.67374535  0.16710046  0.75133526  1
  O  O58  1  0.67374535  0.33289954  0.25133526  1
  O  O59  1  0.32625465  0.83289954  0.24866474  1
  O  O60  1  0.90779290  0.08023036  0.65932706  1
  O  O61  1  0.09220710  0.58023036  0.84067294  1
  O  O62  1  0.09220710  0.91976964  0.34067294  1
  O  O63  1  0.90779290  0.41976964  0.15932706  1
  O  O64  1  0.31408206  0.32494600  0.79670425  1
  O  O65  1  0.68591794  0.82494600  0.70329575  1
  O  O66  1  0.68591794  0.67505400  0.20329575  1
  O  O67  1  0.31408206  0.17505400  0.29670425  1
