# generated using pymatgen
data_BaLa2WO7
_symmetry_space_group_name_H-M   'P 1'
_cell_length_a   5.90025970
_cell_length_b   9.03469086
_cell_length_c   12.99371019
_cell_angle_alpha   105.27511409
_cell_angle_beta   90.00000000
_cell_angle_gamma   90.00000000
_symmetry_Int_Tables_number   1
_chemical_formula_structural   BaLa2WO7
_chemical_formula_sum   'Ba4 La8 W4 O28'
_cell_volume   668.18580641
_cell_formula_units_Z   4
loop_
 _symmetry_equiv_pos_site_id
 _symmetry_equiv_pos_as_xyz
  1  'x, y, z'
loop_
 _atom_site_type_symbol
 _atom_site_label
 _atom_site_symmetry_multiplicity
 _atom_site_fract_x
 _atom_site_fract_y
 _atom_site_fract_z
 _atom_site_occupancy
  Ba  Ba0  1  0.76485999  0.67997570  0.80246072  1
  Ba  Ba1  1  0.23514001  0.67997570  0.30246072  1
  Ba  Ba2  1  0.73126464  0.71507118  0.53236535  1
  Ba  Ba3  1  0.26873536  0.71507118  0.03236535  1
  La  La4  1  0.76424440  0.00203833  0.08366691  1
  La  La5  1  0.23575560  0.00203833  0.58366691  1
  La  La6  1  0.73835900  0.39168024  0.25157580  1
  La  La7  1  0.26164100  0.39168024  0.75157580  1
  La  La8  1  0.73023465  0.12970911  0.79615409  1
  La  La9  1  0.26976535  0.12970911  0.29615409  1
  La  La10  1  0.76793312  0.26314310  0.53601167  1
  La  La11  1  0.23206688  0.26314310  0.03601167  1
  W  W12  1  0.77683179  0.47956830  0.00605564  1
  W  W13  1  0.22316821  0.47956830  0.50605564  1
  W  W14  1  0.72585454  0.91819189  0.32956886  1
  W  W15  1  0.27414546  0.91819189  0.82956886  1
  O  O16  1  0.73258554  0.70336433  0.32497497  1
  O  O17  1  0.26741446  0.70336433  0.82497497  1
  O  O18  1  0.99040773  0.50077337  0.12665873  1
  O  O19  1  0.00959227  0.50077337  0.62665873  1
  O  O20  1  0.48804043  0.89050285  0.70861960  1
  O  O21  1  0.51195957  0.89050285  0.20861960  1
  O  O22  1  0.51859637  0.49159365  0.10128753  1
  O  O23  1  0.48140363  0.49159365  0.60128753  1
  O  O24  1  0.70563539  0.14261545  0.34473011  1
  O  O25  1  0.29436461  0.14261545  0.84473011  1
  O  O26  1  0.79871019  0.25460781  0.98455953  1
  O  O27  1  0.20128981  0.25460781  0.48455953  1
  O  O28  1  0.77885539  0.69662670  0.01272713  1
  O  O29  1  0.22114461  0.69662670  0.51272713  1
  O  O30  1  0.98767741  0.90475892  0.23595099  1
  O  O31  1  0.01232259  0.90475892  0.73595099  1
  O  O32  1  0.94346826  0.45712644  0.41669241  1
  O  O33  1  0.05653174  0.45712644  0.91669241  1
  O  O34  1  0.59113978  0.43818527  0.87674917  1
  O  O35  1  0.40886022  0.43818527  0.37674917  1
  O  O36  1  0.09998672  0.96717218  0.96247259  1
  O  O37  1  0.90001328  0.96717218  0.46247259  1
  O  O38  1  0.55754426  0.94313593  0.91733149  1
  O  O39  1  0.44245574  0.94313593  0.41733149  1
  O  O40  1  0.48855426  0.19177785  0.15679167  1
  O  O41  1  0.51144574  0.19177785  0.65679167  1
  O  O42  1  0.98695738  0.20198140  0.67629505  1
  O  O43  1  0.01304262  0.20198140  0.17629505  1
