# generated using pymatgen
data_Ba3Al3As5
_symmetry_space_group_name_H-M   'P 1'
_cell_length_a   13.34685931
_cell_length_b   13.34685931
_cell_length_c   13.34685978
_cell_angle_alpha   69.26038605
_cell_angle_beta   69.26038605
_cell_angle_gamma   69.26038553
_symmetry_Int_Tables_number   1
_chemical_formula_structural   Ba3Al3As5
_chemical_formula_sum   'Ba18 Al18 As30'
_cell_volume   2007.07178764
_cell_formula_units_Z   6
loop_
 _symmetry_equiv_pos_site_id
 _symmetry_equiv_pos_as_xyz
  1  'x, y, z'
loop_
 _atom_site_type_symbol
 _atom_site_label
 _atom_site_symmetry_multiplicity
 _atom_site_fract_x
 _atom_site_fract_y
 _atom_site_fract_z
 _atom_site_occupancy
  Ba  Ba0  1  0.22468270  0.14467000  0.64894289  1
  Ba  Ba1  1  0.14467000  0.64894289  0.22468270  1
  Ba  Ba2  1  0.64894289  0.22468270  0.14467000  1
  Ba  Ba3  1  0.72468270  0.14894289  0.64467000  1
  Ba  Ba4  1  0.14894289  0.64467000  0.72468270  1
  Ba  Ba5  1  0.64467000  0.72468270  0.14894289  1
  Ba  Ba6  1  0.77531730  0.85533000  0.35105711  1
  Ba  Ba7  1  0.85533000  0.35105711  0.77531730  1
  Ba  Ba8  1  0.35105711  0.77531730  0.85533000  1
  Ba  Ba9  1  0.27531730  0.85105711  0.35533000  1
  Ba  Ba10  1  0.85105711  0.35533000  0.27531730  1
  Ba  Ba11  1  0.35533000  0.27531730  0.85105711  1
  Ba  Ba12  1  0.39725932  0.39725932  0.39725932  1
  Ba  Ba13  1  0.89725932  0.89725932  0.89725932  1
  Ba  Ba14  1  0.60274068  0.60274068  0.60274068  1
  Ba  Ba15  1  0.10274068  0.10274068  0.10274068  1
  Ba  Ba16  1  0.25000000  0.25000000  0.25000000  1
  Ba  Ba17  1  0.75000000  0.75000000  0.75000000  1
  Al  Al18  1  0.57228504  0.08015716  0.49422235  1
  Al  Al19  1  0.08015716  0.49422235  0.57228504  1
  Al  Al20  1  0.49422235  0.57228504  0.08015716  1
  Al  Al21  1  0.07228504  0.99422235  0.58015716  1
  Al  Al22  1  0.99422235  0.58015716  0.07228504  1
  Al  Al23  1  0.58015716  0.07228504  0.99422235  1
  Al  Al24  1  0.42771496  0.91984284  0.50577765  1
  Al  Al25  1  0.91984284  0.50577765  0.42771496  1
  Al  Al26  1  0.50577765  0.42771496  0.91984284  1
  Al  Al27  1  0.92771496  0.00577765  0.41984284  1
  Al  Al28  1  0.00577765  0.41984284  0.92771496  1
  Al  Al29  1  0.41984284  0.92771496  0.00577765  1
  Al  Al30  1  0.52140088  0.97859912  0.25000000  1
  Al  Al31  1  0.97859912  0.25000000  0.52140088  1
  Al  Al32  1  0.25000000  0.52140088  0.97859912  1
  Al  Al33  1  0.02140088  0.75000000  0.47859912  1
  Al  Al34  1  0.75000000  0.47859912  0.02140088  1
  Al  Al35  1  0.47859912  0.02140088  0.75000000  1
  As  As36  1  0.44779641  0.11259926  0.37491425  1
  As  As37  1  0.11259926  0.37491425  0.44779641  1
  As  As38  1  0.37491425  0.44779641  0.11259926  1
  As  As39  1  0.94779641  0.87491425  0.61259926  1
  As  As40  1  0.87491425  0.61259926  0.94779641  1
  As  As41  1  0.61259926  0.94779641  0.87491425  1
  As  As42  1  0.55220359  0.88740074  0.62508575  1
  As  As43  1  0.88740074  0.62508575  0.55220359  1
  As  As44  1  0.62508575  0.55220359  0.88740074  1
  As  As45  1  0.05220359  0.12508575  0.38740074  1
  As  As46  1  0.12508575  0.38740074  0.05220359  1
  As  As47  1  0.38740074  0.05220359  0.12508575  1
  As  As48  1  0.46992535  0.20821198  0.61528881  1
  As  As49  1  0.20821198  0.61528881  0.46992535  1
  As  As50  1  0.61528881  0.46992535  0.20821198  1
  As  As51  1  0.96992535  0.11528881  0.70821198  1
  As  As52  1  0.11528881  0.70821198  0.96992535  1
  As  As53  1  0.70821198  0.96992535  0.11528881  1
  As  As54  1  0.53007465  0.79178802  0.38471119  1
  As  As55  1  0.79178802  0.38471119  0.53007465  1
  As  As56  1  0.38471119  0.53007465  0.79178802  1
  As  As57  1  0.03007465  0.88471119  0.29178802  1
  As  As58  1  0.88471119  0.29178802  0.03007465  1
  As  As59  1  0.29178802  0.03007465  0.88471119  1
  As  As60  1  0.88103525  0.61896475  0.25000000  1
  As  As61  1  0.61896475  0.25000000  0.88103525  1
  As  As62  1  0.25000000  0.88103525  0.61896475  1
  As  As63  1  0.38103525  0.75000000  0.11896475  1
  As  As64  1  0.75000000  0.11896475  0.38103525  1
  As  As65  1  0.11896475  0.38103525  0.75000000  1
