# generated using pymatgen
data_Ba2Gd2Si4O13
_symmetry_space_group_name_H-M   'P 1'
_cell_length_a   5.27498070
_cell_length_b   7.04124751
_cell_length_c   17.54478183
_cell_angle_alpha   79.86779699
_cell_angle_beta   81.35400577
_cell_angle_gamma   68.00182440
_symmetry_Int_Tables_number   1
_chemical_formula_structural   Ba2Gd2Si4O13
_chemical_formula_sum   'Ba4 Gd4 Si8 O26'
_cell_volume   592.23937646
_cell_formula_units_Z   2
loop_
 _symmetry_equiv_pos_site_id
 _symmetry_equiv_pos_as_xyz
  1  'x, y, z'
loop_
 _atom_site_type_symbol
 _atom_site_label
 _atom_site_symmetry_multiplicity
 _atom_site_fract_x
 _atom_site_fract_y
 _atom_site_fract_z
 _atom_site_occupancy
  Ba  Ba0  1  0.33346492  0.49223357  0.83298082  1
  Ba  Ba1  1  0.65867931  0.00776643  0.66701918  1
  Ba  Ba2  1  0.66653508  0.50776643  0.16701918  1
  Ba  Ba3  1  0.34132069  0.99223357  0.33298082  1
  Gd  Gd4  1  0.39643282  0.64544084  0.58419896  1
  Gd  Gd5  1  0.62607263  0.85455916  0.91580104  1
  Gd  Gd6  1  0.60356718  0.35455916  0.41580104  1
  Gd  Gd7  1  0.37392737  0.14544084  0.08419896  1
  Si  Si8  1  0.98224734  0.44089940  0.68352552  1
  Si  Si9  1  0.10667225  0.05910060  0.81647448  1
  Si  Si10  1  0.01775266  0.55910060  0.31647448  1
  Si  Si11  1  0.89332775  0.94089940  0.18352552  1
  Si  Si12  1  0.08477144  0.21930285  0.54356333  1
  Si  Si13  1  0.84763762  0.28069715  0.95643667  1
  Si  Si14  1  0.91522856  0.78069715  0.45643667  1
  Si  Si15  1  0.15236238  0.71930285  0.04356333  1
  O  O16  1  0.66140994  0.47299000  0.68885586  1
  O  O17  1  0.82325579  0.02701000  0.81114414  1
  O  O18  1  0.33859006  0.52701000  0.31114414  1
  O  O19  1  0.17674421  0.97299000  0.18885586  1
  O  O20  1  0.06193322  0.63551557  0.69301245  1
  O  O21  1  0.39046125  0.86448443  0.80698755  1
  O  O22  1  0.93806678  0.36448443  0.30698755  1
  O  O23  1  0.60953875  0.13551557  0.19301245  1
  O  O24  1  0.14434274  0.25000000  0.75000000  1
  O  O25  1  0.85565726  0.75000000  0.25000000  1
  O  O26  1  0.16165389  0.36223649  0.59987544  1
  O  O27  1  0.12376582  0.13776351  0.90012456  1
  O  O28  1  0.83834611  0.63776351  0.40012456  1
  O  O29  1  0.87623418  0.86223649  0.09987544  1
  O  O30  1  0.25752498  0.22748683  0.45942474  1
  O  O31  1  0.94443655  0.27251317  0.04057526  1
  O  O32  1  0.74247502  0.77251317  0.54057526  1
  O  O33  1  0.05556345  0.72748683  0.95942474  1
  O  O34  1  0.16479478  0.99122078  0.59593640  1
  O  O35  1  0.75195196  0.50877922  0.90406360  1
  O  O36  1  0.83520522  0.00877922  0.40406360  1
  O  O37  1  0.24804804  0.49122078  0.09593640  1
  O  O38  1  0.74814185  0.31967257  0.53753975  1
  O  O39  1  0.60535417  0.18032743  0.96246025  1
  O  O40  1  0.25185815  0.68032743  0.46246025  1
  O  O41  1  0.39464583  0.81967257  0.03753975  1
