# generated using pymatgen
data_Rb3Mn3P3O10F7
_symmetry_space_group_name_H-M   'P 1'
_cell_length_a   8.93742766
_cell_length_b   8.93742766
_cell_length_c   12.41559767
_cell_angle_alpha   69.36756667
_cell_angle_beta   69.36756667
_cell_angle_gamma   60.49519720
_symmetry_Int_Tables_number   1
_chemical_formula_structural   Rb3Mn3P3O10F7
_chemical_formula_sum   'Rb6 Mn6 P6 O20 F14'
_cell_volume   788.04542410
_cell_formula_units_Z   2
loop_
 _symmetry_equiv_pos_site_id
 _symmetry_equiv_pos_as_xyz
  1  'x, y, z'
loop_
 _atom_site_type_symbol
 _atom_site_label
 _atom_site_symmetry_multiplicity
 _atom_site_fract_x
 _atom_site_fract_y
 _atom_site_fract_z
 _atom_site_occupancy
  Rb  Rb0  1  0.45786573  0.89259837  0.07449662  1
  Rb  Rb1  1  0.89259837  0.45786573  0.57449662  1
  Rb  Rb2  1  0.06250287  0.69056202  0.07193077  1
  Rb  Rb3  1  0.69056202  0.06250287  0.57193077  1
  Rb  Rb4  1  0.85170968  0.28245514  0.08312820  1
  Rb  Rb5  1  0.28245514  0.85170968  0.58312820  1
  Mn  Mn6  1  0.12835732  0.21716070  0.30310052  1
  Mn  Mn7  1  0.21716070  0.12835732  0.80310052  1
  Mn  Mn8  1  0.37946594  0.45735981  0.31122358  1
  Mn  Mn9  1  0.45735981  0.37946594  0.81122358  1
  Mn  Mn10  1  0.62382544  0.96663942  0.30370890  1
  Mn  Mn11  1  0.96663942  0.62382544  0.80370890  1
  P  P12  1  0.44098140  0.28264498  0.10464423  1
  P  P13  1  0.28264498  0.44098140  0.60464423  1
  P  P14  1  0.05171052  0.88453634  0.28618799  1
  P  P15  1  0.88453634  0.05171052  0.78618799  1
  P  P16  1  0.71463125  0.55253679  0.29128497  1
  P  P17  1  0.55253679  0.71463125  0.79128497  1
  O  O18  1  0.59076383  0.10219937  0.14590200  1
  O  O19  1  0.10219937  0.59076383  0.64590200  1
  O  O20  1  0.26021181  0.27076713  0.14429004  1
  O  O21  1  0.27076713  0.26021181  0.64429004  1
  O  O22  1  0.42924448  0.42960300  0.15109240  1
  O  O23  1  0.42960300  0.42924448  0.65109240  1
  O  O24  1  0.48911847  0.33257490  0.96956956  1
  O  O25  1  0.33257490  0.48911847  0.46956956  1
  O  O26  1  0.90797758  0.43037909  0.25301987  1
  O  O27  1  0.43037909  0.90797758  0.75301987  1
  O  O28  1  0.08937136  0.04598489  0.24945368  1
  O  O29  1  0.04598489  0.08937136  0.74945368  1
  O  O30  1  0.89017878  0.92227151  0.24808028  1
  O  O31  1  0.92227151  0.89017878  0.74808028  1
  O  O32  1  0.68216175  0.74591123  0.25189512  1
  O  O33  1  0.74591123  0.68216175  0.75189512  1
  O  O34  1  0.59039577  0.51768195  0.25454988  1
  O  O35  1  0.51768195  0.59039577  0.75454988  1
  O  O36  1  0.21237536  0.72310368  0.25014472  1
  O  O37  1  0.72310368  0.21237536  0.75014472  1
  F  F38  1  0.00555991  0.16794676  0.45674441  1
  F  F39  1  0.16794676  0.00555991  0.95674441  1
  F  F40  1  0.18695998  0.38795899  0.35465540  1
  F  F41  1  0.38795899  0.18695998  0.85465540  1
  F  F42  1  0.67001151  0.50618911  0.43178440  1
  F  F43  1  0.50618911  0.67001151  0.93178440  1
  F  F44  1  0.55692367  0.18352348  0.35288653  1
  F  F45  1  0.18352348  0.55692367  0.85288653  1
  F  F46  1  0.64253853  0.84116951  0.45724528  1
  F  F47  1  0.84116951  0.64253853  0.95724528  1
  F  F48  1  0.00235589  0.83865359  0.42815875  1
  F  F49  1  0.83865359  0.00235589  0.92815875  1
  F  F50  1  0.34995687  0.02493255  0.34786189  1
  F  F51  1  0.02493255  0.34995687  0.84786189  1
