# generated using pymatgen
data_Ho5(Co2Si7)2
_symmetry_space_group_name_H-M   'P 1'
_cell_length_a   7.72546604
_cell_length_b   7.81020372
_cell_length_c   12.35463922
_cell_angle_alpha   90.00000000
_cell_angle_beta   98.78285900
_cell_angle_gamma   90.00000000
_symmetry_Int_Tables_number   1
_chemical_formula_structural   Ho5(Co2Si7)2
_chemical_formula_sum   'Ho10 Co8 Si28'
_cell_volume   736.70655392
_cell_formula_units_Z   2
loop_
 _symmetry_equiv_pos_site_id
 _symmetry_equiv_pos_as_xyz
  1  'x, y, z'
loop_
 _atom_site_type_symbol
 _atom_site_label
 _atom_site_symmetry_multiplicity
 _atom_site_fract_x
 _atom_site_fract_y
 _atom_site_fract_z
 _atom_site_occupancy
  Ho  Ho0  1  0.50000000  0.50000000  0.50000000  1
  Ho  Ho1  1  -0.00000000  -0.00000000  0.50000000  1
  Ho  Ho2  1  0.65775046  0.75178590  0.13590096  1
  Ho  Ho3  1  0.84224954  0.25178590  0.86409904  1
  Ho  Ho4  1  0.34224954  0.24821410  0.86409904  1
  Ho  Ho5  1  0.15775046  0.74821410  0.13590096  1
  Ho  Ho6  1  0.33937023  0.74889649  0.86437021  1
  Ho  Ho7  1  0.16062977  0.24889649  0.13562979  1
  Ho  Ho8  1  0.66062977  0.25110351  0.13562979  1
  Ho  Ho9  1  0.83937023  0.75110351  0.86437021  1
  Co  Co10  1  0.37174901  0.87272836  0.50043755  1
  Co  Co11  1  0.12825099  0.37272836  0.49956245  1
  Co  Co12  1  0.62825099  0.12727164  0.49956245  1
  Co  Co13  1  0.87174901  0.62727164  0.50043755  1
  Co  Co14  1  0.43945132  0.49987213  0.25157363  1
  Co  Co15  1  0.06054868  0.99987213  0.74842637  1
  Co  Co16  1  0.56054868  0.50012787  0.74842637  1
  Co  Co17  1  0.93945132  0.00012787  0.25157363  1
  Si  Si18  1  0.33466271  0.16555826  0.50008453  1
  Si  Si19  1  0.16533729  0.66555826  0.49991547  1
  Si  Si20  1  0.66533729  0.83444174  0.49991547  1
  Si  Si21  1  0.83466271  0.33444174  0.50008453  1
  Si  Si22  1  0.38781456  0.99961518  0.05815387  1
  Si  Si23  1  0.11218544  0.49961518  0.94184613  1
  Si  Si24  1  0.61218544  0.00038482  0.94184613  1
  Si  Si25  1  0.88781456  0.50038482  0.05815387  1
  Si  Si26  1  0.73185828  0.50572340  0.32329912  1
  Si  Si27  1  0.76814172  0.00572340  0.67670088  1
  Si  Si28  1  0.26814172  0.49427660  0.67670088  1
  Si  Si29  1  0.23185828  0.99427660  0.32329912  1
  Si  Si30  1  0.18165983  0.49407147  0.32291735  1
  Si  Si31  1  0.31834017  0.99407147  0.67708265  1
  Si  Si32  1  0.81834017  0.50592853  0.67708265  1
  Si  Si33  1  0.68165983  0.00592853  0.32291735  1
  Si  Si34  1  0.45001557  0.77396123  0.32355663  1
  Si  Si35  1  0.04998443  0.27396123  0.67644337  1
  Si  Si36  1  0.54998443  0.22603877  0.67644337  1
  Si  Si37  1  0.95001557  0.72603877  0.32355663  1
  Si  Si38  1  0.46251134  0.22608579  0.32350768  1
  Si  Si39  1  0.03748866  0.72608579  0.67649232  1
  Si  Si40  1  0.53748866  0.77391421  0.67649232  1
  Si  Si41  1  0.96251134  0.27391421  0.32350768  1
  Si  Si42  1  0.39084617  0.50021912  0.06055242  1
  Si  Si43  1  0.10915383  0.00021912  0.93944758  1
  Si  Si44  1  0.60915383  0.49978088  0.93944758  1
  Si  Si45  1  0.89084617  0.99978088  0.06055242  1
