# generated using pymatgen
data_Pr4GaSbS9
_symmetry_space_group_name_H-M   'P 1'
_cell_length_a   10.22667999
_cell_length_b   10.22667999
_cell_length_c   13.92757406
_cell_angle_alpha   90.00000000
_cell_angle_beta   90.00000000
_cell_angle_gamma   90.69151630
_symmetry_Int_Tables_number   1
_chemical_formula_structural   Pr4GaSbS9
_chemical_formula_sum   'Pr16 Ga4 Sb4 S36'
_cell_volume   1456.50901636
_cell_formula_units_Z   4
loop_
 _symmetry_equiv_pos_site_id
 _symmetry_equiv_pos_as_xyz
  1  'x, y, z'
loop_
 _atom_site_type_symbol
 _atom_site_label
 _atom_site_symmetry_multiplicity
 _atom_site_fract_x
 _atom_site_fract_y
 _atom_site_fract_z
 _atom_site_occupancy
  Pr  Pr0  1  0.12723348  0.08995111  0.81493529  1
  Pr  Pr1  1  0.91004889  0.87276652  0.18506471  1
  Pr  Pr2  1  0.62723348  0.58995111  0.68506471  1
  Pr  Pr3  1  0.41004889  0.37276652  0.31493529  1
  Pr  Pr4  1  0.33347104  0.32267351  0.60106667  1
  Pr  Pr5  1  0.67732649  0.66652896  0.39893333  1
  Pr  Pr6  1  0.83347104  0.82267351  0.89893333  1
  Pr  Pr7  1  0.17732649  0.16652896  0.10106667  1
  Pr  Pr8  1  0.62471973  0.04341945  0.67935631  1
  Pr  Pr9  1  0.95658055  0.37528027  0.32064369  1
  Pr  Pr10  1  0.12471973  0.54341945  0.82064369  1
  Pr  Pr11  1  0.45658055  0.87528027  0.17935631  1
  Pr  Pr12  1  0.45114978  0.32315656  0.89593674  1
  Pr  Pr13  1  0.67684344  0.54885022  0.10406326  1
  Pr  Pr14  1  0.95114978  0.82315656  0.60406326  1
  Pr  Pr15  1  0.17684344  0.04885022  0.39593674  1
  Ga  Ga16  1  0.38343817  0.82427787  0.90674162  1
  Ga  Ga17  1  0.17572213  0.61656183  0.09325838  1
  Ga  Ga18  1  0.88343817  0.32427787  0.59325838  1
  Ga  Ga19  1  0.67572213  0.11656183  0.40674162  1
  Sb  Sb20  1  0.32381056  0.82904882  0.61382735  1
  Sb  Sb21  1  0.17095118  0.67618944  0.38617265  1
  Sb  Sb22  1  0.82381056  0.32904882  0.88617265  1
  Sb  Sb23  1  0.67095118  0.17618944  0.11382735  1
  S  S24  1  0.16619072  0.01091888  0.60045067  1
  S  S25  1  0.98908112  0.83380928  0.39954933  1
  S  S26  1  0.66619072  0.51091888  0.89954933  1
  S  S27  1  0.48908112  0.33380928  0.10045067  1
  S  S28  1  0.66889963  0.14610099  0.92102232  1
  S  S29  1  0.85389901  0.33110037  0.07897768  1
  S  S30  1  0.16889963  0.64610099  0.57897768  1
  S  S31  1  0.35389901  0.83110037  0.42102232  1
  S  S32  1  0.20909770  0.81729017  0.79911350  1
  S  S33  1  0.18270983  0.79090230  0.20088650  1
  S  S34  1  0.70909770  0.31729017  0.70088650  1
  S  S35  1  0.68270983  0.29090230  0.29911350  1
  S  S36  1  0.56914553  0.82067787  0.81053853  1
  S  S37  1  0.17932213  0.43085447  0.18946147  1
  S  S38  1  0.06914553  0.32067787  0.68946147  1
  S  S39  1  0.67932213  0.93085447  0.31053853  1
  S  S40  1  0.86651149  0.13348851  0.50000000  1
  S  S41  1  0.36651149  0.63348851  -0.00000000  1
  S  S42  1  0.49174031  0.12268735  0.50191561  1
  S  S43  1  0.87731265  0.50825969  0.49808439  1
  S  S44  1  0.99174031  0.62268735  0.99808439  1
  S  S45  1  0.37731265  0.00825969  0.00191561  1
  S  S46  1  0.68070617  0.81502777  0.56853474  1
  S  S47  1  0.18497223  0.31929383  0.43146526  1
  S  S48  1  0.18070617  0.31502777  0.93146526  1
  S  S49  1  0.68497223  0.81929383  0.06853474  1
  S  S50  1  0.88118674  0.00312881  0.74945157  1
  S  S51  1  0.99687119  0.11881326  0.25054843  1
  S  S52  1  0.38118674  0.50312881  0.75054843  1
  S  S53  1  0.49687119  0.61881326  0.24945157  1
  S  S54  1  0.50075285  0.49924715  0.50000000  1
  S  S55  1  0.00075285  0.99924715  -0.00000000  1
  S  S56  1  0.38956054  0.14105527  0.75167202  1
  S  S57  1  0.85894473  0.61043946  0.24832798  1
  S  S58  1  0.88956054  0.64105527  0.74832798  1
  S  S59  1  0.35894473  0.11043946  0.25167202  1
