# generated using pymatgen
data_ScH11(IO3)2
_symmetry_space_group_name_H-M   'P 1'
_cell_length_a   8.31838556
_cell_length_b   8.57421449
_cell_length_c   9.57427434
_cell_angle_alpha   94.70102717
_cell_angle_beta   119.54373001
_cell_angle_gamma   101.24155335
_symmetry_Int_Tables_number   1
_chemical_formula_structural   ScH11(IO3)2
_chemical_formula_sum   'Sc2 H22 I4 O12'
_cell_volume   569.85556273
_cell_formula_units_Z   2
loop_
 _symmetry_equiv_pos_site_id
 _symmetry_equiv_pos_as_xyz
  1  'x, y, z'
loop_
 _atom_site_type_symbol
 _atom_site_label
 _atom_site_symmetry_multiplicity
 _atom_site_fract_x
 _atom_site_fract_y
 _atom_site_fract_z
 _atom_site_occupancy
  Sc  Sc0  1  0.12242246  0.65505612  0.16811696  1
  Sc  Sc1  1  0.87757754  0.34494388  0.83188304  1
  H  H2  1  0.94257751  0.67397993  0.84079267  1
  H  H3  1  0.05742249  0.32602007  0.15920733  1
  H  H4  1  0.34522335  0.80979856  0.51413118  1
  H  H5  1  0.65477665  0.19020144  0.48586882  1
  H  H6  1  0.25983535  0.94503497  0.42112958  1
  H  H7  1  0.74016465  0.05496503  0.57887042  1
  H  H8  1  0.40792111  0.48150050  0.28230265  1
  H  H9  1  0.59207889  0.51849950  0.71769735  1
  H  H10  1  0.51417400  0.65995703  0.39370443  1
  H  H11  1  0.48582600  0.34004297  0.60629557  1
  H  H12  1  0.34980069  0.79994718  0.03511058  1
  H  H13  1  0.65019931  0.20005282  0.96488942  1
  H  H14  1  0.38401887  0.94399735  0.16853584  1
  H  H15  1  0.61598113  0.05600265  0.83146416  1
  H  H16  1  0.81343073  0.80610434  0.02500564  1
  H  H17  1  0.18656927  0.19389566  0.97499436  1
  H  H18  1  0.97513764  0.92770855  0.19570499  1
  H  H19  1  0.02486236  0.07229145  0.80429501  1
  H  H20  1  0.85429123  0.49017492  0.25573055  1
  H  H21  1  0.14570877  0.50982508  0.74426945  1
  H  H22  1  0.06276705  0.53782621  0.40702817  1
  H  H23  1  0.93723295  0.46217379  0.59297183  1
  I  I24  1  0.14821508  0.18837770  0.40090303  1
  I  I25  1  0.85178492  0.81162230  0.59909697  1
  I  I26  1  0.54775931  0.26333355  0.19537373  1
  I  I27  1  0.45224069  0.73666645  0.80462627  1
  O  O28  1  0.96505553  0.59706724  0.91578323  1
  O  O29  1  0.03494447  0.40293276  0.08421677  1
  O  O30  1  0.29585574  0.84296297  0.40725045  1
  O  O31  1  0.70414426  0.15703703  0.59274955  1
  O  O32  1  0.38571762  0.58268055  0.31698156  1
  O  O33  1  0.61428238  0.41731945  0.68301844  1
  O  O34  1  0.31901569  0.82809745  0.11911295  1
  O  O35  1  0.68098431  0.17190255  0.88088705  1
  O  O36  1  0.94575150  0.82671799  0.11898036  1
  O  O37  1  0.05424850  0.17328201  0.88101964  1
  O  O38  1  0.97824125  0.57460471  0.30913774  1
  O  O39  1  0.02175875  0.42539529  0.69086226  1
