# generated using pymatgen
data_Sr51W12N56O3
_symmetry_space_group_name_H-M   'P 1'
_cell_length_a   11.23471128
_cell_length_b   13.18632936
_cell_length_c   16.98810234
_cell_angle_alpha   102.53083976
_cell_angle_beta   95.33147242
_cell_angle_gamma   109.81545718
_symmetry_Int_Tables_number   1
_chemical_formula_structural   Sr51W12N56O3
_chemical_formula_sum   'Sr51 W12 N56 O3'
_cell_volume   2272.99427194
_cell_formula_units_Z   1
loop_
 _symmetry_equiv_pos_site_id
 _symmetry_equiv_pos_as_xyz
  1  'x, y, z'
loop_
 _atom_site_type_symbol
 _atom_site_label
 _atom_site_symmetry_multiplicity
 _atom_site_fract_x
 _atom_site_fract_y
 _atom_site_fract_z
 _atom_site_occupancy
  Sr  Sr0  1  0.92148039  0.35914469  0.33006718  1
  Sr  Sr1  1  0.87570853  0.34418244  0.54258552  1
  Sr  Sr2  1  0.79664891  0.54623311  0.47350292  1
  Sr  Sr3  1  0.59365146  0.23633802  0.62620073  1
  Sr  Sr4  1  0.60433589  0.19886126  0.83561784  1
  Sr  Sr5  1  0.84993420  0.49701835  0.93430620  1
  Sr  Sr6  1  0.46634145  0.52286707  0.40199739  1
  Sr  Sr7  1  0.06681307  0.82249283  0.84836754  1
  Sr  Sr8  1  0.53365855  0.47713293  0.59800261  1
  Sr  Sr9  1  0.76296680  0.72047432  0.90221629  1
  Sr  Sr10  1  0.23703320  0.27952568  0.09778371  1
  Sr  Sr11  1  0.35592414  0.90196266  0.74662633  1
  Sr  Sr12  1  0.74493470  0.81400276  0.49413422  1
  Sr  Sr13  1  0.67974178  0.01828617  0.67401551  1
  Sr  Sr14  1  0.00933354  0.95275469  0.19995256  1
  Sr  Sr15  1  0.07851961  0.64085531  0.66993282  1
  Sr  Sr16  1  0.45589081  0.60783282  0.97581623  1
  Sr  Sr17  1  0.91263835  0.31083981  0.75116822  1
  Sr  Sr18  1  0.28547049  0.13394814  0.72208712  1
  Sr  Sr19  1  0.57752781  0.33416103  0.23195033  1
  Sr  Sr20  1  0.30978747  0.04478400  0.12281411  1
  Sr  Sr21  1  0.25506530  0.18599724  0.50586578  1
  Sr  Sr22  1  0.35931836  0.85834392  0.94802153  1
  Sr  Sr23  1  0.15006580  0.50298165  0.06569380  1
  Sr  Sr24  1  0.12429147  0.65581756  0.45741448  1
  Sr  Sr25  1  0.23826021  0.23259334  0.29897759  1
  Sr  Sr26  1  0.54410919  0.39216718  0.02418377  1
  Sr  Sr27  1  0.32025822  0.98171383  0.32598449  1
  Sr  Sr28  1  0.14208516  0.57766981  0.85673491  1
  Sr  Sr29  1  0.39566411  0.80113874  0.16438216  1
  Sr  Sr30  1  0.76173979  0.76740666  0.70102241  1
  Sr  Sr31  1  0.20335109  0.45376689  0.52649708  1
  Sr  Sr32  1  0.47936312  0.57042606  0.18179905  1
  Sr  Sr33  1  0.97474417  0.13685644  0.59634514  1
  Sr  Sr34  1  0.71452951  0.86605186  0.27791288  1
  Sr  Sr35  1  0.93318693  0.17750717  0.15163246  1
  Sr  Sr36  1  0.40634854  0.76366198  0.37379927  1
  Sr  Sr37  1  0.64068164  0.14165608  0.05197847  1
  Sr  Sr38  1  0.35521354  0.95768849  0.54424167  1
  Sr  Sr39  1  0.78364182  0.67422090  0.09771569  1
  Sr  Sr40  1  0.99066646  0.04724531  0.80004744  1
  Sr  Sr41  1  0.85791484  0.42233019  0.14326509  1
  Sr  Sr42  1  0.21635818  0.32577910  0.90228431  1
  Sr  Sr43  1  0.64407586  0.09803734  0.25337367  1
  Sr  Sr44  1  0.64478646  0.04231151  0.45575833  1
  Sr  Sr45  1  0.42247219  0.66583897  0.76804967  1
  Sr  Sr46  1  0.00000000  0.00000000  0.00000000  1
  Sr  Sr47  1  0.52063688  0.42957394  0.81820095  1
  Sr  Sr48  1  0.02525583  0.86314356  0.40365486  1
  Sr  Sr49  1  0.69021253  0.95521600  0.87718589  1
  Sr  Sr50  1  0.08736165  0.68916019  0.24883178  1
  W  W51  1  0.97017051  0.09946060  0.38501364  1
  W  W52  1  0.02982949  0.90053940  0.61498636  1
  W  W53  1  0.37223415  0.11924184  0.94323185  1
  W  W54  1  0.90540991  0.25811001  0.93181589  1
  W  W55  1  0.51798412  0.24481790  0.40929426  1
  W  W56  1  0.22375249  0.48517076  0.26464239  1
  W  W57  1  0.21829579  0.37974655  0.71553233  1
  W  W58  1  0.48201588  0.75518210  0.59070574  1
  W  W59  1  0.09459009  0.74188999  0.06818411  1
  W  W60  1  0.62776585  0.88075816  0.05676815  1
  W  W61  1  0.77624751  0.51482924  0.73535761  1
  W  W62  1  0.78170421  0.62025345  0.28446767  1
  N  N63  1  0.65051544  0.58164941  0.75150256  1
  N  N64  1  0.56410469  0.65256826  0.55344535  1
  N  N65  1  0.21277329  0.00915131  0.94502030  1
  N  N66  1  0.44263706  0.17172283  0.29623752  1
  N  N67  1  0.88188232  0.10149082  0.28630602  1
  N  N68  1  0.65027824  0.54284089  0.95686412  1
  N  N69  1  0.28716543  0.62212333  0.23145139  1
  N  N70  1  0.83894156  0.98609429  0.42233693  1
  N  N71  1  0.38387452  0.22698388  0.87944780  1
  N  N72  1  0.68457711  0.51879065  0.18048796  1
  N  N73  1  0.90099382  0.56479349  0.32954412  1
  N  N74  1  0.93549428  0.60810025  0.80297851  1
  N  N75  1  0.43589531  0.34743174  0.44655465  1
  N  N76  1  0.00971707  0.38900746  0.90495583  1
  N  N77  1  0.34948456  0.41835059  0.24849744  1
  N  N78  1  0.51655578  0.95495658  0.09476884  1
  N  N79  1  0.31542289  0.48120935  0.81951204  1
  N  N80  1  0.18439336  0.85043954  0.17234106  1
  N  N81  1  0.34972176  0.45715911  0.04313588  1
  N  N82  1  0.53619798  0.86858926  0.53095865  1
  N  N83  1  0.97994041  0.79061007  0.01041560  1
  N  N84  1  0.09900618  0.43520651  0.67045588  1
  N  N85  1  0.78180581  0.30116044  0.98676628  1
  N  N86  1  0.12219996  0.24422994  0.74006395  1
  N  N87  1  0.61612548  0.77301612  0.12055220  1
  N  N88  1  0.06450572  0.39189975  0.19702149  1
  N  N89  1  0.87780004  0.75577006  0.25993605  1
  N  N90  1  0.88915766  0.94542561  0.64423304  1
  N  N91  1  0.11811768  0.89850918  0.71369398  1
  N  N92  1  0.66930224  0.64567420  0.35920122  1
  N  N93  1  0.55736294  0.82827717  0.70376248  1
  N  N94  1  0.11084234  0.05457439  0.35576696  1
  N  N95  1  0.16105844  0.01390571  0.57766307  1
  N  N96  1  0.47979948  0.08521048  0.68567786  1
  N  N97  1  0.78170349  0.48538668  0.62053756  1
  N  N98  1  0.13628376  0.11390753  0.15644152  1
  N  N99  1  0.48344422  0.04504342  0.90523116  1
  N  N100  1  0.78722671  0.99084869  0.05497970  1
  N  N101  1  0.55906802  0.79924414  0.94391946  1
  N  N102  1  0.33069776  0.35432580  0.64079878  1
  N  N103  1  0.81560664  0.14956046  0.82765894  1
  N  N104  1  0.96094199  0.75693316  0.53652514  1
  N  N105  1  0.21829651  0.51461332  0.37946244  1
  N  N106  1  0.25644326  0.73913419  0.80384956  1
  N  N107  1  0.21819419  0.69883956  0.01323372  1
  N  N108  1  0.02005959  0.20938993  0.98958440  1
  N  N109  1  0.03905801  0.24306684  0.46347486  1
  N  N110  1  0.46380202  0.13141074  0.46904135  1
  N  N111  1  0.30001269  0.68995839  0.58366749  1
  N  N112  1  0.71283457  0.37787667  0.76854861  1
  N  N113  1  0.52020052  0.91478952  0.31432214  1
  N  N114  1  0.86371624  0.88609247  0.84355848  1
  N  N115  1  0.69998731  0.31004161  0.41633251  1
  N  N116  1  0.44093198  0.20075586  0.05608054  1
  N  N117  1  0.99028293  0.61099254  0.09504417  1
  N  N118  1  0.74355674  0.26086581  0.19615044  1
  O  O119  1  0.00000000  0.00000000  0.50000000  1
  O  O120  1  0.22267720  0.82126638  0.39411762  1
  O  O121  1  0.77732280  0.17873362  0.60588238  1
