# generated using pymatgen
data_La6Co13Sb
_symmetry_space_group_name_H-M   'P 1'
_cell_length_a   8.06011958
_cell_length_b   8.06011958
_cell_length_c   12.87391758
_cell_angle_alpha   108.24257130
_cell_angle_beta   108.24257130
_cell_angle_gamma   90.00000000
_symmetry_Int_Tables_number   1
_chemical_formula_structural   La6Co13Sb
_chemical_formula_sum   'La12 Co26 Sb2'
_cell_volume   749.93687828
_cell_formula_units_Z   2
loop_
 _symmetry_equiv_pos_site_id
 _symmetry_equiv_pos_as_xyz
  1  'x, y, z'
loop_
 _atom_site_type_symbol
 _atom_site_label
 _atom_site_symmetry_multiplicity
 _atom_site_fract_x
 _atom_site_fract_y
 _atom_site_fract_z
 _atom_site_occupancy
  La  La0  1  0.59967724  0.59967724  0.19935448  1
  La  La1  1  0.09967724  0.09967724  0.19935448  1
  La  La2  1  0.40032276  0.40032276  0.80064552  1
  La  La3  1  0.90032276  0.90032276  0.80064552  1
  La  La4  1  0.98009839  0.48009839  0.63867069  1
  La  La5  1  0.65857230  0.15857230  0.63867069  1
  La  La6  1  0.15857230  0.98009839  0.63867069  1
  La  La7  1  0.48009839  0.65857230  0.63867069  1
  La  La8  1  0.01990161  0.51990161  0.36132931  1
  La  La9  1  0.34142770  0.84142770  0.36132931  1
  La  La10  1  0.84142770  0.01990161  0.36132931  1
  La  La11  1  0.51990161  0.34142770  0.36132931  1
  Co  Co12  1  0.00000000  0.50000000  -0.00000000  1
  Co  Co13  1  0.50000000  0.00000000  -0.00000000  1
  Co  Co14  1  0.71348786  0.56556250  0.00000000  1
  Co  Co15  1  0.28651214  0.43443750  -0.00000000  1
  Co  Co16  1  0.78651214  0.06556250  0.00000000  1
  Co  Co17  1  0.21348786  0.93443750  -0.00000000  1
  Co  Co18  1  0.56556250  0.28651214  0.00000000  1
  Co  Co19  1  0.43443750  0.71348786  -0.00000000  1
  Co  Co20  1  0.06556250  0.21348786  0.00000000  1
  Co  Co21  1  0.93443750  0.78651214  -0.00000000  1
  Co  Co22  1  0.12095508  0.62095508  0.88816212  1
  Co  Co23  1  0.76720704  0.26720704  0.88816212  1
  Co  Co24  1  0.26720704  0.12095508  0.88816212  1
  Co  Co25  1  0.62095508  0.76720704  0.88816212  1
  Co  Co26  1  0.87904492  0.37904492  0.11183788  1
  Co  Co27  1  0.23279296  0.73279296  0.11183788  1
  Co  Co28  1  0.73279296  0.87904492  0.11183788  1
  Co  Co29  1  0.37904492  0.23279296  0.11183788  1
  Co  Co30  1  0.29758382  0.79758382  0.82334902  1
  Co  Co31  1  0.52576520  0.02576520  0.82334902  1
  Co  Co32  1  0.02576520  0.29758382  0.82334902  1
  Co  Co33  1  0.79758382  0.52576520  0.82334902  1
  Co  Co34  1  0.70241618  0.20241618  0.17665098  1
  Co  Co35  1  0.47423480  0.97423480  0.17665098  1
  Co  Co36  1  0.97423480  0.70241618  0.17665098  1
  Co  Co37  1  0.20241618  0.47423480  0.17665098  1
  Sb  Sb38  1  0.25000000  0.25000000  0.50000000  1
  Sb  Sb39  1  0.75000000  0.75000000  0.50000000  1
