# generated using pymatgen
data_Zn2Te15(H3N)8
_symmetry_space_group_name_H-M   'P 1'
_cell_length_a   9.84007868
_cell_length_b   13.11903470
_cell_length_c   13.52827142
_cell_angle_alpha   90.00000000
_cell_angle_beta   96.58487309
_cell_angle_gamma   90.00000000
_symmetry_Int_Tables_number   1
_chemical_formula_structural   Zn2Te15(H3N)8
_chemical_formula_sum   'Zn4 Te30 H48 N16'
_cell_volume   1734.87528498
_cell_formula_units_Z   2
loop_
 _symmetry_equiv_pos_site_id
 _symmetry_equiv_pos_as_xyz
  1  'x, y, z'
loop_
 _atom_site_type_symbol
 _atom_site_label
 _atom_site_symmetry_multiplicity
 _atom_site_fract_x
 _atom_site_fract_y
 _atom_site_fract_z
 _atom_site_occupancy
  Zn  Zn0  1  0.24690547  0.98807903  0.76845248  1
  Zn  Zn1  1  0.75309453  0.48807903  0.73154752  1
  Zn  Zn2  1  0.75309453  0.01192097  0.23154752  1
  Zn  Zn3  1  0.24690547  0.51192097  0.26845248  1
  Te  Te4  1  0.75126731  0.19560711  0.93261975  1
  Te  Te5  1  0.24873269  0.69560711  0.56738025  1
  Te  Te6  1  0.24873269  0.80439289  0.06738025  1
  Te  Te7  1  0.75126731  0.30439289  0.43261975  1
  Te  Te8  1  0.85335249  0.99530914  0.92505189  1
  Te  Te9  1  0.14664751  0.49530914  0.57494811  1
  Te  Te10  1  0.14664751  0.00469086  0.07494811  1
  Te  Te11  1  0.85335249  0.50469086  0.42505189  1
  Te  Te12  1  0.72422957  0.92626967  0.73739308  1
  Te  Te13  1  0.27577043  0.42626967  0.76260692  1
  Te  Te14  1  0.27577043  0.07373033  0.26260692  1
  Te  Te15  1  0.72422957  0.57373033  0.23739308  1
  Te  Te16  1  0.75835026  0.10069882  0.62307270  1
  Te  Te17  1  0.24164974  0.60069882  0.87692730  1
  Te  Te18  1  0.24164974  0.89930118  0.37692730  1
  Te  Te19  1  0.75835026  0.39930118  0.12307270  1
  Te  Te20  1  0.54214500  0.21541542  0.69927171  1
  Te  Te21  1  0.45785500  0.71541542  0.80072829  1
  Te  Te22  1  0.45785500  0.78458458  0.30072829  1
  Te  Te23  1  0.54214500  0.28458458  0.19927171  1
  Te  Te24  1  0.38759023  0.23135779  0.50476988  1
  Te  Te25  1  0.61240977  0.73135779  0.99523012  1
  Te  Te26  1  0.61240977  0.76864221  0.49523012  1
  Te  Te27  1  0.38759023  0.26864221  0.00476988  1
  Te  Te28  1  0.10159676  0.22367732  0.50935918  1
  Te  Te29  1  0.89840324  0.72367732  0.99064082  1
  Te  Te30  1  0.89840324  0.77632268  0.49064082  1
  Te  Te31  1  0.10159676  0.27632268  0.00935918  1
  Te  Te32  1  -0.00000000  -0.00000000  0.50000000  1
  Te  Te33  1  -0.00000000  0.50000000  -0.00000000  1
  H  H34  1  0.49309420  -0.00012296  0.85789009  1
  H  H35  1  0.50690580  0.49987704  0.64210991  1
  H  H36  1  0.50690580  0.00012296  0.14210991  1
  H  H37  1  0.49309420  0.50012296  0.35789009  1
  H  H38  1  0.38874927  0.05502568  0.93008539  1
  H  H39  1  0.61125073  0.55502568  0.56991461  1
  H  H40  1  0.61125073  0.94497432  0.06991461  1
  H  H41  1  0.38874927  0.44497432  0.43008539  1
  H  H42  1  0.40019269  0.92850407  0.92654978  1
  H  H43  1  0.59980731  0.42850407  0.57345022  1
  H  H44  1  0.59980731  0.07149593  0.07345022  1
  H  H45  1  0.40019269  0.57149593  0.42654978  1
  H  H46  1  0.14885792  0.80848094  0.72772959  1
  H  H47  1  0.85114208  0.30848094  0.77227041  1
  H  H48  1  0.85114208  0.19151906  0.27227041  1
  H  H49  1  0.14885792  0.69151906  0.22772959  1
  H  H50  1  0.11466490  0.83883456  0.84152289  1
  H  H51  1  0.88533510  0.33883456  0.65847711  1
  H  H52  1  0.88533510  0.16116544  0.15847711  1
  H  H53  1  0.11466490  0.66116544  0.34152289  1
  H  H54  1  0.01919442  0.88511609  0.74273208  1
  H  H55  1  0.98080558  0.38511609  0.75726792  1
  H  H56  1  0.98080558  0.11488391  0.25726792  1
  H  H57  1  0.01919442  0.61488391  0.24273208  1
  H  H58  1  0.12266339  0.15450730  0.70378444  1
  H  H59  1  0.87733661  0.65450730  0.79621556  1
  H  H60  1  0.87733661  0.84549270  0.29621556  1
  H  H61  1  0.12266339  0.34549270  0.20378444  1
  H  H62  1  0.03696883  0.10025799  0.78851848  1
  H  H63  1  0.96303117  0.60025799  0.71148152  1
  H  H64  1  0.96303117  0.89974201  0.21148152  1
  H  H65  1  0.03696883  0.39974201  0.28851848  1
  H  H66  1  0.17184912  0.16939213  0.82494951  1
  H  H67  1  0.82815088  0.66939213  0.67505049  1
  H  H68  1  0.82815088  0.83060787  0.17505049  1
  H  H69  1  0.17184912  0.33060787  0.32494951  1
  H  H70  1  0.27338670  0.96399602  0.58240443  1
  H  H71  1  0.72661330  0.46399602  0.91759557  1
  H  H72  1  0.72661330  0.03600398  0.41759557  1
  H  H73  1  0.27338670  0.53600398  0.08240443  1
  H  H74  1  0.39973627  0.03795216  0.63224846  1
  H  H75  1  0.60026373  0.53795216  0.86775154  1
  H  H76  1  0.60026373  0.96204784  0.36775154  1
  H  H77  1  0.39973627  0.46204784  0.13224846  1
  H  H78  1  0.40939157  0.91334114  0.64891368  1
  H  H79  1  0.59060843  0.41334114  0.85108632  1
  H  H80  1  0.59060843  0.08665886  0.35108632  1
  H  H81  1  0.40939157  0.58665886  0.14891368  1
  N  N82  1  0.39939631  0.99366871  0.88408199  1
  N  N83  1  0.60060369  0.49366871  0.61591801  1
  N  N84  1  0.60060369  0.00633129  0.11591801  1
  N  N85  1  0.39939631  0.50633129  0.38408199  1
  N  N86  1  0.11792466  0.86705439  0.77092498  1
  N  N87  1  0.88207534  0.36705439  0.72907502  1
  N  N88  1  0.88207534  0.13294561  0.22907502  1
  N  N89  1  0.11792466  0.63294561  0.27092498  1
  N  N90  1  0.13363760  0.11764200  0.77174630  1
  N  N91  1  0.86636240  0.61764200  0.72825370  1
  N  N92  1  0.86636240  0.88235800  0.22825370  1
  N  N93  1  0.13363760  0.38235800  0.27174630  1
  N  N94  1  0.34323891  0.97403962  0.64442775  1
  N  N95  1  0.65676109  0.47403962  0.85557225  1
  N  N96  1  0.65676109  0.02596038  0.35557225  1
  N  N97  1  0.34323891  0.52596038  0.14442775  1
