# generated using pymatgen
data_Y2Ni7Sn3
_symmetry_space_group_name_H-M   'P 1'
_cell_length_a   7.60608006
_cell_length_b   8.63886651
_cell_length_c   12.61479389
_cell_angle_alpha   110.02378063
_cell_angle_beta   90.00000000
_cell_angle_gamma   90.00000000
_symmetry_Int_Tables_number   1
_chemical_formula_structural   Y2Ni7Sn3
_chemical_formula_sum   'Y8 Ni28 Sn12'
_cell_volume   778.78572371
_cell_formula_units_Z   4
loop_
 _symmetry_equiv_pos_site_id
 _symmetry_equiv_pos_as_xyz
  1  'x, y, z'
loop_
 _atom_site_type_symbol
 _atom_site_label
 _atom_site_symmetry_multiplicity
 _atom_site_fract_x
 _atom_site_fract_y
 _atom_site_fract_z
 _atom_site_occupancy
  Y  Y0  1  0.42717789  0.19390720  0.38781441  1
  Y  Y1  1  0.57282211  0.80609280  0.61218559  1
  Y  Y2  1  0.92717789  0.30609280  0.61218559  1
  Y  Y3  1  0.07282211  0.69390720  0.38781441  1
  Y  Y4  1  0.50000000  0.29202358  0.00000000  1
  Y  Y5  1  -0.00000000  0.79202358  0.00000000  1
  Y  Y6  1  0.50000000  0.70797642  0.00000000  1
  Y  Y7  1  -0.00000000  0.20797642  0.00000000  1
  Ni  Ni8  1  0.42172143  0.54916715  0.39511757  1
  Ni  Ni9  1  0.57827857  0.15404958  0.60488243  1
  Ni  Ni10  1  0.92172143  0.65404958  0.60488243  1
  Ni  Ni11  1  0.07827857  0.04916715  0.39511757  1
  Ni  Ni12  1  0.57827857  0.45083285  0.60488243  1
  Ni  Ni13  1  0.42172143  0.84595042  0.39511757  1
  Ni  Ni14  1  0.07827857  0.34595042  0.39511757  1
  Ni  Ni15  1  0.92172143  0.95083285  0.60488243  1
  Ni  Ni16  1  0.44502920  0.60063299  0.20126598  1
  Ni  Ni17  1  0.55497080  0.39936701  0.79873402  1
  Ni  Ni18  1  0.94502920  0.89936701  0.79873402  1
  Ni  Ni19  1  0.05497080  0.10063299  0.20126598  1
  Ni  Ni20  1  0.59282061  0.35749356  0.23401316  1
  Ni  Ni21  1  0.40717939  0.12348039  0.76598684  1
  Ni  Ni22  1  0.09282061  0.62348039  0.76598684  1
  Ni  Ni23  1  0.90717939  0.85749356  0.23401316  1
  Ni  Ni24  1  0.40717939  0.64250644  0.76598684  1
  Ni  Ni25  1  0.59282061  0.87651961  0.23401316  1
  Ni  Ni26  1  0.90717939  0.37651961  0.23401316  1
  Ni  Ni27  1  0.09282061  0.14250644  0.76598684  1
  Ni  Ni28  1  0.34955999  0.04691555  0.09383110  1
  Ni  Ni29  1  0.65044001  0.95308445  0.90616890  1
  Ni  Ni30  1  0.84955999  0.45308445  0.90616890  1
  Ni  Ni31  1  0.15044001  0.54691555  0.09383110  1
  Ni  Ni32  1  0.31060963  0.33482636  0.66965271  1
  Ni  Ni33  1  0.68939037  0.66517364  0.33034729  1
  Ni  Ni34  1  0.81060963  0.16517364  0.33034729  1
  Ni  Ni35  1  0.18939037  0.83482636  0.66965271  1
  Sn  Sn36  1  0.25000000  0.53126932  0.56253864  1
  Sn  Sn37  1  0.75000000  0.96873068  0.43746136  1
  Sn  Sn38  1  0.75000000  0.46873068  0.43746136  1
  Sn  Sn39  1  0.25000000  0.03126932  0.56253864  1
  Sn  Sn40  1  0.25000000  0.35604673  0.21209345  1
  Sn  Sn41  1  0.75000000  0.14395327  0.78790655  1
  Sn  Sn42  1  0.75000000  0.64395327  0.78790655  1
  Sn  Sn43  1  0.25000000  0.85604673  0.21209345  1
  Sn  Sn44  1  0.29790764  0.93768133  0.87536266  1
  Sn  Sn45  1  0.70209236  0.06231867  0.12463734  1
  Sn  Sn46  1  0.79790764  0.56231867  0.12463734  1
  Sn  Sn47  1  0.20209236  0.43768133  0.87536266  1
