# generated using pymatgen
data_Cs4Zr6BBr17
_symmetry_space_group_name_H-M   'P 1'
_cell_length_a   11.82046058
_cell_length_b   12.86439956
_cell_length_c   12.86439956
_cell_angle_alpha   90.00000000
_cell_angle_beta   90.00000000
_cell_angle_gamma   90.00000000
_symmetry_Int_Tables_number   1
_chemical_formula_structural   Cs4Zr6BBr17
_chemical_formula_sum   'Cs8 Zr12 B2 Br34'
_cell_volume   1956.20083545
_cell_formula_units_Z   2
loop_
 _symmetry_equiv_pos_site_id
 _symmetry_equiv_pos_as_xyz
  1  'x, y, z'
loop_
 _atom_site_type_symbol
 _atom_site_label
 _atom_site_symmetry_multiplicity
 _atom_site_fract_x
 _atom_site_fract_y
 _atom_site_fract_z
 _atom_site_occupancy
  Cs  Cs0  1  0.33919186  0.47903116  0.28062756  1
  Cs  Cs1  1  0.66080814  0.02096884  0.78062756  1
  Cs  Cs2  1  0.33919186  0.52096884  0.71937244  1
  Cs  Cs3  1  0.66080814  0.97903116  0.21937244  1
  Cs  Cs4  1  0.66080814  0.71937244  0.47903116  1
  Cs  Cs5  1  0.33919186  0.78062756  0.97903116  1
  Cs  Cs6  1  0.66080814  0.28062756  0.52096884  1
  Cs  Cs7  1  0.33919186  0.21937244  0.02096884  1
  Zr  Zr8  1  0.69733043  0.59204940  0.09204940  1
  Zr  Zr9  1  0.30266957  0.90795060  0.59204940  1
  Zr  Zr10  1  0.69733043  0.40795060  0.90795060  1
  Zr  Zr11  1  0.30266957  0.09204940  0.40795060  1
  Zr  Zr12  1  0.97822345  0.59195022  0.09195022  1
  Zr  Zr13  1  0.02177655  0.90804978  0.59195022  1
  Zr  Zr14  1  0.97822345  0.40804978  0.90804978  1
  Zr  Zr15  1  0.02177655  0.09195022  0.40804978  1
  Zr  Zr16  1  0.15926865  0.87114759  0.37114759  1
  Zr  Zr17  1  0.84073135  0.62885241  0.87114759  1
  Zr  Zr18  1  0.15926865  0.12885241  0.62885241  1
  Zr  Zr19  1  0.84073135  0.37114759  0.12885241  1
  B  B20  1  0.16169172  0.00000000  0.50000000  1
  B  B21  1  0.83830828  0.50000000  0.00000000  1
  Br  Br22  1  0.83670241  0.00000000  0.50000000  1
  Br  Br23  1  0.16329759  0.50000000  0.00000000  1
  Br  Br24  1  0.15980224  0.70546370  0.20546370  1
  Br  Br25  1  0.84019776  0.79453630  0.70546370  1
  Br  Br26  1  0.15980224  0.29453630  0.79453630  1
  Br  Br27  1  0.84019776  0.20546370  0.29453630  1
  Br  Br28  1  0.67967530  0.45573005  0.25213005  1
  Br  Br29  1  0.32032470  0.04426995  0.75213005  1
  Br  Br30  1  0.67967530  0.54426995  0.74786995  1
  Br  Br31  1  0.32032470  0.95573005  0.24786995  1
  Br  Br32  1  0.32032470  0.74786995  0.45573005  1
  Br  Br33  1  0.67967530  0.75213005  0.95573005  1
  Br  Br34  1  0.32032470  0.25213005  0.54426995  1
  Br  Br35  1  0.67967530  0.24786995  0.04426995  1
  Br  Br36  1  0.52849479  0.70477162  0.20477162  1
  Br  Br37  1  0.47150521  0.79522838  0.70477162  1
  Br  Br38  1  0.52849479  0.29522838  0.79522838  1
  Br  Br39  1  0.47150521  0.20477162  0.29522838  1
  Br  Br40  1  0.48779637  0.00000000  0.50000000  1
  Br  Br41  1  0.51220363  0.50000000  0.00000000  1
  Br  Br42  1  0.99835844  0.45939313  0.25394523  1
  Br  Br43  1  0.00164156  0.04060687  0.75394523  1
  Br  Br44  1  0.99835844  0.54060687  0.74605477  1
  Br  Br45  1  0.00164156  0.95939313  0.24605477  1
  Br  Br46  1  0.00164156  0.74605477  0.45939313  1
  Br  Br47  1  0.99835844  0.75394523  0.95939313  1
  Br  Br48  1  0.00164156  0.25394523  0.54060687  1
  Br  Br49  1  0.99835844  0.24605477  0.04060687  1
  Br  Br50  1  0.83750539  0.70884791  0.20884791  1
  Br  Br51  1  0.16249461  0.79115209  0.70884791  1
  Br  Br52  1  0.83750539  0.29115209  0.79115209  1
  Br  Br53  1  0.16249461  0.20884791  0.29115209  1
  Br  Br54  1  0.50000000  0.50000000  0.50000000  1
  Br  Br55  1  0.50000000  0.00000000  0.00000000  1
