# generated using pymatgen
data_KGa(SeO3)2
_symmetry_space_group_name_H-M   'P 1'
_cell_length_a   5.42227769
_cell_length_b   7.42881120
_cell_length_c   15.24526908
_cell_angle_alpha   90.00000000
_cell_angle_beta   90.00000000
_cell_angle_gamma   90.00000000
_symmetry_Int_Tables_number   1
_chemical_formula_structural   KGa(SeO3)2
_chemical_formula_sum   'K4 Ga4 Se8 O24'
_cell_volume   614.09586125
_cell_formula_units_Z   4
loop_
 _symmetry_equiv_pos_site_id
 _symmetry_equiv_pos_as_xyz
  1  'x, y, z'
loop_
 _atom_site_type_symbol
 _atom_site_label
 _atom_site_symmetry_multiplicity
 _atom_site_fract_x
 _atom_site_fract_y
 _atom_site_fract_z
 _atom_site_occupancy
  K  K0  1  0.25000000  0.07412579  0.88941611  1
  K  K1  1  0.25000000  0.42587421  0.38941611  1
  K  K2  1  0.75000000  0.92587421  0.11058389  1
  K  K3  1  0.75000000  0.57412579  0.61058389  1
  Ga  Ga4  1  0.75000000  0.69096597  0.87236263  1
  Ga  Ga5  1  0.75000000  0.80903403  0.37236263  1
  Ga  Ga6  1  0.25000000  0.30903403  0.12763737  1
  Ga  Ga7  1  0.25000000  0.19096597  0.62763737  1
  Se  Se8  1  0.25000000  0.61527691  0.97675237  1
  Se  Se9  1  0.25000000  0.88472309  0.47675237  1
  Se  Se10  1  0.75000000  0.38472309  0.02324763  1
  Se  Se11  1  0.75000000  0.11527691  0.52324763  1
  Se  Se12  1  0.25000000  0.49399790  0.77470370  1
  Se  Se13  1  0.25000000  0.00600210  0.27470370  1
  Se  Se14  1  0.75000000  0.50600210  0.22529630  1
  Se  Se15  1  0.75000000  0.99399790  0.72529630  1
  O  O16  1  0.25000000  0.57093635  0.08863380  1
  O  O17  1  0.25000000  0.92906365  0.58863380  1
  O  O18  1  0.75000000  0.42906365  0.91136620  1
  O  O19  1  0.75000000  0.07093635  0.41136620  1
  O  O20  1  0.00267969  0.76163459  0.96685324  1
  O  O21  1  0.49732031  0.73836541  0.46685324  1
  O  O22  1  0.50267969  0.23836541  0.03314676  1
  O  O23  1  0.99732031  0.26163459  0.53314676  1
  O  O24  1  0.99732031  0.23836541  0.03314676  1
  O  O25  1  0.50267969  0.26163459  0.53314676  1
  O  O26  1  0.49732031  0.76163459  0.96685324  1
  O  O27  1  0.00267969  0.73836541  0.46685324  1
  O  O28  1  0.25000000  0.45012303  0.66279000  1
  O  O29  1  0.25000000  0.04987697  0.16279000  1
  O  O30  1  0.75000000  0.54987697  0.33721000  1
  O  O31  1  0.75000000  0.95012303  0.83721000  1
  O  O32  1  0.00488507  0.64385607  0.77939133  1
  O  O33  1  0.49511493  0.85614393  0.27939133  1
  O  O34  1  0.50488507  0.35614393  0.22060867  1
  O  O35  1  0.99511493  0.14385607  0.72060867  1
  O  O36  1  0.99511493  0.35614393  0.22060867  1
  O  O37  1  0.50488507  0.14385607  0.72060867  1
  O  O38  1  0.49511493  0.64385607  0.77939133  1
  O  O39  1  0.00488507  0.85614393  0.27939133  1
