# generated using pymatgen
data_CeCo5P3
_symmetry_space_group_name_H-M   'P 1'
_cell_length_a   3.69271449
_cell_length_b   10.40203702
_cell_length_c   11.72889146
_cell_angle_alpha   90.00000000
_cell_angle_beta   90.00000000
_cell_angle_gamma   90.00000000
_symmetry_Int_Tables_number   1
_chemical_formula_structural   CeCo5P3
_chemical_formula_sum   'Ce4 Co20 P12'
_cell_volume   450.52727972
_cell_formula_units_Z   4
loop_
 _symmetry_equiv_pos_site_id
 _symmetry_equiv_pos_as_xyz
  1  'x, y, z'
loop_
 _atom_site_type_symbol
 _atom_site_label
 _atom_site_symmetry_multiplicity
 _atom_site_fract_x
 _atom_site_fract_y
 _atom_site_fract_z
 _atom_site_occupancy
  Ce  Ce0  1  0.25000000  0.58446761  0.70163018  1
  Ce  Ce1  1  0.25000000  0.91553239  0.20163018  1
  Ce  Ce2  1  0.75000000  0.41553239  0.29836982  1
  Ce  Ce3  1  0.75000000  0.08446761  0.79836982  1
  Co  Co4  1  0.25000000  0.71509767  0.98867538  1
  Co  Co5  1  0.25000000  0.78490233  0.48867538  1
  Co  Co6  1  0.75000000  0.28490233  0.01132462  1
  Co  Co7  1  0.75000000  0.21509767  0.51132462  1
  Co  Co8  1  0.25000000  0.40772856  0.48775579  1
  Co  Co9  1  0.25000000  0.09227144  0.98775579  1
  Co  Co10  1  0.75000000  0.59227144  0.51224421  1
  Co  Co11  1  0.75000000  0.90772856  0.01224421  1
  Co  Co12  1  0.25000000  0.22023468  0.17865067  1
  Co  Co13  1  0.25000000  0.27976532  0.67865067  1
  Co  Co14  1  0.75000000  0.77976532  0.82134933  1
  Co  Co15  1  0.75000000  0.72023468  0.32134933  1
  Co  Co16  1  0.25000000  0.88261374  0.69611566  1
  Co  Co17  1  0.25000000  0.61738626  0.19611566  1
  Co  Co18  1  0.75000000  0.11738626  0.30388434  1
  Co  Co19  1  0.75000000  0.38261374  0.80388434  1
  Co  Co20  1  0.25000000  0.47077021  0.93167797  1
  Co  Co21  1  0.25000000  0.02922979  0.43167797  1
  Co  Co22  1  0.75000000  0.52922979  0.06832203  1
  Co  Co23  1  0.75000000  0.97077021  0.56832203  1
  P  P24  1  0.25000000  0.41640771  0.11097216  1
  P  P25  1  0.25000000  0.08359229  0.61097216  1
  P  P26  1  0.75000000  0.58359229  0.88902784  1
  P  P27  1  0.75000000  0.91640771  0.38902784  1
  P  P28  1  0.25000000  0.27482527  0.87390941  1
  P  P29  1  0.25000000  0.22517473  0.37390941  1
  P  P30  1  0.75000000  0.72517473  0.12609059  1
  P  P31  1  0.75000000  0.77482527  0.62609059  1
  P  P32  1  0.25000000  0.60567454  0.39011275  1
  P  P33  1  0.25000000  0.89432546  0.89011275  1
  P  P34  1  0.75000000  0.39432546  0.60988725  1
  P  P35  1  0.75000000  0.10567454  0.10988725  1
