# generated using pymatgen
data_Ba2CaV2CoF14
_symmetry_space_group_name_H-M   'P 1'
_cell_length_a   5.42917159
_cell_length_b   7.46869508
_cell_length_c   15.26526289
_cell_angle_alpha   91.09862574
_cell_angle_beta   90.00000000
_cell_angle_gamma   111.31294938
_symmetry_Int_Tables_number   1
_chemical_formula_structural   Ba2CaV2CoF14
_chemical_formula_sum   'Ba4 Ca2 V4 Co2 F28'
_cell_volume   576.53318658
_cell_formula_units_Z   2
loop_
 _symmetry_equiv_pos_site_id
 _symmetry_equiv_pos_as_xyz
  1  'x, y, z'
loop_
 _atom_site_type_symbol
 _atom_site_label
 _atom_site_symmetry_multiplicity
 _atom_site_fract_x
 _atom_site_fract_y
 _atom_site_fract_z
 _atom_site_occupancy
  Ba  Ba0  1  0.76219357  0.61968448  0.37939357  1
  Ba  Ba1  1  0.14250909  0.38031552  0.12060643  1
  Ba  Ba2  1  0.23780643  0.38031552  0.62060643  1
  Ba  Ba3  1  0.85749091  0.61968448  0.87939357  1
  Ca  Ca4  1  0.44147368  1.00000000  0.25000000  1
  Ca  Ca5  1  0.55852632  0.00000000  0.75000000  1
  V  V6  1  0.11208522  0.23614448  0.37711535  1
  V  V7  1  0.87594073  0.76385552  0.12288465  1
  V  V8  1  0.88791478  0.76385552  0.62288465  1
  V  V9  1  0.12405927  0.23614448  0.87711535  1
  Co  Co10  1  0.50000000  0.00000000  0.50000000  1
  Co  Co11  1  0.50000000  0.00000000  -0.00000000  1
  F  F12  1  0.04574972  0.67407674  0.22330073  1
  F  F13  1  0.37167297  0.32592326  0.27669927  1
  F  F14  1  0.95425028  0.32592326  0.77669927  1
  F  F15  1  0.62832703  0.67407674  0.72330073  1
  F  F16  1  0.88665866  0.16216921  0.48611567  1
  F  F17  1  0.72448945  0.83783079  0.01388433  1
  F  F18  1  0.11334134  0.83783079  0.51388433  1
  F  F19  1  0.27551055  0.16216921  0.98611567  1
  F  F20  1  0.83808808  0.25196445  0.29864857  1
  F  F21  1  0.58612363  0.74803555  0.20135143  1
  F  F22  1  0.16191192  0.74803555  0.70135143  1
  F  F23  1  0.41387637  0.25196445  0.79864857  1
  F  F24  1  0.82859470  0.24463871  0.95291500  1
  F  F25  1  0.58395599  0.75536129  0.54708500  1
  F  F26  1  0.17140530  0.75536129  0.04708500  1
  F  F27  1  0.41604401  0.24463871  0.45291500  1
  F  F28  1  0.90371733  0.97802505  0.84106378  1
  F  F29  1  0.92569228  0.02197495  0.65893622  1
  F  F30  1  0.09628267  0.02197495  0.15893622  1
  F  F31  1  0.07430772  0.97802505  0.34106378  1
  F  F32  1  0.19264739  0.49881048  0.41610042  1
  F  F33  1  0.69383691  0.50118952  0.08389958  1
  F  F34  1  0.80735261  0.50118952  0.58389958  1
  F  F35  1  0.30616309  0.49881048  0.91610042  1
  F  F36  1  0.63804321  0.11475327  0.12221120  1
  F  F37  1  0.52328993  0.88524673  0.37778880  1
  F  F38  1  0.36195679  0.88524673  0.87778880  1
  F  F39  1  0.47671007  0.11475327  0.62221120  1
