# generated using pymatgen
data_Rb2MgH12(SO7)2
_symmetry_space_group_name_H-M   'P 1'
_cell_length_a   6.33459267
_cell_length_b   9.33711705
_cell_length_c   12.67890047
_cell_angle_alpha   90.00000000
_cell_angle_beta   90.00000000
_cell_angle_gamma   106.14410148
_symmetry_Int_Tables_number   1
_chemical_formula_structural   Rb2MgH12(SO7)2
_chemical_formula_sum   'Rb4 Mg2 H24 S4 O28'
_cell_volume   720.34415410
_cell_formula_units_Z   2
loop_
 _symmetry_equiv_pos_site_id
 _symmetry_equiv_pos_as_xyz
  1  'x, y, z'
loop_
 _atom_site_type_symbol
 _atom_site_label
 _atom_site_symmetry_multiplicity
 _atom_site_fract_x
 _atom_site_fract_y
 _atom_site_fract_z
 _atom_site_occupancy
  Rb  Rb0  1  0.34761570  0.61862415  0.14258966  1
  Rb  Rb1  1  0.65238430  0.88137585  0.64258966  1
  Rb  Rb2  1  0.65238430  0.38137585  0.85741034  1
  Rb  Rb3  1  0.34761570  0.11862415  0.35741034  1
  Mg  Mg4  1  -0.00000000  0.50000000  0.50000000  1
  Mg  Mg5  1  -0.00000000  0.00000000  0.00000000  1
  H  H6  1  0.31986784  0.71680327  0.40409843  1
  H  H7  1  0.68013216  0.78319673  0.90409843  1
  H  H8  1  0.68013216  0.28319673  0.59590157  1
  H  H9  1  0.31986784  0.21680327  0.09590157  1
  H  H10  1  0.08627310  0.74089033  0.37098074  1
  H  H11  1  0.91372690  0.75910967  0.87098074  1
  H  H12  1  0.91372690  0.25910967  0.62901926  1
  H  H13  1  0.08627310  0.24089033  0.12901926  1
  H  H14  1  0.92958463  0.23023340  0.40042372  1
  H  H15  1  0.07041537  0.26976660  0.90042372  1
  H  H16  1  0.07041537  0.76976660  0.59957628  1
  H  H17  1  0.92958463  0.73023340  0.09957628  1
  H  H18  1  0.98858679  0.35472582  0.31300735  1
  H  H19  1  0.01141321  0.14527418  0.81300735  1
  H  H20  1  0.01141321  0.64527418  0.68699265  1
  H  H21  1  0.98858679  0.85472582  0.18699265  1
  H  H22  1  0.33809375  0.40072781  0.56120947  1
  H  H23  1  0.66190625  0.09927219  0.06120947  1
  H  H24  1  0.66190625  0.59927219  0.43879053  1
  H  H25  1  0.33809375  0.90072781  0.93879053  1
  H  H26  1  0.32503260  0.52666445  0.64178478  1
  H  H27  1  0.67496740  0.97333555  0.14178478  1
  H  H28  1  0.67496740  0.47333555  0.35821522  1
  H  H29  1  0.32503260  0.02666445  0.85821522  1
  S  S30  1  0.73152874  0.89980988  0.35468849  1
  S  S31  1  0.26847126  0.60019012  0.85468849  1
  S  S32  1  0.26847126  0.10019012  0.64531151  1
  S  S33  1  0.73152874  0.39980988  0.14531151  1
  O  O34  1  0.59187517  0.90719372  0.26097862  1
  O  O35  1  0.40812483  0.59280628  0.76097862  1
  O  O36  1  0.40812483  0.09280628  0.73902138  1
  O  O37  1  0.59187517  0.40719372  0.23902138  1
  O  O38  1  0.77954732  0.04145670  0.41597779  1
  O  O39  1  0.22045268  0.45854330  0.91597779  1
  O  O40  1  0.22045268  0.95854330  0.58402221  1
  O  O41  1  0.77954732  0.54145670  0.08402221  1
  O  O42  1  0.60707496  0.77486104  0.42403866  1
  O  O43  1  0.39292504  0.72513896  0.92403866  1
  O  O44  1  0.39292504  0.22513896  0.57596134  1
  O  O45  1  0.60707496  0.27486104  0.07596134  1
  O  O46  1  0.94241315  0.87122263  0.31951776  1
  O  O47  1  0.05758685  0.62877737  0.81951776  1
  O  O48  1  0.05758685  0.12877737  0.68048224  1
  O  O49  1  0.94241315  0.37122263  0.18048224  1
  O  O50  1  0.16259026  0.66590667  0.39091419  1
  O  O51  1  0.83740974  0.83409333  0.89091419  1
  O  O52  1  0.83740974  0.33409333  0.60908581  1
  O  O53  1  0.16259026  0.16590667  0.10908581  1
  O  O54  1  0.01813579  0.33415541  0.38792909  1
  O  O55  1  0.98186421  0.16584459  0.88792909  1
  O  O56  1  0.98186421  0.66584459  0.61207091  1
  O  O57  1  0.01813579  0.83415541  0.11207091  1
  O  O58  1  0.29258185  0.49346840  0.56726175  1
  O  O59  1  0.70741815  0.00653160  0.06726175  1
  O  O60  1  0.70741815  0.50653160  0.43273825  1
  O  O61  1  0.29258185  0.99346840  0.93273825  1
