# generated using pymatgen
data_LiCrP4O13
_symmetry_space_group_name_H-M   'P 1'
_cell_length_a   5.14001123
_cell_length_b   7.88909980
_cell_length_c   13.52953638
_cell_angle_alpha   78.71575036
_cell_angle_beta   88.24796123
_cell_angle_gamma   81.59738636
_symmetry_Int_Tables_number   1
_chemical_formula_structural   LiCrP4O13
_chemical_formula_sum   'Li2 Cr2 P8 O26'
_cell_volume   532.24143915
_cell_formula_units_Z   2
loop_
 _symmetry_equiv_pos_site_id
 _symmetry_equiv_pos_as_xyz
  1  'x, y, z'
loop_
 _atom_site_type_symbol
 _atom_site_label
 _atom_site_symmetry_multiplicity
 _atom_site_fract_x
 _atom_site_fract_y
 _atom_site_fract_z
 _atom_site_occupancy
  Li  Li0  1  0.95010307  0.64435039  0.49305096  1
  Li  Li1  1  0.45332989  0.33590826  0.99607342  1
  Cr  Cr2  1  0.45064024  0.04584210  0.75562686  1
  Cr  Cr3  1  0.54754302  0.95214164  0.24232595  1
  P  P4  1  0.64513812  0.42497158  0.67862718  1
  P  P5  1  0.31349668  0.65622181  0.80415375  1
  P  P6  1  0.08983356  0.80308168  0.13805550  1
  P  P7  1  0.00956263  0.10404256  0.34638642  1
  P  P8  1  0.91124341  0.19624791  0.85703559  1
  P  P9  1  0.67767066  0.34558001  0.19632098  1
  P  P10  1  0.35518330  0.57700046  0.31966064  1
  P  P11  1  0.98774755  0.89380902  0.65305251  1
  O  O12  1  0.13989243  0.64003522  0.23101792  1
  O  O13  1  0.46059464  0.28557645  0.68879033  1
  O  O14  1  0.95690482  0.26225471  0.24921725  1
  O  O15  1  0.26363953  0.93998134  0.15413480  1
  O  O16  1  0.80107206  0.87980506  0.14139672  1
  O  O17  1  0.51172346  0.40220548  0.29129508  1
  O  O18  1  0.83685411  0.96506500  0.33485074  1
  O  O19  1  0.70605234  0.48940313  0.11064857  1
  O  O20  1  0.03588439  0.73468472  0.75192244  1
  O  O21  1  0.15612623  0.03266750  0.67018071  1
  O  O22  1  0.20966964  0.13335039  0.85667605  1
  O  O23  1  0.69060249  0.96424257  0.65778377  1
  O  O24  1  0.81030277  0.25363404  0.95254571  1
  O  O25  1  0.92567603  0.17544481  0.44178204  1
  O  O26  1  0.21689367  0.53309226  0.41651943  1
  O  O27  1  0.76397944  0.48139171  0.57973164  1
  O  O28  1  0.28695187  0.51057801  0.88883820  1
  O  O29  1  0.17250286  0.74686443  0.03986209  1
  O  O30  1  0.44182622  0.81103473  0.82481178  1
  O  O31  1  0.75219634  0.05458416  0.83626228  1
  O  O32  1  0.48499148  0.59468889  0.71233208  1
  O  O33  1  0.54912906  0.70811085  0.31102895  1
  O  O34  1  0.05600306  0.81746957  0.56149405  1
  O  O35  1  0.54721628  0.19691044  0.17027758  1
  O  O36  1  0.29996085  0.03220448  0.34453320  1
  O  O37  1  0.86904284  0.35962663  0.76326884  1
