# generated using pymatgen
data_Li2(BH)7
_symmetry_space_group_name_H-M   'P 1'
_cell_length_a   5.66986024
_cell_length_b   5.73866056
_cell_length_c   6.10781141
_cell_angle_alpha   111.74361163
_cell_angle_beta   111.32246031
_cell_angle_gamma   102.35671056
_symmetry_Int_Tables_number   1
_chemical_formula_structural   Li2(BH)7
_chemical_formula_sum   'Li2 B7 H7'
_cell_volume   157.37541462
_cell_formula_units_Z   1
loop_
 _symmetry_equiv_pos_site_id
 _symmetry_equiv_pos_as_xyz
  1  'x, y, z'
loop_
 _atom_site_type_symbol
 _atom_site_label
 _atom_site_symmetry_multiplicity
 _atom_site_fract_x
 _atom_site_fract_y
 _atom_site_fract_z
 _atom_site_occupancy
  Li  Li0  1  0.07459760  0.57459760  0.14919521  1
  Li  Li1  1  0.49312138  0.99312138  0.98624275  1
  B  B2  1  0.79107984  0.07967672  0.79196615  1
  B  B3  1  0.00088632  0.71228943  0.79196615  1
  B  B4  1  0.66713943  0.72282063  0.70496928  1
  B  B5  1  0.03782985  0.98214866  0.70496928  1
  B  B6  1  0.67212399  0.85095412  0.47444434  1
  B  B7  1  0.80232035  0.62349022  0.47444434  1
  B  B8  1  0.99727163  0.99727163  0.99454326  1
  H  H9  1  0.11872710  0.11872710  0.23745420  1
  H  H10  1  0.47379790  0.58970375  0.70889857  1
  H  H11  1  0.23510067  0.11919482  0.70889857  1
  H  H12  1  0.51118584  0.86161754  0.28681790  1
  H  H13  1  0.77563206  0.42520036  0.28681790  1
  H  H14  1  0.71660281  0.26507070  0.84678605  1
  H  H15  1  0.13018324  0.58171534  0.84678605  1
