# generated using pymatgen
data_NO3
_symmetry_space_group_name_H-M   'P 1'
_cell_length_a   6.66125684
_cell_length_b   9.31315831
_cell_length_c   16.91628098
_cell_angle_alpha   90.00000000
_cell_angle_beta   90.08619899
_cell_angle_gamma   90.00000000
_symmetry_Int_Tables_number   1
_chemical_formula_structural   NO3
_chemical_formula_sum   'N16 O48'
_cell_volume   1049.43987810
_cell_formula_units_Z   16
loop_
 _symmetry_equiv_pos_site_id
 _symmetry_equiv_pos_as_xyz
  1  'x, y, z'
loop_
 _atom_site_type_symbol
 _atom_site_label
 _atom_site_symmetry_multiplicity
 _atom_site_fract_x
 _atom_site_fract_y
 _atom_site_fract_z
 _atom_site_occupancy
  N  N0  1  0.98017281  0.75321213  0.49182450  1
  N  N1  1  0.01982719  0.25321213  0.00817550  1
  N  N2  1  0.01982719  0.24678787  0.50817550  1
  N  N3  1  0.98017281  0.74678787  0.99182450  1
  N  N4  1  0.52557311  0.58752970  0.36640055  1
  N  N5  1  0.47442689  0.08752970  0.13359945  1
  N  N6  1  0.47442689  0.41247030  0.63359945  1
  N  N7  1  0.52557311  0.91247030  0.86640055  1
  N  N8  1  0.03388392  0.91936943  0.25644805  1
  N  N9  1  0.96611608  0.41936943  0.24355195  1
  N  N10  1  0.96611608  0.08063057  0.74355195  1
  N  N11  1  0.03388392  0.58063057  0.75644805  1
  N  N12  1  0.52499506  0.57956081  0.11349601  1
  N  N13  1  0.47500494  0.07956081  0.38650399  1
  N  N14  1  0.47500494  0.42043919  0.88650399  1
  N  N15  1  0.52499506  0.92043919  0.61349601  1
  O  O16  1  0.09493370  0.75673682  0.55026590  1
  O  O17  1  0.90506630  0.25673682  0.94973410  1
  O  O18  1  0.90506630  0.24326318  0.44973410  1
  O  O19  1  0.09493370  0.74326318  0.05026590  1
  O  O20  1  0.91856167  0.63559619  0.46575051  1
  O  O21  1  0.08143833  0.13559619  0.03424949  1
  O  O22  1  0.08143833  0.36440381  0.53424949  1
  O  O23  1  0.91856167  0.86440381  0.96575051  1
  O  O24  1  0.92641882  0.86758928  0.45928353  1
  O  O25  1  0.07358118  0.36758928  0.04071647  1
  O  O26  1  0.07358118  0.13241072  0.54071647  1
  O  O27  1  0.92641882  0.63241072  0.95928353  1
  O  O28  1  0.41029160  0.59546273  0.42439251  1
  O  O29  1  0.58970840  0.09546273  0.07560749  1
  O  O30  1  0.58970840  0.40453727  0.57560749  1
  O  O31  1  0.41029160  0.90453727  0.92439251  1
  O  O32  1  0.58726128  0.46856646  0.34245265  1
  O  O33  1  0.41273872  0.96856646  0.15754735  1
  O  O34  1  0.41273872  0.53143354  0.65754735  1
  O  O35  1  0.58726128  0.03143354  0.84245265  1
  O  O36  1  0.58014250  0.69980224  0.33189388  1
  O  O37  1  0.41985750  0.19980224  0.16810612  1
  O  O38  1  0.41985750  0.30019776  0.66810612  1
  O  O39  1  0.58014250  0.80019776  0.83189388  1
  O  O40  1  0.91882147  0.92235145  0.19813049  1
  O  O41  1  0.08117853  0.42235145  0.30186951  1
  O  O42  1  0.08117853  0.07764855  0.80186951  1
  O  O43  1  0.91882147  0.57764855  0.69813049  1
  O  O44  1  0.10331170  0.80282913  0.28096812  1
  O  O45  1  0.89668830  0.30282913  0.21903188  1
  O  O46  1  0.89668830  0.19717087  0.71903188  1
  O  O47  1  0.10331170  0.69717087  0.78096812  1
  O  O48  1  0.08086557  0.03352696  0.29078290  1
  O  O49  1  0.91913443  0.53352696  0.20921710  1
  O  O50  1  0.91913443  0.96647304  0.70921710  1
  O  O51  1  0.08086557  0.46647304  0.79078290  1
  O  O52  1  0.40979139  0.57768265  0.17168047  1
  O  O53  1  0.59020861  0.07768265  0.32831953  1
  O  O54  1  0.59020861  0.42231735  0.82831953  1
  O  O55  1  0.40979139  0.92231735  0.67168047  1
  O  O56  1  0.58352001  0.46461594  0.08310400  1
  O  O57  1  0.41647999  0.96461594  0.41689600  1
  O  O58  1  0.41647999  0.53538406  0.91689600  1
  O  O59  1  0.58352001  0.03538406  0.58310400  1
  O  O60  1  0.58231548  0.69676597  0.08543972  1
  O  O61  1  0.41768452  0.19676597  0.41456028  1
  O  O62  1  0.41768452  0.30323403  0.91456028  1
  O  O63  1  0.58231548  0.80323403  0.58543972  1
