# generated using pymatgen
data_Fe9Cu3O16
_symmetry_space_group_name_H-M   'P 1'
_cell_length_a   6.01963475
_cell_length_b   12.06356054
_cell_length_c   10.36054273
_cell_angle_alpha   30.14182200
_cell_angle_beta   55.29540778
_cell_angle_gamma   60.38729651
_symmetry_Int_Tables_number   1
_chemical_formula_structural   Fe9Cu3O16
_chemical_formula_sum   'Fe9 Cu3 O16'
_cell_volume   310.58079395
_cell_formula_units_Z   1
loop_
 _symmetry_equiv_pos_site_id
 _symmetry_equiv_pos_as_xyz
  1  'x, y, z'
loop_
 _atom_site_type_symbol
 _atom_site_label
 _atom_site_symmetry_multiplicity
 _atom_site_fract_x
 _atom_site_fract_y
 _atom_site_fract_z
 _atom_site_occupancy
  Fe  Fe0  1  0.00823355  0.00510384  0.99568047  1
  Fe  Fe1  1  0.24540267  0.99665107  0.25034786  1
  Fe  Fe2  1  0.00459733  0.50334893  0.99965214  1
  Fe  Fe3  1  0.12028103  0.99667348  0.63185109  1
  Fe  Fe4  1  0.24176645  0.49489616  0.25431953  1
  Fe  Fe5  1  0.62500000  0.25000000  0.12500000  1
  Fe  Fe6  1  0.12971897  0.50332652  0.61814891  1
  Fe  Fe7  1  0.62500000  0.25000000  0.62500000  1
  Fe  Fe8  1  0.62500000  0.75000000  0.62500000  1
  Cu  Cu9  1  0.62318938  0.99733470  0.63026133  1
  Cu  Cu10  1  0.62500000  0.75000000  0.12500000  1
  Cu  Cu11  1  0.62681062  0.50266530  0.61973867  1
  O  O12  1  0.38408734  0.00128864  0.38054084  1
  O  O13  1  0.37841112  0.23737651  0.37624417  1
  O  O14  1  0.85273976  0.99890786  0.37878264  1
  O  O15  1  0.37135551  0.48812130  0.39533566  1
  O  O16  1  0.36616824  0.73601722  0.38979184  1
  O  O17  1  0.37400814  0.25873144  0.85773206  1
  O  O18  1  0.87599186  0.24126856  0.39226794  1
  O  O19  1  0.85623126  0.49457675  0.38303300  1
  O  O20  1  0.39726024  0.50109214  0.87121736  1
  O  O21  1  0.37472535  0.75764670  0.85767922  1
  O  O22  1  0.87158888  0.26262349  0.87375583  1
  O  O23  1  0.87527465  0.74235330  0.39232078  1
  O  O24  1  0.86591266  0.49871136  0.86945916  1
  O  O25  1  0.39376874  0.00542325  0.86696700  1
  O  O26  1  0.88383176  0.76398278  0.86020816  1
  O  O27  1  0.87864449  0.01187870  0.85466434  1
