# generated using pymatgen
data_Ta8CoSe8
_symmetry_space_group_name_H-M   'P 1'
_cell_length_a   3.44984243
_cell_length_b   17.06125185
_cell_length_c   22.74242479
_cell_angle_alpha   90.00000000
_cell_angle_beta   90.00000000
_cell_angle_gamma   90.00000000
_symmetry_Int_Tables_number   1
_chemical_formula_structural   Ta8CoSe8
_chemical_formula_sum   'Ta32 Co4 Se32'
_cell_volume   1338.58797832
_cell_formula_units_Z   4
loop_
 _symmetry_equiv_pos_site_id
 _symmetry_equiv_pos_as_xyz
  1  'x, y, z'
loop_
 _atom_site_type_symbol
 _atom_site_label
 _atom_site_symmetry_multiplicity
 _atom_site_fract_x
 _atom_site_fract_y
 _atom_site_fract_z
 _atom_site_occupancy
  Ta  Ta0  1  0.25000000  0.33429951  0.51693073  1
  Ta  Ta1  1  0.25000000  0.16570049  0.01693073  1
  Ta  Ta2  1  0.75000000  0.66570049  0.48306927  1
  Ta  Ta3  1  0.75000000  0.83429951  0.98306927  1
  Ta  Ta4  1  0.25000000  0.31725389  0.94259559  1
  Ta  Ta5  1  0.25000000  0.18274611  0.44259559  1
  Ta  Ta6  1  0.75000000  0.68274611  0.05740441  1
  Ta  Ta7  1  0.75000000  0.81725389  0.55740441  1
  Ta  Ta8  1  0.25000000  0.15869555  0.87708291  1
  Ta  Ta9  1  0.25000000  0.34130445  0.37708291  1
  Ta  Ta10  1  0.75000000  0.84130445  0.12291709  1
  Ta  Ta11  1  0.75000000  0.65869555  0.62291709  1
  Ta  Ta12  1  0.25000000  0.54175005  0.54480306  1
  Ta  Ta13  1  0.25000000  0.95824995  0.04480306  1
  Ta  Ta14  1  0.75000000  0.45824995  0.45519694  1
  Ta  Ta15  1  0.75000000  0.04175005  0.95519694  1
  Ta  Ta16  1  0.25000000  0.69652970  0.94587924  1
  Ta  Ta17  1  0.25000000  0.80347030  0.44587924  1
  Ta  Ta18  1  0.75000000  0.30347030  0.05412076  1
  Ta  Ta19  1  0.75000000  0.19652970  0.55412076  1
  Ta  Ta20  1  0.25000000  0.79285663  0.66725192  1
  Ta  Ta21  1  0.25000000  0.70714337  0.16725192  1
  Ta  Ta22  1  0.75000000  0.20714337  0.33274808  1
  Ta  Ta23  1  0.75000000  0.29285663  0.83274808  1
  Ta  Ta24  1  0.25000000  0.43878979  0.81513645  1
  Ta  Ta25  1  0.25000000  0.06121021  0.31513645  1
  Ta  Ta26  1  0.75000000  0.56121021  0.18486355  1
  Ta  Ta27  1  0.75000000  0.93878979  0.68486355  1
  Ta  Ta28  1  0.25000000  0.05205819  0.74544522  1
  Ta  Ta29  1  0.25000000  0.44794181  0.24544522  1
  Ta  Ta30  1  0.75000000  0.94794181  0.25455478  1
  Ta  Ta31  1  0.75000000  0.55205819  0.75455478  1
  Co  Co32  1  0.25000000  0.70907615  0.55442082  1
  Co  Co33  1  0.25000000  0.79092385  0.05442082  1
  Co  Co34  1  0.75000000  0.29092385  0.44557918  1
  Co  Co35  1  0.75000000  0.20907615  0.94557918  1
  Se  Se36  1  0.25000000  0.93111972  0.92608418  1
  Se  Se37  1  0.25000000  0.56888028  0.42608418  1
  Se  Se38  1  0.75000000  0.06888028  0.07391582  1
  Se  Se39  1  0.75000000  0.43111972  0.57391582  1
  Se  Se40  1  0.25000000  0.26803173  0.62095051  1
  Se  Se41  1  0.25000000  0.23196827  0.12095051  1
  Se  Se42  1  0.75000000  0.73196827  0.37904949  1
  Se  Se43  1  0.75000000  0.76803173  0.87904949  1
  Se  Se44  1  0.25000000  0.08731245  0.53094297  1
  Se  Se45  1  0.25000000  0.41268755  0.03094297  1
  Se  Se46  1  0.75000000  0.91268755  0.46905703  1
  Se  Se47  1  0.75000000  0.58731245  0.96905703  1
  Se  Se48  1  0.25000000  0.92434943  0.59789275  1
  Se  Se49  1  0.25000000  0.57565057  0.09789275  1
  Se  Se50  1  0.75000000  0.07565057  0.40210725  1
  Se  Se51  1  0.75000000  0.42434943  0.90210725  1
  Se  Se52  1  0.25000000  0.89576178  0.76365163  1
  Se  Se53  1  0.25000000  0.60423822  0.26365163  1
  Se  Se54  1  0.75000000  0.10423822  0.23634837  1
  Se  Se55  1  0.75000000  0.39576178  0.73634837  1
  Se  Se56  1  0.25000000  0.21290861  0.76890320  1
  Se  Se57  1  0.25000000  0.28709139  0.26890320  1
  Se  Se58  1  0.75000000  0.78709139  0.23109680  1
  Se  Se59  1  0.75000000  0.71290861  0.73109680  1
  Se  Se60  1  0.25000000  0.59065422  0.83515529  1
  Se  Se61  1  0.25000000  0.90934578  0.33515529  1
  Se  Se62  1  0.75000000  0.40934578  0.16484471  1
  Se  Se63  1  0.75000000  0.09065422  0.66484471  1
  Se  Se64  1  0.25000000  0.54971755  0.66248643  1
  Se  Se65  1  0.25000000  0.95028245  0.16248643  1
  Se  Se66  1  0.75000000  0.45028245  0.33751357  1
  Se  Se67  1  0.75000000  0.04971755  0.83751357  1
