# generated using pymatgen
data_In12Ga4Ir2O15
_symmetry_space_group_name_H-M   'P 1'
_cell_length_a   6.93513004
_cell_length_b   7.57437634
_cell_length_c   19.86768206
_cell_angle_alpha   90.00000000
_cell_angle_beta   90.00000000
_cell_angle_gamma   90.00000000
_symmetry_Int_Tables_number   1
_chemical_formula_structural   In12Ga4Ir2O15
_chemical_formula_sum   'In24 Ga8 Ir4 O30'
_cell_volume   1043.63513103
_cell_formula_units_Z   2
loop_
 _symmetry_equiv_pos_site_id
 _symmetry_equiv_pos_as_xyz
  1  'x, y, z'
loop_
 _atom_site_type_symbol
 _atom_site_label
 _atom_site_symmetry_multiplicity
 _atom_site_fract_x
 _atom_site_fract_y
 _atom_site_fract_z
 _atom_site_occupancy
  In  In0  1  0.25789648  0.49205982  0.74216390  1
  In  In1  1  0.74210352  0.49205982  0.25783610  1
  In  In2  1  0.75789648  0.99205982  0.75783610  1
  In  In3  1  0.24210352  0.99205982  0.24216390  1
  In  In4  1  0.98128143  0.22498595  0.37537079  1
  In  In5  1  0.01871857  0.22498595  0.62462921  1
  In  In6  1  0.48128143  0.72498595  0.12462921  1
  In  In7  1  0.51871857  0.72498595  0.87537079  1
  In  In8  1  0.53056918  0.26526220  0.87092790  1
  In  In9  1  0.46943082  0.26526220  0.12907210  1
  In  In10  1  0.03056918  0.76526220  0.62907210  1
  In  In11  1  0.96943082  0.76526220  0.37092790  1
  In  In12  1  0.52279402  0.74537019  0.62574275  1
  In  In13  1  0.47720598  0.74537019  0.37425725  1
  In  In14  1  0.02279402  0.24537019  0.87425725  1
  In  In15  1  0.97720598  0.24537019  0.12574275  1
  In  In16  1  0.51894137  0.24495631  0.63270459  1
  In  In17  1  0.48105863  0.24495631  0.36729541  1
  In  In18  1  0.01894137  0.74495631  0.86729541  1
  In  In19  1  0.98105863  0.74495631  0.13270459  1
  In  In20  1  0.50000000  0.48211471  0.50000000  1
  In  In21  1  0.00000000  0.98211471  0.00000000  1
  In  In22  1  0.00000000  0.50079650  0.50000000  1
  In  In23  1  0.50000000  0.00079650  0.00000000  1
  Ga  Ga24  1  0.76521083  0.49630911  0.75070874  1
  Ga  Ga25  1  0.23478917  0.49630911  0.24929126  1
  Ga  Ga26  1  0.26521083  0.99630911  0.74929126  1
  Ga  Ga27  1  0.73478917  0.99630911  0.25070874  1
  Ga  Ga28  1  0.25629431  0.48754371  0.98629765  1
  Ga  Ga29  1  0.74370569  0.48754371  0.01370235  1
  Ga  Ga30  1  0.75629431  0.98754371  0.51370235  1
  Ga  Ga31  1  0.24370569  0.98754371  0.48629765  1
  Ir  Ir32  1  0.73863940  0.49284240  0.39311242  1
  Ir  Ir33  1  0.26136060  0.49284240  0.60688758  1
  Ir  Ir34  1  0.23863940  0.99284240  0.10688758  1
  Ir  Ir35  1  0.76136060  0.99284240  0.89311242  1
  O  O36  1  0.76426452  0.28242374  0.70376002  1
  O  O37  1  0.23573548  0.28242374  0.29623998  1
  O  O38  1  0.26426452  0.78242374  0.79623998  1
  O  O39  1  0.73573548  0.78242374  0.20376002  1
  O  O40  1  0.53163756  0.49673957  0.80100295  1
  O  O41  1  0.46836244  0.49673957  0.19899705  1
  O  O42  1  0.03163756  0.99673957  0.69899705  1
  O  O43  1  0.96836244  0.99673957  0.30100295  1
  O  O44  1  0.98639605  0.49281674  0.81036722  1
  O  O45  1  0.01360395  0.49281674  0.18963278  1
  O  O46  1  0.48639605  0.99281674  0.68963278  1
  O  O47  1  0.51360395  0.99281674  0.31036722  1
  O  O48  1  0.76488011  0.71024756  0.70483613  1
  O  O49  1  0.23511989  0.71024756  0.29516387  1
  O  O50  1  0.26488011  0.21024756  0.79516387  1
  O  O51  1  0.73511989  0.21024756  0.20483613  1
  O  O52  1  0.27947892  0.28381862  0.93132356  1
  O  O53  1  0.72052108  0.28381862  0.06867644  1
  O  O54  1  0.77947892  0.78381862  0.56867644  1
  O  O55  1  0.22052108  0.78381862  0.43132356  1
  O  O56  1  0.25477094  0.69718434  0.93443735  1
  O  O57  1  0.74522906  0.69718434  0.06556265  1
  O  O58  1  0.75477094  0.19718434  0.56556265  1
  O  O59  1  0.24522906  0.19718434  0.43443735  1
  O  O60  1  0.39080817  0.49561952  0.06554320  1
  O  O61  1  0.60919183  0.49561952  0.93445680  1
  O  O62  1  0.89080817  0.99561952  0.43445680  1
  O  O63  1  0.10919183  0.99561952  0.56554320  1
  O  O64  1  0.00000000  0.43742922  0.00000000  1
  O  O65  1  0.50000000  0.93742922  0.50000000  1
