# generated using pymatgen
data_U6Fe30P19
_symmetry_space_group_name_H-M   'P 1'
_cell_length_a   3.59869495
_cell_length_b   14.63303107
_cell_length_c   14.62857122
_cell_angle_alpha   120.00198315
_cell_angle_beta   89.99997338
_cell_angle_gamma   90.00001002
_symmetry_Int_Tables_number   1
_chemical_formula_structural   U6Fe30P19
_chemical_formula_sum   'U6 Fe30 P19'
_cell_volume   667.11881931
_cell_formula_units_Z   1
loop_
 _symmetry_equiv_pos_site_id
 _symmetry_equiv_pos_as_xyz
  1  'x, y, z'
loop_
 _atom_site_type_symbol
 _atom_site_label
 _atom_site_symmetry_multiplicity
 _atom_site_fract_x
 _atom_site_fract_y
 _atom_site_fract_z
 _atom_site_occupancy
  U  U0  1  0.50000003  0.70632195  0.60677916  1
  U  U1  1  0.49999915  0.39335617  0.09957770  1
  U  U2  1  0.50000114  0.90056291  0.29386711  1
  U  U3  1  0.00000098  0.09875567  0.70427069  1
  U  U4  1  0.00000028  0.29569682  0.39454862  1
  U  U5  1  -0.00000048  0.60532491  0.90107604  1
  Fe  Fe6  1  0.50000055  0.07600739  0.54049149  1
  Fe  Fe7  1  0.49999975  0.45953978  0.53554712  1
  Fe  Fe8  1  0.50000071  0.46448803  0.92399779  1
  Fe  Fe9  1  0.49999894  0.89111627  0.86212055  1
  Fe  Fe10  1  0.49999899  0.13812104  0.02924769  1
  Fe  Fe11  1  0.50000033  0.97075097  0.10817133  1
  Fe  Fe12  1  0.50000059  0.26394283  0.84805505  1
  Fe  Fe13  1  0.50000080  0.15206564  0.41596474  1
  Fe  Fe14  1  0.49999895  0.58401697  0.73604378  1
  Fe  Fe15  1  0.49999962  0.95775942  0.72708915  1
  Fe  Fe16  1  0.49999945  0.27282250  0.23045998  1
  Fe  Fe17  1  0.50000003  0.76954070  0.04231035  1
  Fe  Fe18  1  0.50000181  0.77576386  0.42652714  1
  Fe  Fe19  1  0.49999969  0.57348396  0.34922558  1
  Fe  Fe20  1  0.49999841  0.65080275  0.22422799  1
  Fe  Fe21  1  -0.00000062  0.23137210  0.96183133  1
  Fe  Fe22  1  0.00000049  0.03825497  0.26962882  1
  Fe  Fe23  1  -0.00000062  0.73024751  0.76870224  1
  Fe  Fe24  1  -0.00000047  0.03351251  0.87371898  1
  Fe  Fe25  1  -0.00000009  0.12627431  0.15970754  1
  Fe  Fe26  1  -0.00000051  0.84029060  0.96660271  1
  Fe  Fe27  1  0.00000211  0.34817582  0.77558490  1
  Fe  Fe28  1  0.00000003  0.22442704  0.57265804  1
  Fe  Fe29  1  -0.00000101  0.42740726  0.65180774  1
  Fe  Fe30  1  0.00000043  0.84589731  0.58190772  1
  Fe  Fe31  1  -0.00000060  0.41811581  0.26408681  1
  Fe  Fe32  1  -0.00000087  0.73585809  0.15392913  1
  Fe  Fe33  1  -0.00000050  0.54051772  0.46491567  1
  Fe  Fe34  1  -0.00000039  0.53504706  0.07564335  1
  Fe  Fe35  1  0.00000085  0.92439329  0.45953388  1
  P  P36  1  0.49999948  0.12417094  0.87065643  1
  P  P37  1  0.50000013  0.12944887  0.25351156  1
  P  P38  1  0.49999908  0.74632048  0.87578079  1
  P  P39  1  0.50000148  0.23715019  0.68309971  1
  P  P40  1  0.49999967  0.31704101  0.55425477  1
  P  P41  1  0.50000033  0.44574429  0.76276169  1
  P  P42  1  0.50000050  0.93620951  0.56456096  1
  P  P43  1  0.49999962  0.43539957  0.37166089  1
  P  P44  1  0.49999957  0.62835496  0.06370957  1
  P  P45  1  0.00000046  0.37152825  0.93711798  1
  P  P46  1  0.00000086  0.06295257  0.43456421  1
  P  P47  1  -0.00000015  0.56555797  0.62844355  1
  P  P48  1  -0.00000050  0.87056120  0.74506574  1
  P  P49  1  -0.00000054  0.25495314  0.12551584  1
  P  P50  1  0.00000101  0.87428460  0.12946638  1
  P  P51  1  0.00000060  0.68222122  0.44534405  1
  P  P52  1  -0.00000080  0.55471883  0.23695129  1
  P  P53  1  0.00000049  0.76320021  0.31775427  1
  P  P54  1  0.00000073  0.00015026  -0.00007761  1
