# generated using pymatgen
data_Na9U3Si4(O10F)2
_symmetry_space_group_name_H-M   'P 1'
_cell_length_a   5.94670163
_cell_length_b   7.48353593
_cell_length_c   12.04553295
_cell_angle_alpha   90.04838487
_cell_angle_beta   95.27686587
_cell_angle_gamma   89.99330649
_symmetry_Int_Tables_number   1
_chemical_formula_structural   Na9U3Si4(O10F)2
_chemical_formula_sum   'Na9 U3 Si4 O20 F2'
_cell_volume   533.78255047
_cell_formula_units_Z   1
loop_
 _symmetry_equiv_pos_site_id
 _symmetry_equiv_pos_as_xyz
  1  'x, y, z'
loop_
 _atom_site_type_symbol
 _atom_site_label
 _atom_site_symmetry_multiplicity
 _atom_site_fract_x
 _atom_site_fract_y
 _atom_site_fract_z
 _atom_site_occupancy
  Na  Na0  1  0.00000000  0.50000000  0.00000000  1
  Na  Na1  1  0.71425831  0.99986462  0.28066478  1
  Na  Na2  1  0.28574169  0.00013538  0.71933522  1
  Na  Na3  1  0.49994458  0.73926615  0.00003340  1
  Na  Na4  1  0.50005542  0.26073385  0.99996660  1
  Na  Na5  1  0.00014903  0.23253521  0.49991119  1
  Na  Na6  1  0.99985097  0.76746479  0.50008881  1
  Na  Na7  1  0.49992441  0.76896718  0.49996838  1
  Na  Na8  1  0.50007559  0.23103282  0.50003162  1
  U  U9  1  0.00000000  -0.00000000  0.00000000  1
  U  U10  1  0.28613191  0.49978099  0.71695058  1
  U  U11  1  0.71386809  0.50021901  0.28304942  1
  Si  Si12  1  0.79736803  0.78499161  0.76464315  1
  Si  Si13  1  0.20263197  0.21500839  0.23535685  1
  Si  Si14  1  0.79756159  0.21462063  0.76469062  1
  Si  Si15  1  0.20243841  0.78537937  0.23530938  1
  O  O16  1  0.82835794  0.76411275  0.90063799  1
  O  O17  1  0.17164206  0.23588725  0.09936201  1
  O  O18  1  0.01140278  0.70596126  0.70337695  1
  O  O19  1  0.98859722  0.29403874  0.29662305  1
  O  O20  1  0.55155441  0.71304251  0.70992747  1
  O  O21  1  0.44844559  0.28695749  0.29007253  1
  O  O22  1  0.79926230  0.99975838  0.73676685  1
  O  O23  1  0.20073770  0.00024162  0.26323315  1
  O  O24  1  0.01163963  0.29336568  0.70342808  1
  O  O25  1  0.98836037  0.70663432  0.29657192  1
  O  O26  1  0.82876961  0.23590965  0.90067911  1
  O  O27  1  0.17123039  0.76409035  0.09932089  1
  O  O28  1  0.55170604  0.28649031  0.71007364  1
  O  O29  1  0.44829396  0.71350969  0.28992636  1
  O  O30  1  0.74686897  0.00028487  0.08520056  1
  O  O31  1  0.25313103  0.99971513  0.91479944  1
  O  O32  1  0.26303668  0.49933862  0.55787642  1
  O  O33  1  0.73696332  0.50066138  0.44212358  1
  O  O34  1  0.31287101  0.50006426  0.87573824  1
  O  O35  1  0.68712899  0.49993574  0.12426176  1
  F  F36  1  0.74380557  0.00017569  0.46664922  1
  F  F37  1  0.25619443  0.99982431  0.53335078  1
