# generated using pymatgen
data_Al4Fe2Si5O18
_symmetry_space_group_name_H-M   'P 1'
_cell_length_a   9.40853807
_cell_length_b   9.92860044
_cell_length_c   10.03890216
_cell_angle_alpha   119.63719954
_cell_angle_beta   90.00000000
_cell_angle_gamma   90.00000000
_symmetry_Int_Tables_number   1
_chemical_formula_structural   Al4Fe2Si5O18
_chemical_formula_sum   'Al8 Fe4 Si10 O36'
_cell_volume   815.08547576
_cell_formula_units_Z   2
loop_
 _symmetry_equiv_pos_site_id
 _symmetry_equiv_pos_as_xyz
  1  'x, y, z'
loop_
 _atom_site_type_symbol
 _atom_site_label
 _atom_site_symmetry_multiplicity
 _atom_site_fract_x
 _atom_site_fract_y
 _atom_site_fract_z
 _atom_site_occupancy
  Al  Al0  1  0.50000000  0.35602350  0.09881756  1
  Al  Al1  1  0.50000000  0.64397650  0.90118244  1
  Al  Al2  1  0.00000000  0.25720594  0.90118244  1
  Al  Al3  1  0.00000000  0.74279406  0.09881756  1
  Al  Al4  1  0.24959115  0.00000000  0.50000000  1
  Al  Al5  1  0.25040885  0.50000000  0.50000000  1
  Al  Al6  1  0.75040885  -0.00000000  0.50000000  1
  Al  Al7  1  0.74959115  0.50000000  0.50000000  1
  Fe  Fe8  1  0.25000000  0.66284391  0.32568781  1
  Fe  Fe9  1  0.25000000  0.33715609  0.67431219  1
  Fe  Fe10  1  0.75000000  0.33715609  0.67431219  1
  Fe  Fe11  1  0.75000000  0.66284391  0.32568781  1
  Si  Si12  1  0.50000000  0.90124492  0.26935736  1
  Si  Si13  1  0.50000000  0.09875508  0.73064264  1
  Si  Si14  1  0.00000000  0.63188756  0.73064264  1
  Si  Si15  1  0.00000000  0.36811244  0.26935736  1
  Si  Si16  1  -0.00000000  0.11024118  0.38013774  1
  Si  Si17  1  -0.00000000  0.88975882  0.61986226  1
  Si  Si18  1  0.50000000  0.73010344  0.61986226  1
  Si  Si19  1  0.50000000  0.26989656  0.38013774  1
  Si  Si20  1  0.25000000  0.50000000  0.00000000  1
  Si  Si21  1  0.75000000  0.50000000  -0.00000000  1
  O  O22  1  0.14169932  0.13935496  0.48872142  1
  O  O23  1  0.14169932  0.86064504  0.51127858  1
  O  O24  1  0.35830068  0.65063354  0.51127858  1
  O  O25  1  0.35830068  0.34936646  0.48872142  1
  O  O26  1  0.85830068  0.86064504  0.51127858  1
  O  O27  1  0.85830068  0.13935496  0.48872142  1
  O  O28  1  0.64169932  0.34936646  0.48872142  1
  O  O29  1  0.64169932  0.65063354  0.51127858  1
  O  O30  1  0.35776440  0.86877419  0.34674660  1
  O  O31  1  0.35776440  0.13122581  0.65325340  1
  O  O32  1  0.14223560  0.52202758  0.65325340  1
  O  O33  1  0.14223560  0.47797242  0.34674660  1
  O  O34  1  0.64223560  0.13122581  0.65325340  1
  O  O35  1  0.64223560  0.86877419  0.34674660  1
  O  O36  1  0.85776440  0.47797242  0.34674660  1
  O  O37  1  0.85776440  0.52202758  0.65325340  1
  O  O38  1  0.34838097  0.47466646  0.12121731  1
  O  O39  1  0.34838097  0.52533354  0.87878269  1
  O  O40  1  0.15161903  0.35344915  0.87878269  1
  O  O41  1  0.15161903  0.64655085  0.12121731  1
  O  O42  1  0.65161903  0.52533354  0.87878269  1
  O  O43  1  0.65161903  0.47466646  0.12121731  1
  O  O44  1  0.84838097  0.64655085  0.12121731  1
  O  O45  1  0.84838097  0.35344915  0.87878269  1
  O  O46  1  0.50000000  0.79569297  0.08751569  1
  O  O47  1  0.50000000  0.20430703  0.91248431  1
  O  O48  1  0.00000000  0.70817728  0.91248431  1
  O  O49  1  0.00000000  0.29182272  0.08751569  1
  O  O50  1  0.50000000  0.08592544  0.32403893  1
  O  O51  1  0.50000000  0.91407456  0.67596107  1
  O  O52  1  0.00000000  0.76188652  0.67596107  1
  O  O53  1  -0.00000000  0.23811348  0.32403893  1
  O  O54  1  0.00000000  0.93425876  0.24256102  1
  O  O55  1  -0.00000000  0.06574124  0.75743898  1
  O  O56  1  0.50000000  0.69169774  0.75743898  1
  O  O57  1  0.50000000  0.30830226  0.24256102  1
