# generated using pymatgen
data_Cs3SbS4
_symmetry_space_group_name_H-M   'P 1'
_cell_length_a   10.15037231
_cell_length_b   10.24120629
_cell_length_c   11.94765448
_cell_angle_alpha   90.00000000
_cell_angle_beta   90.00000000
_cell_angle_gamma   90.00000000
_symmetry_Int_Tables_number   1
_chemical_formula_structural   Cs3SbS4
_chemical_formula_sum   'Cs12 Sb4 S16'
_cell_volume   1241.98325650
_cell_formula_units_Z   4
loop_
 _symmetry_equiv_pos_site_id
 _symmetry_equiv_pos_as_xyz
  1  'x, y, z'
loop_
 _atom_site_type_symbol
 _atom_site_label
 _atom_site_symmetry_multiplicity
 _atom_site_fract_x
 _atom_site_fract_y
 _atom_site_fract_z
 _atom_site_occupancy
  Cs  Cs0  1  0.15160346  0.08668413  0.75000000  1
  Cs  Cs1  1  0.65160346  0.41331587  0.75000000  1
  Cs  Cs2  1  0.84839654  0.91331587  0.25000000  1
  Cs  Cs3  1  0.34839654  0.58668413  0.25000000  1
  Cs  Cs4  1  0.95424191  0.70538258  0.95757789  1
  Cs  Cs5  1  0.45424191  0.79461742  0.54242211  1
  Cs  Cs6  1  0.04575809  0.29461742  0.45757789  1
  Cs  Cs7  1  0.54575809  0.20538258  0.04242211  1
  Cs  Cs8  1  0.04575809  0.29461742  0.04242211  1
  Cs  Cs9  1  0.54575809  0.20538258  0.45757789  1
  Cs  Cs10  1  0.95424191  0.70538258  0.54242211  1
  Cs  Cs11  1  0.45424191  0.79461742  0.95757789  1
  Sb  Sb12  1  0.22505816  0.51930463  0.75000000  1
  Sb  Sb13  1  0.72505816  0.98069537  0.75000000  1
  Sb  Sb14  1  0.77494184  0.48069537  0.25000000  1
  Sb  Sb15  1  0.27494184  0.01930463  0.25000000  1
  S  S16  1  0.20384679  0.74957416  0.75000000  1
  S  S17  1  0.70384679  0.75042584  0.75000000  1
  S  S18  1  0.79615321  0.25042584  0.25000000  1
  S  S19  1  0.29615321  0.24957416  0.25000000  1
  S  S20  1  0.01133177  0.42442544  0.75000000  1
  S  S21  1  0.51133177  0.07557456  0.75000000  1
  S  S22  1  0.98866823  0.57557456  0.25000000  1
  S  S23  1  0.48866823  0.92442544  0.25000000  1
  S  S24  1  0.16307310  0.95501022  0.08519471  1
  S  S25  1  0.66307310  0.54498978  0.41480529  1
  S  S26  1  0.83692690  0.04498978  0.58519471  1
  S  S27  1  0.33692690  0.45501022  0.91480529  1
  S  S28  1  0.83692690  0.04498978  0.91480529  1
  S  S29  1  0.33692690  0.45501022  0.58519471  1
  S  S30  1  0.16307310  0.95501022  0.41480529  1
  S  S31  1  0.66307310  0.54498978  0.08519471  1
