# generated using pymatgen
data_Dy2ReB6
_symmetry_space_group_name_H-M   'P 1'
_cell_length_a   3.67936269
_cell_length_b   9.18397649
_cell_length_c   11.57372397
_cell_angle_alpha   90.00000000
_cell_angle_beta   90.00000000
_cell_angle_gamma   90.00000000
_symmetry_Int_Tables_number   1
_chemical_formula_structural   Dy2ReB6
_chemical_formula_sum   'Dy8 Re4 B24'
_cell_volume   391.08979507
_cell_formula_units_Z   4
loop_
 _symmetry_equiv_pos_site_id
 _symmetry_equiv_pos_as_xyz
  1  'x, y, z'
loop_
 _atom_site_type_symbol
 _atom_site_label
 _atom_site_symmetry_multiplicity
 _atom_site_fract_x
 _atom_site_fract_y
 _atom_site_fract_z
 _atom_site_occupancy
  Dy  Dy0  1  -0.00000000  0.32437818  0.41377722  1
  Dy  Dy1  1  0.00000000  0.67562182  0.58622278  1
  Dy  Dy2  1  -0.00000000  0.82437818  0.08622278  1
  Dy  Dy3  1  0.00000000  0.17562182  0.91377722  1
  Dy  Dy4  1  -0.00000000  0.94392370  0.36999978  1
  Dy  Dy5  1  0.00000000  0.05607630  0.63000022  1
  Dy  Dy6  1  -0.00000000  0.44392370  0.13000022  1
  Dy  Dy7  1  0.00000000  0.55607630  0.86999978  1
  Re  Re8  1  -0.00000000  0.63886249  0.32126361  1
  Re  Re9  1  -0.00000000  0.36113751  0.67873639  1
  Re  Re10  1  0.00000000  0.13886249  0.17873639  1
  Re  Re11  1  0.00000000  0.86113751  0.82126361  1
  B  B12  1  0.50000000  0.55361951  0.43298480  1
  B  B13  1  0.50000000  0.44638049  0.56701520  1
  B  B14  1  0.50000000  0.05361951  0.06701520  1
  B  B15  1  0.50000000  0.94638049  0.93298480  1
  B  B16  1  0.50000000  0.74960164  0.41935042  1
  B  B17  1  0.50000000  0.25039836  0.58064958  1
  B  B18  1  0.50000000  0.24960164  0.08064958  1
  B  B19  1  0.50000000  0.75039836  0.91935042  1
  B  B20  1  0.50000000  0.79293568  0.26614313  1
  B  B21  1  0.50000000  0.20706432  0.73385687  1
  B  B22  1  0.50000000  0.29293568  0.23385687  1
  B  B23  1  0.50000000  0.70706432  0.76614313  1
  B  B24  1  0.50000000  0.63214631  0.18630027  1
  B  B25  1  0.50000000  0.36785369  0.81369973  1
  B  B26  1  0.50000000  0.13214631  0.31369973  1
  B  B27  1  0.50000000  0.86785369  0.68630027  1
  B  B28  1  0.50000000  0.98352796  0.21200557  1
  B  B29  1  0.50000000  0.01647204  0.78799443  1
  B  B30  1  0.50000000  0.48352796  0.28799443  1
  B  B31  1  0.50000000  0.51647204  0.71200557  1
  B  B32  1  0.50000000  0.60157453  0.02849251  1
  B  B33  1  0.50000000  0.39842547  0.97150749  1
  B  B34  1  0.50000000  0.10157453  0.47150749  1
  B  B35  1  0.50000000  0.89842547  0.52849251  1
