# generated using pymatgen
data_Na2Lu3Te4(IO4)3
_symmetry_space_group_name_H-M   'P 1'
_cell_length_a   5.56683637
_cell_length_b   9.31794512
_cell_length_c   16.75197222
_cell_angle_alpha   90.21277889
_cell_angle_beta   90.00000000
_cell_angle_gamma   90.00000000
_symmetry_Int_Tables_number   1
_chemical_formula_structural   Na2Lu3Te4(IO4)3
_chemical_formula_sum   'Na4 Lu6 Te8 I6 O24'
_cell_volume   868.94352913
_cell_formula_units_Z   2
loop_
 _symmetry_equiv_pos_site_id
 _symmetry_equiv_pos_as_xyz
  1  'x, y, z'
loop_
 _atom_site_type_symbol
 _atom_site_label
 _atom_site_symmetry_multiplicity
 _atom_site_fract_x
 _atom_site_fract_y
 _atom_site_fract_z
 _atom_site_occupancy
  Na  Na0  1  0.26029532  0.70243163  0.41360030  1
  Na  Na1  1  0.26029532  0.29756837  0.08639970  1
  Na  Na2  1  0.73970468  0.29756837  0.58639970  1
  Na  Na3  1  0.73970468  0.70243163  0.91360030  1
  Lu  Lu4  1  0.24725570  0.00000000  0.25000000  1
  Lu  Lu5  1  0.75274430  0.00000000  0.75000000  1
  Lu  Lu6  1  0.25359365  0.99878104  0.58518523  1
  Lu  Lu7  1  0.25359365  0.00121896  0.91481477  1
  Lu  Lu8  1  0.74640635  0.00121896  0.41481477  1
  Lu  Lu9  1  0.74640635  0.99878104  0.08518523  1
  Te  Te10  1  0.20658240  0.75122729  0.76683331  1
  Te  Te11  1  0.20658240  0.24877271  0.73316669  1
  Te  Te12  1  0.79341760  0.24877271  0.23316669  1
  Te  Te13  1  0.79341760  0.75122729  0.26683331  1
  Te  Te14  1  0.28699505  0.75541650  0.06573378  1
  Te  Te15  1  0.28699505  0.24458350  0.43426622  1
  Te  Te16  1  0.71300495  0.24458350  0.93426622  1
  Te  Te17  1  0.71300495  0.75541650  0.56573378  1
  I  I18  1  0.25895524  0.50000000  0.25000000  1
  I  I19  1  0.74104476  0.50000000  0.75000000  1
  I  I20  1  0.24468645  0.50576859  0.58352337  1
  I  I21  1  0.24468645  0.49423141  0.91647663  1
  I  I22  1  0.75531355  0.49423141  0.41647663  1
  I  I23  1  0.75531355  0.50576859  0.08352337  1
  O  O24  1  0.45744005  0.86751002  0.81199165  1
  O  O25  1  0.45744005  0.13248998  0.68800835  1
  O  O26  1  0.54255995  0.13248998  0.18800835  1
  O  O27  1  0.54255995  0.86751002  0.31199165  1
  O  O28  1  0.07611279  0.87353485  0.68524230  1
  O  O29  1  0.07611279  0.12646515  0.81475770  1
  O  O30  1  0.92388721  0.12646515  0.31475770  1
  O  O31  1  0.92388721  0.87353485  0.18524230  1
  O  O32  1  0.00925522  0.84358942  0.34089802  1
  O  O33  1  0.00925522  0.15641058  0.15910198  1
  O  O34  1  0.99074478  0.15641058  0.65910198  1
  O  O35  1  0.99074478  0.84358942  0.84089802  1
  O  O36  1  0.04168936  0.87367806  0.02068751  1
  O  O37  1  0.04168936  0.12632194  0.47931249  1
  O  O38  1  0.95831064  0.12632194  0.97931249  1
  O  O39  1  0.95831064  0.87367806  0.52068751  1
  O  O40  1  0.41671498  0.88189971  0.14536569  1
  O  O41  1  0.41671498  0.11810029  0.35463431  1
  O  O42  1  0.58328502  0.11810029  0.85463431  1
  O  O43  1  0.58328502  0.88189971  0.64536569  1
  O  O44  1  0.49297717  0.84806344  0.49293854  1
  O  O45  1  0.49297717  0.15193656  0.00706146  1
  O  O46  1  0.50702283  0.15193656  0.50706146  1
  O  O47  1  0.50702283  0.84806344  0.99293854  1
