# generated using pymatgen
data_CsMoAsH2O7
_symmetry_space_group_name_H-M   'P 1'
_cell_length_a   7.94835834
_cell_length_b   10.22118211
_cell_length_c   11.32824777
_cell_angle_alpha   63.28666293
_cell_angle_beta   69.65074466
_cell_angle_gamma   72.54217969
_symmetry_Int_Tables_number   1
_chemical_formula_structural   CsMoAsH2O7
_chemical_formula_sum   'Cs4 Mo4 As4 H8 O28'
_cell_volume   759.36125683
_cell_formula_units_Z   4
loop_
 _symmetry_equiv_pos_site_id
 _symmetry_equiv_pos_as_xyz
  1  'x, y, z'
loop_
 _atom_site_type_symbol
 _atom_site_label
 _atom_site_symmetry_multiplicity
 _atom_site_fract_x
 _atom_site_fract_y
 _atom_site_fract_z
 _atom_site_occupancy
  Cs  Cs0  1  0.67852043  0.69473575  0.33615531  1
  Cs  Cs1  1  0.32147957  0.30526425  0.66384469  1
  Cs  Cs2  1  0.80692241  0.31446337  0.04344046  1
  Cs  Cs3  1  0.19307759  0.68553663  0.95655954  1
  Mo  Mo4  1  0.12541280  0.76246384  0.36760741  1
  Mo  Mo5  1  0.87458720  0.23753616  0.63239259  1
  Mo  Mo6  1  0.86967566  0.69007288  0.69361142  1
  Mo  Mo7  1  0.13032434  0.30992712  0.30638858  1
  As  As8  1  0.20209575  0.95723102  0.55570940  1
  As  As9  1  0.79790425  0.04276898  0.44429060  1
  As  As10  1  0.69395120  0.92166581  0.86643354  1
  As  As11  1  0.30604880  0.07833419  0.13356646  1
  H  H12  1  0.48293147  0.87020380  0.61467319  1
  H  H13  1  0.51706853  0.12979620  0.38532681  1
  H  H14  1  0.68223975  0.99892307  0.02719097  1
  H  H15  1  0.31776025  0.00107693  0.97280903  1
  H  H16  1  0.49793411  0.53831027  0.19811496  1
  H  H17  1  0.50206589  0.46168973  0.80188504  1
  H  H18  1  0.54359086  0.68037428  0.06767483  1
  H  H19  1  0.45640914  0.31962572  0.93232517  1
  O  O20  1  0.09006585  0.84632025  0.54089537  1
  O  O21  1  0.90993415  0.15367975  0.45910463  1
  O  O22  1  0.29991189  0.08789603  0.40364339  1
  O  O23  1  0.70008811  0.91210397  0.59635661  1
  O  O24  1  0.07806058  0.03077019  0.67571441  1
  O  O25  1  0.92193942  0.96922981  0.32428559  1
  O  O26  1  0.38342777  0.82454411  0.62081856  1
  O  O27  1  0.61657223  0.17545589  0.37918144  1
  O  O28  1  0.68925737  0.09853316  0.73951123  1
  O  O29  1  0.31074263  0.90146684  0.26048877  1
  O  O30  1  0.85782048  0.78656285  0.82014745  1
  O  O31  1  0.14217952  0.21343715  0.17985255  1
  O  O32  1  0.48302381  0.87776493  0.92963964  1
  O  O33  1  0.51697619  0.12223507  0.07036036  1
  O  O34  1  0.77547208  0.92228320  0.99230262  1
  O  O35  1  0.22452792  0.07771680  0.00769738  1
  O  O36  1  0.03874439  0.54894272  0.76103992  1
  O  O37  1  0.96125561  0.45105728  0.23896008  1
  O  O38  1  0.67416855  0.61056546  0.77694404  1
  O  O39  1  0.32583145  0.38943454  0.22305596  1
  O  O40  1  0.09166679  0.73309107  0.23854819  1
  O  O41  1  0.90833321  0.26690893  0.76145181  1
  O  O42  1  0.29897192  0.61755474  0.42510033  1
  O  O43  1  0.70102808  0.38244526  0.57489967  1
  O  O44  1  0.92404745  0.67968099  0.51761127  1
  O  O45  1  0.07595255  0.32031901  0.48238873  1
  O  O46  1  0.59955729  0.58806890  0.13115243  1
  O  O47  1  0.40044271  0.41193110  0.86884757  1
