# generated using pymatgen
data_ScMnSi2
_symmetry_space_group_name_H-M   'P 1'
_cell_length_a   7.87196632
_cell_length_b   9.02183501
_cell_length_c   9.74060073
_cell_angle_alpha   90.00000000
_cell_angle_beta   90.00000000
_cell_angle_gamma   90.00000000
_symmetry_Int_Tables_number   1
_chemical_formula_structural   ScMnSi2
_chemical_formula_sum   'Sc12 Mn12 Si24'
_cell_volume   691.77338588
_cell_formula_units_Z   12
loop_
 _symmetry_equiv_pos_site_id
 _symmetry_equiv_pos_as_xyz
  1  'x, y, z'
loop_
 _atom_site_type_symbol
 _atom_site_label
 _atom_site_symmetry_multiplicity
 _atom_site_fract_x
 _atom_site_fract_y
 _atom_site_fract_z
 _atom_site_occupancy
  Sc  Sc0  1  0.24733037  0.82803747  0.45226855  1
  Sc  Sc1  1  0.24733037  0.17196253  0.54773145  1
  Sc  Sc2  1  0.75266963  0.32803747  0.04773145  1
  Sc  Sc3  1  0.75266963  0.67196253  0.95226855  1
  Sc  Sc4  1  0.75266963  0.17196253  0.54773145  1
  Sc  Sc5  1  0.75266963  0.82803747  0.45226855  1
  Sc  Sc6  1  0.24733037  0.67196253  0.95226855  1
  Sc  Sc7  1  0.24733037  0.32803747  0.04773145  1
  Sc  Sc8  1  0.00000000  0.83268632  0.17634677  1
  Sc  Sc9  1  0.00000000  0.16731368  0.82365323  1
  Sc  Sc10  1  0.00000000  0.33268632  0.32365323  1
  Sc  Sc11  1  -0.00000000  0.66731368  0.67634677  1
  Mn  Mn12  1  0.24834203  0.58079219  0.24604716  1
  Mn  Mn13  1  0.24834203  0.41920781  0.75395284  1
  Mn  Mn14  1  0.75165797  0.08079219  0.25395284  1
  Mn  Mn15  1  0.75165797  0.91920781  0.74604716  1
  Mn  Mn16  1  0.75165797  0.41920781  0.75395284  1
  Mn  Mn17  1  0.75165797  0.58079219  0.24604716  1
  Mn  Mn18  1  0.24834203  0.91920781  0.74604716  1
  Mn  Mn19  1  0.24834203  0.08079219  0.25395284  1
  Mn  Mn20  1  0.24520221  0.50000000  0.50000000  1
  Mn  Mn21  1  0.75479779  0.00000000  -0.00000000  1
  Mn  Mn22  1  0.75479779  0.50000000  0.50000000  1
  Mn  Mn23  1  0.24520221  0.00000000  -0.00000000  1
  Si  Si24  1  0.34760080  0.83237172  0.18184134  1
  Si  Si25  1  0.34760080  0.16762828  0.81815866  1
  Si  Si26  1  0.65239920  0.33237172  0.31815866  1
  Si  Si27  1  0.65239920  0.66762828  0.68184134  1
  Si  Si28  1  0.65239920  0.16762828  0.81815866  1
  Si  Si29  1  0.65239920  0.83237172  0.18184134  1
  Si  Si30  1  0.34760080  0.66762828  0.68184134  1
  Si  Si31  1  0.34760080  0.33237172  0.31815866  1
  Si  Si32  1  0.50000000  0.54283736  0.12790049  1
  Si  Si33  1  0.50000000  0.45716264  0.87209951  1
  Si  Si34  1  0.50000000  0.04283736  0.37209951  1
  Si  Si35  1  0.50000000  0.95716264  0.62790049  1
  Si  Si36  1  0.00000000  0.53809930  0.12168455  1
  Si  Si37  1  -0.00000000  0.46190070  0.87831545  1
  Si  Si38  1  0.00000000  0.03809930  0.37831545  1
  Si  Si39  1  -0.00000000  0.96190070  0.62168455  1
  Si  Si40  1  0.50000000  0.61035031  0.39346684  1
  Si  Si41  1  0.50000000  0.38964969  0.60653316  1
  Si  Si42  1  0.50000000  0.11035031  0.10653316  1
  Si  Si43  1  0.50000000  0.88964969  0.89346684  1
  Si  Si44  1  0.00000000  0.62666339  0.39026697  1
  Si  Si45  1  -0.00000000  0.37333661  0.60973303  1
  Si  Si46  1  -0.00000000  0.12666339  0.10973303  1
  Si  Si47  1  -0.00000000  0.87333661  0.89026697  1
