# generated using pymatgen
data_Na3LiY3P3CO15F2
_symmetry_space_group_name_H-M   'P 1'
_cell_length_a   11.24705335
_cell_length_b   11.24700781
_cell_length_c   11.24986828
_cell_angle_alpha   90.00000000
_cell_angle_beta   90.00000000
_cell_angle_gamma   90.00000000
_symmetry_Int_Tables_number   1
_chemical_formula_structural   Na3LiY3P3CO15F2
_chemical_formula_sum   'Na12 Li4 Y12 P12 C4 O60 F8'
_cell_volume   1423.05992774
_cell_formula_units_Z   4
loop_
 _symmetry_equiv_pos_site_id
 _symmetry_equiv_pos_as_xyz
  1  'x, y, z'
loop_
 _atom_site_type_symbol
 _atom_site_label
 _atom_site_symmetry_multiplicity
 _atom_site_fract_x
 _atom_site_fract_y
 _atom_site_fract_z
 _atom_site_occupancy
  Na  Na0  1  0.83460947  0.33456855  0.50987019  1
  Na  Na1  1  0.83460947  0.66543145  0.49012981  1
  Na  Na2  1  0.16539053  0.66543145  0.50987019  1
  Na  Na3  1  0.16539053  0.33456855  0.49012981  1
  Na  Na4  1  0.48994916  0.66554092  0.83448623  1
  Na  Na5  1  0.48994916  0.33445908  0.16551377  1
  Na  Na6  1  0.51005084  0.33445908  0.83448623  1
  Na  Na7  1  0.51005084  0.66554092  0.16551377  1
  Na  Na8  1  0.16551645  0.99007727  0.83449728  1
  Na  Na9  1  0.16551645  0.00992273  0.16550272  1
  Na  Na10  1  0.83448355  0.00992273  0.83449728  1
  Na  Na11  1  0.83448355  0.99007727  0.16550272  1
  Li  Li12  1  0.30227074  0.80217486  0.30209168  1
  Li  Li13  1  0.30227074  0.19782514  0.69790832  1
  Li  Li14  1  0.69772926  0.19782514  0.30209168  1
  Li  Li15  1  0.69772926  0.80217486  0.69790832  1
  Y  Y16  1  0.18434128  -0.00000000  0.50000000  1
  Y  Y17  1  0.81565872  -0.00000000  0.50000000  1
  Y  Y18  1  0.50000000  0.68427925  0.50000000  1
  Y  Y19  1  0.50000000  0.31572075  0.50000000  1
  Y  Y20  1  0.50000000  -0.00000000  0.18417184  1
  Y  Y21  1  0.50000000  -0.00000000  0.81582816  1
  Y  Y22  1  -0.00000000  0.50000000  0.24555047  1
  Y  Y23  1  -0.00000000  0.50000000  0.75444953  1
  Y  Y24  1  -0.00000000  0.74543964  0.00000000  1
  Y  Y25  1  -0.00000000  0.25456036  0.00000000  1
  Y  Y26  1  0.24539703  0.50000000  0.00000000  1
  Y  Y27  1  0.75460297  0.50000000  0.00000000  1
  P  P28  1  0.98497227  0.18631664  0.31373373  1
  P  P29  1  0.98497227  0.81368336  0.68626627  1
  P  P30  1  0.01502773  0.81368336  0.31373373  1
  P  P31  1  0.01502773  0.18631664  0.68626627  1
  P  P32  1  0.31371617  0.51494476  0.31375223  1
  P  P33  1  0.31371617  0.48505524  0.68624777  1
  P  P34  1  0.68628383  0.48505524  0.31375223  1
  P  P35  1  0.68628383  0.51494476  0.68624777  1
  P  P36  1  0.31358461  0.18634772  0.98505821  1
  P  P37  1  0.31358461  0.81365228  0.01494179  1
  P  P38  1  0.68641539  0.81365228  0.98505821  1
  P  P39  1  0.68641539  0.18634772  0.01494179  1
  C  C40  1  0.38280966  0.11732451  0.38274880  1
  C  C41  1  0.38280966  0.88267549  0.61725120  1
  C  C42  1  0.61719034  0.88267549  0.38274880  1
  C  C43  1  0.61719034  0.11732451  0.61725120  1
  O  O44  1  0.64556913  0.35783172  0.35497354  1
  O  O45  1  0.64556913  0.64216828  0.64502646  1
  O  O46  1  0.35443087  0.64216828  0.35497354  1
  O  O47  1  0.35443087  0.35783172  0.64502646  1
  O  O48  1  0.00032618  0.68054782  0.34482903  1
  O  O49  1  0.00032618  0.31945218  0.65517097  1
  O  O50  1  0.99967382  0.31945218  0.34482903  1
  O  O51  1  0.99967382  0.68054782  0.65517097  1
  O  O52  1  0.99951685  0.15517141  0.18065661  1
  O  O53  1  0.99951685  0.84482859  0.81934339  1
  O  O54  1  0.00048315  0.84482859  0.18065661  1
  O  O55  1  0.00048315  0.15517141  0.81934339  1
  O  O56  1  0.34484851  0.50053859  0.18055542  1
  O  O57  1  0.34484851  0.49946141  0.81944458  1
  O  O58  1  0.65515149  0.49946141  0.18055542  1
  O  O59  1  0.65515149  0.50053859  0.81944458  1
  O  O60  1  0.18055948  0.50011470  0.34474235  1
  O  O61  1  0.18055948  0.49988530  0.65525765  1
  O  O62  1  0.81944052  0.49988530  0.34474235  1
  O  O63  1  0.81944052  0.50011470  0.65525765  1
  O  O64  1  0.85770275  0.14546143  0.35485602  1
  O  O65  1  0.85770275  0.85453857  0.64514398  1
  O  O66  1  0.14229725  0.85453857  0.35485602  1
  O  O67  1  0.14229725  0.14546143  0.64514398  1
  O  O68  1  0.38362261  0.41850399  0.38326535  1
  O  O69  1  0.38362261  0.58149601  0.61673465  1
  O  O70  1  0.61637739  0.58149601  0.38326535  1
  O  O71  1  0.61637739  0.41850399  0.61673465  1
  O  O72  1  0.08142139  0.11646905  0.38345615  1
  O  O73  1  0.08142139  0.88353095  0.61654385  1
  O  O74  1  0.91857861  0.88353095  0.38345615  1
  O  O75  1  0.91857861  0.11646905  0.61654385  1
  O  O76  1  0.65541815  0.68045741  0.99970320  1
  O  O77  1  0.65541815  0.31954259  0.00029680  1
  O  O78  1  0.34458185  0.31954259  0.99970320  1
  O  O79  1  0.34458185  0.68045741  0.00029680  1
  O  O80  1  0.18046740  0.15539423  0.99977941  1
  O  O81  1  0.18046740  0.84460577  0.00022059  1
  O  O82  1  0.81953260  0.84460577  0.99977941  1
  O  O83  1  0.81953260  0.15539423  0.00022059  1
  O  O84  1  0.35460822  0.14537656  0.85787410  1
  O  O85  1  0.35460822  0.85462344  0.14212590  1
  O  O86  1  0.64539178  0.85462344  0.85787410  1
  O  O87  1  0.64539178  0.14537656  0.14212590  1
  O  O88  1  0.38346047  0.11650431  0.08133685  1
  O  O89  1  0.38346047  0.88349569  0.91866315  1
  O  O90  1  0.61653953  0.88349569  0.08133685  1
  O  O91  1  0.61653953  0.11650431  0.91866315  1
  O  O92  1  0.33650107  0.83655697  0.52261899  1
  O  O93  1  0.33650107  0.16344303  0.47738101  1
  O  O94  1  0.66349893  0.16344303  0.52261899  1
  O  O95  1  0.66349893  0.83655697  0.47738101  1
  O  O96  1  0.47743919  0.83638316  0.66381695  1
  O  O97  1  0.47743919  0.16361684  0.33618305  1
  O  O98  1  0.52256081  0.16361684  0.66381695  1
  O  O99  1  0.52256081  0.83638316  0.33618305  1
  O  O100  1  0.33619606  0.02247018  0.33608548  1
  O  O101  1  0.33619606  0.97752982  0.66391452  1
  O  O102  1  0.66380394  0.97752982  0.33608548  1
  O  O103  1  0.66380394  0.02247018  0.66391452  1
  F  F104  1  0.11744537  0.61747359  0.11749502  1
  F  F105  1  0.11744537  0.38252641  0.88250498  1
  F  F106  1  0.88255463  0.38252641  0.11749502  1
  F  F107  1  0.88255463  0.61747359  0.88250498  1
  F  F108  1  0.11141925  0.61152146  0.88854180  1
  F  F109  1  0.11141925  0.38847854  0.11145820  1
  F  F110  1  0.88858075  0.38847854  0.88854180  1
  F  F111  1  0.88858075  0.61152146  0.11145820  1
