# generated using pymatgen
data_Cs3Zr2P5S18
_symmetry_space_group_name_H-M   'P 1'
_cell_length_a   7.05375949
_cell_length_b   7.05375949
_cell_length_c   34.54817712
_cell_angle_alpha   93.13926187
_cell_angle_beta   93.13926187
_cell_angle_gamma   93.67288144
_symmetry_Int_Tables_number   1
_chemical_formula_structural   Cs3Zr2P5S18
_chemical_formula_sum   'Cs6 Zr4 P10 S36'
_cell_volume   1709.92643679
_cell_formula_units_Z   2
loop_
 _symmetry_equiv_pos_site_id
 _symmetry_equiv_pos_as_xyz
  1  'x, y, z'
loop_
 _atom_site_type_symbol
 _atom_site_label
 _atom_site_symmetry_multiplicity
 _atom_site_fract_x
 _atom_site_fract_y
 _atom_site_fract_z
 _atom_site_occupancy
  Cs  Cs0  1  0.47545296  0.28592758  0.86371006  1
  Cs  Cs1  1  0.28592758  0.47545296  0.36371006  1
  Cs  Cs2  1  0.99702518  0.78043602  0.56809682  1
  Cs  Cs3  1  0.78043602  0.99702518  0.06809682  1
  Cs  Cs4  1  0.93940067  0.66040069  0.75460942  1
  Cs  Cs5  1  0.66040069  0.93940067  0.25460942  1
  Zr  Zr6  1  0.52551432  0.35106196  0.65452385  1
  Zr  Zr7  1  0.35106196  0.52551432  0.15452385  1
  Zr  Zr8  1  0.12335607  0.53878120  0.96363566  1
  Zr  Zr9  1  0.53878120  0.12335607  0.46363566  1
  P  P10  1  0.64757730  0.15825111  0.73735315  1
  P  P11  1  0.15825111  0.64757730  0.23735315  1
  P  P12  1  0.43081106  0.80480456  0.67391593  1
  P  P13  1  0.80480456  0.43081106  0.17391593  1
  P  P14  1  0.55976387  0.26222131  0.55868025  1
  P  P15  1  0.26222131  0.55976387  0.05868025  1
  P  P16  1  0.18936026  0.75000899  0.88067025  1
  P  P17  1  0.75000899  0.18936026  0.38067025  1
  P  P18  1  0.00746527  0.07271645  0.94457126  1
  P  P19  1  0.07271645  0.00746527  0.44457126  1
  S  S20  1  0.48185029  0.88497594  0.73441241  1
  S  S21  1  0.88497594  0.48185029  0.23441241  1
  S  S22  1  0.79326421  0.15921821  0.78796978  1
  S  S23  1  0.15921821  0.79326421  0.28796978  1
  S  S24  1  0.80174557  0.17646071  0.68909657  1
  S  S25  1  0.17646071  0.80174557  0.18909657  1
  S  S26  1  0.67667270  0.70157405  0.65466452  1
  S  S27  1  0.70157405  0.67667270  0.15466452  1
  S  S28  1  0.23276311  0.58084271  0.66984164  1
  S  S29  1  0.58084271  0.23276311  0.16984164  1
  S  S30  1  0.77270103  0.26932593  0.60205534  1
  S  S31  1  0.26932593  0.77270103  0.10205534  1
  S  S32  1  0.49058247  0.99454127  0.53366218  1
  S  S33  1  0.99454127  0.49058247  0.03366218  1
  S  S34  1  0.00945609  0.51932456  0.88933316  1
  S  S35  1  0.51932456  0.00945609  0.38933316  1
  S  S36  1  0.45676298  0.35943730  0.72885669  1
  S  S37  1  0.35943730  0.45676298  0.22885669  1
  S  S38  1  0.81574654  0.27413602  0.94941109  1
  S  S39  1  0.27413602  0.81574654  0.44941109  1
  S  S40  1  0.63974601  0.41430849  0.51258399  1
  S  S41  1  0.41430849  0.63974601  0.01258399  1
  S  S42  1  0.37380869  0.75242933  0.92842385  1
  S  S43  1  0.75242933  0.37380869  0.42842385  1
  S  S44  1  0.26468726  0.20406872  0.96427416  1
  S  S45  1  0.20406872  0.26468726  0.46427416  1
  S  S46  1  0.84068353  0.91964793  0.47352678  1
  S  S47  1  0.91964793  0.84068353  0.97352678  1
  S  S48  1  0.34135957  0.37630018  0.58728648  1
  S  S49  1  0.37630018  0.34135957  0.08728648  1
  S  S50  1  0.32663654  0.02018229  0.64391050  1
  S  S51  1  0.02018229  0.32663654  0.14391050  1
  S  S52  1  0.02315452  0.99841865  0.88374757  1
  S  S53  1  0.99841865  0.02315452  0.38374757  1
  S  S54  1  0.30612256  0.76814722  0.82990762  1
  S  S55  1  0.76814722  0.30612256  0.32990762  1
