# generated using pymatgen
data_BaIn2(P2O7)2
_symmetry_space_group_name_H-M   'P 1'
_cell_length_a   7.74981343
_cell_length_b   7.74981343
_cell_length_c   10.04150420
_cell_angle_alpha   80.34366678
_cell_angle_beta   80.34366678
_cell_angle_gamma   88.72441647
_symmetry_Int_Tables_number   1
_chemical_formula_structural   BaIn2(P2O7)2
_chemical_formula_sum   'Ba2 In4 P8 O28'
_cell_volume   586.10955061
_cell_formula_units_Z   2
loop_
 _symmetry_equiv_pos_site_id
 _symmetry_equiv_pos_as_xyz
  1  'x, y, z'
loop_
 _atom_site_type_symbol
 _atom_site_label
 _atom_site_symmetry_multiplicity
 _atom_site_fract_x
 _atom_site_fract_y
 _atom_site_fract_z
 _atom_site_occupancy
  Ba  Ba0  1  0.50000000  -0.00000000  0.00000000  1
  Ba  Ba1  1  -0.00000000  0.50000000  0.50000000  1
  In  In2  1  0.55294044  0.44705956  0.25000000  1
  In  In3  1  0.44705956  0.55294044  0.75000000  1
  In  In4  1  -0.00000000  -0.00000000  0.00000000  1
  In  In5  1  -0.00000000  -0.00000000  0.50000000  1
  P  P6  1  0.36566977  0.74789957  0.43953533  1
  P  P7  1  0.25210043  0.63433023  0.06046467  1
  P  P8  1  0.63433023  0.25210043  0.56046467  1
  P  P9  1  0.74789957  0.36566977  0.93953533  1
  P  P10  1  0.73070568  0.82115471  0.29949997  1
  P  P11  1  0.17884529  0.26929432  0.20050003  1
  P  P12  1  0.26929432  0.17884529  0.70050003  1
  P  P13  1  0.82115471  0.73070568  0.79949997  1
  O  O14  1  0.52166324  0.86182881  0.33738126  1
  O  O15  1  0.13817119  0.47833676  0.16261874  1
  O  O16  1  0.47833676  0.13817119  0.66261874  1
  O  O17  1  0.86182881  0.52166324  0.83738126  1
  O  O18  1  0.19627344  0.83899630  0.40638695  1
  O  O19  1  0.16100370  0.80372656  0.09361305  1
  O  O20  1  0.80372656  0.16100370  0.59361305  1
  O  O21  1  0.83899630  0.19627344  0.90638695  1
  O  O22  1  0.82430886  0.85177716  0.41535305  1
  O  O23  1  0.14822284  0.17569114  0.08464695  1
  O  O24  1  0.17569114  0.14822284  0.58464695  1
  O  O25  1  0.85177716  0.82430886  0.91535305  1
  O  O26  1  0.77749966  0.95048460  0.16551956  1
  O  O27  1  0.04951540  0.22250034  0.33448044  1
  O  O28  1  0.22250034  0.04951540  0.83448044  1
  O  O29  1  0.95048460  0.77749966  0.66551956  1
  O  O30  1  0.74719051  0.62699445  0.28546831  1
  O  O31  1  0.37300555  0.25280949  0.21453169  1
  O  O32  1  0.25280949  0.37300555  0.71453169  1
  O  O33  1  0.62699445  0.74719051  0.78546831  1
  O  O34  1  0.43676511  0.63615124  0.09904959  1
  O  O35  1  0.36384876  0.56323489  0.40095041  1
  O  O36  1  0.56323489  0.36384876  0.90095041  1
  O  O37  1  0.63615124  0.43676511  0.59904959  1
  O  O38  1  0.74680994  0.38810025  0.08720977  1
  O  O39  1  0.61189975  0.25319006  0.41279023  1
  O  O40  1  0.25319006  0.61189975  0.91279023  1
  O  O41  1  0.38810025  0.74680994  0.58720977  1
