# generated using pymatgen
data_CsNa2H3(SO4)3
_symmetry_space_group_name_H-M   'P 1'
_cell_length_a   10.71621691
_cell_length_b   10.71621691
_cell_length_c   10.71621691
_cell_angle_alpha   90.00000000
_cell_angle_beta   90.00000000
_cell_angle_gamma   90.00000000
_symmetry_Int_Tables_number   1
_chemical_formula_structural   CsNa2H3(SO4)3
_chemical_formula_sum   'Cs4 Na8 H12 S12 O48'
_cell_volume   1230.62146826
_cell_formula_units_Z   4
loop_
 _symmetry_equiv_pos_site_id
 _symmetry_equiv_pos_as_xyz
  1  'x, y, z'
loop_
 _atom_site_type_symbol
 _atom_site_label
 _atom_site_symmetry_multiplicity
 _atom_site_fract_x
 _atom_site_fract_y
 _atom_site_fract_z
 _atom_site_occupancy
  Cs  Cs0  1  0.05199660  0.94800340  0.44800340  1
  Cs  Cs1  1  0.55199660  0.55199660  0.55199660  1
  Cs  Cs2  1  0.44800340  0.05199660  0.94800340  1
  Cs  Cs3  1  0.94800340  0.44800340  0.05199660  1
  Na  Na4  1  0.82764669  0.82764669  0.82764669  1
  Na  Na5  1  0.17235331  0.32764669  0.67235331  1
  Na  Na6  1  0.32764669  0.67235331  0.17235331  1
  Na  Na7  1  0.67235331  0.17235331  0.32764669  1
  Na  Na8  1  0.40066142  0.90066142  0.59933858  1
  Na  Na9  1  0.90066142  0.59933858  0.40066142  1
  Na  Na10  1  0.59933858  0.40066142  0.90066142  1
  Na  Na11  1  0.09933858  0.09933858  0.09933858  1
  H  H12  1  0.14096770  0.82768580  0.99870174  1
  H  H13  1  0.00129826  0.64096770  0.67231420  1
  H  H14  1  0.32768580  0.50129826  0.85903230  1
  H  H15  1  0.64096770  0.67231420  0.00129826  1
  H  H16  1  0.50129826  0.85903230  0.32768580  1
  H  H17  1  0.82768580  0.99870174  0.14096770  1
  H  H18  1  0.85903230  0.32768580  0.50129826  1
  H  H19  1  0.99870174  0.14096770  0.82768580  1
  H  H20  1  0.67231420  0.00129826  0.64096770  1
  H  H21  1  0.35903230  0.17231420  0.49870174  1
  H  H22  1  0.49870174  0.35903230  0.17231420  1
  H  H23  1  0.17231420  0.49870174  0.35903230  1
  S  S24  1  0.98454644  0.78693023  0.12181895  1
  S  S25  1  0.87818105  0.48454644  0.71306977  1
  S  S26  1  0.28693023  0.37818105  0.01545356  1
  S  S27  1  0.48454644  0.71306977  0.87818105  1
  S  S28  1  0.37818105  0.01545356  0.28693023  1
  S  S29  1  0.78693023  0.12181895  0.98454644  1
  S  S30  1  0.01545356  0.28693023  0.37818105  1
  S  S31  1  0.12181895  0.98454644  0.78693023  1
  S  S32  1  0.71306977  0.87818105  0.48454644  1
  S  S33  1  0.51545356  0.21306977  0.62181895  1
  S  S34  1  0.62181895  0.51545356  0.21306977  1
  S  S35  1  0.21306977  0.62181895  0.51545356  1
  O  O36  1  0.12469617  0.76888418  0.06978758  1
  O  O37  1  0.93021242  0.62469617  0.73111582  1
  O  O38  1  0.26888418  0.43021242  0.87530383  1
  O  O39  1  0.62469617  0.73111582  0.93021242  1
  O  O40  1  0.43021242  0.87530383  0.26888418  1
  O  O41  1  0.76888418  0.06978758  0.12469617  1
  O  O42  1  0.87530383  0.26888418  0.43021242  1
  O  O43  1  0.06978758  0.12469617  0.76888418  1
  O  O44  1  0.73111582  0.93021242  0.62469617  1
  O  O45  1  0.37530383  0.23111582  0.56978758  1
  O  O46  1  0.56978758  0.37530383  0.23111582  1
  O  O47  1  0.23111582  0.56978758  0.37530383  1
  O  O48  1  0.97082246  0.91966916  0.15766699  1
  O  O49  1  0.84233301  0.47082246  0.58033084  1
  O  O50  1  0.41966916  0.34233301  0.02917754  1
  O  O51  1  0.47082246  0.58033084  0.84233301  1
  O  O52  1  0.34233301  0.02917754  0.41966916  1
  O  O53  1  0.91966916  0.15766699  0.97082246  1
  O  O54  1  0.02917754  0.41966916  0.34233301  1
  O  O55  1  0.15766699  0.97082246  0.91966916  1
  O  O56  1  0.58033084  0.84233301  0.47082246  1
  O  O57  1  0.52917754  0.08033084  0.65766699  1
  O  O58  1  0.65766699  0.52917754  0.08033084  1
  O  O59  1  0.08033084  0.65766699  0.52917754  1
  O  O60  1  0.98423569  0.70302932  0.22870373  1
  O  O61  1  0.77129627  0.48423569  0.79697068  1
  O  O62  1  0.20302932  0.27129627  0.01576431  1
  O  O63  1  0.48423569  0.79697068  0.77129627  1
  O  O64  1  0.27129627  0.01576431  0.20302932  1
  O  O65  1  0.70302932  0.22870373  0.98423569  1
  O  O66  1  0.01576431  0.20302932  0.27129627  1
  O  O67  1  0.22870373  0.98423569  0.70302932  1
  O  O68  1  0.79697068  0.77129627  0.48423569  1
  O  O69  1  0.51576431  0.29697068  0.72870373  1
  O  O70  1  0.72870373  0.51576431  0.29697068  1
  O  O71  1  0.29697068  0.72870373  0.51576431  1
  O  O72  1  0.89963891  0.75142855  0.02147071  1
  O  O73  1  0.97852929  0.39963891  0.74857145  1
  O  O74  1  0.25142855  0.47852929  0.10036109  1
  O  O75  1  0.39963891  0.74857145  0.97852929  1
  O  O76  1  0.47852929  0.10036109  0.25142855  1
  O  O77  1  0.75142855  0.02147071  0.89963891  1
  O  O78  1  0.10036109  0.25142855  0.47852929  1
  O  O79  1  0.02147071  0.89963891  0.75142855  1
  O  O80  1  0.74857145  0.97852929  0.39963891  1
  O  O81  1  0.60036109  0.24857145  0.52147071  1
  O  O82  1  0.52147071  0.60036109  0.24857145  1
  O  O83  1  0.24857145  0.52147071  0.60036109  1
