# generated using pymatgen
data_Ge(SeO3)2
_symmetry_space_group_name_H-M   'P 1'
_cell_length_a   5.14239381
_cell_length_b   6.89842917
_cell_length_c   7.42076228
_cell_angle_alpha   90.00000000
_cell_angle_beta   90.95213630
_cell_angle_gamma   90.00000000
_symmetry_Int_Tables_number   1
_chemical_formula_structural   Ge(SeO3)2
_chemical_formula_sum   'Ge2 Se4 O12'
_cell_volume   263.21103466
_cell_formula_units_Z   2
loop_
 _symmetry_equiv_pos_site_id
 _symmetry_equiv_pos_as_xyz
  1  'x, y, z'
loop_
 _atom_site_type_symbol
 _atom_site_label
 _atom_site_symmetry_multiplicity
 _atom_site_fract_x
 _atom_site_fract_y
 _atom_site_fract_z
 _atom_site_occupancy
  Ge  Ge0  1  -0.00000000  0.00000000  0.00000000  1
  Ge  Ge1  1  0.50000000  0.50000000  0.50000000  1
  Se  Se2  1  0.48531304  0.82534233  0.80003408  1
  Se  Se3  1  0.98531304  0.67465767  0.30003408  1
  Se  Se4  1  0.51468696  0.17465767  0.19996592  1
  Se  Se5  1  0.01468696  0.32534233  0.69996592  1
  O  O6  1  0.69878921  0.83694442  0.98721185  1
  O  O7  1  0.19878921  0.66305558  0.48721185  1
  O  O8  1  0.30121079  0.16305558  0.01278815  1
  O  O9  1  0.80121079  0.33694442  0.51278815  1
  O  O10  1  0.54909979  0.58443564  0.74420890  1
  O  O11  1  0.04909979  0.91556436  0.24420890  1
  O  O12  1  0.45090021  0.41556436  0.25579110  1
  O  O13  1  0.95090021  0.08443564  0.75579110  1
  O  O14  1  0.20059199  0.78161332  0.91588947  1
  O  O15  1  0.70059199  0.71838668  0.41588947  1
  O  O16  1  0.79940801  0.21838668  0.08411053  1
  O  O17  1  0.29940801  0.28161332  0.58411053  1
