# generated using pymatgen
data_Ca7Al3Si10N21
_symmetry_space_group_name_H-M   'P 1'
_cell_length_a   5.05277813
_cell_length_b   5.65911159
_cell_length_c   39.62839344
_cell_angle_alpha   120.12252413
_cell_angle_beta   90.16161067
_cell_angle_gamma   89.92051698
_symmetry_Int_Tables_number   1
_chemical_formula_structural   Ca7Al3Si10N21
_chemical_formula_sum   'Ca14 Al6 Si20 N42'
_cell_volume   980.11342118
_cell_formula_units_Z   2
loop_
 _symmetry_equiv_pos_site_id
 _symmetry_equiv_pos_as_xyz
  1  'x, y, z'
loop_
 _atom_site_type_symbol
 _atom_site_label
 _atom_site_symmetry_multiplicity
 _atom_site_fract_x
 _atom_site_fract_y
 _atom_site_fract_z
 _atom_site_occupancy
  Ca  Ca0  1  0.50303378  0.71933861  0.00575281  1
  Ca  Ca1  1  0.50658190  0.65358832  0.27992046  1
  Ca  Ca2  1  0.45515907  0.66709306  0.13328440  1
  Ca  Ca3  1  0.50668635  0.68958777  0.43471402  1
  Ca  Ca4  1  0.50592422  0.68105257  0.70984843  1
  Ca  Ca5  1  0.45774178  0.74396092  0.58270218  1
  Ca  Ca6  1  0.51533885  0.67112653  0.85639881  1
  Ca  Ca7  1  0.98329334  0.24909686  0.13344087  1
  Ca  Ca8  1  0.00816894  0.42508270  0.01683866  1
  Ca  Ca9  1  0.98385695  0.34501560  0.58660252  1
  Ca  Ca10  1  0.00310046  0.32397763  0.28774125  1
  Ca  Ca11  1  0.00923463  0.31649475  0.85730744  1
  Ca  Ca12  1  0.01610981  0.28680248  0.68990723  1
  Ca  Ca13  1  0.00308230  0.31907433  0.42903034  1
  Al  Al14  1  0.52462115  0.97971335  0.23504598  1
  Al  Al15  1  0.50081341  0.99867484  0.66602134  1
  Al  Al16  1  0.51605662  0.99139028  0.52455647  1
  Al  Al17  1  0.53480989  0.95871941  0.37713341  1
  Al  Al18  1  0.53656588  0.98460236  0.80807254  1
  Al  Al19  1  0.53799964  0.98841883  0.95119529  1
  Si  Si20  1  0.98818137  0.04391545  0.04892547  1
  Si  Si21  1  0.01659588  0.99950599  0.19310043  1
  Si  Si22  1  0.03995277  0.99274591  0.33285897  1
  Si  Si23  1  0.02591622  0.66130881  0.23391123  1
  Si  Si24  1  0.01755728  0.01527536  0.47806138  1
  Si  Si25  1  0.04064053  0.65160935  0.37847971  1
  Si  Si26  1  0.01374110  0.64415187  0.51892322  1
  Si  Si27  1  0.03697394  0.03143219  0.76533206  1
  Si  Si28  1  0.98380104  0.70423445  0.66748103  1
  Si  Si29  1  0.04201447  0.02079282  0.90748764  1
  Si  Si30  1  0.03614039  0.67161816  0.80755568  1
  Si  Si31  1  0.04420128  0.67705257  0.95089126  1
  Si  Si32  1  0.50521486  0.35144393  0.04923545  1
  Si  Si33  1  0.51405871  0.31336416  0.18951933  1
  Si  Si34  1  0.50546663  0.96978263  0.08836025  1
  Si  Si35  1  0.50944207  0.32382052  0.47646597  1
  Si  Si36  1  0.52839103  0.31108777  0.33477353  1
  Si  Si37  1  0.49308123  0.35114994  0.62765063  1
  Si  Si38  1  0.53590223  0.33033120  0.90784832  1
  Si  Si39  1  0.52511946  0.33959667  0.76501008  1
  N  N40  1  0.32550228  0.13355176  0.06539765  1
  N  N41  1  0.38179017  0.05551298  0.34185456  1
  N  N42  1  0.35821913  0.10434106  0.20487300  1
  N  N43  1  0.35491212  0.09342500  0.48794611  1
  N  N44  1  0.33732341  0.14216901  0.63967272  1
  N  N45  1  0.38519844  0.08059078  0.91552938  1
  N  N46  1  0.37373911  0.11104626  0.77808393  1
  N  N47  1  0.36496995  0.63797367  0.22144976  1
  N  N48  1  0.35729136  0.66604607  0.07447081  1
  N  N49  1  0.34812207  0.63509657  0.50165494  1
  N  N50  1  0.31249344  0.66367720  0.65102862  1
  N  N51  1  0.38203948  0.62301730  0.36784601  1
  N  N52  1  0.38561275  0.64365414  0.93940637  1
  N  N53  1  0.37789894  0.65767827  0.79923802  1
  N  N54  1  0.46798475  0.25699902  0.00038331  1
  N  N55  1  0.49245321  0.25352473  0.28826483  1
  N  N56  1  0.48610956  0.20587127  0.14058650  1
  N  N57  1  0.48781880  0.23488702  0.42692323  1
  N  N58  1  0.48212944  0.27312798  0.71933845  1
  N  N59  1  0.49567449  0.23178038  0.57642360  1
  N  N60  1  0.51053477  0.26055998  0.86055156  1
  N  N61  1  0.86527838  0.87046107  0.50263863  1
  N  N62  1  0.85688997  0.34169614  0.20580648  1
  N  N63  1  0.82337917  0.32758006  0.05910456  1
  N  N64  1  0.82208211  0.90148155  0.07152901  1
  N  N65  1  0.85557195  0.30781043  0.48321971  1
  N  N66  1  0.88012577  0.31853757  0.34761795  1
  N  N67  1  0.90418767  0.87237372  0.36277038  1
  N  N68  1  0.89552704  0.93373192  0.23043362  1
  N  N69  1  0.88584026  0.34353463  0.92033876  1
  N  N70  1  0.86605712  0.35564956  0.78256244  1
  N  N71  1  0.90298537  0.89887175  0.93639864  1
  N  N72  1  0.80229469  0.41035290  0.64868249  1
  N  N73  1  0.90403915  0.91539868  0.79701823  1
  N  N74  1  0.83185431  0.88717595  0.65148477  1
  N  N75  1  0.95984224  0.73044969  0.14968064  1
  N  N76  1  0.00405756  0.77797580  0.99888222  1
  N  N77  1  0.97305064  0.68296200  0.56248636  1
  N  N78  1  0.99172576  0.75206629  0.42654323  1
  N  N79  1  0.99521277  0.74781619  0.28396956  1
  N  N80  1  0.99388158  0.77662030  0.85815075  1
  N  N81  1  0.00052739  0.79849237  0.71808710  1
