# generated using pymatgen
data_Sc4FeBr5
_symmetry_space_group_name_H-M   'P 1'
_cell_length_a   11.16893041
_cell_length_b   11.16893041
_cell_length_c   16.22913063
_cell_angle_alpha   90.00000000
_cell_angle_beta   90.00000000
_cell_angle_gamma   90.00000000
_symmetry_Int_Tables_number   1
_chemical_formula_structural   Sc4FeBr5
_chemical_formula_sum   'Sc32 Fe8 Br40'
_cell_volume   2024.50300598
_cell_formula_units_Z   8
loop_
 _symmetry_equiv_pos_site_id
 _symmetry_equiv_pos_as_xyz
  1  'x, y, z'
loop_
 _atom_site_type_symbol
 _atom_site_label
 _atom_site_symmetry_multiplicity
 _atom_site_fract_x
 _atom_site_fract_y
 _atom_site_fract_z
 _atom_site_occupancy
  Sc  Sc0  1  0.12266245  0.87733755  0.34032081  1
  Sc  Sc1  1  0.62266245  0.12266245  0.84032081  1
  Sc  Sc2  1  0.87733755  0.37733755  0.84032081  1
  Sc  Sc3  1  0.37733755  0.62266245  0.34032081  1
  Sc  Sc4  1  0.87733755  0.12266245  0.65967919  1
  Sc  Sc5  1  0.37733755  0.87733755  0.15967919  1
  Sc  Sc6  1  0.12266245  0.62266245  0.15967919  1
  Sc  Sc7  1  0.62266245  0.37733755  0.65967919  1
  Sc  Sc8  1  0.13572833  0.43294122  0.32484480  1
  Sc  Sc9  1  0.63572833  0.56705878  0.82484480  1
  Sc  Sc10  1  0.86427167  0.93294122  0.82484480  1
  Sc  Sc11  1  0.36427167  0.06705878  0.32484480  1
  Sc  Sc12  1  0.86427167  0.56705878  0.67515520  1
  Sc  Sc13  1  0.36427167  0.43294122  0.17515520  1
  Sc  Sc14  1  0.13572833  0.06705878  0.17515520  1
  Sc  Sc15  1  0.63572833  0.93294122  0.67515520  1
  Sc  Sc16  1  0.93294122  0.63572833  0.32484480  1
  Sc  Sc17  1  0.06705878  0.13572833  0.82484480  1
  Sc  Sc18  1  0.43294122  0.36427167  0.82484480  1
  Sc  Sc19  1  0.56705878  0.86427167  0.32484480  1
  Sc  Sc20  1  0.06705878  0.36427167  0.67515520  1
  Sc  Sc21  1  0.93294122  0.86427167  0.17515520  1
  Sc  Sc22  1  0.56705878  0.63572833  0.17515520  1
  Sc  Sc23  1  0.43294122  0.13572833  0.67515520  1
  Sc  Sc24  1  0.13775749  0.63775749  0.46987520  1
  Sc  Sc25  1  0.63775749  0.36224251  0.96987520  1
  Sc  Sc26  1  0.86224251  0.13775749  0.96987520  1
  Sc  Sc27  1  0.36224251  0.86224251  0.46987520  1
  Sc  Sc28  1  0.86224251  0.36224251  0.53012480  1
  Sc  Sc29  1  0.36224251  0.63775749  0.03012480  1
  Sc  Sc30  1  0.13775749  0.86224251  0.03012480  1
  Sc  Sc31  1  0.63775749  0.13775749  0.53012480  1
  Fe  Fe32  1  0.15062628  0.65062628  0.31790992  1
  Fe  Fe33  1  0.65062628  0.34937372  0.81790992  1
  Fe  Fe34  1  0.84937372  0.15062628  0.81790992  1
  Fe  Fe35  1  0.34937372  0.84937372  0.31790992  1
  Fe  Fe36  1  0.84937372  0.34937372  0.68209008  1
  Fe  Fe37  1  0.34937372  0.65062628  0.18209008  1
  Fe  Fe38  1  0.15062628  0.84937372  0.18209008  1
  Fe  Fe39  1  0.65062628  0.15062628  0.68209008  1
  Br  Br40  1  0.11746970  0.38253030  0.50000000  1
  Br  Br41  1  0.61746970  0.61746970  0.00000000  1
  Br  Br42  1  0.88253030  0.88253030  0.00000000  1
  Br  Br43  1  0.38253030  0.11746970  0.50000000  1
  Br  Br44  1  0.88253030  0.61746970  0.50000000  1
  Br  Br45  1  0.38253030  0.38253030  0.00000000  1
  Br  Br46  1  0.11746970  0.11746970  0.00000000  1
  Br  Br47  1  0.61746970  0.88253030  0.50000000  1
  Br  Br48  1  0.89395963  0.39395963  0.33627663  1
  Br  Br49  1  0.39395963  0.60604037  0.83627663  1
  Br  Br50  1  0.10604037  0.89395963  0.83627663  1
  Br  Br51  1  0.60604037  0.10604037  0.33627663  1
  Br  Br52  1  0.10604037  0.60604037  0.66372337  1
  Br  Br53  1  0.60604037  0.39395963  0.16372337  1
  Br  Br54  1  0.89395963  0.10604037  0.16372337  1
  Br  Br55  1  0.39395963  0.89395963  0.66372337  1
  Br  Br56  1  0.87469864  0.12530136  0.48502003  1
  Br  Br57  1  0.37469864  0.87469864  0.98502003  1
  Br  Br58  1  0.12530136  0.62530136  0.98502003  1
  Br  Br59  1  0.62530136  0.37469864  0.48502003  1
  Br  Br60  1  0.12530136  0.87469864  0.51497997  1
  Br  Br61  1  0.62530136  0.12530136  0.01497997  1
  Br  Br62  1  0.87469864  0.37469864  0.01497997  1
  Br  Br63  1  0.37469864  0.62530136  0.51497997  1
  Br  Br64  1  0.12796929  0.14136636  0.33732973  1
  Br  Br65  1  0.62796929  0.85863364  0.83732973  1
  Br  Br66  1  0.87203071  0.64136636  0.83732973  1
  Br  Br67  1  0.37203071  0.35863364  0.33732973  1
  Br  Br68  1  0.87203071  0.85863364  0.66267027  1
  Br  Br69  1  0.37203071  0.14136636  0.16267027  1
  Br  Br70  1  0.12796929  0.35863364  0.16267027  1
  Br  Br71  1  0.62796929  0.64136636  0.66267027  1
  Br  Br72  1  0.64136636  0.62796929  0.33732973  1
  Br  Br73  1  0.35863364  0.12796929  0.83732973  1
  Br  Br74  1  0.14136636  0.37203071  0.83732973  1
  Br  Br75  1  0.85863364  0.87203071  0.33732973  1
  Br  Br76  1  0.35863364  0.37203071  0.66267027  1
  Br  Br77  1  0.64136636  0.87203071  0.16267027  1
  Br  Br78  1  0.85863364  0.62796929  0.16267027  1
  Br  Br79  1  0.14136636  0.12796929  0.66267027  1
