# generated using pymatgen
data_SmSiOs2C
_symmetry_space_group_name_H-M   'P 1'
_cell_length_a   3.93265360
_cell_length_b   5.89801839
_cell_length_c   7.18278142
_cell_angle_alpha   90.00000000
_cell_angle_beta   90.00000000
_cell_angle_gamma   109.47451996
_symmetry_Int_Tables_number   1
_chemical_formula_structural   SmSiOs2C
_chemical_formula_sum   'Sm2 Si2 Os4 C2'
_cell_volume   157.07221320
_cell_formula_units_Z   2
loop_
 _symmetry_equiv_pos_site_id
 _symmetry_equiv_pos_as_xyz
  1  'x, y, z'
loop_
 _atom_site_type_symbol
 _atom_site_label
 _atom_site_symmetry_multiplicity
 _atom_site_fract_x
 _atom_site_fract_y
 _atom_site_fract_z
 _atom_site_occupancy
  Sm  Sm0  1  0.45253023  0.90506046  0.25000000  1
  Sm  Sm1  1  0.54746977  0.09493954  0.75000000  1
  Si  Si2  1  0.73144452  0.46288903  0.25000000  1
  Si  Si3  1  0.26855548  0.53711097  0.75000000  1
  Os  Os4  1  0.16584686  0.33169371  0.05967467  1
  Os  Os5  1  0.83415314  0.66830629  0.94032533  1
  Os  Os6  1  0.83415314  0.66830629  0.55967467  1
  Os  Os7  1  0.16584686  0.33169371  0.44032533  1
  C  C8  1  0.00000000  0.00000000  -0.00000000  1
  C  C9  1  0.00000000  0.00000000  0.50000000  1
