# generated using pymatgen
data_Hf2Co7
_symmetry_space_group_name_H-M   'P 1'
_cell_length_a   4.63104267
_cell_length_b   4.75111136
_cell_length_c   12.06912508
_cell_angle_alpha   87.85060698
_cell_angle_beta   94.41357056
_cell_angle_gamma   119.16747467
_symmetry_Int_Tables_number   1
_chemical_formula_structural   Hf2Co7
_chemical_formula_sum   'Hf4 Co14'
_cell_volume   231.19219124
_cell_formula_units_Z   2
loop_
 _symmetry_equiv_pos_site_id
 _symmetry_equiv_pos_as_xyz
  1  'x, y, z'
loop_
 _atom_site_type_symbol
 _atom_site_label
 _atom_site_symmetry_multiplicity
 _atom_site_fract_x
 _atom_site_fract_y
 _atom_site_fract_z
 _atom_site_occupancy
  Hf  Hf0  1  0.73980292  0.00000000  0.11595739  1
  Hf  Hf1  1  0.26019708  1.00000000  0.88404261  1
  Hf  Hf2  1  0.78993826  0.00000000  0.38289509  1
  Hf  Hf3  1  0.21006174  1.00000000  0.61710491  1
  Co  Co4  1  0.23645404  0.50039674  0.75047382  1
  Co  Co5  1  0.73605730  0.49960326  0.75047382  1
  Co  Co6  1  0.76354596  0.49960326  0.24952618  1
  Co  Co7  1  0.26394270  0.50039674  0.24952618  1
  Co  Co8  1  0.93908202  0.33230846  0.92273947  1
  Co  Co9  1  0.60677356  0.66769154  0.92273947  1
  Co  Co10  1  0.06091798  0.66769154  0.07726053  1
  Co  Co11  1  0.39322644  0.33230846  0.07726053  1
  Co  Co12  1  0.86583202  0.33507554  0.57662120  1
  Co  Co13  1  0.53075648  0.66492446  0.57662120  1
  Co  Co14  1  0.13416798  0.66492446  0.42337880  1
  Co  Co15  1  0.46924352  0.33507554  0.42337880  1
  Co  Co16  1  0.73597324  0.00000000  0.74880430  1
  Co  Co17  1  0.26402676  1.00000000  0.25119570  1
