# generated using pymatgen
data_TbMn2SiC
_symmetry_space_group_name_H-M   'P 1'
_cell_length_a   3.73127672
_cell_length_b   5.62063176
_cell_length_c   7.00647550
_cell_angle_alpha   90.00000000
_cell_angle_beta   90.00000000
_cell_angle_gamma   109.38576670
_symmetry_Int_Tables_number   1
_chemical_formula_structural   TbMn2SiC
_chemical_formula_sum   'Tb2 Mn4 Si2 C2'
_cell_volume   138.60994842
_cell_formula_units_Z   2
loop_
 _symmetry_equiv_pos_site_id
 _symmetry_equiv_pos_as_xyz
  1  'x, y, z'
loop_
 _atom_site_type_symbol
 _atom_site_label
 _atom_site_symmetry_multiplicity
 _atom_site_fract_x
 _atom_site_fract_y
 _atom_site_fract_z
 _atom_site_occupancy
  Tb  Tb0  1  0.45534719  0.91069439  0.25000000  1
  Tb  Tb1  1  0.54465281  0.08930561  0.75000000  1
  Mn  Mn2  1  0.16798243  0.33596487  0.06210734  1
  Mn  Mn3  1  0.83201757  0.66403513  0.93789266  1
  Mn  Mn4  1  0.83201757  0.66403513  0.56210734  1
  Mn  Mn5  1  0.16798243  0.33596487  0.43789266  1
  Si  Si6  1  0.73512137  0.47024274  0.25000000  1
  Si  Si7  1  0.26487863  0.52975726  0.75000000  1
  C  C8  1  0.00000000  0.00000000  0.00000000  1
  C  C9  1  0.00000000  0.00000000  0.50000000  1
