# generated using pymatgen
data_Tm2(CN2)3
_symmetry_space_group_name_H-M   'P 1'
_cell_length_a   3.74716043
_cell_length_b   5.20243819
_cell_length_c   7.33108712
_cell_angle_alpha   95.96185604
_cell_angle_beta   104.80715506
_cell_angle_gamma   90.00000000
_symmetry_Int_Tables_number   1
_chemical_formula_structural   Tm2(CN2)3
_chemical_formula_sum   'Tm2 C3 N6'
_cell_volume   137.36924292
_cell_formula_units_Z   1
loop_
 _symmetry_equiv_pos_site_id
 _symmetry_equiv_pos_as_xyz
  1  'x, y, z'
loop_
 _atom_site_type_symbol
 _atom_site_label
 _atom_site_symmetry_multiplicity
 _atom_site_fract_x
 _atom_site_fract_y
 _atom_site_fract_z
 _atom_site_occupancy
  Tm  Tm0  1  0.13428102  0.56945260  0.26856205  1
  Tm  Tm1  1  0.86571898  0.43054740  0.73143795  1
  C  C2  1  0.67203667  0.09395883  0.34407335  1
  C  C3  1  0.32796333  0.90604117  0.65592665  1
  C  C4  1  0.00000000  -0.00000000  0.00000000  1
  N  N5  1  0.01146647  0.23815907  0.02293293  1
  N  N6  1  0.98853353  0.76184093  0.97706707  1
  N  N7  1  0.31007742  0.66558103  0.62015483  1
  N  N8  1  0.68992258  0.33441897  0.37984517  1
  N  N9  1  0.34255162  0.14095373  0.68510325  1
  N  N10  1  0.65744838  0.85904627  0.31489675  1
