# generated using pymatgen
data_ZnH6C2(NO)4
_symmetry_space_group_name_H-M   'P 1'
_cell_length_a   6.95075141
_cell_length_b   5.20365208
_cell_length_c   9.35014576
_cell_angle_alpha   90.00000000
_cell_angle_beta   112.37252235
_cell_angle_gamma   90.00000000
_symmetry_Int_Tables_number   1
_chemical_formula_structural   ZnH6C2(NO)4
_chemical_formula_sum   'Zn2 H12 C4 N8 O8'
_cell_volume   312.73228340
_cell_formula_units_Z   2
loop_
 _symmetry_equiv_pos_site_id
 _symmetry_equiv_pos_as_xyz
  1  'x, y, z'
loop_
 _atom_site_type_symbol
 _atom_site_label
 _atom_site_symmetry_multiplicity
 _atom_site_fract_x
 _atom_site_fract_y
 _atom_site_fract_z
 _atom_site_occupancy
  Zn  Zn0  1  0.99626403  0.79589131  0.74963614  1
  Zn  Zn1  1  0.99626403  0.20410869  0.24963614  1
  H  H2  1  0.49914328  0.94155686  0.09392457  1
  H  H3  1  0.49914328  0.05844314  0.59392457  1
  H  H4  1  0.35152037  0.03521804  0.80456832  1
  H  H5  1  0.35152037  0.96478196  0.30456832  1
  H  H6  1  0.23276178  0.17760288  0.90903579  1
  H  H7  1  0.23276178  0.82239712  0.40903579  1
  H  H8  1  0.62864776  0.58247200  0.34363311  1
  H  H9  1  0.62864776  0.41752800  0.84363311  1
  H  H10  1  0.92298673  0.39279816  0.55625995  1
  H  H11  1  0.92298673  0.60720184  0.05625995  1
  H  H12  1  0.71900117  0.43357011  0.60641325  1
  H  H13  1  0.71900117  0.56642989  0.10641325  1
  C  C14  1  0.31105581  0.62010160  0.02880939  1
  C  C15  1  0.31105581  0.37989840  0.52880939  1
  C  C16  1  0.82777055  0.89390628  0.42558910  1
  C  C17  1  0.82777055  0.10609372  0.92558910  1
  N  N18  1  0.38989033  0.85137781  0.00127271  1
  N  N19  1  0.38989033  0.14862219  0.50127271  1
  N  N20  1  0.26952070  0.00224700  0.87344621  1
  N  N21  1  0.26952070  0.99775300  0.37344621  1
  N  N22  1  0.72784492  0.67449468  0.44180474  1
  N  N23  1  0.72784492  0.32550532  0.94180474  1
  N  N24  1  0.82896767  0.52879495  0.57792671  1
  N  N25  1  0.82896767  0.47120505  0.07792671  1
  O  O26  1  0.14343559  0.53185184  0.92130220  1
  O  O27  1  0.14343559  0.46814816  0.42130220  1
  O  O28  1  0.41202554  0.50415638  0.15310399  1
  O  O29  1  0.41202554  0.49584362  0.65310399  1
  O  O30  1  0.96900024  0.99115621  0.54445146  1
  O  O31  1  0.96900024  0.00884379  0.04445146  1
  O  O32  1  0.76876353  0.99278420  0.28882237  1
  O  O33  1  0.76876353  0.00721580  0.78882237  1
