# generated using pymatgen
data_Pr3(AgGe)4
_symmetry_space_group_name_H-M   'P 1'
_cell_length_a   4.49119597
_cell_length_b   7.24074832
_cell_length_c   8.58246094
_cell_angle_alpha   114.95042904
_cell_angle_beta   105.16796656
_cell_angle_gamma   90.00000000
_symmetry_Int_Tables_number   1
_chemical_formula_structural   Pr3(AgGe)4
_chemical_formula_sum   'Pr3 Ag4 Ge4'
_cell_volume   242.28496319
_cell_formula_units_Z   1
loop_
 _symmetry_equiv_pos_site_id
 _symmetry_equiv_pos_as_xyz
  1  'x, y, z'
loop_
 _atom_site_type_symbol
 _atom_site_label
 _atom_site_symmetry_multiplicity
 _atom_site_fract_x
 _atom_site_fract_y
 _atom_site_fract_z
 _atom_site_occupancy
  Pr  Pr0  1  0.87219394  0.37219394  0.74438788  1
  Pr  Pr1  1  0.12780606  0.62780606  0.25561212  1
  Pr  Pr2  1  0.00000000  0.00000000  0.00000000  1
  Ag  Ag3  1  0.33146946  0.63704667  0.66293891  1
  Ag  Ag4  1  0.66853054  0.36295333  0.33706109  1
  Ag  Ag5  1  0.33146946  0.02589224  0.66293891  1
  Ag  Ag6  1  0.66853054  0.97410776  0.33706109  1
  Ge  Ge7  1  0.21656336  0.21656336  0.43312673  1
  Ge  Ge8  1  0.78343664  0.78343664  0.56687327  1
  Ge  Ge9  1  0.50000000  0.68127355  0.00000000  1
  Ge  Ge10  1  0.50000000  0.31872645  1.00000000  1
