# generated using pymatgen
data_BaV2Ni3(HO5)2
_symmetry_space_group_name_H-M   'P 1'
_cell_length_a   5.94275633
_cell_length_b   5.96634043
_cell_length_c   7.83032842
_cell_angle_alpha   67.68877444
_cell_angle_beta   67.69911794
_cell_angle_gamma   60.13067674
_symmetry_Int_Tables_number   1
_chemical_formula_structural   BaV2Ni3(HO5)2
_chemical_formula_sum   'Ba1 V2 Ni3 H2 O10'
_cell_volume   216.36776357
_cell_formula_units_Z   1
loop_
 _symmetry_equiv_pos_site_id
 _symmetry_equiv_pos_as_xyz
  1  'x, y, z'
loop_
 _atom_site_type_symbol
 _atom_site_label
 _atom_site_symmetry_multiplicity
 _atom_site_fract_x
 _atom_site_fract_y
 _atom_site_fract_z
 _atom_site_occupancy
  Ba  Ba0  1  0.00000000  0.50000000  0.50000000  1
  V  V1  1  0.58283865  0.08932901  0.74499368  1
  V  V2  1  0.41716135  0.91067099  0.25500632  1
  Ni  Ni3  1  0.00000000  -0.00000000  -0.00000000  1
  Ni  Ni4  1  0.00000000  0.50000000  -0.00000000  1
  Ni  Ni5  1  0.50000000  0.50000000  -0.00000000  1
  H  H6  1  0.26583224  0.74502539  0.72331012  1
  H  H7  1  0.73416776  0.25497461  0.27668988  1
  O  O8  1  0.22985066  0.22325520  0.82405304  1
  O  O9  1  0.72284111  0.22325520  0.82405304  1
  O  O10  1  0.77014934  0.77674480  0.17594696  1
  O  O11  1  0.27715889  0.77674480  0.17594696  1
  O  O12  1  0.72398517  0.73703169  0.81499797  1
  O  O13  1  0.27601483  0.26296831  0.18500203  1
  O  O14  1  0.34505755  0.81389916  0.49598575  1
  O  O15  1  0.65494245  0.18610084  0.50401425  1
  O  O16  1  0.21257700  0.70952320  0.86532281  1
  O  O17  1  0.78742300  0.29047680  0.13467719  1
