# generated using pymatgen
data_H3ClO5
_symmetry_space_group_name_H-M   'P 1'
_cell_length_a   9.74728773
_cell_length_b   6.94155863
_cell_length_c   8.14111712
_cell_angle_alpha   90.00000000
_cell_angle_beta   90.00000000
_cell_angle_gamma   90.00000000
_symmetry_Int_Tables_number   1
_chemical_formula_structural   H3ClO5
_chemical_formula_sum   'H12 Cl4 O20'
_cell_volume   550.83913166
_cell_formula_units_Z   4
loop_
 _symmetry_equiv_pos_site_id
 _symmetry_equiv_pos_as_xyz
  1  'x, y, z'
loop_
 _atom_site_type_symbol
 _atom_site_label
 _atom_site_symmetry_multiplicity
 _atom_site_fract_x
 _atom_site_fract_y
 _atom_site_fract_z
 _atom_site_occupancy
  H  H0  1  0.09126799  0.64035318  0.21409391  1
  H  H1  1  0.59126799  0.85964682  0.28590609  1
  H  H2  1  0.90873201  0.14035318  0.78590609  1
  H  H3  1  0.40873201  0.35964682  0.71409391  1
  H  H4  1  0.90873201  0.35964682  0.78590609  1
  H  H5  1  0.40873201  0.14035318  0.71409391  1
  H  H6  1  0.09126799  0.85964682  0.21409391  1
  H  H7  1  0.59126799  0.64035318  0.28590609  1
  H  H8  1  0.38645646  0.75000000  0.83374645  1
  H  H9  1  0.88645646  0.75000000  0.66625355  1
  H  H10  1  0.61354354  0.25000000  0.16625355  1
  H  H11  1  0.11354354  0.25000000  0.33374645  1
  Cl  Cl12  1  0.90649641  0.25000000  0.25055026  1
  Cl  Cl13  1  0.40649641  0.25000000  0.24944974  1
  Cl  Cl14  1  0.09350359  0.75000000  0.74944974  1
  Cl  Cl15  1  0.59350359  0.75000000  0.75055026  1
  O  O16  1  0.78345322  0.25000000  0.34588564  1
  O  O17  1  0.28345322  0.25000000  0.15411436  1
  O  O18  1  0.21654678  0.75000000  0.65411436  1
  O  O19  1  0.71654678  0.75000000  0.84588564  1
  O  O20  1  0.02608372  0.25000000  0.39615066  1
  O  O21  1  0.52608372  0.25000000  0.10384934  1
  O  O22  1  0.97391628  0.75000000  0.60384934  1
  O  O23  1  0.47391628  0.75000000  0.89615066  1
  O  O24  1  0.92801611  0.07708565  0.15825558  1
  O  O25  1  0.42801611  0.42291435  0.34174442  1
  O  O26  1  0.07198389  0.57708565  0.84174442  1
  O  O27  1  0.57198389  0.92291435  0.65825558  1
  O  O28  1  0.07198389  0.92291435  0.84174442  1
  O  O29  1  0.57198389  0.57708565  0.65825558  1
  O  O30  1  0.92801611  0.42291435  0.15825558  1
  O  O31  1  0.42801611  0.07708565  0.34174442  1
  O  O32  1  0.15284905  0.75000000  0.22570409  1
  O  O33  1  0.65284905  0.75000000  0.27429591  1
  O  O34  1  0.84715095  0.25000000  0.77429591  1
  O  O35  1  0.34715095  0.25000000  0.72570409  1
