# generated using pymatgen
data_Er2Ge2Ru
_symmetry_space_group_name_H-M   'P 1'
_cell_length_a   4.28692966
_cell_length_b   5.75236026
_cell_length_c   9.19702037
_cell_angle_alpha   81.69465760
_cell_angle_beta   76.52265952
_cell_angle_gamma   68.12249110
_symmetry_Int_Tables_number   1
_chemical_formula_structural   Er2Ge2Ru
_chemical_formula_sum   'Er4 Ge4 Ru2'
_cell_volume   204.25162845
_cell_formula_units_Z   2
loop_
 _symmetry_equiv_pos_site_id
 _symmetry_equiv_pos_as_xyz
  1  'x, y, z'
loop_
 _atom_site_type_symbol
 _atom_site_label
 _atom_site_symmetry_multiplicity
 _atom_site_fract_x
 _atom_site_fract_y
 _atom_site_fract_z
 _atom_site_occupancy
  Er  Er0  1  0.99863656  0.67484018  0.32788669  1
  Er  Er1  1  0.00136344  0.32515982  0.67211331  1
  Er  Er2  1  0.81580254  0.25939327  0.10900164  1
  Er  Er3  1  0.18419746  0.74060673  0.89099836  1
  Ge  Ge4  1  0.64455893  0.27882447  0.43205767  1
  Ge  Ge5  1  0.35544107  0.72117553  0.56794233  1
  Ge  Ge6  1  0.51234783  0.85094441  0.12435994  1
  Ge  Ge7  1  0.48765217  0.14905559  0.87564006  1
  Ru  Ru8  1  0.72858202  0.91503184  0.62780412  1
  Ru  Ru9  1  0.27141798  0.08496816  0.37219588  1
