# generated using pymatgen
data_TbFe2SiC
_symmetry_space_group_name_H-M   'P 1'
_cell_length_a   3.77923434
_cell_length_b   5.55528794
_cell_length_c   6.73678924
_cell_angle_alpha   90.00000000
_cell_angle_beta   90.00000000
_cell_angle_gamma   109.88586410
_symmetry_Int_Tables_number   1
_chemical_formula_structural   TbFe2SiC
_chemical_formula_sum   'Tb2 Fe4 Si2 C2'
_cell_volume   133.00350352
_cell_formula_units_Z   2
loop_
 _symmetry_equiv_pos_site_id
 _symmetry_equiv_pos_as_xyz
  1  'x, y, z'
loop_
 _atom_site_type_symbol
 _atom_site_label
 _atom_site_symmetry_multiplicity
 _atom_site_fract_x
 _atom_site_fract_y
 _atom_site_fract_z
 _atom_site_occupancy
  Tb  Tb0  1  0.44844347  0.89688695  0.25000000  1
  Tb  Tb1  1  0.55155653  0.10311305  0.75000000  1
  Fe  Fe2  1  0.16541345  0.33082691  0.06330273  1
  Fe  Fe3  1  0.83458655  0.66917309  0.93669727  1
  Fe  Fe4  1  0.83458655  0.66917309  0.56330273  1
  Fe  Fe5  1  0.16541345  0.33082691  0.43669727  1
  Si  Si6  1  0.72923309  0.45846617  0.25000000  1
  Si  Si7  1  0.27076691  0.54153383  0.75000000  1
  C  C8  1  0.00000000  -0.00000000  0.00000000  1
  C  C9  1  0.00000000  -0.00000000  0.50000000  1
