# generated using pymatgen
data_UMn2SiC
_symmetry_space_group_name_H-M   'P 1'
_cell_length_a   3.73008377
_cell_length_b   5.63036095
_cell_length_c   6.66361632
_cell_angle_alpha   90.00000000
_cell_angle_beta   90.00000000
_cell_angle_gamma   109.34450396
_symmetry_Int_Tables_number   1
_chemical_formula_structural   UMn2SiC
_chemical_formula_sum   'U2 Mn4 Si2 C2'
_cell_volume   132.04651290
_cell_formula_units_Z   2
loop_
 _symmetry_equiv_pos_site_id
 _symmetry_equiv_pos_as_xyz
  1  'x, y, z'
loop_
 _atom_site_type_symbol
 _atom_site_label
 _atom_site_symmetry_multiplicity
 _atom_site_fract_x
 _atom_site_fract_y
 _atom_site_fract_z
 _atom_site_occupancy
  U  U0  1  0.44542311  0.89084622  0.25000000  1
  U  U1  1  0.55457689  0.10915378  0.75000000  1
  Mn  Mn2  1  0.16716538  0.33433077  0.06144637  1
  Mn  Mn3  1  0.83283462  0.66566923  0.93855363  1
  Mn  Mn4  1  0.83283462  0.66566923  0.56144637  1
  Mn  Mn5  1  0.16716538  0.33433077  0.43855363  1
  Si  Si6  1  0.72653002  0.45306003  0.25000000  1
  Si  Si7  1  0.27346998  0.54693997  0.75000000  1
  C  C8  1  -0.00000000  -0.00000000  -0.00000000  1
  C  C9  1  -0.00000000  -0.00000000  0.50000000  1
