# generated using pymatgen
data_Rb2ReF6
_symmetry_space_group_name_H-M   'P 1'
_cell_length_a   4.90646923
_cell_length_b   6.14804347
_cell_length_c   6.14804347
_cell_angle_alpha   119.99999300
_cell_angle_beta   90.00000000
_cell_angle_gamma   90.00000000
_symmetry_Int_Tables_number   1
_chemical_formula_structural   Rb2ReF6
_chemical_formula_sum   'Rb2 Re1 F6'
_cell_volume   160.61037677
_cell_formula_units_Z   1
loop_
 _symmetry_equiv_pos_site_id
 _symmetry_equiv_pos_as_xyz
  1  'x, y, z'
loop_
 _atom_site_type_symbol
 _atom_site_label
 _atom_site_symmetry_multiplicity
 _atom_site_fract_x
 _atom_site_fract_y
 _atom_site_fract_z
 _atom_site_occupancy
  Rb  Rb0  1  0.70168938  0.66666700  0.33333300  1
  Rb  Rb1  1  0.29831062  0.33333300  0.66666700  1
  Re  Re2  1  -0.00000000  0.00000000  -0.00000000  1
  F  F3  1  0.78080128  0.15762555  0.31525109  1
  F  F4  1  0.21919872  0.84237445  0.68474891  1
  F  F5  1  0.78080128  0.15762554  0.84237446  1
  F  F6  1  0.21919872  0.84237446  0.15762554  1
  F  F7  1  0.78080128  0.68474891  0.84237445  1
  F  F8  1  0.21919872  0.31525109  0.15762555  1
