# generated using pymatgen
data_H2S2O7
_symmetry_space_group_name_H-M   'P 1'
_cell_length_a   10.25415887
_cell_length_b   10.25415887
_cell_length_c   13.04641298
_cell_angle_alpha   77.31415849
_cell_angle_beta   102.68584151
_cell_angle_gamma   78.98930497
_symmetry_Int_Tables_number   1
_chemical_formula_structural   H2S2O7
_chemical_formula_sum   'H16 S16 O56'
_cell_volume   1263.73160855
_cell_formula_units_Z   8
loop_
 _symmetry_equiv_pos_site_id
 _symmetry_equiv_pos_as_xyz
  1  'x, y, z'
loop_
 _atom_site_type_symbol
 _atom_site_label
 _atom_site_symmetry_multiplicity
 _atom_site_fract_x
 _atom_site_fract_y
 _atom_site_fract_z
 _atom_site_occupancy
  H  H0  1  0.80870157  0.03181665  0.89336471  1
  H  H1  1  0.03181665  0.80870157  0.60663529  1
  H  H2  1  0.19129843  0.96818335  0.10663529  1
  H  H3  1  0.96818335  0.19129843  0.39336471  1
  H  H4  1  0.96245609  0.37664692  0.60230548  1
  H  H5  1  0.37664692  0.96245609  0.89769452  1
  H  H6  1  0.03754391  0.62335308  0.39769452  1
  H  H7  1  0.62335308  0.03754391  0.10230548  1
  H  H8  1  0.83434274  0.54766281  0.90754593  1
  H  H9  1  0.54766281  0.83434274  0.59245407  1
  H  H10  1  0.16565726  0.45233719  0.09245407  1
  H  H11  1  0.45233719  0.16565726  0.40754593  1
  H  H12  1  0.57225188  0.54754660  0.43987573  1
  H  H13  1  0.54754660  0.57225188  0.06012427  1
  H  H14  1  0.42774812  0.45245340  0.56012427  1
  H  H15  1  0.45245340  0.42774812  0.93987573  1
  S  S16  1  0.81139287  0.35927399  0.86105162  1
  S  S17  1  0.35927399  0.81139287  0.63894838  1
  S  S18  1  0.18860713  0.64072601  0.13894838  1
  S  S19  1  0.64072601  0.18860713  0.36105162  1
  S  S20  1  0.63911231  0.36086870  0.65317755  1
  S  S21  1  0.36086870  0.63911231  0.84682245  1
  S  S22  1  0.36088769  0.63913130  0.34682245  1
  S  S23  1  0.63913130  0.36088769  0.15317755  1
  S  S24  1  0.16563348  0.18520363  0.35652311  1
  S  S25  1  0.18520363  0.16563348  0.14347689  1
  S  S26  1  0.83436652  0.81479637  0.64347689  1
  S  S27  1  0.81479637  0.83436652  0.85652311  1
  S  S28  1  0.18609921  0.34708312  0.63292199  1
  S  S29  1  0.34708312  0.18609921  0.86707801  1
  S  S30  1  0.81390079  0.65291688  0.36707801  1
  S  S31  1  0.65291688  0.81390079  0.13292199  1
  O  O32  1  0.67068993  0.43295963  0.75257512  1
  O  O33  1  0.43295963  0.67068993  0.74742488  1
  O  O34  1  0.32931007  0.56704037  0.24742488  1
  O  O35  1  0.56704037  0.32931007  0.25257512  1
  O  O36  1  0.12389457  0.12389457  0.25000000  1
  O  O37  1  0.87610543  0.87610543  0.75000000  1
  O  O38  1  0.21828046  0.21828046  0.75000000  1
  O  O39  1  0.78171954  0.78171954  0.25000000  1
  O  O40  1  0.93099735  0.35782046  0.82185079  1
  O  O41  1  0.35782046  0.93099735  0.67814921  1
  O  O42  1  0.06900265  0.64217954  0.17814921  1
  O  O43  1  0.64217954  0.06900265  0.32185079  1
  O  O44  1  0.78496104  0.23823601  0.92194440  1
  O  O45  1  0.23823601  0.78496104  0.57805560  1
  O  O46  1  0.21503896  0.76176399  0.07805560  1
  O  O47  1  0.76176399  0.21503896  0.42194440  1
  O  O48  1  0.78386326  0.47349515  0.92082990  1
  O  O49  1  0.47349515  0.78386326  0.57917010  1
  O  O50  1  0.21613674  0.52650485  0.07917010  1
  O  O51  1  0.52650485  0.21613674  0.42082990  1
  O  O52  1  0.66920035  0.44729553  0.56177631  1
  O  O53  1  0.44729553  0.66920035  0.93822369  1
  O  O54  1  0.33079965  0.55270447  0.43822369  1
  O  O55  1  0.55270447  0.33079965  0.06177631  1
  O  O56  1  0.48053517  0.38427449  0.63292179  1
  O  O57  1  0.38427449  0.48053517  0.86707821  1
  O  O58  1  0.51946483  0.61572551  0.36707821  1
  O  O59  1  0.61572551  0.51946483  0.13292179  1
  O  O60  1  0.70556917  0.21735183  0.69215574  1
  O  O61  1  0.21735183  0.70556917  0.80784426  1
  O  O62  1  0.29443083  0.78264817  0.30784526  1
  O  O63  1  0.78264817  0.29443083  0.19215474  1
  O  O64  1  0.30148314  0.10395959  0.42023052  1
  O  O65  1  0.10395959  0.30148314  0.07976948  1
  O  O66  1  0.69851686  0.89604041  0.57976948  1
  O  O67  1  0.89604041  0.69851686  0.92023052  1
  O  O68  1  0.13726546  0.33199787  0.31942715  1
  O  O69  1  0.33199787  0.13726546  0.18057285  1
  O  O70  1  0.86273454  0.66800213  0.68057285  1
  O  O71  1  0.66800213  0.86273454  0.81942715  1
  O  O72  1  0.06385748  0.13169443  0.41735767  1
  O  O73  1  0.13169443  0.06385748  0.08264233  1
  O  O74  1  0.93614252  0.86830557  0.58264233  1
  O  O75  1  0.86830557  0.93614252  0.91735767  1
  O  O76  1  0.04292236  0.05270957  0.70142783  1
  O  O77  1  0.05270957  0.04292236  0.79857217  1
  O  O78  1  0.95707764  0.94729043  0.29857217  1
  O  O79  1  0.94729043  0.95707764  0.20142783  1
  O  O80  1  0.03609988  0.32637096  0.57762733  1
  O  O81  1  0.32637096  0.03609988  0.92237267  1
  O  O82  1  0.96390012  0.67362904  0.42237267  1
  O  O83  1  0.67362904  0.96390012  0.07762733  1
  O  O84  1  0.16594697  0.47734427  0.66152106  1
  O  O85  1  0.47734427  0.16594697  0.83847894  1
  O  O86  1  0.83405303  0.52265573  0.33847894  1
  O  O87  1  0.52265573  0.83405303  0.16152106  1
