# generated using pymatgen
data_HoMgGa
_symmetry_space_group_name_H-M   'P 1'
_cell_length_a   4.39894391
_cell_length_b   7.28809451
_cell_length_c   7.28809451
_cell_angle_alpha   119.99999866
_cell_angle_beta   90.00000000
_cell_angle_gamma   90.00000000
_symmetry_Int_Tables_number   1
_chemical_formula_structural   HoMgGa
_chemical_formula_sum   'Ho3 Mg3 Ga3'
_cell_volume   202.35179157
_cell_formula_units_Z   3
loop_
 _symmetry_equiv_pos_site_id
 _symmetry_equiv_pos_as_xyz
  1  'x, y, z'
loop_
 _atom_site_type_symbol
 _atom_site_label
 _atom_site_symmetry_multiplicity
 _atom_site_fract_x
 _atom_site_fract_y
 _atom_site_fract_z
 _atom_site_occupancy
  Ho  Ho0  1  -0.00000000  0.42329713  0.42329713  1
  Ho  Ho1  1  -0.00000000  0.00000000  0.57670287  1
  Ho  Ho2  1  0.00000000  0.57670287  0.00000000  1
  Mg  Mg3  1  0.50000000  0.75522355  0.75522355  1
  Mg  Mg4  1  0.50000000  0.00000000  0.24477645  1
  Mg  Mg5  1  0.50000000  0.24477645  0.00000000  1
  Ga  Ga6  1  0.50000000  0.66666700  0.33333300  1
  Ga  Ga7  1  0.50000000  0.33333300  0.66666700  1
  Ga  Ga8  1  0.00000000  -0.00000000  -0.00000000  1
