# generated using pymatgen
data_Er3(In2Co)2
_symmetry_space_group_name_H-M   'P 1'
_cell_length_a   3.52386813
_cell_length_b   7.91365642
_cell_length_c   7.91365642
_cell_angle_alpha   119.99999341
_cell_angle_beta   90.00000000
_cell_angle_gamma   90.00000000
_symmetry_Int_Tables_number   1
_chemical_formula_structural   Er3(In2Co)2
_chemical_formula_sum   'Er3 In4 Co2'
_cell_volume   191.11936357
_cell_formula_units_Z   1
loop_
 _symmetry_equiv_pos_site_id
 _symmetry_equiv_pos_as_xyz
  1  'x, y, z'
loop_
 _atom_site_type_symbol
 _atom_site_label
 _atom_site_symmetry_multiplicity
 _atom_site_fract_x
 _atom_site_fract_y
 _atom_site_fract_z
 _atom_site_occupancy
  Er  Er0  1  0.50000000  0.70962493  0.95723021  1
  Er  Er1  1  0.50000000  0.24760527  0.29037507  1
  Er  Er2  1  0.50000000  0.04276979  0.75239473  1
  In  In3  1  0.00000000  0.92447298  0.33610783  1
  In  In4  1  0.00000000  0.41163485  0.07552702  1
  In  In5  1  -0.00000000  0.66389217  0.58836515  1
  In  In6  1  -0.00000000  0.33333300  0.66666700  1
  Co  Co7  1  0.50000000  0.66666700  0.33333300  1
  Co  Co8  1  -0.00000000  -0.00000000  -0.00000000  1
