# generated using pymatgen
data_Nd2Co2I
_symmetry_space_group_name_H-M   'P 1'
_cell_length_a   3.98601364
_cell_length_b   3.98601364
_cell_length_c   17.58021085
_cell_angle_alpha   90.00000000
_cell_angle_beta   90.00000000
_cell_angle_gamma   119.99998414
_symmetry_Int_Tables_number   1
_chemical_formula_structural   Nd2Co2I
_chemical_formula_sum   'Nd4 Co4 I2'
_cell_volume   241.89803618
_cell_formula_units_Z   2
loop_
 _symmetry_equiv_pos_site_id
 _symmetry_equiv_pos_as_xyz
  1  'x, y, z'
loop_
 _atom_site_type_symbol
 _atom_site_label
 _atom_site_symmetry_multiplicity
 _atom_site_fract_x
 _atom_site_fract_y
 _atom_site_fract_z
 _atom_site_occupancy
  Nd  Nd0  1  0.00000000  -0.00000000  0.89525387  1
  Nd  Nd1  1  -0.00000000  0.00000000  0.10474613  1
  Nd  Nd2  1  0.00000000  0.00000000  0.39507240  1
  Nd  Nd3  1  0.00000000  0.00000000  0.60492760  1
  Co  Co4  1  0.66666700  0.33333300  0.49979992  1
  Co  Co5  1  0.33333300  0.66666700  0.50020008  1
  Co  Co6  1  0.33333300  0.66666700  -0.00018189  1
  Co  Co7  1  0.66666700  0.33333300  0.00018189  1
  I  I8  1  0.66666700  0.33333300  0.75002270  1
  I  I9  1  0.33333300  0.66666700  0.24997730  1
