# generated using pymatgen
data_PH8C2NO4
_symmetry_space_group_name_H-M   'P 1'
_cell_length_a   9.24449628
_cell_length_b   9.24449628
_cell_length_c   9.24449628
_cell_angle_alpha   107.60492624
_cell_angle_beta   107.60492624
_cell_angle_gamma   113.27198091
_symmetry_Int_Tables_number   1
_chemical_formula_structural   PH8C2NO4
_chemical_formula_sum   'P4 H32 C8 N4 O16'
_cell_volume   606.15272863
_cell_formula_units_Z   4
loop_
 _symmetry_equiv_pos_site_id
 _symmetry_equiv_pos_as_xyz
  1  'x, y, z'
loop_
 _atom_site_type_symbol
 _atom_site_label
 _atom_site_symmetry_multiplicity
 _atom_site_fract_x
 _atom_site_fract_y
 _atom_site_fract_z
 _atom_site_occupancy
  P  P0  1  0.94126276  0.32118345  0.74452986  1
  P  P1  1  0.57665359  0.19673290  0.25547014  1
  P  P2  1  0.80326710  0.05873724  0.37992069  1
  P  P3  1  0.67881655  0.42334641  0.62007931  1
  H  H4  1  0.53613165  0.78166812  0.39171879  1
  H  H5  1  0.38994933  0.14441286  0.60828121  1
  H  H6  1  0.85558714  0.46386835  0.24553647  1
  H  H7  1  0.21833188  0.61005067  0.75446353  1
  H  H8  1  0.31726474  0.34923848  0.44432026  1
  H  H9  1  0.90491823  0.87294448  0.55567974  1
  H  H10  1  0.12705552  0.68273526  0.03197375  1
  H  H11  1  0.65076152  0.09508177  0.96802625  1
  H  H12  1  0.09363542  0.27200458  0.36068476  1
  H  H13  1  0.91131982  0.73295066  0.63931524  1
  H  H14  1  0.26704934  0.90636458  0.17836917  1
  H  H15  1  0.72799542  0.08868018  0.82163083  1
  H  H16  1  0.25327597  0.49703782  0.48300715  1
  H  H17  1  0.01403067  0.77026882  0.51699285  1
  H  H18  1  0.22973118  0.74672403  0.24376186  1
  H  H19  1  0.50296218  0.98596933  0.75623814  1
  H  H20  1  0.34148305  0.51190980  0.11648332  1
  H  H21  1  0.39542648  0.22499973  0.88351668  1
  H  H22  1  0.77500027  0.65851695  0.17042676  1
  H  H23  1  0.48809020  0.60457352  0.82957324  1
  H  H24  1  0.47891467  0.50098167  0.29144013  1
  H  H25  1  0.20954154  0.18747453  0.70855987  1
  H  H26  1  0.81252547  0.52108533  0.02206701  1
  H  H27  1  0.49901833  0.79045846  0.97793299  1
  H  H28  1  0.16118024  0.24273383  0.13132457  1
  H  H29  1  0.11140927  0.02985567  0.86867543  1
  H  H30  1  0.97014433  0.83881976  0.08155359  1
  H  H31  1  0.75726617  0.88859073  0.91844641  1
  H  H32  1  0.08684720  0.39369999  0.17510699  1
  H  H33  1  0.21859300  0.91174021  0.82489301  1
  H  H34  1  0.08825979  0.91315280  0.30685279  1
  H  H35  1  0.60630001  0.78140700  0.69314721  1
  C  C36  1  0.36771943  0.52141331  0.24479130  1
  C  C37  1  0.27662201  0.12292813  0.75520870  1
  C  C38  1  0.87707187  0.63228057  0.15369388  1
  C  C39  1  0.47858669  0.72337799  0.84630612  1
  C  C40  1  0.19863769  0.37550272  0.22313761  1
  C  C41  1  0.15236511  0.97550008  0.77686239  1
  C  C42  1  0.02449992  0.80136231  0.17686503  1
  C  C43  1  0.62449728  0.84763489  0.82313497  1
  N  N44  1  0.21936449  0.37532537  0.38954862  1
  N  N45  1  0.98577675  0.82981587  0.61045138  1
  N  N46  1  0.17018413  0.78063551  0.15596088  1
  N  N47  1  0.62467463  0.01422325  0.84403912  1
  O  O48  1  0.94013447  0.24876590  0.56011624  1
  O  O49  1  0.68864966  0.38001823  0.43988376  1
  O  O50  1  0.61998177  0.05986553  0.30863142  1
  O  O51  1  0.75123410  0.31135034  0.69136858  1
  O  O52  1  0.09759735  0.51361344  0.84869437  1
  O  O53  1  0.66491907  0.24890298  0.15130563  1
  O  O54  1  0.75109702  0.90240265  0.41601610  1
  O  O55  1  0.48638656  0.33508093  0.58398390  1
  O  O56  1  0.92609583  0.19307679  0.81457446  1
  O  O57  1  0.37850233  0.11152138  0.18542554  1
  O  O58  1  0.88847862  0.07390417  0.26698095  1
  O  O59  1  0.80692321  0.62149767  0.73301905  1
  O  O60  1  0.41286718  0.69366982  0.36450174  1
  O  O61  1  0.32916809  0.04836544  0.63549826  1
  O  O62  1  0.95163456  0.58713282  0.28080265  1
  O  O63  1  0.30633018  0.67083191  0.71919735  1
