# generated using pymatgen
data_CaH6C2(NO)4
_symmetry_space_group_name_H-M   'P 1'
_cell_length_a   9.84565804
_cell_length_b   9.63561619
_cell_length_c   9.43086408
_cell_angle_alpha   90.00000000
_cell_angle_beta   128.56693839
_cell_angle_gamma   90.00000000
_symmetry_Int_Tables_number   1
_chemical_formula_structural   CaH6C2(NO)4
_chemical_formula_sum   'Ca4 H24 C8 N16 O16'
_cell_volume   699.54558590
_cell_formula_units_Z   4
loop_
 _symmetry_equiv_pos_site_id
 _symmetry_equiv_pos_as_xyz
  1  'x, y, z'
loop_
 _atom_site_type_symbol
 _atom_site_label
 _atom_site_symmetry_multiplicity
 _atom_site_fract_x
 _atom_site_fract_y
 _atom_site_fract_z
 _atom_site_occupancy
  Ca  Ca0  1  0.20074728  0.02499211  0.01503123  1
  Ca  Ca1  1  0.79925272  0.52499211  0.48496877  1
  Ca  Ca2  1  0.79925272  0.97500789  0.98496877  1
  Ca  Ca3  1  0.20074728  0.47500789  0.51503123  1
  H  H4  1  0.44737184  0.75363780  0.47310284  1
  H  H5  1  0.55262816  0.25363780  0.02689716  1
  H  H6  1  0.55262816  0.24636220  0.52689716  1
  H  H7  1  0.44737184  0.74636220  0.97310284  1
  H  H8  1  0.19765188  0.87924796  0.30061277  1
  H  H9  1  0.80234812  0.37924796  0.19938723  1
  H  H10  1  0.80234812  0.12075204  0.69938723  1
  H  H11  1  0.19765188  0.62075204  0.80061277  1
  H  H12  1  0.35005639  0.00041315  0.41138454  1
  H  H13  1  0.64994361  0.50041315  0.08861546  1
  H  H14  1  0.64994361  0.99958685  0.58861546  1
  H  H15  1  0.35005639  0.49958685  0.91138454  1
  H  H16  1  0.13912066  0.16586104  0.53742432  1
  H  H17  1  0.86087934  0.66586104  0.96257568  1
  H  H18  1  0.86087934  0.83413896  0.46257568  1
  H  H19  1  0.13912066  0.33413896  0.03742432  1
  H  H20  1  0.35079168  0.04641022  0.81769122  1
  H  H21  1  0.64920832  0.54641022  0.68230878  1
  H  H22  1  0.64920832  0.95358978  0.18230878  1
  H  H23  1  0.35079168  0.45358978  0.31769122  1
  H  H24  1  0.18553937  0.94095117  0.67673276  1
  H  H25  1  0.81446063  0.44095117  0.82326724  1
  H  H26  1  0.81446063  0.05904883  0.32326724  1
  H  H27  1  0.18553937  0.55904883  0.17673276  1
  C  C28  1  0.46496700  0.77325657  0.26576017  1
  C  C29  1  0.53503300  0.27325657  0.23423983  1
  C  C30  1  0.53503300  0.22674343  0.73423983  1
  C  C31  1  0.46496700  0.72674343  0.76576017  1
  C  C32  1  0.06993121  0.24575004  0.68660730  1
  C  C33  1  0.93006879  0.74575004  0.81339270  1
  C  C34  1  0.93006879  0.75424996  0.31339270  1
  C  C35  1  0.06993121  0.25424996  0.18660730  1
  N  N36  1  0.43143978  0.82173819  0.37971841  1
  N  N37  1  0.56856022  0.32173819  0.12028159  1
  N  N38  1  0.56856022  0.17826181  0.62028159  1
  N  N39  1  0.43143978  0.67826181  0.87971841  1
  N  N40  1  0.30109091  0.92386352  0.31569318  1
  N  N41  1  0.69890909  0.42386352  0.18430682  1
  N  N42  1  0.69890909  0.07613648  0.68430682  1
  N  N43  1  0.30109091  0.57613648  0.81569318  1
  N  N44  1  0.12404934  0.14083151  0.63234087  1
  N  N45  1  0.87595066  0.64083151  0.86765913  1
  N  N46  1  0.87595066  0.85916849  0.36765913  1
  N  N47  1  0.12404934  0.35916849  0.13234087  1
  N  N48  1  0.22073763  0.02924038  0.75214843  1
  N  N49  1  0.77926237  0.52924038  0.74785157  1
  N  N50  1  0.77926237  0.97075962  0.24785157  1
  N  N51  1  0.22073763  0.47075962  0.25214843  1
  O  O52  1  0.40482117  0.84015117  0.11935980  1
  O  O53  1  0.59517883  0.34015117  0.38064020  1
  O  O54  1  0.59517883  0.15984883  0.88064020  1
  O  O55  1  0.40482117  0.65984883  0.61935980  1
  O  O56  1  0.55947032  0.66501682  0.31918568  1
  O  O57  1  0.44052968  0.16501682  0.18081432  1
  O  O58  1  0.44052968  0.33498318  0.68081432  1
  O  O59  1  0.55947032  0.83498318  0.81918568  1
  O  O60  1  0.05741401  0.22088942  0.81077107  1
  O  O61  1  0.94258599  0.72088942  0.68922893  1
  O  O62  1  0.94258599  0.77911058  0.18922893  1
  O  O63  1  0.05741401  0.27911058  0.31077107  1
  O  O64  1  0.03166449  0.36177073  0.60160756  1
  O  O65  1  0.96833551  0.86177073  0.89839244  1
  O  O66  1  0.96833551  0.63822927  0.39839244  1
  O  O67  1  0.03166449  0.13822927  0.10160756  1
