# generated using pymatgen
data_Sm2GaNi2
_symmetry_space_group_name_H-M   'P 1'
_cell_length_a   4.27923177
_cell_length_b   5.38551890
_cell_length_c   5.45064636
_cell_angle_alpha   119.60553035
_cell_angle_beta   113.11285718
_cell_angle_gamma   90.00000000
_symmetry_Int_Tables_number   1
_chemical_formula_structural   Sm2GaNi2
_chemical_formula_sum   'Sm2 Ga1 Ni2'
_cell_volume   97.45066765
_cell_formula_units_Z   1
loop_
 _symmetry_equiv_pos_site_id
 _symmetry_equiv_pos_as_xyz
  1  'x, y, z'
loop_
 _atom_site_type_symbol
 _atom_site_label
 _atom_site_symmetry_multiplicity
 _atom_site_fract_x
 _atom_site_fract_y
 _atom_site_fract_z
 _atom_site_occupancy
  Sm  Sm0  1  0.79920252  0.29920252  0.59840504  1
  Sm  Sm1  1  0.20079748  0.70079748  0.40159496  1
  Ga  Ga2  1  0.00000000  0.00000000  0.00000000  1
  Ni  Ni3  1  0.50000000  0.26377995  0.00000000  1
  Ni  Ni4  1  0.50000000  0.73622005  1.00000000  1
