# generated using pymatgen
data_ReH12C2S2N4Cl5O3
_symmetry_space_group_name_H-M   'P 1'
_cell_length_a   13.81933544
_cell_length_b   7.17671457
_cell_length_c   16.61524892
_cell_angle_alpha   90.00000000
_cell_angle_beta   101.82147934
_cell_angle_gamma   90.00000000
_symmetry_Int_Tables_number   1
_chemical_formula_structural   ReH12C2S2N4Cl5O3
_chemical_formula_sum   'Re4 H48 C8 S8 N16 Cl20 O12'
_cell_volume   1612.90764376
_cell_formula_units_Z   4
loop_
 _symmetry_equiv_pos_site_id
 _symmetry_equiv_pos_as_xyz
  1  'x, y, z'
loop_
 _atom_site_type_symbol
 _atom_site_label
 _atom_site_symmetry_multiplicity
 _atom_site_fract_x
 _atom_site_fract_y
 _atom_site_fract_z
 _atom_site_occupancy
  Re  Re0  1  0.19728711  0.24338890  0.97973006  1
  Re  Re1  1  0.80271289  0.74338890  0.52026994  1
  Re  Re2  1  0.80271289  0.75661110  0.02026994  1
  Re  Re3  1  0.19728711  0.25661110  0.47973006  1
  H  H4  1  0.08348076  0.79041898  0.82045824  1
  H  H5  1  0.91651924  0.29041898  0.67954176  1
  H  H6  1  0.91651924  0.20958102  0.17954176  1
  H  H7  1  0.08348076  0.70958102  0.32045824  1
  H  H8  1  0.20042335  0.68106542  0.83026621  1
  H  H9  1  0.79957665  0.18106542  0.66973379  1
  H  H10  1  0.79957665  0.31893458  0.16973379  1
  H  H11  1  0.20042335  0.81893458  0.33026621  1
  H  H12  1  0.00564716  0.90800865  0.68933172  1
  H  H13  1  0.99435284  0.40800865  0.81066828  1
  H  H14  1  0.99435284  0.09199135  0.31066828  1
  H  H15  1  0.00564716  0.59199135  0.18933172  1
  H  H16  1  0.07406690  0.92243168  0.61169804  1
  H  H17  1  0.92593310  0.42243168  0.88830196  1
  H  H18  1  0.92593310  0.07756832  0.38830196  1
  H  H19  1  0.07406690  0.57756832  0.11169804  1
  H  H20  1  0.53976438  0.90228894  0.90229116  1
  H  H21  1  0.46023562  0.40228894  0.59770884  1
  H  H22  1  0.46023562  0.09771106  0.09770884  1
  H  H23  1  0.53976438  0.59771106  0.40229116  1
  H  H24  1  0.51101487  0.66374110  0.88571119  1
  H  H25  1  0.48898513  0.16374110  0.61428881  1
  H  H26  1  0.48898513  0.33625890  0.11428881  1
  H  H27  1  0.51101487  0.83625890  0.38571119  1
  H  H28  1  0.43226882  0.12518923  0.81588082  1
  H  H29  1  0.56773118  0.62518923  0.68411918  1
  H  H30  1  0.56773118  0.87481077  0.18411918  1
  H  H31  1  0.43226882  0.37481077  0.31588082  1
  H  H32  1  0.33838995  0.03482544  0.73667479  1
  H  H33  1  0.66161005  0.53482544  0.76332521  1
  H  H34  1  0.66161005  0.96517456  0.26332521  1
  H  H35  1  0.33838995  0.46517456  0.23667479  1
  H  H36  1  0.37582941  0.39454971  0.93595269  1
  H  H37  1  0.62417059  0.89454971  0.56404731  1
  H  H38  1  0.62417059  0.60545029  0.06404731  1
  H  H39  1  0.37582941  0.10545029  0.43595269  1
  H  H40  1  0.36578520  0.51436115  0.01326070  1
  H  H41  1  0.63421480  0.01436115  0.48673930  1
  H  H42  1  0.63421480  0.48563885  0.98673930  1
  H  H43  1  0.36578520  0.98563885  0.51326070  1
  H  H44  1  0.08474081  0.34031111  0.65137976  1
  H  H45  1  0.91525919  0.84031111  0.84862024  1
  H  H46  1  0.91525919  0.65968889  0.34862024  1
  H  H47  1  0.08474081  0.15968889  0.15137976  1
  H  H48  1  0.99939199  0.45903948  0.60151915  1
  H  H49  1  0.00060801  0.95903948  0.89848085  1
  H  H50  1  0.00060801  0.54096052  0.39848085  1
  H  H51  1  0.99939199  0.04096052  0.10151915  1
  C  C52  1  0.14562868  0.80131336  0.71947556  1
  C  C53  1  0.85437132  0.30131336  0.78052444  1
  C  C54  1  0.85437132  0.19868664  0.28052444  1
  C  C55  1  0.14562868  0.69868664  0.21947556  1
  C  C56  1  0.41995068  0.84148256  0.81008433  1
  C  C57  1  0.58004932  0.34148256  0.68991567  1
  C  C58  1  0.58004932  0.15851744  0.18991567  1
  C  C59  1  0.41995068  0.65851744  0.31008433  1
  S  S60  1  0.24763006  0.75192465  0.67212394  1
  S  S61  1  0.75236994  0.25192465  0.82787606  1
  S  S62  1  0.75236994  0.24807535  0.32787606  1
  S  S63  1  0.24763006  0.74807535  0.17212394  1
  S  S64  1  0.35152051  0.64149414  0.76479427  1
  S  S65  1  0.64847949  0.14149414  0.73520573  1
  S  S66  1  0.64847949  0.35850586  0.23520573  1
  S  S67  1  0.35152051  0.85850586  0.26479427  1
  N  N68  1  0.14402232  0.75459538  0.79553263  1
  N  N69  1  0.85597768  0.25459538  0.70446737  1
  N  N70  1  0.85597768  0.24540462  0.20446737  1
  N  N71  1  0.14402232  0.74540462  0.29553263  1
  N  N72  1  0.07088981  0.88736463  0.67087142  1
  N  N73  1  0.92911019  0.38736463  0.82912858  1
  N  N74  1  0.92911019  0.11263537  0.32912858  1
  N  N75  1  0.07088981  0.61263537  0.17087142  1
  N  N76  1  0.49528975  0.80122604  0.87050207  1
  N  N77  1  0.50471025  0.30122604  0.62949793  1
  N  N78  1  0.50471025  0.19877396  0.12949793  1
  N  N79  1  0.49528975  0.69877396  0.37050207  1
  N  N80  1  0.39542345  0.01200209  0.78536782  1
  N  N81  1  0.60457655  0.51200209  0.71463218  1
  N  N82  1  0.60457655  0.98799791  0.21463218  1
  N  N83  1  0.39542345  0.48799791  0.28536782  1
  Cl  Cl84  1  0.25068901  0.26102832  0.12509462  1
  Cl  Cl85  1  0.74931099  0.76102832  0.37490538  1
  Cl  Cl86  1  0.74931099  0.73897168  0.87490538  1
  Cl  Cl87  1  0.25068901  0.23897168  0.62509462  1
  Cl  Cl88  1  0.18281156  0.26612352  0.83554857  1
  Cl  Cl89  1  0.81718844  0.76612352  0.66445143  1
  Cl  Cl90  1  0.81718844  0.73387648  0.16445143  1
  Cl  Cl91  1  0.18281156  0.23387648  0.33554857  1
  Cl  Cl92  1  0.12417805  0.54392984  0.98213525  1
  Cl  Cl93  1  0.87582195  0.04392984  0.51786475  1
  Cl  Cl94  1  0.87582195  0.45607016  0.01786475  1
  Cl  Cl95  1  0.12417805  0.95607016  0.48213525  1
  Cl  Cl96  1  0.31481478  0.00521548  0.98184722  1
  Cl  Cl97  1  0.68518522  0.50521548  0.51815278  1
  Cl  Cl98  1  0.68518522  0.99478452  0.01815278  1
  Cl  Cl99  1  0.31481478  0.49478452  0.48184722  1
  Cl  Cl100  1  0.51326171  0.35177542  0.89373509  1
  Cl  Cl101  1  0.48673829  0.85177542  0.60626491  1
  Cl  Cl102  1  0.48673829  0.64822458  0.10626491  1
  Cl  Cl103  1  0.51326171  0.14822458  0.39373509  1
  O  O104  1  0.09452911  0.11281795  0.97855158  1
  O  O105  1  0.90547089  0.61281795  0.52144842  1
  O  O106  1  0.90547089  0.88718205  0.02144842  1
  O  O107  1  0.09452911  0.38718205  0.47855158  1
  O  O108  1  0.32697704  0.43751856  0.96843291  1
  O  O109  1  0.67302296  0.93751856  0.53156709  1
  O  O110  1  0.67302296  0.56248144  0.03156709  1
  O  O111  1  0.32697704  0.06248144  0.46843291  1
  O  O112  1  0.02137861  0.39796952  0.65461740  1
  O  O113  1  0.97862139  0.89796952  0.84538260  1
  O  O114  1  0.97862139  0.60203048  0.34538260  1
  O  O115  1  0.02137861  0.10203048  0.15461740  1
