# generated using pymatgen
data_YbRhO3
_symmetry_space_group_name_H-M   'P 1'
_cell_length_a   5.27023701
_cell_length_b   5.64609088
_cell_length_c   7.60758180
_cell_angle_alpha   90.00000000
_cell_angle_beta   90.00000000
_cell_angle_gamma   90.00000000
_symmetry_Int_Tables_number   1
_chemical_formula_structural   YbRhO3
_chemical_formula_sum   'Yb4 Rh4 O12'
_cell_volume   226.37300793
_cell_formula_units_Z   4
loop_
 _symmetry_equiv_pos_site_id
 _symmetry_equiv_pos_as_xyz
  1  'x, y, z'
loop_
 _atom_site_type_symbol
 _atom_site_label
 _atom_site_symmetry_multiplicity
 _atom_site_fract_x
 _atom_site_fract_y
 _atom_site_fract_z
 _atom_site_occupancy
  Yb  Yb0  1  0.02219488  0.42739833  0.25000000  1
  Yb  Yb1  1  0.97780512  0.57260167  0.75000000  1
  Yb  Yb2  1  0.52219488  0.07260167  0.75000000  1
  Yb  Yb3  1  0.47780512  0.92739833  0.25000000  1
  Rh  Rh4  1  0.00000000  0.00000000  -0.00000000  1
  Rh  Rh5  1  0.50000000  0.50000000  -0.00000000  1
  Rh  Rh6  1  0.00000000  0.00000000  0.50000000  1
  Rh  Rh7  1  0.50000000  0.50000000  0.50000000  1
  O  O8  1  0.31313538  0.19462142  0.05600916  1
  O  O9  1  0.68686462  0.80537858  0.94399084  1
  O  O10  1  0.81313538  0.30537858  0.94399084  1
  O  O11  1  0.68686462  0.80537858  0.55600916  1
  O  O12  1  0.18686462  0.69462142  0.05600916  1
  O  O13  1  0.31313538  0.19462142  0.44399084  1
  O  O14  1  0.18686462  0.69462142  0.44399084  1
  O  O15  1  0.81313538  0.30537858  0.55600916  1
  O  O16  1  0.61318637  0.53976938  0.25000000  1
  O  O17  1  0.38681363  0.46023062  0.75000000  1
  O  O18  1  0.11318637  0.96023062  0.75000000  1
  O  O19  1  0.88681363  0.03976938  0.25000000  1
