# generated using pymatgen
data_Yb5(Si5Ir2)2
_symmetry_space_group_name_H-M   'P 1'
_cell_length_a   4.30154386
_cell_length_b   12.62069847
_cell_length_c   12.62069847
_cell_angle_alpha   90.00000000
_cell_angle_beta   90.00000000
_cell_angle_gamma   90.00000000
_symmetry_Int_Tables_number   1
_chemical_formula_structural   Yb5(Si5Ir2)2
_chemical_formula_sum   'Yb10 Si20 Ir8'
_cell_volume   685.15863760
_cell_formula_units_Z   2
loop_
 _symmetry_equiv_pos_site_id
 _symmetry_equiv_pos_as_xyz
  1  'x, y, z'
loop_
 _atom_site_type_symbol
 _atom_site_label
 _atom_site_symmetry_multiplicity
 _atom_site_fract_x
 _atom_site_fract_y
 _atom_site_fract_z
 _atom_site_occupancy
  Yb  Yb0  1  0.50000000  0.61307487  0.11307487  1
  Yb  Yb1  1  0.50000000  0.38692513  0.88692513  1
  Yb  Yb2  1  0.50000000  0.88692513  0.61307487  1
  Yb  Yb3  1  0.50000000  0.11307487  0.38692513  1
  Yb  Yb4  1  0.50000000  0.17338597  0.67338597  1
  Yb  Yb5  1  0.50000000  0.82661403  0.32661403  1
  Yb  Yb6  1  0.50000000  0.32661403  0.17338597  1
  Yb  Yb7  1  0.50000000  0.67338597  0.82661403  1
  Yb  Yb8  1  0.00000000  -0.00000000  -0.00000000  1
  Yb  Yb9  1  0.00000000  0.50000000  0.50000000  1
  Si  Si10  1  0.00000000  0.06664533  0.56664533  1
  Si  Si11  1  -0.00000000  0.93335467  0.43335467  1
  Si  Si12  1  -0.00000000  0.43335467  0.06664533  1
  Si  Si13  1  0.00000000  0.56664533  0.93335467  1
  Si  Si14  1  0.00000000  0.16329271  0.19723274  1
  Si  Si15  1  -0.00000000  0.83670729  0.80276726  1
  Si  Si16  1  -0.00000000  0.80276726  0.16329271  1
  Si  Si17  1  0.00000000  0.33670729  0.69723274  1
  Si  Si18  1  0.00000000  0.19723274  0.83670729  1
  Si  Si19  1  -0.00000000  0.66329271  0.30276726  1
  Si  Si20  1  0.00000000  0.69723274  0.66329271  1
  Si  Si21  1  -0.00000000  0.30276726  0.33670729  1
  Si  Si22  1  0.50000000  0.15149730  0.00308114  1
  Si  Si23  1  0.50000000  0.84850270  0.99691886  1
  Si  Si24  1  0.50000000  0.99691886  0.15149730  1
  Si  Si25  1  0.50000000  0.34850270  0.50308114  1
  Si  Si26  1  0.50000000  0.00308114  0.84850270  1
  Si  Si27  1  0.50000000  0.65149730  0.49691886  1
  Si  Si28  1  0.50000000  0.50308114  0.65149730  1
  Si  Si29  1  0.50000000  0.49691886  0.34850270  1
  Ir  Ir30  1  0.00000000  0.24544414  0.01791598  1
  Ir  Ir31  1  -0.00000000  0.75455586  0.98208402  1
  Ir  Ir32  1  -0.00000000  0.98208402  0.24544414  1
  Ir  Ir33  1  0.00000000  0.25455586  0.51791598  1
  Ir  Ir34  1  0.00000000  0.01791598  0.75455586  1
  Ir  Ir35  1  -0.00000000  0.74544414  0.48208402  1
  Ir  Ir36  1  0.00000000  0.51791598  0.74544414  1
  Ir  Ir37  1  -0.00000000  0.48208402  0.25455586  1
