# generated using pymatgen
data_Rb14Na3Al17Si31O96
_symmetry_space_group_name_H-M   'P 1'
_cell_length_a   17.86837793
_cell_length_b   17.60675411
_cell_length_c   17.69619561
_cell_angle_alpha   60.75125334
_cell_angle_beta   60.48014597
_cell_angle_gamma   60.58391010
_symmetry_Int_Tables_number   1
_chemical_formula_structural   Rb14Na3Al17Si31O96
_chemical_formula_sum   'Rb14 Na3 Al17 Si31 O96'
_cell_volume   3990.42625953
_cell_formula_units_Z   1
loop_
 _symmetry_equiv_pos_site_id
 _symmetry_equiv_pos_as_xyz
  1  'x, y, z'
loop_
 _atom_site_type_symbol
 _atom_site_label
 _atom_site_symmetry_multiplicity
 _atom_site_fract_x
 _atom_site_fract_y
 _atom_site_fract_z
 _atom_site_occupancy
  Rb  Rb0  1  0.24992294  0.25693152  0.25653241  1
  Rb  Rb1  1  0.26103570  0.24985184  0.73456138  1
  Rb  Rb2  1  0.26338100  0.73814669  0.25421726  1
  Rb  Rb3  1  0.74328059  0.26372198  0.26526655  1
  Rb  Rb4  1  0.27493725  0.73977519  0.73841364  1
  Rb  Rb5  1  0.74227627  0.75226145  0.25369852  1
  Rb  Rb6  1  0.74297060  0.25662491  0.75327907  1
  Rb  Rb7  1  0.68500857  0.97732437  0.41326715  1
  Rb  Rb8  1  0.68538591  0.41674188  0.97929544  1
  Rb  Rb9  1  0.96198692  0.69968026  0.40732012  1
  Rb  Rb10  1  0.96289558  0.40947265  0.70290037  1
  Rb  Rb11  1  0.74346841  0.75186693  0.75316781  1
  Rb  Rb12  1  0.89429246  0.91205168  0.73898727  1
  Rb  Rb13  1  0.90269796  0.93383539  0.94678765  1
  Na  Na14  1  0.00181071  0.01452369  0.47795576  1
  Na  Na15  1  0.97408162  0.52771096  0.00736460  1
  Na  Na16  1  0.56897292  0.97755258  0.97676427  1
  Al  Al17  1  0.21958427  0.85086529  0.39955877  1
  Al  Al18  1  0.85507883  0.21742090  0.40081533  1
  Al  Al19  1  0.85451186  0.40131394  0.21599646  1
  Al  Al20  1  0.59771210  0.15391673  0.96928044  1
  Al  Al21  1  0.59711423  0.97085382  0.15299110  1
  Al  Al22  1  0.77662872  0.15355161  0.96543881  1
  Al  Al23  1  0.77604968  0.96602088  0.15364883  1
  Al  Al24  1  0.96420715  0.15037326  0.60250934  1
  Al  Al25  1  0.96492520  0.60116665  0.15138994  1
  Al  Al26  1  0.96415306  0.14736879  0.78294759  1
  Al  Al27  1  0.96378247  0.78257764  0.14790717  1
  Al  Al28  1  0.59950859  0.78038885  0.96505836  1
  Al  Al29  1  0.59811541  0.96793044  0.77821240  1
  Al  Al30  1  0.78204028  0.60325427  0.96138767  1
  Al  Al31  1  0.78119346  0.96227918  0.60075233  1
  Al  Al32  1  0.96961904  0.59938926  0.77824225  1
  Al  Al33  1  0.96937399  0.77754973  0.60006542  1
  Si  Si34  1  0.03476070  0.39168477  0.21022114  1
  Si  Si35  1  0.03491477  0.21213621  0.39216698  1
  Si  Si36  1  0.21285370  0.39623219  0.03429311  1
  Si  Si37  1  0.21006891  0.03374458  0.39947287  1
  Si  Si38  1  0.38685621  0.03652301  0.21669478  1
  Si  Si39  1  0.38721562  0.21487003  0.03824082  1
  Si  Si40  1  0.03611287  0.86729588  0.20556783  1
  Si  Si41  1  0.03740707  0.20470135  0.86776549  1
  Si  Si42  1  0.04074178  0.38843281  0.86345835  1
  Si  Si43  1  0.03860210  0.86070895  0.38964927  1
  Si  Si44  1  0.21419956  0.03003184  0.85734460  1
  Si  Si45  1  0.21413107  0.85664008  0.03204368  1
  Si  Si46  1  0.38690856  0.03609690  0.85924084  1
  Si  Si47  1  0.38861613  0.86058091  0.03334897  1
  Si  Si48  1  0.14478158  0.60226657  0.78701239  1
  Si  Si49  1  0.14700990  0.78099378  0.60602551  1
  Si  Si50  1  0.21853027  0.39636409  0.85524483  1
  Si  Si51  1  0.39227448  0.21452949  0.85855578  1
  Si  Si52  1  0.39546638  0.85659765  0.21285515  1
  Si  Si53  1  0.14438344  0.60373429  0.96668118  1
  Si  Si54  1  0.14378654  0.96467634  0.60551519  1
  Si  Si55  1  0.86524536  0.03364759  0.20896593  1
  Si  Si56  1  0.86522096  0.20924490  0.03324712  1
  Si  Si57  1  0.14453138  0.78368228  0.96422309  1
  Si  Si58  1  0.14363599  0.96315106  0.78482269  1
  Si  Si59  1  0.86486743  0.03092171  0.39257337  1
  Si  Si60  1  0.86516180  0.39269430  0.03191202  1
  Si  Si61  1  0.59903013  0.14691952  0.78543345  1
  Si  Si62  1  0.60188530  0.78706709  0.14188712  1
  Si  Si63  1  0.78103312  0.14446437  0.60845755  1
  Si  Si64  1  0.78228228  0.60851110  0.14168278  1
  O  O65  1  0.99866005  0.22456401  0.48954412  1
  O  O66  1  0.04253044  0.60541528  0.03369622  1
  O  O67  1  0.04065601  0.03145964  0.60914672  1
  O  O68  1  0.04599622  0.30720004  0.30609802  1
  O  O69  1  0.14183687  0.36891501  0.13698016  1
  O  O70  1  0.14216514  0.14030545  0.37374381  1
  O  O71  1  0.04196035  0.03113848  0.81375621  1
  O  O72  1  0.04282413  0.81172406  0.03225480  1
  O  O73  1  0.21762453  0.49982214  0.99967799  1
  O  O74  1  0.21664293  0.99957147  0.50266542  1
  O  O75  1  0.00005102  0.22160088  0.79282251  1
  O  O76  1  0.99895094  0.79243347  0.22108306  1
  O  O77  1  0.30828246  0.03900833  0.31899446  1
  O  O78  1  0.31043259  0.31824346  0.04060406  1
  O  O79  1  0.35448495  0.14196959  0.14283153  1
  O  O80  1  0.21690331  0.99507579  0.78534532  1
  O  O81  1  0.21698696  0.78463688  0.99638481  1
  O  O82  1  0.48246872  0.22349266  0.00907253  1
  O  O83  1  0.04110233  0.83967168  0.30654969  1
  O  O84  1  0.04930732  0.30320723  0.84068544  1
  O  O85  1  0.14187272  0.13373492  0.85280112  1
  O  O86  1  0.14118597  0.85260014  0.13522530  1
  O  O87  1  0.00635244  0.48027520  0.78525467  1
  O  O88  1  0.99683636  0.78740236  0.48358363  1
  O  O89  1  0.60400158  0.03989965  0.03873314  1
  O  O90  1  0.31010779  0.04310877  0.82658503  1
  O  O91  1  0.31049982  0.82779576  0.04250341  1
  O  O92  1  0.14225514  0.84390496  0.37117582  1
  O  O93  1  0.14628786  0.36880140  0.84986171  1
  O  O94  1  0.04556982  0.59719405  0.82046489  1
  O  O95  1  0.04454879  0.81421387  0.60675359  1
  O  O96  1  0.80283883  0.04746153  0.04730777  1
  O  O97  1  0.22255704  0.49905201  0.78253308  1
  O  O98  1  0.22453780  0.77273788  0.50891809  1
  O  O99  1  0.18339234  0.39522140  0.96012455  1
  O  O100  1  0.17256558  0.96421840  0.40387748  1
  O  O101  1  0.17341160  0.68187293  0.68877262  1
  O  O102  1  0.36495544  0.85682888  0.13768468  1
  O  O103  1  0.35962886  0.14316076  0.85541880  1
  O  O104  1  0.32308646  0.82397434  0.31277008  1
  O  O105  1  0.31761970  0.31837664  0.82681205  1
  O  O106  1  0.15347532  0.85618708  0.63304490  1
  O  O107  1  0.15602811  0.62686792  0.85941598  1
  O  O108  1  0.48442202  0.78831766  0.99961119  1
  O  O109  1  0.48277137  0.00638433  0.78516921  1
  O  O110  1  0.79262741  0.23139454  0.99097148  1
  O  O111  1  0.38177479  0.18617208  0.96501082  1
  O  O112  1  0.38668995  0.96400701  0.18339652  1
  O  O113  1  0.84925895  0.14040275  0.13978483  1
  O  O114  1  0.84394012  0.03570678  0.30938617  1
  O  O115  1  0.84491603  0.31013541  0.03368538  1
  O  O116  1  0.49226435  0.21765132  0.78367601  1
  O  O117  1  0.49705368  0.78259737  0.21217985  1
  O  O118  1  0.17868108  0.95514729  0.68254484  1
  O  O119  1  0.18010912  0.68067973  0.95604379  1
  O  O120  1  0.15508296  0.85515323  0.85670724  1
  O  O121  1  0.79452964  0.48541897  0.98638165  1
  O  O122  1  0.59743779  0.04406919  0.81893112  1
  O  O123  1  0.59996610  0.82156356  0.03949684  1
  O  O124  1  0.48206080  0.01119167  0.22360332  1
  O  O125  1  0.84703478  0.13419307  0.37912095  1
  O  O126  1  0.84797473  0.37446941  0.13579426  1
  O  O127  1  0.67959184  0.68617967  0.16722681  1
  O  O128  1  0.67668959  0.17241248  0.68413246  1
  O  O129  1  0.61797814  0.16210970  0.85606518  1
  O  O130  1  0.62020627  0.85786944  0.15810074  1
  O  O131  1  0.82515447  0.31886246  0.31840780  1
  O  O132  1  0.81486615  0.04095057  0.60390410  1
  O  O133  1  0.81831902  0.60242970  0.03916055  1
  O  O134  1  0.77946014  0.22216050  0.51010806  1
  O  O135  1  0.77646077  0.51035145  0.21949652  1
  O  O136  1  0.18615997  0.96065953  0.96146675  1
  O  O137  1  0.66964657  0.20311902  0.95443776  1
  O  O138  1  0.66885744  0.95576302  0.20243058  1
  O  O139  1  0.85464128  0.14131167  0.64117937  1
  O  O140  1  0.85709641  0.63545560  0.14363270  1
  O  O141  1  0.97221077  0.16985139  0.39228315  1
  O  O142  1  0.97073881  0.39539799  0.16785057  1
  O  O143  1  0.37256017  0.96960457  0.96683484  1
  O  O144  1  0.00454118  0.48801844  0.22263875  1
  O  O145  1  0.85679204  0.14632363  0.85773810  1
  O  O146  1  0.85693313  0.85830211  0.14556444  1
  O  O147  1  0.96642596  0.67071227  0.19226712  1
  O  O148  1  0.96760883  0.19101719  0.67116095  1
  O  O149  1  0.79234103  0.99120592  0.23133436  1
  O  O150  1  0.62645300  0.86052386  0.85743938  1
  O  O151  1  0.67131007  0.66969662  0.96501404  1
  O  O152  1  0.67086137  0.96566713  0.66848685  1
  O  O153  1  0.79511318  0.98308935  0.48514870  1
  O  O154  1  0.97317594  0.97380633  0.17032354  1
  O  O155  1  0.97344181  0.17094333  0.97339997  1
  O  O156  1  0.86208575  0.85544336  0.63577108  1
  O  O157  1  0.86097757  0.63095081  0.85230590  1
  O  O158  1  0.97971275  0.66345726  0.66458604  1
  O  O159  1  0.97325367  0.96821272  0.38688393  1
  O  O160  1  0.97413746  0.38689829  0.96837879  1
