# generated using pymatgen
data_YbSi3Pd5
_symmetry_space_group_name_H-M   'P 1'
_cell_length_a   4.01056097
_cell_length_b   19.78065063
_cell_length_c   7.28636984
_cell_angle_alpha   90.00000000
_cell_angle_beta   90.00000000
_cell_angle_gamma   90.00000000
_symmetry_Int_Tables_number   1
_chemical_formula_structural   YbSi3Pd5
_chemical_formula_sum   'Yb4 Si12 Pd20'
_cell_volume   578.03868815
_cell_formula_units_Z   4
loop_
 _symmetry_equiv_pos_site_id
 _symmetry_equiv_pos_as_xyz
  1  'x, y, z'
loop_
 _atom_site_type_symbol
 _atom_site_label
 _atom_site_symmetry_multiplicity
 _atom_site_fract_x
 _atom_site_fract_y
 _atom_site_fract_z
 _atom_site_occupancy
  Yb  Yb0  1  0.75000000  0.64251156  0.12014130  1
  Yb  Yb1  1  0.25000000  0.35748844  0.87985870  1
  Yb  Yb2  1  0.25000000  0.85748844  0.62014130  1
  Yb  Yb3  1  0.75000000  0.14251156  0.37985870  1
  Si  Si4  1  0.75000000  0.73965068  0.62337467  1
  Si  Si5  1  0.25000000  0.26034932  0.37662533  1
  Si  Si6  1  0.25000000  0.76034932  0.12337467  1
  Si  Si7  1  0.75000000  0.23965068  0.87662533  1
  Si  Si8  1  0.75000000  0.92433357  0.34757310  1
  Si  Si9  1  0.25000000  0.07566643  0.65242690  1
  Si  Si10  1  0.25000000  0.57566643  0.84757310  1
  Si  Si11  1  0.75000000  0.42433357  0.15242690  1
  Si  Si12  1  0.75000000  0.91543786  0.90806309  1
  Si  Si13  1  0.25000000  0.08456214  0.09193691  1
  Si  Si14  1  0.25000000  0.58456214  0.40806309  1
  Si  Si15  1  0.75000000  0.41543786  0.59193691  1
  Pd  Pd16  1  0.75000000  0.80014702  0.32374119  1
  Pd  Pd17  1  0.25000000  0.19985298  0.67625881  1
  Pd  Pd18  1  0.25000000  0.69985298  0.82374119  1
  Pd  Pd19  1  0.75000000  0.30014702  0.17625881  1
  Pd  Pd20  1  0.75000000  0.99180736  0.62629899  1
  Pd  Pd21  1  0.25000000  0.00819264  0.37370101  1
  Pd  Pd22  1  0.25000000  0.50819264  0.12629899  1
  Pd  Pd23  1  0.75000000  0.49180736  0.87370101  1
  Pd  Pd24  1  0.75000000  0.51423253  0.37858148  1
  Pd  Pd25  1  0.25000000  0.48576747  0.62141852  1
  Pd  Pd26  1  0.25000000  0.98576747  0.87858148  1
  Pd  Pd27  1  0.75000000  0.01423253  0.12141852  1
  Pd  Pd28  1  0.75000000  0.79594375  0.92673275  1
  Pd  Pd29  1  0.25000000  0.20405625  0.07326725  1
  Pd  Pd30  1  0.25000000  0.70405625  0.42673275  1
  Pd  Pd31  1  0.75000000  0.29594375  0.57326725  1
  Pd  Pd32  1  0.75000000  0.61666850  0.65054859  1
  Pd  Pd33  1  0.25000000  0.38333150  0.34945141  1
  Pd  Pd34  1  0.25000000  0.88333150  0.15054859  1
  Pd  Pd35  1  0.75000000  0.11666850  0.84945141  1
