# generated using pymatgen
data_YGePd2
_symmetry_space_group_name_H-M   'P 1'
_cell_length_a   5.61253631
_cell_length_b   7.13598512
_cell_length_c   7.45014023
_cell_angle_alpha   90.00000000
_cell_angle_beta   90.00000000
_cell_angle_gamma   90.00000000
_symmetry_Int_Tables_number   1
_chemical_formula_structural   YGePd2
_chemical_formula_sum   'Y4 Ge4 Pd8'
_cell_volume   298.38538452
_cell_formula_units_Z   4
loop_
 _symmetry_equiv_pos_site_id
 _symmetry_equiv_pos_as_xyz
  1  'x, y, z'
loop_
 _atom_site_type_symbol
 _atom_site_label
 _atom_site_symmetry_multiplicity
 _atom_site_fract_x
 _atom_site_fract_y
 _atom_site_fract_z
 _atom_site_occupancy
  Y  Y0  1  0.35458014  0.75000000  0.97244245  1
  Y  Y1  1  0.64541986  0.25000000  0.02755755  1
  Y  Y2  1  0.85458014  0.25000000  0.52755755  1
  Y  Y3  1  0.14541986  0.75000000  0.47244245  1
  Ge  Ge4  1  0.64442930  0.75000000  0.62289623  1
  Ge  Ge5  1  0.35557070  0.25000000  0.37710377  1
  Ge  Ge6  1  0.14442930  0.25000000  0.87710377  1
  Ge  Ge7  1  0.85557070  0.75000000  0.12289623  1
  Pd  Pd8  1  0.90951840  0.94810697  0.82114028  1
  Pd  Pd9  1  0.09048160  0.05189303  0.17885972  1
  Pd  Pd10  1  0.40951840  0.05189303  0.67885972  1
  Pd  Pd11  1  0.09048160  0.44810697  0.17885972  1
  Pd  Pd12  1  0.59048160  0.94810697  0.32114028  1
  Pd  Pd13  1  0.90951840  0.55189303  0.82114028  1
  Pd  Pd14  1  0.59048160  0.55189303  0.32114028  1
  Pd  Pd15  1  0.40951840  0.44810697  0.67885972  1
