# generated using pymatgen
data_YbVO2
_symmetry_space_group_name_H-M   'P 1'
_cell_length_a   6.45282194
_cell_length_b   6.45282194
_cell_length_c   6.44933425
_cell_angle_alpha   120.01788866
_cell_angle_beta   120.01788866
_cell_angle_gamma   90.00000000
_symmetry_Int_Tables_number   1
_chemical_formula_structural   YbVO2
_chemical_formula_sum   'Yb4 V4 O8'
_cell_volume   189.78602321
_cell_formula_units_Z   4
loop_
 _symmetry_equiv_pos_site_id
 _symmetry_equiv_pos_as_xyz
  1  'x, y, z'
loop_
 _atom_site_type_symbol
 _atom_site_label
 _atom_site_symmetry_multiplicity
 _atom_site_fract_x
 _atom_site_fract_y
 _atom_site_fract_z
 _atom_site_occupancy
  Yb  Yb0  1  0.62500000  0.87500000  0.25000000  1
  Yb  Yb1  1  0.62500000  0.37500000  0.25000000  1
  Yb  Yb2  1  0.62500000  0.37500000  0.75000000  1
  Yb  Yb3  1  0.12500000  0.37500000  0.75000000  1
  V  V4  1  0.12500000  0.37500000  0.25000000  1
  V  V5  1  0.12500000  0.87500000  0.25000000  1
  V  V6  1  0.12500000  0.87500000  0.75000000  1
  V  V7  1  0.62500000  0.87500000  0.75000000  1
  O  O8  1  0.35956939  0.12072083  0.24015649  1
  O  O9  1  0.88058710  0.11943566  0.24015649  1
  O  O10  1  0.36943566  0.10956939  0.74015649  1
  O  O11  1  0.89043061  0.62927917  0.25984351  1
  O  O12  1  0.37072083  0.63058710  0.74015649  1
  O  O13  1  0.36941290  0.63056434  0.25984351  1
  O  O14  1  0.88056434  0.64043061  0.75984351  1
  O  O15  1  0.87927917  0.11941290  0.75984351  1
