# generated using pymatgen
data_Zn3Au5
_symmetry_space_group_name_H-M   'P 1'
_cell_length_a   5.64398523
_cell_length_b   11.24730498
_cell_length_c   18.10370844
_cell_angle_alpha   108.09752773
_cell_angle_beta   98.96779222
_cell_angle_gamma   90.00000000
_symmetry_Int_Tables_number   1
_chemical_formula_structural   Zn3Au5
_chemical_formula_sum   'Zn24 Au40'
_cell_volume   1077.57505841
_cell_formula_units_Z   8
loop_
 _symmetry_equiv_pos_site_id
 _symmetry_equiv_pos_as_xyz
  1  'x, y, z'
loop_
 _atom_site_type_symbol
 _atom_site_label
 _atom_site_symmetry_multiplicity
 _atom_site_fract_x
 _atom_site_fract_y
 _atom_site_fract_z
 _atom_site_occupancy
  Zn  Zn0  1  0.40020892  0.32896827  0.37527114  1
  Zn  Zn1  1  0.59979108  0.67103173  0.62472886  1
  Zn  Zn2  1  0.97506221  0.04630286  0.37527114  1
  Zn  Zn3  1  0.09979108  0.45369714  0.62472886  1
  Zn  Zn4  1  0.02493779  0.95369714  0.62472886  1
  Zn  Zn5  1  0.90020892  0.54630286  0.37527114  1
  Zn  Zn6  1  0.52493779  0.17103173  0.62472886  1
  Zn  Zn7  1  0.47506221  0.82896827  0.37527114  1
  Zn  Zn8  1  0.35152946  0.42265123  0.12726036  1
  Zn  Zn9  1  0.64847054  0.57734877  0.87273964  1
  Zn  Zn10  1  0.77573090  0.70460913  0.12726036  1
  Zn  Zn11  1  0.14847054  0.79539087  0.87273964  1
  Zn  Zn12  1  0.22426910  0.29539087  0.87273964  1
  Zn  Zn13  1  0.85152946  0.20460913  0.12726036  1
  Zn  Zn14  1  0.72426910  0.07734877  0.87273964  1
  Zn  Zn15  1  0.27573090  0.92265123  0.12726036  1
  Zn  Zn16  1  0.12460723  0.62460723  0.24921446  1
  Zn  Zn17  1  0.87539277  0.37539277  0.75078554  1
  Zn  Zn18  1  0.37539277  0.87539277  0.75078554  1
  Zn  Zn19  1  0.62460723  0.12460723  0.24921446  1
  Zn  Zn20  1  0.50000000  0.00000000  0.00000000  1
  Zn  Zn21  1  0.00000000  0.50000000  -0.00000000  1
  Zn  Zn22  1  0.75000000  0.25000000  0.50000000  1
  Zn  Zn23  1  0.25000000  0.75000000  0.50000000  1
  Au  Au24  1  0.12529585  0.38307665  0.24993176  1
  Au  Au25  1  0.87470415  0.61692335  0.75006824  1
  Au  Au26  1  0.12463592  0.86685511  0.24993176  1
  Au  Au27  1  0.37470415  0.63314489  0.75006824  1
  Au  Au28  1  0.87536408  0.13314489  0.75006824  1
  Au  Au29  1  0.62529585  0.36685511  0.24993176  1
  Au  Au30  1  0.37536408  0.11692335  0.75006824  1
  Au  Au31  1  0.62463592  0.88307665  0.24993176  1
  Au  Au32  1  0.35076410  0.16476864  0.12259797  1
  Au  Au33  1  0.64923590  0.83523136  0.87740203  1
  Au  Au34  1  0.77183387  0.95782933  0.12259797  1
  Au  Au35  1  0.14923590  0.54217067  0.87740203  1
  Au  Au36  1  0.22816613  0.04217067  0.87740203  1
  Au  Au37  1  0.85076410  0.45782933  0.12259797  1
  Au  Au38  1  0.72816613  0.33523136  0.87740203  1
  Au  Au39  1  0.27183387  0.66476864  0.12259797  1
  Au  Au40  1  0.59849598  0.41516790  0.62542551  1
  Au  Au41  1  0.40150402  0.58483210  0.37457449  1
  Au  Au42  1  0.02692953  0.21025760  0.62542551  1
  Au  Au43  1  0.90150402  0.28974240  0.37457449  1
  Au  Au44  1  0.97307047  0.78974240  0.37457449  1
  Au  Au45  1  0.09849598  0.71025760  0.62542551  1
  Au  Au46  1  0.47307047  0.08483210  0.37457449  1
  Au  Au47  1  0.52692953  0.91516790  0.62542551  1
  Au  Au48  1  0.03858976  0.25696785  1.00000000  1
  Au  Au49  1  0.96141024  0.74303215  0.00000000  1
  Au  Au50  1  0.46141024  0.75696785  1.00000000  1
  Au  Au51  1  0.53858976  0.24303215  0.00000000  1
  Au  Au52  1  0.12482932  0.12482932  0.24965863  1
  Au  Au53  1  0.87517068  0.87517068  0.75034137  1
  Au  Au54  1  0.37517068  0.37517068  0.75034137  1
  Au  Au55  1  0.62482932  0.62482932  0.24965863  1
  Au  Au56  1  0.25000000  0.50776770  0.50000000  1
  Au  Au57  1  0.75000000  0.49223230  0.50000000  1
  Au  Au58  1  0.25000000  0.99223230  0.50000000  1
  Au  Au59  1  0.75000000  0.00776770  0.50000000  1
  Au  Au60  1  0.00000000  -0.00000000  0.00000000  1
  Au  Au61  1  0.50000000  0.50000000  0.00000000  1
  Au  Au62  1  0.25000000  0.25000000  0.50000000  1
  Au  Au63  1  0.75000000  0.75000000  0.50000000  1
