# generated using pymatgen
data_Zr6FeI14
_symmetry_space_group_name_H-M   'P 1'
_cell_length_a   11.09911834
_cell_length_b   11.09911834
_cell_length_c   13.36965260
_cell_angle_alpha   90.00000000
_cell_angle_beta   90.00000000
_cell_angle_gamma   94.69052859
_symmetry_Int_Tables_number   1
_chemical_formula_structural   Zr6FeI14
_chemical_formula_sum   'Zr12 Fe2 I28'
_cell_volume   1641.49724408
_cell_formula_units_Z   2
loop_
 _symmetry_equiv_pos_site_id
 _symmetry_equiv_pos_as_xyz
  1  'x, y, z'
loop_
 _atom_site_type_symbol
 _atom_site_label
 _atom_site_symmetry_multiplicity
 _atom_site_fract_x
 _atom_site_fract_y
 _atom_site_fract_z
 _atom_site_occupancy
  Zr  Zr0  1  0.17515723  0.95475155  0.11200611  1
  Zr  Zr1  1  0.82484277  0.04524845  0.88799389  1
  Zr  Zr2  1  0.32484277  0.54524845  0.61200611  1
  Zr  Zr3  1  0.45475155  0.67515723  0.38799389  1
  Zr  Zr4  1  0.67515723  0.45475155  0.38799389  1
  Zr  Zr5  1  0.54524845  0.32484277  0.61200611  1
  Zr  Zr6  1  0.04524845  0.82484277  0.88799389  1
  Zr  Zr7  1  0.95475155  0.17515723  0.11200611  1
  Zr  Zr8  1  0.36326762  0.36326762  0.39977344  1
  Zr  Zr9  1  0.63673238  0.63673238  0.60022656  1
  Zr  Zr10  1  0.13673238  0.13673238  0.89977344  1
  Zr  Zr11  1  0.86326762  0.86326762  0.10022656  1
  Fe  Fe12  1  0.00000000  -0.00000000  0.00000000  1
  Fe  Fe13  1  0.50000000  0.50000000  0.50000000  1
  I  I14  1  0.53481045  0.28683880  0.25450028  1
  I  I15  1  0.46518955  0.71316120  0.74549972  1
  I  I16  1  0.96518955  0.21316120  0.75450028  1
  I  I17  1  0.78683880  0.03481045  0.24549972  1
  I  I18  1  0.03481045  0.78683880  0.24549972  1
  I  I19  1  0.21316120  0.96518955  0.75450028  1
  I  I20  1  0.71316120  0.46518955  0.74549972  1
  I  I21  1  0.28683880  0.53481045  0.25450028  1
  I  I22  1  0.36031756  0.11368147  0.00962373  1
  I  I23  1  0.63968244  0.88631853  0.99037627  1
  I  I24  1  0.13968244  0.38631853  0.50962373  1
  I  I25  1  0.61368147  0.86031756  0.49037627  1
  I  I26  1  0.86031756  0.61368147  0.49037627  1
  I  I27  1  0.38631853  0.13968244  0.50962373  1
  I  I28  1  0.88631853  0.63968244  0.99037627  1
  I  I29  1  0.11368147  0.36031756  0.00962373  1
  I  I30  1  0.39679659  0.89679659  0.25000000  1
  I  I31  1  0.60320341  0.10320341  0.75000000  1
  I  I32  1  0.10320341  0.60320341  0.75000000  1
  I  I33  1  0.89679659  0.39679659  0.25000000  1
  I  I34  1  0.25043192  0.74956808  0.00000000  1
  I  I35  1  0.74956808  0.25043192  0.00000000  1
  I  I36  1  0.24956808  0.75043192  0.50000000  1
  I  I37  1  0.75043192  0.24956808  0.50000000  1
  I  I38  1  0.14992880  0.14992880  0.26112244  1
  I  I39  1  0.85007120  0.85007120  0.73887756  1
  I  I40  1  0.35007120  0.35007120  0.76112244  1
  I  I41  1  0.64992880  0.64992880  0.23887756  1
