# generated using pymatgen
data_Zr3Tl2(CuS4)2
_symmetry_space_group_name_H-M   'P 1'
_cell_length_a   3.71796846
_cell_length_b   7.50520650
_cell_length_c   12.94508833
_cell_angle_alpha   81.84657999
_cell_angle_beta   81.74346970
_cell_angle_gamma   75.65898041
_symmetry_Int_Tables_number   1
_chemical_formula_structural   Zr3Tl2(CuS4)2
_chemical_formula_sum   'Zr3 Tl2 Cu2 S8'
_cell_volume   344.20450353
_cell_formula_units_Z   1
loop_
 _symmetry_equiv_pos_site_id
 _symmetry_equiv_pos_as_xyz
  1  'x, y, z'
loop_
 _atom_site_type_symbol
 _atom_site_label
 _atom_site_symmetry_multiplicity
 _atom_site_fract_x
 _atom_site_fract_y
 _atom_site_fract_z
 _atom_site_occupancy
  Zr  Zr0  1  0.00000000  -0.00000000  0.00000000  1
  Zr  Zr1  1  0.84525536  0.92805911  0.38143017  1
  Zr  Zr2  1  0.15474464  0.07194089  0.61856983  1
  Tl  Tl3  1  0.82671290  0.54496803  0.80160617  1
  Tl  Tl4  1  0.17328710  0.45503197  0.19839383  1
  Cu  Cu5  1  0.45912368  0.88565224  0.19610041  1
  Cu  Cu6  1  0.54087632  0.11434776  0.80389959  1
  S  S7  1  0.86114357  0.08666510  0.19104776  1
  S  S8  1  0.13885643  0.91333490  0.80895224  1
  S  S9  1  0.79155600  0.83539180  0.58149620  1
  S  S10  1  0.20844400  0.16460820  0.41850380  1
  S  S11  1  0.47728061  0.69443705  0.35100173  1
  S  S12  1  0.52271939  0.30556295  0.64899827  1
  S  S13  1  0.60261651  0.75271540  0.04205158  1
  S  S14  1  0.39738349  0.24728460  0.95794842  1
