# generated using pymatgen
data_Zr5Si3N
_symmetry_space_group_name_H-M   'P 1'
_cell_length_a   5.63446007
_cell_length_b   7.95418961
_cell_length_c   7.95418961
_cell_angle_alpha   119.99999891
_cell_angle_beta   90.00000000
_cell_angle_gamma   90.00000000
_symmetry_Int_Tables_number   1
_chemical_formula_structural   Zr5Si3N
_chemical_formula_sum   'Zr10 Si6 N2'
_cell_volume   308.72714775
_cell_formula_units_Z   2
loop_
 _symmetry_equiv_pos_site_id
 _symmetry_equiv_pos_as_xyz
  1  'x, y, z'
loop_
 _atom_site_type_symbol
 _atom_site_label
 _atom_site_symmetry_multiplicity
 _atom_site_fract_x
 _atom_site_fract_y
 _atom_site_fract_z
 _atom_site_occupancy
  Zr  Zr0  1  0.75000000  0.76590806  0.76590806  1
  Zr  Zr1  1  0.25000000  0.23409194  0.23409194  1
  Zr  Zr2  1  0.75000000  0.00000000  0.23409194  1
  Zr  Zr3  1  0.25000000  1.00000000  0.76590806  1
  Zr  Zr4  1  0.75000000  0.23409194  0.00000000  1
  Zr  Zr5  1  0.25000000  0.76590806  1.00000000  1
  Zr  Zr6  1  0.00000000  0.66666700  0.33333300  1
  Zr  Zr7  1  -0.00000000  0.33333300  0.66666700  1
  Zr  Zr8  1  0.50000000  0.33333300  0.66666700  1
  Zr  Zr9  1  0.50000000  0.66666700  0.33333300  1
  Si  Si10  1  0.75000000  0.40384064  0.40384064  1
  Si  Si11  1  0.25000000  0.59615936  0.59615936  1
  Si  Si12  1  0.75000000  0.00000000  0.59615936  1
  Si  Si13  1  0.25000000  1.00000000  0.40384064  1
  Si  Si14  1  0.75000000  0.59615936  0.00000000  1
  Si  Si15  1  0.25000000  0.40384064  1.00000000  1
  N  N16  1  0.00000000  0.00000000  0.00000000  1
  N  N17  1  0.50000000  0.00000000  0.00000000  1
