# generated using pymatgen
data_Y3Si5N9O
_symmetry_space_group_name_H-M   'P 1'
_cell_length_a   5.01467422
_cell_length_b   10.72286289
_cell_length_c   16.26924621
_cell_angle_alpha   90.00000000
_cell_angle_beta   90.00000000
_cell_angle_gamma   90.00000000
_symmetry_Int_Tables_number   1
_chemical_formula_structural   Y3Si5N9O
_chemical_formula_sum   'Y12 Si20 N36 O4'
_cell_volume   874.82444235
_cell_formula_units_Z   4
loop_
 _symmetry_equiv_pos_site_id
 _symmetry_equiv_pos_as_xyz
  1  'x, y, z'
loop_
 _atom_site_type_symbol
 _atom_site_label
 _atom_site_symmetry_multiplicity
 _atom_site_fract_x
 _atom_site_fract_y
 _atom_site_fract_z
 _atom_site_occupancy
  Y  Y0  1  0.66444332  0.92828090  0.60008176  1
  Y  Y1  1  0.33555668  0.07171910  0.39991824  1
  Y  Y2  1  0.33555668  0.42828090  0.39991824  1
  Y  Y3  1  0.33555668  0.57171910  0.10008176  1
  Y  Y4  1  0.66444332  0.57171910  0.60008176  1
  Y  Y5  1  0.66444332  0.42828090  0.89991824  1
  Y  Y6  1  0.66444332  0.07171910  0.89991824  1
  Y  Y7  1  0.33555668  0.92828090  0.10008176  1
  Y  Y8  1  0.70276088  0.75000000  0.79620239  1
  Y  Y9  1  0.29723912  0.25000000  0.20379761  1
  Y  Y10  1  0.29723912  0.75000000  0.29620239  1
  Y  Y11  1  0.70276088  0.25000000  0.70379761  1
  Si  Si12  1  0.25053058  0.75000000  0.66948892  1
  Si  Si13  1  0.74946942  0.25000000  0.33051108  1
  Si  Si14  1  0.74946942  0.75000000  0.16948892  1
  Si  Si15  1  0.25053058  0.25000000  0.83051108  1
  Si  Si16  1  0.89511170  0.89627390  0.42386064  1
  Si  Si17  1  0.10488830  0.10372610  0.57613936  1
  Si  Si18  1  0.10488830  0.39627390  0.57613936  1
  Si  Si19  1  0.10488830  0.60372610  0.92386064  1
  Si  Si20  1  0.89511170  0.60372610  0.42386064  1
  Si  Si21  1  0.89511170  0.39627390  0.07613936  1
  Si  Si22  1  0.89511170  0.10372610  0.07613936  1
  Si  Si23  1  0.10488830  0.89627390  0.92386064  1
  Si  Si24  1  0.61031827  0.75000000  0.97283353  1
  Si  Si25  1  0.38968173  0.25000000  0.02716647  1
  Si  Si26  1  0.38968173  0.75000000  0.47283353  1
  Si  Si27  1  0.61031827  0.25000000  0.52716647  1
  Si  Si28  1  0.18213614  -0.00000000  0.75000000  1
  Si  Si29  1  0.81786386  0.00000000  0.25000000  1
  Si  Si30  1  0.81786386  0.50000000  0.25000000  1
  Si  Si31  1  0.18213614  0.50000000  0.75000000  1
  N  N32  1  0.97742265  0.94365967  0.82925072  1
  N  N33  1  0.02257735  0.05634033  0.17074928  1
  N  N34  1  0.02257735  0.44365967  0.17074928  1
  N  N35  1  0.02257735  0.55634033  0.32925072  1
  N  N36  1  0.97742265  0.55634033  0.82925072  1
  N  N37  1  0.97742265  0.44365967  0.67074928  1
  N  N38  1  0.97742265  0.05634033  0.67074928  1
  N  N39  1  0.02257735  0.94365967  0.32925072  1
  N  N40  1  0.94119158  0.75000000  0.93715465  1
  N  N41  1  0.05880842  0.25000000  0.06284535  1
  N  N42  1  0.05880842  0.75000000  0.43715465  1
  N  N43  1  0.94119158  0.25000000  0.56284535  1
  N  N44  1  0.40421992  0.75000000  0.57580493  1
  N  N45  1  0.59578008  0.25000000  0.42419507  1
  N  N46  1  0.59578008  0.75000000  0.07580493  1
  N  N47  1  0.40421992  0.25000000  0.92419507  1
  N  N48  1  0.44763957  0.87976209  0.93204017  1
  N  N49  1  0.55236043  0.12023791  0.06795983  1
  N  N50  1  0.55236043  0.37976209  0.06795983  1
  N  N51  1  0.55236043  0.62023791  0.43204017  1
  N  N52  1  0.44763957  0.62023791  0.93204017  1
  N  N53  1  0.44763957  0.37976209  0.56795983  1
  N  N54  1  0.44763957  0.12023791  0.56795983  1
  N  N55  1  0.55236043  0.87976209  0.43204017  1
  N  N56  1  0.00000000  -0.00000000  0.00000000  1
  N  N57  1  0.00000000  0.50000000  0.00000000  1
  N  N58  1  0.00000000  0.50000000  0.50000000  1
  N  N59  1  -0.00000000  0.00000000  0.50000000  1
  N  N60  1  0.38800699  0.87911413  0.71708754  1
  N  N61  1  0.61199301  0.12088587  0.28291246  1
  N  N62  1  0.61199301  0.37911413  0.28291246  1
  N  N63  1  0.61199301  0.62088587  0.21708754  1
  N  N64  1  0.38800699  0.62088587  0.71708754  1
  N  N65  1  0.38800699  0.37911413  0.78291246  1
  N  N66  1  0.38800699  0.12088587  0.78291246  1
  N  N67  1  0.61199301  0.87911413  0.21708754  1
  O  O68  1  0.91659568  0.75000000  0.66650728  1
  O  O69  1  0.08340432  0.25000000  0.33349272  1
  O  O70  1  0.08340432  0.75000000  0.16650728  1
  O  O71  1  0.91659568  0.25000000  0.83349272  1
