# generated using pymatgen
data_Tm3Ru
_symmetry_space_group_name_H-M   'P 1'
_cell_length_a   6.20567059
_cell_length_b   7.24999424
_cell_length_c   9.02195092
_cell_angle_alpha   90.00000000
_cell_angle_beta   90.00000000
_cell_angle_gamma   90.00000000
_symmetry_Int_Tables_number   1
_chemical_formula_structural   Tm3Ru
_chemical_formula_sum   'Tm12 Ru4'
_cell_volume   405.90727981
_cell_formula_units_Z   4
loop_
 _symmetry_equiv_pos_site_id
 _symmetry_equiv_pos_as_xyz
  1  'x, y, z'
loop_
 _atom_site_type_symbol
 _atom_site_label
 _atom_site_symmetry_multiplicity
 _atom_site_fract_x
 _atom_site_fract_y
 _atom_site_fract_z
 _atom_site_occupancy
  Tm  Tm0  1  0.63327960  0.04121286  0.25000000  1
  Tm  Tm1  1  0.36672040  0.95878714  0.75000000  1
  Tm  Tm2  1  0.13327960  0.45878714  0.75000000  1
  Tm  Tm3  1  0.86672040  0.54121286  0.25000000  1
  Tm  Tm4  1  0.16931687  0.17596769  0.06372670  1
  Tm  Tm5  1  0.83068313  0.82403231  0.93627330  1
  Tm  Tm6  1  0.66931687  0.32403231  0.93627330  1
  Tm  Tm7  1  0.83068313  0.82403231  0.56372670  1
  Tm  Tm8  1  0.33068313  0.67596769  0.06372670  1
  Tm  Tm9  1  0.16931687  0.17596769  0.43627330  1
  Tm  Tm10  1  0.33068313  0.67596769  0.43627330  1
  Tm  Tm11  1  0.66931687  0.32403231  0.56372670  1
  Ru  Ru12  1  0.46153173  0.38482336  0.25000000  1
  Ru  Ru13  1  0.53846827  0.61517664  0.75000000  1
  Ru  Ru14  1  0.96153173  0.11517664  0.75000000  1
  Ru  Ru15  1  0.03846827  0.88482336  0.25000000  1
