# generated using pymatgen
data_YAg(WO4)2
_symmetry_space_group_name_H-M   'P 1'
_cell_length_a   7.32978120
_cell_length_b   7.40704036
_cell_length_c   7.40704036
_cell_angle_alpha   94.08185919
_cell_angle_beta   114.26552898
_cell_angle_gamma   114.26552898
_symmetry_Int_Tables_number   1
_chemical_formula_structural   YAg(WO4)2
_chemical_formula_sum   'Y2 Ag2 W4 O16'
_cell_volume   319.97615339
_cell_formula_units_Z   2
loop_
 _symmetry_equiv_pos_site_id
 _symmetry_equiv_pos_as_xyz
  1  'x, y, z'
loop_
 _atom_site_type_symbol
 _atom_site_label
 _atom_site_symmetry_multiplicity
 _atom_site_fract_x
 _atom_site_fract_y
 _atom_site_fract_z
 _atom_site_occupancy
  Y  Y0  1  -0.00000000  0.69874232  0.30125768  1
  Y  Y1  1  -0.00000000  0.30125768  0.69874232  1
  Ag  Ag2  1  0.51741452  0.68310548  0.68310548  1
  Ag  Ag3  1  0.48258548  0.31689452  0.31689452  1
  W  W4  1  0.96877720  0.21148806  0.21148806  1
  W  W5  1  0.03122280  0.78851194  0.78851194  1
  W  W6  1  0.50000000  0.83550669  0.16449331  1
  W  W7  1  0.50000000  0.16449331  0.83550669  1
  O  O8  1  0.75669813  0.35285969  0.10199718  1
  O  O9  1  0.24330187  0.64714031  0.89800282  1
  O  O10  1  0.24330187  0.89800282  0.64714031  1
  O  O11  1  0.75669813  0.10199718  0.35285969  1
  O  O12  1  0.64811877  0.68525538  0.21876852  1
  O  O13  1  0.35188123  0.31474462  0.78123148  1
  O  O14  1  0.35188123  0.78123148  0.31474462  1
  O  O15  1  0.64811877  0.21876852  0.68525538  1
  O  O16  1  0.91327525  0.69855937  0.95878835  1
  O  O17  1  0.08672475  0.30144063  0.04121165  1
  O  O18  1  0.08672475  0.04121165  0.30144063  1
  O  O19  1  0.91327525  0.95878835  0.69855937  1
  O  O20  1  0.65828801  0.97824701  0.97824701  1
  O  O21  1  0.34171199  0.02175299  0.02175299  1
  O  O22  1  0.86411448  0.55598348  0.55598348  1
  O  O23  1  0.13588552  0.44401652  0.44401652  1
