# generated using pymatgen
data_Y4CdNi
_symmetry_space_group_name_H-M   'P 1'
_cell_length_a   9.62783138
_cell_length_b   9.62783138
_cell_length_c   9.62783138
_cell_angle_alpha   60.00000000
_cell_angle_beta   60.00000000
_cell_angle_gamma   60.00000000
_symmetry_Int_Tables_number   1
_chemical_formula_structural   Y4CdNi
_chemical_formula_sum   'Y16 Cd4 Ni4'
_cell_volume   631.05967481
_cell_formula_units_Z   4
loop_
 _symmetry_equiv_pos_site_id
 _symmetry_equiv_pos_as_xyz
  1  'x, y, z'
loop_
 _atom_site_type_symbol
 _atom_site_label
 _atom_site_symmetry_multiplicity
 _atom_site_fract_x
 _atom_site_fract_y
 _atom_site_fract_z
 _atom_site_occupancy
  Y  Y0  1  0.65068404  0.65068404  0.65068404  1
  Y  Y1  1  0.04794787  0.65068404  0.65068404  1
  Y  Y2  1  0.65068404  0.04794787  0.65068404  1
  Y  Y3  1  0.65068404  0.65068404  0.04794787  1
  Y  Y4  1  0.81072443  0.81072443  0.18927557  1
  Y  Y5  1  0.18927557  0.18927557  0.81072443  1
  Y  Y6  1  0.81072443  0.18927557  0.81072443  1
  Y  Y7  1  0.18927557  0.81072443  0.18927557  1
  Y  Y8  1  0.18927557  0.81072443  0.81072443  1
  Y  Y9  1  0.81072443  0.18927557  0.18927557  1
  Y  Y10  1  0.43670872  0.43670872  0.06329128  1
  Y  Y11  1  0.06329128  0.06329128  0.43670872  1
  Y  Y12  1  0.43670872  0.06329128  0.43670872  1
  Y  Y13  1  0.06329128  0.43670872  0.06329128  1
  Y  Y14  1  0.06329128  0.43670872  0.43670872  1
  Y  Y15  1  0.43670872  0.06329128  0.06329128  1
  Cd  Cd16  1  0.41839250  0.41839250  0.41839250  1
  Cd  Cd17  1  0.74482249  0.41839250  0.41839250  1
  Cd  Cd18  1  0.41839250  0.74482249  0.41839250  1
  Cd  Cd19  1  0.41839250  0.41839250  0.74482249  1
  Ni  Ni20  1  0.85752831  0.85752831  0.85752831  1
  Ni  Ni21  1  0.42741508  0.85752831  0.85752831  1
  Ni  Ni22  1  0.85752831  0.42741508  0.85752831  1
  Ni  Ni23  1  0.85752831  0.85752831  0.42741508  1
