# generated using pymatgen
data_ZnH12C6S2(N5O)2
_symmetry_space_group_name_H-M   'P 1'
_cell_length_a   10.02171205
_cell_length_b   10.02171205
_cell_length_c   18.73689849
_cell_angle_alpha   67.70601065
_cell_angle_beta   112.29398935
_cell_angle_gamma   152.54246749
_symmetry_Int_Tables_number   1
_chemical_formula_structural   ZnH12C6S2(N5O)2
_chemical_formula_sum   'Zn2 H24 C12 S4 N20 O4'
_cell_volume   798.79870460
_cell_formula_units_Z   2
loop_
 _symmetry_equiv_pos_site_id
 _symmetry_equiv_pos_as_xyz
  1  'x, y, z'
loop_
 _atom_site_type_symbol
 _atom_site_label
 _atom_site_symmetry_multiplicity
 _atom_site_fract_x
 _atom_site_fract_y
 _atom_site_fract_z
 _atom_site_occupancy
  Zn  Zn0  1  0.33335262  0.33335262  0.25000000  1
  Zn  Zn1  1  0.66664738  0.66664738  0.75000000  1
  H  H2  1  0.60489116  0.84330116  0.54124179  1
  H  H3  1  0.84330116  0.60489116  0.95875821  1
  H  H4  1  0.39510884  0.15669884  0.45875821  1
  H  H5  1  0.15669884  0.39510884  0.04124179  1
  H  H6  1  0.49822081  0.58485491  0.53525065  1
  H  H7  1  0.58485491  0.49822081  0.96474935  1
  H  H8  1  0.50177919  0.41514509  0.46474935  1
  H  H9  1  0.41514509  0.50177919  0.03525065  1
  H  H10  1  0.88086191  0.24168230  0.45157040  1
  H  H11  1  0.24168230  0.88086191  0.04842960  1
  H  H12  1  0.11913809  0.75831770  0.54842960  1
  H  H13  1  0.75831770  0.11913809  0.95157040  1
  H  H14  1  0.98787283  0.29522666  0.37489045  1
  H  H15  1  0.29522666  0.98787283  0.12510955  1
  H  H16  1  0.01212717  0.70477334  0.62510955  1
  H  H17  1  0.70477334  0.01212717  0.87489045  1
  H  H18  1  0.12092533  0.47561722  0.23723385  1
  H  H19  1  0.47561722  0.12092533  0.26276615  1
  H  H20  1  0.87907467  0.52438278  0.76276615  1
  H  H21  1  0.52438278  0.87907467  0.73723385  1
  H  H22  1  0.23323048  0.70165939  0.26100003  1
  H  H23  1  0.70165939  0.23323048  0.23899997  1
  H  H24  1  0.76676952  0.29834061  0.73899997  1
  H  H25  1  0.29834061  0.76676952  0.76100003  1
  C  C26  1  0.90069881  0.98113524  0.36355981  1
  C  C27  1  0.98113524  0.90069881  0.13644019  1
  C  C28  1  0.09930119  0.01886476  0.63644019  1
  C  C29  1  0.01886476  0.09930119  0.86355981  1
  C  C30  1  0.73224229  0.91946784  0.44915515  1
  C  C31  1  0.91946784  0.73224229  0.05084485  1
  C  C32  1  0.26775771  0.08053216  0.55084485  1
  C  C33  1  0.08053216  0.26775771  0.94915515  1
  C  C34  1  0.86186443  0.59904065  0.35268841  1
  C  C35  1  0.59904065  0.86186443  0.14731159  1
  C  C36  1  0.13813557  0.40095935  0.64731159  1
  C  C37  1  0.40095935  0.13813557  0.85268841  1
  S  S38  1  0.14561635  0.75353323  0.40204561  1
  S  S39  1  0.75353323  0.14561635  0.09795439  1
  S  S40  1  0.85438365  0.24646677  0.59795439  1
  S  S41  1  0.24646677  0.85438365  0.90204561  1
  N  N42  1  0.65158467  0.48204840  0.31667004  1
  N  N43  1  0.48204840  0.65158467  0.18332996  1
  N  N44  1  0.34841533  0.51795160  0.68332996  1
  N  N45  1  0.51795160  0.34841533  0.81667004  1
  N  N46  1  0.05422518  0.11991591  0.31632299  1
  N  N47  1  0.11991591  0.05422518  0.18367701  1
  N  N48  1  0.94577482  0.88008409  0.68367701  1
  N  N49  1  0.88008409  0.94577482  0.81632299  1
  N  N50  1  0.72987925  0.81833759  0.41606427  1
  N  N51  1  0.81833759  0.72987925  0.08393573  1
  N  N52  1  0.27012075  0.18166241  0.58393573  1
  N  N53  1  0.18166241  0.27012075  0.91606427  1
  N  N54  1  0.57492323  0.75412906  0.50928216  1
  N  N55  1  0.75412906  0.57492323  0.99071784  1
  N  N56  1  0.42507677  0.24587094  0.49071784  1
  N  N57  1  0.24587094  0.42507677  0.00928216  1
  N  N58  1  0.88155604  0.17215424  0.42402042  1
  N  N59  1  0.17215424  0.88155604  0.07597958  1
  N  N60  1  0.11844396  0.82784576  0.57597958  1
  N  N61  1  0.82784576  0.11844396  0.92402042  1
  O  O62  1  0.08204793  0.49399279  0.26994822  1
  O  O63  1  0.49399279  0.08204793  0.23005178  1
  O  O64  1  0.91795207  0.50600721  0.73005178  1
  O  O65  1  0.50600721  0.91795207  0.76994822  1
