# generated using pymatgen
data_Y4MgNi
_symmetry_space_group_name_H-M   'P 1'
_cell_length_a   9.66316562
_cell_length_b   9.66316562
_cell_length_c   9.66316562
_cell_angle_alpha   60.00000000
_cell_angle_beta   60.00000000
_cell_angle_gamma   60.00000000
_symmetry_Int_Tables_number   1
_chemical_formula_structural   Y4MgNi
_chemical_formula_sum   'Y16 Mg4 Ni4'
_cell_volume   638.03319144
_cell_formula_units_Z   4
loop_
 _symmetry_equiv_pos_site_id
 _symmetry_equiv_pos_as_xyz
  1  'x, y, z'
loop_
 _atom_site_type_symbol
 _atom_site_label
 _atom_site_symmetry_multiplicity
 _atom_site_fract_x
 _atom_site_fract_y
 _atom_site_fract_z
 _atom_site_occupancy
  Y  Y0  1  0.81176580  0.81176580  0.18823420  1
  Y  Y1  1  0.18823420  0.18823420  0.81176580  1
  Y  Y2  1  0.81176580  0.18823420  0.81176580  1
  Y  Y3  1  0.18823420  0.81176580  0.18823420  1
  Y  Y4  1  0.18823420  0.81176580  0.81176580  1
  Y  Y5  1  0.81176580  0.18823420  0.18823420  1
  Y  Y6  1  0.43405549  0.43405549  0.06594451  1
  Y  Y7  1  0.06594451  0.06594451  0.43405549  1
  Y  Y8  1  0.43405549  0.06594451  0.43405549  1
  Y  Y9  1  0.06594451  0.43405549  0.06594451  1
  Y  Y10  1  0.06594451  0.43405549  0.43405549  1
  Y  Y11  1  0.43405549  0.06594451  0.06594451  1
  Y  Y12  1  0.65371397  0.65371397  0.65371397  1
  Y  Y13  1  0.03885808  0.65371397  0.65371397  1
  Y  Y14  1  0.65371397  0.03885808  0.65371397  1
  Y  Y15  1  0.65371397  0.65371397  0.03885808  1
  Mg  Mg16  1  0.42007310  0.42007310  0.42007310  1
  Mg  Mg17  1  0.73978069  0.42007310  0.42007310  1
  Mg  Mg18  1  0.42007310  0.73978069  0.42007310  1
  Mg  Mg19  1  0.42007310  0.42007310  0.73978069  1
  Ni  Ni20  1  0.85871676  0.85871676  0.85871676  1
  Ni  Ni21  1  0.42384972  0.85871676  0.85871676  1
  Ni  Ni22  1  0.85871676  0.42384972  0.85871676  1
  Ni  Ni23  1  0.85871676  0.85871676  0.42384972  1
