# generated using pymatgen
data_TmSbRh
_symmetry_space_group_name_H-M   'P 1'
_cell_length_a   4.55129341
_cell_length_b   7.09491231
_cell_length_c   7.80965500
_cell_angle_alpha   90.00000000
_cell_angle_beta   90.00000000
_cell_angle_gamma   90.00000000
_symmetry_Int_Tables_number   1
_chemical_formula_structural   TmSbRh
_chemical_formula_sum   'Tm4 Sb4 Rh4'
_cell_volume   252.18178547
_cell_formula_units_Z   4
loop_
 _symmetry_equiv_pos_site_id
 _symmetry_equiv_pos_as_xyz
  1  'x, y, z'
loop_
 _atom_site_type_symbol
 _atom_site_label
 _atom_site_symmetry_multiplicity
 _atom_site_fract_x
 _atom_site_fract_y
 _atom_site_fract_z
 _atom_site_occupancy
  Tm  Tm0  1  0.75000000  0.99054510  0.30162471  1
  Tm  Tm1  1  0.25000000  0.00945490  0.69837529  1
  Tm  Tm2  1  0.25000000  0.50945490  0.80162471  1
  Tm  Tm3  1  0.75000000  0.49054510  0.19837529  1
  Sb  Sb4  1  0.75000000  0.81058333  0.90816713  1
  Sb  Sb5  1  0.25000000  0.18941667  0.09183287  1
  Sb  Sb6  1  0.25000000  0.68941667  0.40816713  1
  Sb  Sb7  1  0.75000000  0.31058333  0.59183287  1
  Rh  Rh8  1  0.75000000  0.70210912  0.58183804  1
  Rh  Rh9  1  0.25000000  0.29789088  0.41816196  1
  Rh  Rh10  1  0.25000000  0.79789088  0.08183804  1
  Rh  Rh11  1  0.75000000  0.20210912  0.91816196  1
