# generated using pymatgen
data_Yb6Mn4Al43
_symmetry_space_group_name_H-M   'P 1'
_cell_length_a   10.96452958
_cell_length_b   10.96452958
_cell_length_c   17.57057588
_cell_angle_alpha   90.00000000
_cell_angle_beta   90.00000000
_cell_angle_gamma   119.99999627
_symmetry_Int_Tables_number   1
_chemical_formula_structural   Yb6Mn4Al43
_chemical_formula_sum   'Yb12 Mn8 Al86'
_cell_volume   1829.34935273
_cell_formula_units_Z   2
loop_
 _symmetry_equiv_pos_site_id
 _symmetry_equiv_pos_as_xyz
  1  'x, y, z'
loop_
 _atom_site_type_symbol
 _atom_site_label
 _atom_site_symmetry_multiplicity
 _atom_site_fract_x
 _atom_site_fract_y
 _atom_site_fract_z
 _atom_site_occupancy
  Yb  Yb0  1  0.46673829  0.46673829  0.90604144  1
  Yb  Yb1  1  0.53326171  0.53326171  0.09395856  1
  Yb  Yb2  1  0.00000000  0.53326171  0.90604144  1
  Yb  Yb3  1  0.53326171  0.53326171  0.40604144  1
  Yb  Yb4  1  0.00000000  0.53326171  0.59395856  1
  Yb  Yb5  1  1.00000000  0.46673829  0.09395856  1
  Yb  Yb6  1  0.46673829  0.46673829  0.59395856  1
  Yb  Yb7  1  1.00000000  0.46673829  0.40604144  1
  Yb  Yb8  1  0.53326171  0.00000000  0.90604144  1
  Yb  Yb9  1  0.46673829  1.00000000  0.09395856  1
  Yb  Yb10  1  0.46673829  1.00000000  0.40604144  1
  Yb  Yb11  1  0.53326171  0.00000000  0.59395856  1
  Mn  Mn12  1  0.00000000  0.00000000  0.00000000  1
  Mn  Mn13  1  0.00000000  0.00000000  0.50000000  1
  Mn  Mn14  1  0.26894515  0.26894515  0.75000000  1
  Mn  Mn15  1  0.73105485  0.73105485  0.25000000  1
  Mn  Mn16  1  1.00000000  0.73105485  0.75000000  1
  Mn  Mn17  1  0.00000000  0.26894515  0.25000000  1
  Mn  Mn18  1  0.73105485  1.00000000  0.75000000  1
  Mn  Mn19  1  0.26894515  0.00000000  0.25000000  1
  Al  Al20  1  0.85413651  0.45435197  0.75000000  1
  Al  Al21  1  0.14586349  0.54564803  0.25000000  1
  Al  Al22  1  0.60021546  0.14586349  0.75000000  1
  Al  Al23  1  0.39978454  0.54564803  0.75000000  1
  Al  Al24  1  0.39978454  0.85413651  0.25000000  1
  Al  Al25  1  0.60021546  0.45435197  0.25000000  1
  Al  Al26  1  0.54564803  0.39978454  0.75000000  1
  Al  Al27  1  0.45435197  0.85413651  0.75000000  1
  Al  Al28  1  0.45435197  0.60021546  0.25000000  1
  Al  Al29  1  0.54564803  0.14586349  0.25000000  1
  Al  Al30  1  0.14586349  0.60021546  0.75000000  1
  Al  Al31  1  0.85413651  0.39978454  0.25000000  1
  Al  Al32  1  0.84552371  0.84552371  0.38409578  1
  Al  Al33  1  0.15447629  0.15447629  0.61590422  1
  Al  Al34  1  1.00000000  0.15447629  0.38409578  1
  Al  Al35  1  0.15447629  0.15447629  0.88409578  1
  Al  Al36  1  1.00000000  0.15447629  0.11590422  1
  Al  Al37  1  0.00000000  0.84552371  0.61590422  1
  Al  Al38  1  0.84552371  0.84552371  0.11590422  1
  Al  Al39  1  0.00000000  0.84552371  0.88409578  1
  Al  Al40  1  0.15447629  1.00000000  0.38409578  1
  Al  Al41  1  0.84552371  0.00000000  0.61590422  1
  Al  Al42  1  0.84552371  0.00000000  0.88409578  1
  Al  Al43  1  0.15447629  1.00000000  0.11590422  1
  Al  Al44  1  0.75313909  0.24686091  0.00000000  1
  Al  Al45  1  0.24686091  0.75313909  0.00000000  1
  Al  Al46  1  0.49372183  0.24686091  0.00000000  1
  Al  Al47  1  0.24686091  0.75313909  0.50000000  1
  Al  Al48  1  0.50627817  0.75313909  0.50000000  1
  Al  Al49  1  0.50627817  0.75313909  0.00000000  1
  Al  Al50  1  0.75313909  0.24686091  0.50000000  1
  Al  Al51  1  0.49372183  0.24686091  0.50000000  1
  Al  Al52  1  0.75313909  0.50627817  0.00000000  1
  Al  Al53  1  0.24686091  0.49372183  0.00000000  1
  Al  Al54  1  0.24686091  0.49372183  0.50000000  1
  Al  Al55  1  0.75313909  0.50627817  0.50000000  1
  Al  Al56  1  0.85577122  0.85577122  0.75000000  1
  Al  Al57  1  0.14422878  0.14422878  0.25000000  1
  Al  Al58  1  0.00000000  0.14422878  0.75000000  1
  Al  Al59  1  1.00000000  0.85577122  0.25000000  1
  Al  Al60  1  0.14422878  0.00000000  0.75000000  1
  Al  Al61  1  0.85577122  1.00000000  0.25000000  1
  Al  Al62  1  0.66666700  0.33333300  0.87278361  1
  Al  Al63  1  0.33333300  0.66666700  0.12721639  1
  Al  Al64  1  0.33333300  0.66666700  0.37278361  1
  Al  Al65  1  0.33333300  0.66666700  0.62721639  1
  Al  Al66  1  0.66666700  0.33333300  0.62721639  1
  Al  Al67  1  0.66666700  0.33333300  0.37278361  1
  Al  Al68  1  0.66666700  0.33333300  0.12721639  1
  Al  Al69  1  0.33333300  0.66666700  0.87278361  1
  Al  Al70  1  0.75146956  0.75146956  0.96791903  1
  Al  Al71  1  0.24853044  0.24853044  0.03208097  1
  Al  Al72  1  1.00000000  0.24853044  0.96791903  1
  Al  Al73  1  0.24853044  0.24853044  0.46791903  1
  Al  Al74  1  1.00000000  0.24853044  0.53208097  1
  Al  Al75  1  0.00000000  0.75146956  0.03208097  1
  Al  Al76  1  0.75146956  0.75146956  0.53208097  1
  Al  Al77  1  0.00000000  0.75146956  0.46791903  1
  Al  Al78  1  0.24853044  1.00000000  0.96791903  1
  Al  Al79  1  0.75146956  0.00000000  0.03208097  1
  Al  Al80  1  0.75146956  0.00000000  0.46791903  1
  Al  Al81  1  0.24853044  1.00000000  0.53208097  1
  Al  Al82  1  0.84331405  0.23224298  0.83381832  1
  Al  Al83  1  0.15668595  0.76775702  0.16618168  1
  Al  Al84  1  0.38892893  0.15668595  0.83381832  1
  Al  Al85  1  0.15668595  0.76775702  0.33381832  1
  Al  Al86  1  0.61107107  0.76775702  0.66618168  1
  Al  Al87  1  0.61107107  0.84331405  0.16618168  1
  Al  Al88  1  0.84331405  0.23224298  0.66618168  1
  Al  Al89  1  0.38892893  0.23224298  0.33381832  1
  Al  Al90  1  0.76775702  0.61107107  0.83381832  1
  Al  Al91  1  0.61107107  0.84331405  0.33381832  1
  Al  Al92  1  0.23224298  0.84331405  0.66618168  1
  Al  Al93  1  0.23224298  0.38892893  0.16618168  1
  Al  Al94  1  0.38892893  0.15668595  0.66618168  1
  Al  Al95  1  0.76775702  0.15668595  0.33381832  1
  Al  Al96  1  0.38892893  0.23224298  0.16618168  1
  Al  Al97  1  0.61107107  0.76775702  0.83381832  1
  Al  Al98  1  0.23224298  0.38892893  0.33381832  1
  Al  Al99  1  0.76775702  0.15668595  0.16618168  1
  Al  Al100  1  0.76775702  0.61107107  0.66618168  1
  Al  Al101  1  0.23224298  0.84331405  0.83381832  1
  Al  Al102  1  0.15668595  0.38892893  0.66618168  1
  Al  Al103  1  0.84331405  0.61107107  0.33381832  1
  Al  Al104  1  0.84331405  0.61107107  0.16618168  1
  Al  Al105  1  0.15668595  0.38892893  0.83381832  1
