# generated using pymatgen
data_YMnFeO5
_symmetry_space_group_name_H-M   'P 1'
_cell_length_a   5.80758166
_cell_length_b   7.34716877
_cell_length_c   8.63872804
_cell_angle_alpha   90.00000000
_cell_angle_beta   90.00000000
_cell_angle_gamma   90.00000000
_symmetry_Int_Tables_number   1
_chemical_formula_structural   YMnFeO5
_chemical_formula_sum   'Y4 Mn4 Fe4 O20'
_cell_volume   368.60832806
_cell_formula_units_Z   4
loop_
 _symmetry_equiv_pos_site_id
 _symmetry_equiv_pos_as_xyz
  1  'x, y, z'
loop_
 _atom_site_type_symbol
 _atom_site_label
 _atom_site_symmetry_multiplicity
 _atom_site_fract_x
 _atom_site_fract_y
 _atom_site_fract_z
 _atom_site_occupancy
  Y  Y0  1  0.50000000  0.36715973  0.33084430  1
  Y  Y1  1  0.50000000  0.63284027  0.66915570  1
  Y  Y2  1  0.50000000  0.13284027  0.83084430  1
  Y  Y3  1  0.50000000  0.86715973  0.16915570  1
  Mn  Mn4  1  0.25061516  0.00000000  0.50000000  1
  Mn  Mn5  1  0.74938484  0.00000000  0.50000000  1
  Mn  Mn6  1  0.74938484  0.50000000  -0.00000000  1
  Mn  Mn7  1  0.25061516  0.50000000  0.00000000  1
  Fe  Fe8  1  -0.00000000  0.10650151  0.14692335  1
  Fe  Fe9  1  -0.00000000  0.89349849  0.85307665  1
  Fe  Fe10  1  -0.00000000  0.39349849  0.64692335  1
  Fe  Fe11  1  0.00000000  0.60650151  0.35307665  1
  O  O12  1  0.23288232  -0.00000000  -0.00000000  1
  O  O13  1  0.76711768  0.00000000  -0.00000000  1
  O  O14  1  0.76711768  0.50000000  0.50000000  1
  O  O15  1  0.23288232  0.50000000  0.50000000  1
  O  O16  1  -0.00000000  0.34941263  0.07075414  1
  O  O17  1  -0.00000000  0.65058737  0.92924586  1
  O  O18  1  -0.00000000  0.15058737  0.57075414  1
  O  O19  1  0.00000000  0.84941263  0.42924586  1
  O  O20  1  0.25879734  0.10744803  0.29559113  1
  O  O21  1  0.74120266  0.89255197  0.70440887  1
  O  O22  1  0.25879734  0.89255197  0.70440887  1
  O  O23  1  0.74120266  0.39255197  0.79559113  1
  O  O24  1  0.74120266  0.10744803  0.29559113  1
  O  O25  1  0.25879734  0.60744803  0.20440887  1
  O  O26  1  0.74120266  0.60744803  0.20440887  1
  O  O27  1  0.25879734  0.39255197  0.79559113  1
  O  O28  1  0.50000000  0.33870308  0.05785511  1
  O  O29  1  0.50000000  0.66129692  0.94214489  1
  O  O30  1  0.50000000  0.16129692  0.55785511  1
  O  O31  1  0.50000000  0.83870308  0.44214489  1
