# generated using pymatgen
data_Tm3SbO7
_symmetry_space_group_name_H-M   'P 1'
_cell_length_a   6.40571293
_cell_length_b   6.40571293
_cell_length_c   7.42368083
_cell_angle_alpha   90.00000000
_cell_angle_beta   90.00000000
_cell_angle_gamma   109.15259575
_symmetry_Int_Tables_number   1
_chemical_formula_structural   Tm3SbO7
_chemical_formula_sum   'Tm6 Sb2 O14'
_cell_volume   287.75594781
_cell_formula_units_Z   2
loop_
 _symmetry_equiv_pos_site_id
 _symmetry_equiv_pos_as_xyz
  1  'x, y, z'
loop_
 _atom_site_type_symbol
 _atom_site_label
 _atom_site_symmetry_multiplicity
 _atom_site_fract_x
 _atom_site_fract_y
 _atom_site_fract_z
 _atom_site_occupancy
  Tm  Tm0  1  0.53171448  0.00058524  0.75277113  1
  Tm  Tm1  1  0.46828552  0.99941476  0.25277113  1
  Tm  Tm2  1  0.99941476  0.46828552  0.74722887  1
  Tm  Tm3  1  0.00058524  0.53171448  0.24722887  1
  Tm  Tm4  1  0.48517285  0.48517285  0.00000000  1
  Tm  Tm5  1  0.51482715  0.51482715  0.50000000  1
  Sb  Sb6  1  0.00001190  0.00001190  0.00000000  1
  Sb  Sb7  1  -0.00001190  -0.00001190  0.50000000  1
  O  O8  1  0.63856332  0.36143668  0.75000000  1
  O  O9  1  0.36143668  0.63856332  0.25000000  1
  O  O10  1  0.92602303  0.07397697  0.75000000  1
  O  O11  1  0.07397697  0.92602303  0.25000000  1
  O  O12  1  0.32743776  0.07902749  0.97211082  1
  O  O13  1  0.67256224  0.92097251  0.47211082  1
  O  O14  1  0.92097251  0.67256224  0.52788918  1
  O  O15  1  0.07902749  0.32743776  0.02788918  1
  O  O16  1  0.36989788  0.63010212  0.75000000  1
  O  O17  1  0.63010212  0.36989788  0.25000000  1
  O  O18  1  0.32134146  0.06537566  0.53405957  1
  O  O19  1  0.67865854  0.93462434  0.03405957  1
  O  O20  1  0.93462434  0.67865854  0.96594043  1
  O  O21  1  0.06537566  0.32134146  0.46594043  1
