# generated using pymatgen
data_LiSm2Br5
_symmetry_space_group_name_H-M   'P 1'
_cell_length_a   6.90171587
_cell_length_b   7.94365331
_cell_length_c   8.83790936
_cell_angle_alpha   93.25002388
_cell_angle_beta   112.98318354
_cell_angle_gamma   90.00000015
_symmetry_Int_Tables_number   1
_chemical_formula_structural   LiSm2Br5
_chemical_formula_sum   'Li2 Sm4 Br10'
_cell_volume   445.22753727
_cell_formula_units_Z   2
loop_
 _symmetry_equiv_pos_site_id
 _symmetry_equiv_pos_as_xyz
  1  'x, y, z'
loop_
 _atom_site_type_symbol
 _atom_site_label
 _atom_site_symmetry_multiplicity
 _atom_site_fract_x
 _atom_site_fract_y
 _atom_site_fract_z
 _atom_site_occupancy
  Li  Li0  1  0.50000000  -0.00000000  0.50000000  1
  Li  Li1  1  -0.00000000  0.50000000  0.50000000  1
  Sm  Sm2  1  0.26274480  0.57367165  0.15150348  1
  Sm  Sm3  1  0.73725520  0.42632835  0.84849652  1
  Sm  Sm4  1  0.11124132  0.92632835  0.84849652  1
  Sm  Sm5  1  0.88875868  0.07367165  0.15150348  1
  Br  Br6  1  0.12666646  0.25000000  0.00000000  1
  Br  Br7  1  0.87333354  0.75000000  1.00000000  1
  Br  Br8  1  0.26346128  0.33574897  0.41523431  1
  Br  Br9  1  0.73653872  0.66425103  0.58476569  1
  Br  Br10  1  0.84822696  0.16425103  0.58476569  1
  Br  Br11  1  0.15177304  0.83574897  0.41523431  1
  Br  Br12  1  0.50972341  0.09348257  0.82018913  1
  Br  Br13  1  0.49027659  0.90651743  0.17981087  1
  Br  Br14  1  0.68953427  0.40651743  0.17981087  1
  Br  Br15  1  0.31046573  0.59348257  0.82018913  1
