# generated using pymatgen
data_Y4MgCo
_symmetry_space_group_name_H-M   'P 1'
_cell_length_a   9.63647685
_cell_length_b   9.63647685
_cell_length_c   9.63647685
_cell_angle_alpha   60.00000000
_cell_angle_beta   60.00000000
_cell_angle_gamma   60.00000000
_symmetry_Int_Tables_number   1
_chemical_formula_structural   Y4MgCo
_chemical_formula_sum   'Y16 Mg4 Co4'
_cell_volume   632.76121302
_cell_formula_units_Z   4
loop_
 _symmetry_equiv_pos_site_id
 _symmetry_equiv_pos_as_xyz
  1  'x, y, z'
loop_
 _atom_site_type_symbol
 _atom_site_label
 _atom_site_symmetry_multiplicity
 _atom_site_fract_x
 _atom_site_fract_y
 _atom_site_fract_z
 _atom_site_occupancy
  Y  Y0  1  0.65557205  0.65557205  0.65557205  1
  Y  Y1  1  0.03328385  0.65557205  0.65557205  1
  Y  Y2  1  0.65557205  0.03328385  0.65557205  1
  Y  Y3  1  0.65557205  0.65557205  0.03328385  1
  Y  Y4  1  0.81363046  0.81363046  0.18636954  1
  Y  Y5  1  0.18636954  0.18636954  0.81363046  1
  Y  Y6  1  0.81363046  0.18636954  0.81363046  1
  Y  Y7  1  0.18636954  0.81363046  0.18636954  1
  Y  Y8  1  0.18636954  0.81363046  0.81363046  1
  Y  Y9  1  0.81363046  0.18636954  0.18636954  1
  Y  Y10  1  0.43699345  0.43699345  0.06300655  1
  Y  Y11  1  0.06300655  0.06300655  0.43699345  1
  Y  Y12  1  0.43699345  0.06300655  0.43699345  1
  Y  Y13  1  0.06300655  0.43699345  0.06300655  1
  Y  Y14  1  0.06300655  0.43699345  0.43699345  1
  Y  Y15  1  0.43699345  0.06300655  0.06300655  1
  Mg  Mg16  1  0.42124697  0.42124697  0.42124697  1
  Mg  Mg17  1  0.73625910  0.42124697  0.42124697  1
  Mg  Mg18  1  0.42124697  0.73625910  0.42124697  1
  Mg  Mg19  1  0.42124697  0.42124697  0.73625910  1
  Co  Co20  1  0.85930794  0.85930794  0.85930794  1
  Co  Co21  1  0.42207617  0.85930794  0.85930794  1
  Co  Co22  1  0.85930794  0.42207617  0.85930794  1
  Co  Co23  1  0.85930794  0.85930794  0.42207617  1
