# generated using pymatgen
data_TlAg(PO3)2
_symmetry_space_group_name_H-M   'P 1'
_cell_length_a   6.28180312
_cell_length_b   7.62185147
_cell_length_c   13.54398437
_cell_angle_alpha   90.00000000
_cell_angle_beta   90.00000000
_cell_angle_gamma   95.21159977
_symmetry_Int_Tables_number   1
_chemical_formula_structural   TlAg(PO3)2
_chemical_formula_sum   'Tl4 Ag4 P8 O24'
_cell_volume   645.79126153
_cell_formula_units_Z   4
loop_
 _symmetry_equiv_pos_site_id
 _symmetry_equiv_pos_as_xyz
  1  'x, y, z'
loop_
 _atom_site_type_symbol
 _atom_site_label
 _atom_site_symmetry_multiplicity
 _atom_site_fract_x
 _atom_site_fract_y
 _atom_site_fract_z
 _atom_site_occupancy
  Tl  Tl0  1  0.29931829  0.73201558  0.66873361  1
  Tl  Tl1  1  0.70068171  0.26798442  0.33126639  1
  Tl  Tl2  1  0.70068171  0.76798442  0.16873361  1
  Tl  Tl3  1  0.29931829  0.23201558  0.83126639  1
  Ag  Ag4  1  0.81519274  0.69581629  0.47202005  1
  Ag  Ag5  1  0.18480726  0.30418371  0.52797995  1
  Ag  Ag6  1  0.18480726  0.80418371  0.97202005  1
  Ag  Ag7  1  0.81519274  0.19581629  0.02797995  1
  P  P8  1  0.68909758  0.84807346  0.86672833  1
  P  P9  1  0.31090242  0.15192654  0.13327167  1
  P  P10  1  0.31090242  0.65192654  0.36672833  1
  P  P11  1  0.68909758  0.34807346  0.63327167  1
  P  P12  1  0.84608764  0.99441843  0.67343635  1
  P  P13  1  0.15391236  0.00558157  0.32656365  1
  P  P14  1  0.15391236  0.50558157  0.17343635  1
  P  P15  1  0.84608764  0.49441843  0.82656365  1
  O  O16  1  0.93220987  0.93184149  0.35390027  1
  O  O17  1  0.06779013  0.06815851  0.64609973  1
  O  O18  1  0.06779013  0.56815851  0.85390027  1
  O  O19  1  0.93220987  0.43184149  0.14609973  1
  O  O20  1  0.46620524  0.90149099  0.84995464  1
  O  O21  1  0.53379476  0.09850901  0.15004536  1
  O  O22  1  0.53379476  0.59850901  0.34995464  1
  O  O23  1  0.46620524  0.40149099  0.65004536  1
  O  O24  1  0.73784002  0.83491541  0.62240892  1
  O  O25  1  0.26215998  0.16508459  0.37759108  1
  O  O26  1  0.26215998  0.66508459  0.12240892  1
  O  O27  1  0.73784002  0.33491541  0.87759108  1
  O  O28  1  0.85710258  0.95357852  0.79164094  1
  O  O29  1  0.14289742  0.04642148  0.20835906  1
  O  O30  1  0.14289742  0.54642148  0.29164094  1
  O  O31  1  0.85710258  0.45357852  0.70835906  1
  O  O32  1  0.79037233  0.86723574  0.96730556  1
  O  O33  1  0.20962767  0.13276426  0.03269444  1
  O  O34  1  0.20962767  0.63276426  0.46730556  1
  O  O35  1  0.79037233  0.36723574  0.53269444  1
  O  O36  1  0.67951201  0.64583501  0.82863066  1
  O  O37  1  0.32048799  0.35416499  0.17136934  1
  O  O38  1  0.32048799  0.85416499  0.32863066  1
  O  O39  1  0.67951201  0.14583501  0.67136934  1
