# generated using pymatgen
data_Li9Co9O17
_symmetry_space_group_name_H-M   'P 1'
_cell_length_a   46.20687441
_cell_length_b   25.00367808
_cell_length_c   9.85115462
_cell_angle_alpha   14.79957254
_cell_angle_beta   16.56897335
_cell_angle_gamma   6.47174185
_symmetry_Int_Tables_number   1
_chemical_formula_structural   Li9Co9O17
_chemical_formula_sum   'Li9 Co9 O17'
_cell_volume   326.73978702
_cell_formula_units_Z   1
loop_
 _symmetry_equiv_pos_site_id
 _symmetry_equiv_pos_as_xyz
  1  'x, y, z'
loop_
 _atom_site_type_symbol
 _atom_site_label
 _atom_site_symmetry_multiplicity
 _atom_site_fract_x
 _atom_site_fract_y
 _atom_site_fract_z
 _atom_site_occupancy
  Li  Li0  1  0.10925213  0.50254047  0.50212603  1
  Li  Li1  1  0.25471691  0.42445820  0.53329326  1
  Li  Li2  1  0.33532109  0.49867930  0.49475064  1
  Li  Li3  1  0.43625825  0.51695763  0.49636070  1
  Li  Li4  1  0.55862995  0.49644523  0.49587361  1
  Li  Li5  1  0.64150939  0.52899959  0.53244612  1
  Li  Li6  1  0.78384624  0.48661307  0.50529089  1
  Li  Li7  1  0.88298583  0.53349618  0.43719878  1
  Li  Li8  1  0.00179885  0.49883820  0.49635203  1
  Co  Co9  1  0.00197931  0.99700442  -0.00133085  1
  Co  Co10  1  0.11881874  0.99141660  0.99229826  1
  Co  Co11  1  0.21938383  0.00473059  0.00066877  1
  Co  Co12  1  0.33884212  0.98717973  0.00697905  1
  Co  Co13  1  0.44829235  0.99276950  0.00001449  1
  Co  Co14  1  0.53687827  0.03855223  0.99625623  1
  Co  Co15  1  0.67003649  0.00109278  0.97996397  1
  Co  Co16  1  0.77839262  0.99705811  0.00514458  1
  Co  Co17  1  0.88739895  -0.00305177  0.01871151  1
  O  O18  1  0.10242374  0.24609420  0.31202848  1
  O  O19  1  0.22914969  0.24724540  0.23578006  1
  O  O20  1  0.33111053  0.24319831  0.28492199  1
  O  O21  1  0.99499329  0.75442171  0.75287253  1
  O  O22  1  0.42515464  0.29943518  0.22683363  1
  O  O23  1  0.11273577  0.76339234  0.69062559  1
  O  O24  1  0.55330224  0.25916966  0.24899622  1
  O  O25  1  0.20091400  0.78895278  0.74611541  1
  O  O26  1  0.66832958  0.25348790  0.23816236  1
  O  O27  1  0.34999960  0.73443047  0.70692894  1
  O  O28  1  0.78197997  0.24338968  0.25749319  1
  O  O29  1  0.44359004  0.74776694  0.74998500  1
  O  O30  1  0.56488269  0.73475551  0.73513425  1
  O  O31  1  0.99583492  0.25702594  0.25907793  1
  O  O32  1  0.66081305  0.75563069  0.75426507  1
  O  O33  1  0.80027628  0.69253488  0.77502613  1
  O  O34  1  0.89590162  0.72488834  0.77295512  1
