# generated using pymatgen
data_Y2(GePt3)3
_symmetry_space_group_name_H-M   'P 1'
_cell_length_a   7.82487181
_cell_length_b   7.82487181
_cell_length_c   10.10192266
_cell_angle_alpha   90.34804299
_cell_angle_beta   112.53343330
_cell_angle_gamma   119.82925742
_symmetry_Int_Tables_number   1
_chemical_formula_structural   Y2(GePt3)3
_chemical_formula_sum   'Y4 Ge6 Pt18'
_cell_volume   480.45004737
_cell_formula_units_Z   2
loop_
 _symmetry_equiv_pos_site_id
 _symmetry_equiv_pos_as_xyz
  1  'x, y, z'
loop_
 _atom_site_type_symbol
 _atom_site_label
 _atom_site_symmetry_multiplicity
 _atom_site_fract_x
 _atom_site_fract_y
 _atom_site_fract_z
 _atom_site_occupancy
  Y  Y0  1  0.66635643  0.75533911  0.25067353  1
  Y  Y1  1  0.33364357  0.24466089  0.74932647  1
  Y  Y2  1  0.00466557  0.41568289  0.24932647  1
  Y  Y3  1  0.99533443  0.58431711  0.75067353  1
  Ge  Ge4  1  0.50000000  0.00000000  0.00000000  1
  Ge  Ge5  1  0.50000000  0.50000000  0.50000000  1
  Ge  Ge6  1  0.13729438  0.81840472  0.49785218  1
  Ge  Ge7  1  0.86270562  0.18159528  0.50214782  1
  Ge  Ge8  1  0.82055254  0.63944220  0.00214782  1
  Ge  Ge9  1  0.17944746  0.36055780  0.99785218  1
  Pt  Pt10  1  0.55259661  0.08437341  0.25726485  1
  Pt  Pt11  1  0.44740339  0.91562659  0.74273515  1
  Pt  Pt12  1  0.32710856  0.29533176  0.24273515  1
  Pt  Pt13  1  0.67289144  0.70466824  0.75726485  1
  Pt  Pt14  1  0.55558019  0.35961204  0.07784220  1
  Pt  Pt15  1  0.44441981  0.64038796  0.92215780  1
  Pt  Pt16  1  0.78176984  0.47773799  0.42215780  1
  Pt  Pt17  1  0.21823016  0.52226201  0.57784220  1
  Pt  Pt18  1  0.11629238  0.86629238  0.25000000  1
  Pt  Pt19  1  0.88370762  0.13370762  0.75000000  1
  Pt  Pt20  1  0.87272718  0.02002375  0.07040106  1
  Pt  Pt21  1  0.12727282  0.97997625  0.92959894  1
  Pt  Pt22  1  0.44962268  0.80232612  0.42959894  1
  Pt  Pt23  1  0.55037732  0.19767388  0.57040106  1
  Pt  Pt24  1  0.11537605  0.14028857  0.42155433  1
  Pt  Pt25  1  0.88462395  0.85971143  0.57844567  1
  Pt  Pt26  1  0.21873424  0.69382172  0.07844567  1
  Pt  Pt27  1  0.78126576  0.30617828  0.92155433  1
