# generated using pymatgen
data_Tm2Mo4O15
_symmetry_space_group_name_H-M   'P 1'
_cell_length_a   6.86343201
_cell_length_b   9.64805260
_cell_length_c   10.63517942
_cell_angle_alpha   90.00000000
_cell_angle_beta   105.09241740
_cell_angle_gamma   90.00000000
_symmetry_Int_Tables_number   1
_chemical_formula_structural   Tm2Mo4O15
_chemical_formula_sum   'Tm4 Mo8 O30'
_cell_volume   679.95675147
_cell_formula_units_Z   2
loop_
 _symmetry_equiv_pos_site_id
 _symmetry_equiv_pos_as_xyz
  1  'x, y, z'
loop_
 _atom_site_type_symbol
 _atom_site_label
 _atom_site_symmetry_multiplicity
 _atom_site_fract_x
 _atom_site_fract_y
 _atom_site_fract_z
 _atom_site_occupancy
  Tm  Tm0  1  0.28970921  0.47696008  0.22423821  1
  Tm  Tm1  1  0.71029079  0.52303992  0.77576179  1
  Tm  Tm2  1  0.71029079  0.97696008  0.27576179  1
  Tm  Tm3  1  0.28970921  0.02303992  0.72423821  1
  Mo  Mo4  1  0.58128384  0.25703690  0.01081302  1
  Mo  Mo5  1  0.41871616  0.74296310  0.98918698  1
  Mo  Mo6  1  0.41871616  0.75703690  0.48918698  1
  Mo  Mo7  1  0.58128384  0.24296310  0.51081302  1
  Mo  Mo8  1  0.12148505  0.09596706  0.15681312  1
  Mo  Mo9  1  0.87851495  0.90403294  0.84318688  1
  Mo  Mo10  1  0.87851495  0.59596706  0.34318688  1
  Mo  Mo11  1  0.12148505  0.40403294  0.65681312  1
  O  O12  1  0.11459897  0.27966386  0.14811263  1
  O  O13  1  0.88540103  0.72033614  0.85188737  1
  O  O14  1  0.88540103  0.77966386  0.35188737  1
  O  O15  1  0.11459897  0.22033614  0.64811263  1
  O  O16  1  0.47500141  0.37441581  0.10412034  1
  O  O17  1  0.52499859  0.62558419  0.89587966  1
  O  O18  1  0.52499859  0.87441581  0.39587966  1
  O  O19  1  0.47500141  0.12558419  0.60412034  1
  O  O20  1  0.27865915  0.64972005  0.08233848  1
  O  O21  1  0.72134085  0.35027995  0.91766152  1
  O  O22  1  0.72134085  0.14972005  0.41766152  1
  O  O23  1  0.27865915  0.85027995  0.58233848  1
  O  O24  1  -0.00000000  -0.00000000  0.00000000  1
  O  O25  1  -0.00000000  0.50000000  0.50000000  1
  O  O26  1  0.38308111  0.33429284  0.39772178  1
  O  O27  1  0.61691889  0.66570716  0.60227822  1
  O  O28  1  0.61691889  0.83429284  0.10227822  1
  O  O29  1  0.38308111  0.16570716  0.89772178  1
  O  O30  1  0.04994127  0.02725306  0.29341059  1
  O  O31  1  0.95005873  0.97274694  0.70658941  1
  O  O32  1  0.95005873  0.52725306  0.20658941  1
  O  O33  1  0.04994127  0.47274694  0.79341059  1
  O  O34  1  0.38178752  0.05541221  0.18432829  1
  O  O35  1  0.61821248  0.94458779  0.81567171  1
  O  O36  1  0.61821248  0.55541221  0.31567171  1
  O  O37  1  0.38178752  0.44458779  0.68432829  1
  O  O38  1  0.74410536  0.13426746  0.11912573  1
  O  O39  1  0.25589464  0.86573254  0.88087427  1
  O  O40  1  0.25589464  0.63426746  0.38087427  1
  O  O41  1  0.74410536  0.36573254  0.61912573  1
