# generated using pymatgen
data_Tm4CdNi
_symmetry_space_group_name_H-M   'P 1'
_cell_length_a   9.41205165
_cell_length_b   9.41205165
_cell_length_c   9.41205165
_cell_angle_alpha   60.00000000
_cell_angle_beta   60.00000000
_cell_angle_gamma   60.00000000
_symmetry_Int_Tables_number   1
_chemical_formula_structural   Tm4CdNi
_chemical_formula_sum   'Tm16 Cd4 Ni4'
_cell_volume   589.57343673
_cell_formula_units_Z   4
loop_
 _symmetry_equiv_pos_site_id
 _symmetry_equiv_pos_as_xyz
  1  'x, y, z'
loop_
 _atom_site_type_symbol
 _atom_site_label
 _atom_site_symmetry_multiplicity
 _atom_site_fract_x
 _atom_site_fract_y
 _atom_site_fract_z
 _atom_site_occupancy
  Tm  Tm0  1  0.65161696  0.65161696  0.65161696  1
  Tm  Tm1  1  0.04514912  0.65161696  0.65161696  1
  Tm  Tm2  1  0.65161696  0.04514912  0.65161696  1
  Tm  Tm3  1  0.65161696  0.65161696  0.04514912  1
  Tm  Tm4  1  0.81307650  0.81307650  0.18692350  1
  Tm  Tm5  1  0.18692350  0.18692350  0.81307650  1
  Tm  Tm6  1  0.81307650  0.18692350  0.81307650  1
  Tm  Tm7  1  0.18692350  0.81307650  0.18692350  1
  Tm  Tm8  1  0.18692350  0.81307650  0.81307650  1
  Tm  Tm9  1  0.81307650  0.18692350  0.18692350  1
  Tm  Tm10  1  0.43539515  0.43539515  0.06460485  1
  Tm  Tm11  1  0.06460485  0.06460485  0.43539515  1
  Tm  Tm12  1  0.43539515  0.06460485  0.43539515  1
  Tm  Tm13  1  0.06460485  0.43539515  0.06460485  1
  Tm  Tm14  1  0.06460485  0.43539515  0.43539515  1
  Tm  Tm15  1  0.43539515  0.06460485  0.06460485  1
  Cd  Cd16  1  0.41852321  0.41852321  0.41852321  1
  Cd  Cd17  1  0.74443038  0.41852321  0.41852321  1
  Cd  Cd18  1  0.41852321  0.74443038  0.41852321  1
  Cd  Cd19  1  0.41852321  0.41852321  0.74443038  1
  Ni  Ni20  1  0.85755528  0.85755528  0.85755528  1
  Ni  Ni21  1  0.42733417  0.85755528  0.85755528  1
  Ni  Ni22  1  0.85755528  0.42733417  0.85755528  1
  Ni  Ni23  1  0.85755528  0.85755528  0.42733417  1
