# generated using pymatgen
data_V5Se8
_symmetry_space_group_name_H-M   'P 1'
_cell_length_a   6.90326444
_cell_length_b   6.90326444
_cell_length_c   7.03215518
_cell_angle_alpha   104.50121649
_cell_angle_beta   106.04718625
_cell_angle_gamma   117.60246112
_symmetry_Int_Tables_number   1
_chemical_formula_structural   V5Se8
_chemical_formula_sum   'V5 Se8'
_cell_volume   255.67225316
_cell_formula_units_Z   1
loop_
 _symmetry_equiv_pos_site_id
 _symmetry_equiv_pos_as_xyz
  1  'x, y, z'
loop_
 _atom_site_type_symbol
 _atom_site_label
 _atom_site_symmetry_multiplicity
 _atom_site_fract_x
 _atom_site_fract_y
 _atom_site_fract_z
 _atom_site_occupancy
  V  V0  1  -0.00000000  -0.00000000  0.00000000  1
  V  V1  1  0.77271853  0.27082766  0.04354619  1
  V  V2  1  0.22728147  0.72917234  0.95645381  1
  V  V3  1  0.21150722  0.71150722  0.50000000  1
  V  V4  1  0.78849278  0.28849278  0.50000000  1
  Se  Se5  1  0.70717153  0.95458324  0.16993393  1
  Se  Se6  1  0.29282847  0.04541676  0.83006607  1
  Se  Se7  1  0.78464930  0.53723759  0.83006607  1
  Se  Se8  1  0.21535070  0.46276241  0.16993393  1
  Se  Se9  1  0.30446065  0.01784834  0.32230899  1
  Se  Se10  1  0.69553935  0.98215166  0.67769101  1
  Se  Se11  1  0.77687934  0.55758205  0.33446139  1
  Se  Se12  1  0.22312066  0.44241795  0.66553861  1
