# generated using pymatgen
data_TmIn2Pd
_symmetry_space_group_name_H-M   'P 1'
_cell_length_a   9.18410052
_cell_length_b   10.78559703
_cell_length_c   10.78559703
_cell_angle_alpha   79.55628307
_cell_angle_beta   64.80137147
_cell_angle_gamma   64.80137147
_symmetry_Int_Tables_number   1
_chemical_formula_structural   TmIn2Pd
_chemical_formula_sum   'Tm10 In20 Pd10'
_cell_volume   874.71373296
_cell_formula_units_Z   10
loop_
 _symmetry_equiv_pos_site_id
 _symmetry_equiv_pos_as_xyz
  1  'x, y, z'
loop_
 _atom_site_type_symbol
 _atom_site_label
 _atom_site_symmetry_multiplicity
 _atom_site_fract_x
 _atom_site_fract_y
 _atom_site_fract_z
 _atom_site_occupancy
  Tm  Tm0  1  0.47339807  0.00000000  -0.00000000  1
  Tm  Tm1  1  0.68236480  0.72015229  0.72015229  1
  Tm  Tm2  1  0.12266939  0.27984771  0.27984771  1
  Tm  Tm3  1  0.40251710  0.27984771  0.72015229  1
  Tm  Tm4  1  0.40251710  0.72015229  0.27984771  1
  Tm  Tm5  1  0.68729363  -0.00000000  0.40415378  1
  Tm  Tm6  1  0.09144740  -0.00000000  0.59584622  1
  Tm  Tm7  1  0.09144740  0.59584622  0.00000000  1
  Tm  Tm8  1  0.68729363  0.40415378  -0.00000000  1
  Tm  Tm9  1  0.00012786  0.00000000  -0.00000000  1
  In  In10  1  0.28147046  0.20803992  0.50786914  1
  In  In11  1  0.99737951  0.79196008  0.49213086  1
  In  In12  1  0.78933959  0.49213086  0.20803992  1
  In  In13  1  0.28147046  0.50786914  0.20803992  1
  In  In14  1  0.48951037  0.50786914  0.79196008  1
  In  In15  1  0.99737951  0.49213086  0.79196008  1
  In  In16  1  0.78933959  0.20803992  0.49213086  1
  In  In17  1  0.48951037  0.79196008  0.50786914  1
  In  In18  1  0.89396175  0.83674157  0.83674157  1
  In  In19  1  0.56744489  0.16325843  0.16325843  1
  In  In20  1  0.73070332  0.16325843  0.83674157  1
  In  In21  1  0.73070332  0.83674157  0.16325843  1
  In  In22  1  0.36749963  0.00000000  0.73913622  1
  In  In23  1  0.10663585  0.00000000  0.26086378  1
  In  In24  1  0.10663585  0.26086378  -0.00000000  1
  In  In25  1  0.36749963  0.73913622  0.00000000  1
  In  In26  1  0.26105352  0.61700077  0.61700077  1
  In  In27  1  0.49505506  0.38299923  0.38299923  1
  In  In28  1  0.87805429  0.38299923  0.61700077  1
  In  In29  1  0.87805429  0.61700077  0.38299923  1
  Pd  Pd30  1  0.12781216  0.50000000  0.50000000  1
  Pd  Pd31  1  0.62781216  0.50000000  0.50000000  1
  Pd  Pd32  1  0.24921608  0.78779486  0.78779486  1
  Pd  Pd33  1  0.82480579  0.21220514  0.21220514  1
  Pd  Pd34  1  0.03701093  0.21220514  0.78779486  1
  Pd  Pd35  1  0.03701093  0.78779486  0.21220514  1
  Pd  Pd36  1  0.38327331  0.00000000  0.32164552  1
  Pd  Pd37  1  0.70491884  0.00000000  0.67835448  1
  Pd  Pd38  1  0.70491884  0.67835448  -0.00000000  1
  Pd  Pd39  1  0.38327331  0.32164552  -0.00000000  1
