# generated using pymatgen
data_TiGeRh
_symmetry_space_group_name_H-M   'P 1'
_cell_length_a   6.69355040
_cell_length_b   7.16368342
_cell_length_c   7.56590191
_cell_angle_alpha   118.25645716
_cell_angle_beta   116.25390405
_cell_angle_gamma   90.00000000
_symmetry_Int_Tables_number   1
_chemical_formula_structural   TiGeRh
_chemical_formula_sum   'Ti6 Ge6 Rh6'
_cell_volume   276.33947368
_cell_formula_units_Z   6
loop_
 _symmetry_equiv_pos_site_id
 _symmetry_equiv_pos_as_xyz
  1  'x, y, z'
loop_
 _atom_site_type_symbol
 _atom_site_label
 _atom_site_symmetry_multiplicity
 _atom_site_fract_x
 _atom_site_fract_y
 _atom_site_fract_z
 _atom_site_occupancy
  Ti  Ti0  1  0.24501950  0.47302944  0.44605887  1
  Ti  Ti1  1  0.79896062  0.52697056  0.55394113  1
  Ti  Ti2  1  0.66434191  0.74870758  0.99741516  1
  Ti  Ti3  1  0.66692675  0.25129242  0.00258484  1
  Ti  Ti4  1  0.85097651  0.05459427  0.60918853  1
  Ti  Ti5  1  0.24178798  0.94540573  0.39081147  1
  Ge  Ge6  1  0.28297257  0.28201291  0.06402583  1
  Ge  Ge7  1  0.21894674  0.71798709  0.93597417  1
  Ge  Ge8  1  0.57905700  0.83758004  0.66588272  1
  Ge  Ge9  1  0.91317429  0.16241996  0.33411728  1
  Ge  Ge10  1  0.91317429  0.67169732  0.33411728  1
  Ge  Ge11  1  0.57905700  0.32830268  0.66588272  1
  Rh  Rh12  1  0.98922879  0.00000000  0.00000000  1
  Rh  Rh13  1  0.98922879  0.50000000  0.00000000  1
  Rh  Rh14  1  0.50470176  0.66921703  0.25562990  1
  Rh  Rh15  1  0.24907186  0.33078297  0.74437010  1
  Rh  Rh16  1  0.24907186  0.91358713  0.74437010  1
  Rh  Rh17  1  0.50470176  0.08641287  0.25562990  1
