# generated using pymatgen
data_Tm12Fe2Pb3
_symmetry_space_group_name_H-M   'P 1'
_cell_length_a   8.41986380
_cell_length_b   8.41986380
_cell_length_c   8.41986380
_cell_angle_alpha   110.44082001
_cell_angle_beta   110.44082001
_cell_angle_gamma   107.54895446
_symmetry_Int_Tables_number   1
_chemical_formula_structural   Tm12Fe2Pb3
_chemical_formula_sum   'Tm12 Fe2 Pb3'
_cell_volume   459.12194146
_cell_formula_units_Z   1
loop_
 _symmetry_equiv_pos_site_id
 _symmetry_equiv_pos_as_xyz
  1  'x, y, z'
loop_
 _atom_site_type_symbol
 _atom_site_label
 _atom_site_symmetry_multiplicity
 _atom_site_fract_x
 _atom_site_fract_y
 _atom_site_fract_z
 _atom_site_occupancy
  Tm  Tm0  1  0.79213257  0.54528280  0.75315022  1
  Tm  Tm1  1  0.20786743  0.45471720  0.24684978  1
  Tm  Tm2  1  0.79213257  0.03898235  0.24684978  1
  Tm  Tm3  1  0.03898235  0.79213257  0.24684978  1
  Tm  Tm4  1  0.20786743  0.96101765  0.75315022  1
  Tm  Tm5  1  0.96101765  0.20786743  0.75315022  1
  Tm  Tm6  1  0.54528280  0.79213257  0.75315022  1
  Tm  Tm7  1  0.45471720  0.20786743  0.24684978  1
  Tm  Tm8  1  0.68725476  0.68725476  0.37450952  1
  Tm  Tm9  1  0.31274524  0.31274524  0.62549048  1
  Tm  Tm10  1  0.31274524  0.68725476  0.00000000  1
  Tm  Tm11  1  0.68725476  0.31274524  -0.00000000  1
  Fe  Fe12  1  0.62147762  0.62147762  -0.00000000  1
  Fe  Fe13  1  0.37852238  0.37852238  -0.00000000  1
  Pb  Pb14  1  -0.00000000  0.50000000  0.50000000  1
  Pb  Pb15  1  0.50000000  -0.00000000  0.50000000  1
  Pb  Pb16  1  -0.00000000  -0.00000000  -0.00000000  1
