# generated using pymatgen
data_TlIn4S5Cl
_symmetry_space_group_name_H-M   'P 1'
_cell_length_a   3.99489542
_cell_length_b   9.11431998
_cell_length_c   15.22989028
_cell_angle_alpha   93.38787362
_cell_angle_beta   90.00000000
_cell_angle_gamma   90.00000000
_symmetry_Int_Tables_number   1
_chemical_formula_structural   TlIn4S5Cl
_chemical_formula_sum   'Tl2 In8 S10 Cl2'
_cell_volume   553.56268240
_cell_formula_units_Z   2
loop_
 _symmetry_equiv_pos_site_id
 _symmetry_equiv_pos_as_xyz
  1  'x, y, z'
loop_
 _atom_site_type_symbol
 _atom_site_label
 _atom_site_symmetry_multiplicity
 _atom_site_fract_x
 _atom_site_fract_y
 _atom_site_fract_z
 _atom_site_occupancy
  Tl  Tl0  1  0.75000000  0.60720339  0.65652049  1
  Tl  Tl1  1  0.25000000  0.39279661  0.34347951  1
  In  In2  1  0.75000000  0.23652069  0.79376479  1
  In  In3  1  0.25000000  0.76347931  0.20623521  1
  In  In4  1  0.75000000  0.86865729  0.43705831  1
  In  In5  1  0.25000000  0.13134271  0.56294169  1
  In  In6  1  0.75000000  0.34120495  0.05329442  1
  In  In7  1  0.25000000  0.65879505  0.94670558  1
  In  In8  1  0.75000000  0.95314630  0.85451360  1
  In  In9  1  0.25000000  0.04685370  0.14548640  1
  S  S10  1  0.75000000  0.46769696  0.89987936  1
  S  S11  1  0.25000000  0.53230304  0.10012064  1
  S  S12  1  0.75000000  0.83158407  0.00059037  1
  S  S13  1  0.25000000  0.16841593  0.99940963  1
  S  S14  1  0.75000000  0.96660746  0.60021434  1
  S  S15  1  0.25000000  0.03339254  0.39978566  1
  S  S16  1  0.75000000  0.20678124  0.20186154  1
  S  S17  1  0.25000000  0.79321876  0.79813846  1
  S  S18  1  0.75000000  0.68828500  0.30093093  1
  S  S19  1  0.25000000  0.31171500  0.69906907  1
  Cl  Cl20  1  0.75000000  0.32656526  0.50387306  1
  Cl  Cl21  1  0.25000000  0.67343474  0.49612694  1
