# generated using pymatgen
data_Tb7Co6Sn23
_symmetry_space_group_name_H-M   'P 1'
_cell_length_a   9.70625677
_cell_length_b   9.70625677
_cell_length_c   9.94056657
_cell_angle_alpha   90.00000000
_cell_angle_beta   90.00000000
_cell_angle_gamma   120.00000524
_symmetry_Int_Tables_number   1
_chemical_formula_structural   Tb7Co6Sn23
_chemical_formula_sum   'Tb7 Co6 Sn23'
_cell_volume   811.04564885
_cell_formula_units_Z   1
loop_
 _symmetry_equiv_pos_site_id
 _symmetry_equiv_pos_as_xyz
  1  'x, y, z'
loop_
 _atom_site_type_symbol
 _atom_site_label
 _atom_site_symmetry_multiplicity
 _atom_site_fract_x
 _atom_site_fract_y
 _atom_site_fract_z
 _atom_site_occupancy
  Tb  Tb0  1  0.00000000  0.00000000  0.00000000  1
  Tb  Tb1  1  0.52102079  0.04204157  0.69402102  1
  Tb  Tb2  1  0.47897921  0.95795843  0.30597898  1
  Tb  Tb3  1  0.52102079  0.47897921  0.69402102  1
  Tb  Tb4  1  0.47897921  0.52102079  0.30597898  1
  Tb  Tb5  1  0.95795843  0.47897921  0.69402102  1
  Tb  Tb6  1  0.04204157  0.52102079  0.30597898  1
  Co  Co7  1  0.16758691  0.33517383  0.80196967  1
  Co  Co8  1  0.83241309  0.66482617  0.19803033  1
  Co  Co9  1  0.16758691  0.83241309  0.80196967  1
  Co  Co10  1  0.83241309  0.16758691  0.19803033  1
  Co  Co11  1  0.66482617  0.83241309  0.80196967  1
  Co  Co12  1  0.33517383  0.16758691  0.19803033  1
  Sn  Sn13  1  0.65327932  0.65327932  -0.00000000  1
  Sn  Sn14  1  0.34672068  0.34672068  0.00000000  1
  Sn  Sn15  1  1.00000000  0.34672068  -0.00000000  1
  Sn  Sn16  1  0.00000000  0.65327932  0.00000000  1
  Sn  Sn17  1  0.34672068  1.00000000  0.00000000  1
  Sn  Sn18  1  0.65327932  0.00000000  -0.00000000  1
  Sn  Sn19  1  0.66666700  0.33333300  0.18119690  1
  Sn  Sn20  1  0.33333300  0.66666700  0.81880310  1
  Sn  Sn21  1  0.00000000  0.00000000  0.50000000  1
  Sn  Sn22  1  0.21890894  0.43781788  0.54624363  1
  Sn  Sn23  1  0.78109106  0.56218212  0.45375637  1
  Sn  Sn24  1  0.21890894  0.78109106  0.54624363  1
  Sn  Sn25  1  0.78109106  0.21890894  0.45375637  1
  Sn  Sn26  1  0.56218212  0.78109106  0.54624363  1
  Sn  Sn27  1  0.43781788  0.21890894  0.45375637  1
  Sn  Sn28  1  0.66666700  0.33333300  0.88436742  1
  Sn  Sn29  1  0.33333300  0.66666700  0.11563258  1
  Sn  Sn30  1  0.88225862  0.76451724  0.72432958  1
  Sn  Sn31  1  0.11774138  0.23548276  0.27567042  1
  Sn  Sn32  1  0.88225862  0.11774138  0.72432958  1
  Sn  Sn33  1  0.11774138  0.88225862  0.27567042  1
  Sn  Sn34  1  0.23548276  0.11774138  0.72432958  1
  Sn  Sn35  1  0.76451724  0.88225862  0.27567042  1
