# generated using pymatgen
data_TbZnGe
_symmetry_space_group_name_H-M   'P 1'
_cell_length_a   4.24543987
_cell_length_b   4.24543987
_cell_length_c   15.63029160
_cell_angle_alpha   90.00000000
_cell_angle_beta   90.00000000
_cell_angle_gamma   120.00000112
_symmetry_Int_Tables_number   1
_chemical_formula_structural   TbZnGe
_chemical_formula_sum   'Tb4 Zn4 Ge4'
_cell_volume   243.97374677
_cell_formula_units_Z   4
loop_
 _symmetry_equiv_pos_site_id
 _symmetry_equiv_pos_as_xyz
  1  'x, y, z'
loop_
 _atom_site_type_symbol
 _atom_site_label
 _atom_site_symmetry_multiplicity
 _atom_site_fract_x
 _atom_site_fract_y
 _atom_site_fract_z
 _atom_site_occupancy
  Tb  Tb0  1  -0.00000000  0.00000000  0.75000000  1
  Tb  Tb1  1  -0.00000000  0.00000000  0.25000000  1
  Tb  Tb2  1  -0.00000000  0.00000000  0.00000000  1
  Tb  Tb3  1  -0.00000000  0.00000000  0.50000000  1
  Zn  Zn4  1  0.66666700  0.33333300  0.85504805  1
  Zn  Zn5  1  0.33333300  0.66666700  0.14495195  1
  Zn  Zn6  1  0.33333300  0.66666700  0.35504805  1
  Zn  Zn7  1  0.66666700  0.33333300  0.64495195  1
  Ge  Ge8  1  0.66666700  0.33333300  0.38743166  1
  Ge  Ge9  1  0.33333300  0.66666700  0.61256834  1
  Ge  Ge10  1  0.33333300  0.66666700  0.88743166  1
  Ge  Ge11  1  0.66666700  0.33333300  0.11256834  1
