# generated using pymatgen
data_TeBr4
_symmetry_space_group_name_H-M   'P 1'
_cell_length_a   11.02864327
_cell_length_b   11.02864327
_cell_length_c   16.24678026
_cell_angle_alpha   95.00357160
_cell_angle_beta   106.25921105
_cell_angle_gamma   117.32645126
_symmetry_Int_Tables_number   1
_chemical_formula_structural   TeBr4
_chemical_formula_sum   'Te8 Br32'
_cell_volume   1630.55734706
_cell_formula_units_Z   8
loop_
 _symmetry_equiv_pos_site_id
 _symmetry_equiv_pos_as_xyz
  1  'x, y, z'
loop_
 _atom_site_type_symbol
 _atom_site_label
 _atom_site_symmetry_multiplicity
 _atom_site_fract_x
 _atom_site_fract_y
 _atom_site_fract_z
 _atom_site_occupancy
  Te  Te0  1  0.14783938  0.76456472  0.38739930  1
  Te  Te1  1  0.85216062  0.23543528  0.61260070  1
  Te  Te2  1  0.87716543  0.76044009  0.11260070  1
  Te  Te3  1  0.12283457  0.23955991  0.88739930  1
  Te  Te4  1  0.79781313  0.33979526  0.18358587  1
  Te  Te5  1  0.20218687  0.66020474  0.81641413  1
  Te  Te6  1  0.65620939  0.61422725  0.31641413  1
  Te  Te7  1  0.34379061  0.38577275  0.68358587  1
  Br  Br8  1  0.18100140  0.87105295  0.54273910  1
  Br  Br9  1  0.81899860  0.12894705  0.45726090  1
  Br  Br10  1  0.82831385  0.63826230  0.95726090  1
  Br  Br11  1  0.17168615  0.36173770  0.04273910  1
  Br  Br12  1  0.35605077  0.98505511  0.37272813  1
  Br  Br13  1  0.64394923  0.01494489  0.62727187  1
  Br  Br14  1  0.11232698  0.98332265  0.12727187  1
  Br  Br15  1  0.88767302  0.01667735  0.87272813  1
  Br  Br16  1  0.57436452  0.12765686  0.19277394  1
  Br  Br17  1  0.42563548  0.87234314  0.80722606  1
  Br  Br18  1  0.43488292  0.38159059  0.30722606  1
  Br  Br19  1  0.56511708  0.61840941  0.69277394  1
  Br  Br20  1  0.62540657  0.49346079  0.12935896  1
  Br  Br21  1  0.37459343  0.50653921  0.87064104  1
  Br  Br22  1  0.86410183  0.49604762  0.37064104  1
  Br  Br23  1  0.13589817  0.50395238  0.62935896  1
  Br  Br24  1  0.71044199  0.86083854  0.06416286  1
  Br  Br25  1  0.28955801  0.13916146  0.93583714  1
  Br  Br26  1  0.29667568  0.64627914  0.43583714  1
  Br  Br27  1  0.70332432  0.35372086  0.56416286  1
  Br  Br28  1  0.74093339  0.24094504  0.02078044  1
  Br  Br29  1  0.25906661  0.75905496  0.97921956  1
  Br  Br30  1  0.72016460  0.72015295  0.47921956  1
  Br  Br31  1  0.27983540  0.27984705  0.52078044  1
  Br  Br32  1  0.93084362  0.86679286  0.31042924  1
  Br  Br33  1  0.06915638  0.13320714  0.68957076  1
  Br  Br34  1  0.05636362  0.62041437  0.18957076  1
  Br  Br35  1  0.94363638  0.37958563  0.81042924  1
  Br  Br36  1  0.97519998  0.25399055  0.24527232  1
  Br  Br37  1  0.02480002  0.74600945  0.75472768  1
  Br  Br38  1  0.50871824  0.72992766  0.25472768  1
  Br  Br39  1  0.49128176  0.27007234  0.74527232  1
