# generated using pymatgen
data_Tl2CoI4
_symmetry_space_group_name_H-M   'P 1'
_cell_length_a   7.76952628
_cell_length_b   8.10497695
_cell_length_c   9.74004512
_cell_angle_alpha   90.00000000
_cell_angle_beta   108.40409831
_cell_angle_gamma   90.00000000
_symmetry_Int_Tables_number   1
_chemical_formula_structural   Tl2CoI4
_chemical_formula_sum   'Tl4 Co2 I8'
_cell_volume   581.97780896
_cell_formula_units_Z   2
loop_
 _symmetry_equiv_pos_site_id
 _symmetry_equiv_pos_as_xyz
  1  'x, y, z'
loop_
 _atom_site_type_symbol
 _atom_site_label
 _atom_site_symmetry_multiplicity
 _atom_site_fract_x
 _atom_site_fract_y
 _atom_site_fract_z
 _atom_site_occupancy
  Tl  Tl0  1  0.21871664  0.25000000  0.55125061  1
  Tl  Tl1  1  0.78128336  0.75000000  0.44874939  1
  Tl  Tl2  1  0.26321498  0.25000000  0.06805349  1
  Tl  Tl3  1  0.73678502  0.75000000  0.93194651  1
  Co  Co4  1  0.77932836  0.25000000  0.70144073  1
  Co  Co5  1  0.22067164  0.75000000  0.29855927  1
  I  I6  1  0.60103054  0.25000000  0.42859918  1
  I  I7  1  0.39896946  0.75000000  0.57140082  1
  I  I8  1  0.00551531  0.99917607  0.23690516  1
  I  I9  1  0.99448469  0.00082393  0.76309484  1
  I  I10  1  0.99448469  0.49917607  0.76309484  1
  I  I11  1  0.00551531  0.50082393  0.23690516  1
  I  I12  1  0.58201102  0.25000000  0.87056906  1
  I  I13  1  0.41798898  0.75000000  0.12943094  1
