# generated using pymatgen
data_TbTlS2O9
_symmetry_space_group_name_H-M   'P 1'
_cell_length_a   8.55220903
_cell_length_b   10.51411310
_cell_length_c   10.21988171
_cell_angle_alpha   119.89159762
_cell_angle_beta   90.00000000
_cell_angle_gamma   90.00000000
_symmetry_Int_Tables_number   1
_chemical_formula_structural   TbTlS2O9
_chemical_formula_sum   'Tb4 Tl4 S8 O36'
_cell_volume   796.71099586
_cell_formula_units_Z   4
loop_
 _symmetry_equiv_pos_site_id
 _symmetry_equiv_pos_as_xyz
  1  'x, y, z'
loop_
 _atom_site_type_symbol
 _atom_site_label
 _atom_site_symmetry_multiplicity
 _atom_site_fract_x
 _atom_site_fract_y
 _atom_site_fract_z
 _atom_site_occupancy
  Tb  Tb0  1  0.36238209  0.96309707  0.71692945  1
  Tb  Tb1  1  0.63761791  0.03690293  0.28307055  1
  Tb  Tb2  1  0.86238209  0.53690293  0.78307055  1
  Tb  Tb3  1  0.13761791  0.46309707  0.21692945  1
  Tl  Tl4  1  0.33234733  0.68758524  0.96525311  1
  Tl  Tl5  1  0.66765267  0.31241476  0.03474689  1
  Tl  Tl6  1  0.83234733  0.81241476  0.53474689  1
  Tl  Tl7  1  0.16765267  0.18758524  0.46525311  1
  S  S8  1  0.12993953  0.31621940  0.87344971  1
  S  S9  1  0.87006047  0.68378060  0.12655029  1
  S  S10  1  0.62993953  0.18378060  0.62655029  1
  S  S11  1  0.37006047  0.81621940  0.37344971  1
  S  S12  1  0.19944072  0.60314774  0.59859312  1
  S  S13  1  0.80055928  0.39685226  0.40140688  1
  S  S14  1  0.69944072  0.89685226  0.90140688  1
  S  S15  1  0.30055928  0.10314774  0.09859312  1
  O  O16  1  0.78366703  0.03799620  0.96893300  1
  O  O17  1  0.21633297  0.96200380  0.03106700  1
  O  O18  1  0.28366703  0.46200380  0.53106700  1
  O  O19  1  0.71633297  0.53799620  0.46893300  1
  O  O20  1  0.20368042  0.17521156  0.76283576  1
  O  O21  1  0.79631958  0.82478844  0.23716424  1
  O  O22  1  0.70368042  0.32478844  0.73716424  1
  O  O23  1  0.29631958  0.67521156  0.26283576  1
  O  O24  1  0.30989252  0.72905886  0.67587429  1
  O  O25  1  0.69010748  0.27094114  0.32412571  1
  O  O26  1  0.80989252  0.77094114  0.82412571  1
  O  O27  1  0.19010748  0.22905886  0.17587429  1
  O  O28  1  0.38545771  0.11712063  0.97823110  1
  O  O29  1  0.61454229  0.88287937  0.02176890  1
  O  O30  1  0.88545771  0.38287937  0.52176890  1
  O  O31  1  0.11454229  0.61712063  0.47823110  1
  O  O32  1  0.09357225  0.94397162  0.76864108  1
  O  O33  1  0.90642775  0.05602838  0.23135892  1
  O  O34  1  0.59357225  0.55602838  0.73135892  1
  O  O35  1  0.40642775  0.44397162  0.26864108  1
  O  O36  1  0.25033263  0.42012552  0.98118031  1
  O  O37  1  0.74966737  0.57987448  0.01881969  1
  O  O38  1  0.75033263  0.07987448  0.51881969  1
  O  O39  1  0.24966737  0.92012552  0.48118031  1
  O  O40  1  0.01207671  0.29900531  0.97047945  1
  O  O41  1  0.98792329  0.70099469  0.02952055  1
  O  O42  1  0.51207671  0.20099469  0.52952055  1
  O  O43  1  0.48792329  0.79900531  0.47047945  1
  O  O44  1  0.05753273  0.38023098  0.78630580  1
  O  O45  1  0.94246727  0.61976902  0.21369420  1
  O  O46  1  0.55753273  0.11976902  0.71369420  1
  O  O47  1  0.44246727  0.88023098  0.28630580  1
  O  O48  1  0.58812164  0.88545130  0.78422351  1
  O  O49  1  0.41187836  0.11454870  0.21577649  1
  O  O50  1  0.08812164  0.61454870  0.71577649  1
  O  O51  1  0.91187836  0.38545130  0.28422351  1
