# generated using pymatgen
data_Tm(Al5Re)2
_symmetry_space_group_name_H-M   'P 1'
_cell_length_a   6.95013972
_cell_length_b   6.95013972
_cell_length_c   26.93738236
_cell_angle_alpha   90.00000000
_cell_angle_beta   90.00000000
_cell_angle_gamma   95.95523930
_symmetry_Int_Tables_number   1
_chemical_formula_structural   Tm(Al5Re)2
_chemical_formula_sum   'Tm6 Al60 Re12'
_cell_volume   1294.17300441
_cell_formula_units_Z   6
loop_
 _symmetry_equiv_pos_site_id
 _symmetry_equiv_pos_as_xyz
  1  'x, y, z'
loop_
 _atom_site_type_symbol
 _atom_site_label
 _atom_site_symmetry_multiplicity
 _atom_site_fract_x
 _atom_site_fract_y
 _atom_site_fract_z
 _atom_site_occupancy
  Tm  Tm0  1  0.87600570  0.12399430  0.91525348  1
  Tm  Tm1  1  0.12399430  0.87600570  0.08474652  1
  Tm  Tm2  1  0.12399430  0.87600570  0.41525348  1
  Tm  Tm3  1  0.87600570  0.12399430  0.58474652  1
  Tm  Tm4  1  0.61700925  0.38299075  0.75000000  1
  Tm  Tm5  1  0.38299075  0.61700925  0.25000000  1
  Al  Al6  1  0.59764168  0.40235832  0.86605218  1
  Al  Al7  1  0.40235832  0.59764168  0.13394782  1
  Al  Al8  1  0.40235832  0.59764168  0.36605218  1
  Al  Al9  1  0.59764168  0.40235832  0.63394782  1
  Al  Al10  1  0.59615312  0.81801534  0.75000000  1
  Al  Al11  1  0.40384688  0.18198466  0.25000000  1
  Al  Al12  1  0.18198466  0.40384688  0.75000000  1
  Al  Al13  1  0.81801534  0.59615312  0.25000000  1
  Al  Al14  1  0.87549216  0.12450784  0.35411718  1
  Al  Al15  1  0.12450784  0.87549216  0.64588282  1
  Al  Al16  1  0.12450784  0.87549216  0.85411718  1
  Al  Al17  1  0.87549216  0.12450784  0.14588282  1
  Al  Al18  1  0.37009333  0.62990667  0.82249132  1
  Al  Al19  1  0.62990667  0.37009333  0.17750868  1
  Al  Al20  1  0.62990667  0.37009333  0.32249132  1
  Al  Al21  1  0.37009333  0.62990667  0.67750868  1
  Al  Al22  1  0.52897514  0.77282534  0.91932234  1
  Al  Al23  1  0.47102486  0.22717466  0.08067766  1
  Al  Al24  1  0.47102486  0.22717466  0.41932234  1
  Al  Al25  1  0.22717466  0.47102486  0.58067766  1
  Al  Al26  1  0.52897514  0.77282534  0.58067766  1
  Al  Al27  1  0.77282534  0.52897514  0.41932234  1
  Al  Al28  1  0.77282534  0.52897514  0.08067766  1
  Al  Al29  1  0.22717466  0.47102486  0.91932234  1
  Al  Al30  1  0.26070125  0.03840466  0.75000000  1
  Al  Al31  1  0.73929875  0.96159534  0.25000000  1
  Al  Al32  1  0.96159534  0.73929875  0.75000000  1
  Al  Al33  1  0.03840466  0.26070125  0.25000000  1
  Al  Al34  1  0.62284380  0.37715620  0.97795139  1
  Al  Al35  1  0.37715620  0.62284380  0.02204861  1
  Al  Al36  1  0.37715620  0.62284380  0.47795139  1
  Al  Al37  1  0.62284380  0.37715620  0.52204861  1
  Al  Al38  1  0.52588370  0.03174279  0.82852478  1
  Al  Al39  1  0.47411630  0.96825721  0.17147522  1
  Al  Al40  1  0.47411630  0.96825721  0.32852478  1
  Al  Al41  1  0.96825721  0.47411630  0.67147522  1
  Al  Al42  1  0.52588370  0.03174279  0.67147522  1
  Al  Al43  1  0.03174279  0.52588370  0.32852478  1
  Al  Al44  1  0.03174279  0.52588370  0.17147522  1
  Al  Al45  1  0.96825721  0.47411630  0.82852478  1
  Al  Al46  1  0.90624047  0.09375953  0.80035682  1
  Al  Al47  1  0.09375953  0.90624047  0.19964318  1
  Al  Al48  1  0.09375953  0.90624047  0.30035682  1
  Al  Al49  1  0.90624047  0.09375953  0.69964318  1
  Al  Al50  1  0.38021824  0.12402123  0.91697550  1
  Al  Al51  1  0.61978176  0.87597877  0.08302450  1
  Al  Al52  1  0.61978176  0.87597877  0.41697550  1
  Al  Al53  1  0.87597877  0.61978176  0.58302450  1
  Al  Al54  1  0.38021824  0.12402123  0.58302450  1
  Al  Al55  1  0.12402123  0.38021824  0.41697550  1
  Al  Al56  1  0.12402123  0.38021824  0.08302450  1
  Al  Al57  1  0.87597877  0.61978176  0.91697550  1
  Al  Al58  1  0.79415298  0.79415298  0.00000000  1
  Al  Al59  1  0.20584702  0.20584702  0.00000000  1
  Al  Al60  1  0.20584702  0.20584702  0.50000000  1
  Al  Al61  1  0.79415298  0.79415298  0.50000000  1
  Al  Al62  1  0.83542943  0.16457057  0.46598406  1
  Al  Al63  1  0.16457057  0.83542943  0.53401594  1
  Al  Al64  1  0.16457057  0.83542943  0.96598406  1
  Al  Al65  1  0.83542943  0.16457057  0.03401594  1
  Re  Re66  1  0.74489339  0.75136947  0.83689119  1
  Re  Re67  1  0.25510661  0.24863053  0.16310881  1
  Re  Re68  1  0.25510661  0.24863053  0.33689119  1
  Re  Re69  1  0.24863053  0.25510661  0.66310881  1
  Re  Re70  1  0.74489339  0.75136947  0.66310881  1
  Re  Re71  1  0.75136947  0.74489339  0.33689119  1
  Re  Re72  1  0.75136947  0.74489339  0.16310881  1
  Re  Re73  1  0.24863053  0.25510661  0.83689119  1
  Re  Re74  1  0.50000000  0.00000000  0.00000000  1
  Re  Re75  1  0.50000000  0.00000000  0.50000000  1
  Re  Re76  1  0.00000000  0.50000000  0.50000000  1
  Re  Re77  1  0.00000000  0.50000000  0.00000000  1
