# generated using pymatgen
data_LiHCO2
_symmetry_space_group_name_H-M   'P 1'
_cell_length_a   8.63782835
_cell_length_b   8.63782835
_cell_length_c   13.77546985
_cell_angle_alpha   82.43335962
_cell_angle_beta   97.56664038
_cell_angle_gamma   89.98717637
_symmetry_Int_Tables_number   1
_chemical_formula_structural   LiHCO2
_chemical_formula_sum   'Li16 H16 C16 O32'
_cell_volume   1009.83336058
_cell_formula_units_Z   16
loop_
 _symmetry_equiv_pos_site_id
 _symmetry_equiv_pos_as_xyz
  1  'x, y, z'
loop_
 _atom_site_type_symbol
 _atom_site_label
 _atom_site_symmetry_multiplicity
 _atom_site_fract_x
 _atom_site_fract_y
 _atom_site_fract_z
 _atom_site_occupancy
  Li  Li0  1  0.16790433  0.17508339  0.99139935  1
  Li  Li1  1  0.17508339  0.16790433  0.50860065  1
  Li  Li2  1  0.83209567  0.82491661  0.00860065  1
  Li  Li3  1  0.82491661  0.83209567  0.49139935  1
  Li  Li4  1  0.94110605  0.10283641  0.84015077  1
  Li  Li5  1  0.10283641  0.94110605  0.65984923  1
  Li  Li6  1  0.05889395  0.89716359  0.15984923  1
  Li  Li7  1  0.89716359  0.05889395  0.34015077  1
  Li  Li8  1  0.60827202  0.26922606  0.24547658  1
  Li  Li9  1  0.26922606  0.60827202  0.25452342  1
  Li  Li10  1  0.39172798  0.73077394  0.75452342  1
  Li  Li11  1  0.73077394  0.39172798  0.74547658  1
  Li  Li12  1  0.39248820  0.41539277  0.08827840  1
  Li  Li13  1  0.41539277  0.39248820  0.41172160  1
  Li  Li14  1  0.60751180  0.58460723  0.91172160  1
  Li  Li15  1  0.58460723  0.60751180  0.58827840  1
  H  H16  1  0.35591908  0.90723621  0.91707332  1
  H  H17  1  0.90723621  0.35591908  0.58292668  1
  H  H18  1  0.64408092  0.09276379  0.08292668  1
  H  H19  1  0.09276379  0.64408092  0.41707332  1
  H  H20  1  0.87409957  0.39506993  0.02460549  1
  H  H21  1  0.39506993  0.87409957  0.47539451  1
  H  H22  1  0.12590043  0.60493007  0.97539451  1
  H  H23  1  0.60493007  0.12590043  0.52460549  1
  H  H24  1  0.22916490  0.38275864  0.81496176  1
  H  H25  1  0.38275864  0.22916490  0.68503824  1
  H  H26  1  0.77083510  0.61724136  0.18503824  1
  H  H27  1  0.61724136  0.77083510  0.31496176  1
  H  H28  1  0.33858235  0.02170745  0.26036197  1
  H  H29  1  0.02170745  0.33858235  0.23963803  1
  H  H30  1  0.66141765  0.97829255  0.73963803  1
  H  H31  1  0.97829255  0.66141765  0.76036197  1
  C  C32  1  0.24933247  0.94008274  0.86330036  1
  C  C33  1  0.94008274  0.24933247  0.63669964  1
  C  C34  1  0.75066753  0.05991726  0.13669964  1
  C  C35  1  0.05991726  0.75066753  0.36330036  1
  C  C36  1  0.85715360  0.35222619  0.95122817  1
  C  C37  1  0.35222619  0.85715360  0.54877183  1
  C  C38  1  0.14284640  0.64777381  0.04877183  1
  C  C39  1  0.64777381  0.14284640  0.45122817  1
  C  C40  1  0.31198850  0.42316820  0.87504565  1
  C  C41  1  0.42316820  0.31198850  0.62495435  1
  C  C42  1  0.68801150  0.57683180  0.12495435  1
  C  C43  1  0.57683180  0.68801150  0.37504565  1
  C  C44  1  0.31542660  0.10166393  0.18960837  1
  C  C45  1  0.10166393  0.31542660  0.31039163  1
  C  C46  1  0.68457340  0.89833607  0.81039163  1
  C  C47  1  0.89833607  0.68457340  0.68960837  1
  O  O48  1  0.15744359  0.04025626  0.88508796  1
  O  O49  1  0.04025626  0.15744359  0.61491204  1
  O  O50  1  0.84255641  0.95974374  0.11491204  1
  O  O51  1  0.95974374  0.84255641  0.38508796  1
  O  O52  1  0.23100193  0.87409974  0.78569329  1
  O  O53  1  0.87409974  0.23100193  0.71430671  1
  O  O54  1  0.76899807  0.12590026  0.21430671  1
  O  O55  1  0.12590026  0.76899807  0.28569329  1
  O  O56  1  0.95294205  0.24853551  0.93801464  1
  O  O57  1  0.24853551  0.95294205  0.56198536  1
  O  O58  1  0.04705795  0.75146449  0.06198536  1
  O  O59  1  0.75146449  0.04705795  0.43801464  1
  O  O60  1  0.74456962  0.41082967  0.88853314  1
  O  O61  1  0.41082967  0.74456962  0.61146686  1
  O  O62  1  0.25543038  0.58917033  0.11146686  1
  O  O63  1  0.58917033  0.25543038  0.38853314  1
  O  O64  1  0.39585973  0.53870804  0.85191426  1
  O  O65  1  0.53870804  0.39585973  0.64808574  1
  O  O66  1  0.60414027  0.46129196  0.14808574  1
  O  O67  1  0.46129196  0.60414027  0.35191426  1
  O  O68  1  0.31391156  0.34920925  0.96125396  1
  O  O69  1  0.34920925  0.31391156  0.53874604  1
  O  O70  1  0.68608844  0.65079075  0.03874604  1
  O  O71  1  0.65079075  0.68608844  0.46125396  1
  O  O72  1  0.40401846  0.21676951  0.17719153  1
  O  O73  1  0.21676951  0.40401846  0.32280847  1
  O  O74  1  0.59598154  0.78323049  0.82280847  1
  O  O75  1  0.78323049  0.59598154  0.67719153  1
  O  O76  1  0.20082830  0.06929312  0.12789202  1
  O  O77  1  0.06929312  0.20082830  0.37210798  1
  O  O78  1  0.79917170  0.93070688  0.87210798  1
  O  O79  1  0.93070688  0.79917170  0.62789202  1
