# generated using pymatgen
data_Tl3Cr2(PS4)3
_symmetry_space_group_name_H-M   'P 1'
_cell_length_a   9.97003648
_cell_length_b   12.83092485
_cell_length_c   17.95237737
_cell_angle_alpha   90.00000000
_cell_angle_beta   96.17579099
_cell_angle_gamma   90.00000000
_symmetry_Int_Tables_number   1
_chemical_formula_structural   Tl3Cr2(PS4)3
_chemical_formula_sum   'Tl12 Cr8 P12 S48'
_cell_volume   2283.22605097
_cell_formula_units_Z   4
loop_
 _symmetry_equiv_pos_site_id
 _symmetry_equiv_pos_as_xyz
  1  'x, y, z'
loop_
 _atom_site_type_symbol
 _atom_site_label
 _atom_site_symmetry_multiplicity
 _atom_site_fract_x
 _atom_site_fract_y
 _atom_site_fract_z
 _atom_site_occupancy
  Tl  Tl0  1  0.94641484  0.42041787  0.13919833  1
  Tl  Tl1  1  0.05358516  0.57958213  0.86080167  1
  Tl  Tl2  1  0.55358516  0.92041787  0.36080167  1
  Tl  Tl3  1  0.44641484  0.07958213  0.63919833  1
  Tl  Tl4  1  0.24110318  0.42488118  0.45220599  1
  Tl  Tl5  1  0.75889682  0.57511882  0.54779401  1
  Tl  Tl6  1  0.25889682  0.92488118  0.04779401  1
  Tl  Tl7  1  0.74110318  0.07511882  0.95220599  1
  Tl  Tl8  1  0.50337791  0.62721795  0.20165961  1
  Tl  Tl9  1  0.49662209  0.37278205  0.79834039  1
  Tl  Tl10  1  0.99662209  0.12721795  0.29834039  1
  Tl  Tl11  1  0.00337791  0.87278205  0.70165961  1
  Cr  Cr12  1  0.10613659  0.77838842  0.39909551  1
  Cr  Cr13  1  0.89386341  0.22161158  0.60090449  1
  Cr  Cr14  1  0.39386341  0.27838842  0.10090449  1
  Cr  Cr15  1  0.60613659  0.72161158  0.89909551  1
  Cr  Cr16  1  0.92769746  0.76815623  0.21187281  1
  Cr  Cr17  1  0.07230254  0.23184377  0.78812719  1
  Cr  Cr18  1  0.57230254  0.26815623  0.28812719  1
  Cr  Cr19  1  0.42769746  0.73184377  0.71187281  1
  P  P20  1  0.77492616  0.74095357  0.05404485  1
  P  P21  1  0.22507384  0.25904643  0.94595515  1
  P  P22  1  0.72507384  0.24095357  0.44595515  1
  P  P23  1  0.27492616  0.75904643  0.55404485  1
  P  P24  1  0.21493396  0.86326188  0.25291198  1
  P  P25  1  0.78506604  0.13673812  0.74708802  1
  P  P26  1  0.28506604  0.36326188  0.24708802  1
  P  P27  1  0.71493396  0.63673812  0.75291198  1
  P  P28  1  0.81454153  0.68418202  0.35805559  1
  P  P29  1  0.18545847  0.31581798  0.64194441  1
  P  P30  1  0.68545847  0.18418202  0.14194441  1
  P  P31  1  0.31454153  0.81581798  0.85805559  1
  S  S32  1  0.62177704  0.63845957  0.02107978  1
  S  S33  1  0.37822296  0.36154043  0.97892022  1
  S  S34  1  0.87822296  0.13845957  0.47892022  1
  S  S35  1  0.12177704  0.86154043  0.52107978  1
  S  S36  1  0.14641483  0.71193337  0.27440551  1
  S  S37  1  0.85358517  0.28806663  0.72559449  1
  S  S38  1  0.35358517  0.21193337  0.22559449  1
  S  S39  1  0.64641483  0.78806663  0.77440551  1
  S  S40  1  0.86722474  0.17888137  0.10514846  1
  S  S41  1  0.13277526  0.82111863  0.89485154  1
  S  S42  1  0.63277526  0.67888137  0.39485154  1
  S  S43  1  0.36722474  0.32111863  0.60514846  1
  S  S44  1  0.22569512  0.92888308  0.35818088  1
  S  S45  1  0.77430488  0.07111692  0.64181912  1
  S  S46  1  0.27430488  0.42888308  0.14181912  1
  S  S47  1  0.72569512  0.57111692  0.85818088  1
  S  S48  1  0.05535931  0.92175181  0.18362745  1
  S  S49  1  0.94464069  0.07824819  0.81637255  1
  S  S50  1  0.44464069  0.42175181  0.31637255  1
  S  S51  1  0.55535931  0.57824819  0.68362745  1
  S  S52  1  0.97305392  0.63148522  0.43028316  1
  S  S53  1  0.02694608  0.36851478  0.56971684  1
  S  S54  1  0.52694608  0.13148522  0.06971684  1
  S  S55  1  0.47305392  0.86851478  0.93028316  1
  S  S56  1  0.88378817  0.83635584  0.33622604  1
  S  S57  1  0.11621183  0.16364416  0.66377396  1
  S  S58  1  0.61621183  0.33635584  0.16377396  1
  S  S59  1  0.38378817  0.66364416  0.83622604  1
  S  S60  1  0.73021870  0.83691104  0.13943503  1
  S  S61  1  0.26978130  0.16308896  0.86056497  1
  S  S62  1  0.76978130  0.33691104  0.36056497  1
  S  S63  1  0.23021870  0.66308896  0.63943503  1
  S  S64  1  0.10761636  0.36849369  0.29069068  1
  S  S65  1  0.89238364  0.63150631  0.70930932  1
  S  S66  1  0.39238364  0.86849369  0.20930932  1
  S  S67  1  0.60761636  0.13150631  0.79069068  1
  S  S68  1  0.95465776  0.67671277  0.09817749  1
  S  S69  1  0.04534224  0.32328723  0.90182251  1
  S  S70  1  0.54534224  0.17671277  0.40182251  1
  S  S71  1  0.45465776  0.82328723  0.59817749  1
  S  S72  1  0.29936328  0.68610981  0.45439601  1
  S  S73  1  0.70063672  0.31389019  0.54560399  1
  S  S74  1  0.20063672  0.18610981  0.04560399  1
  S  S75  1  0.79936328  0.81389019  0.95439601  1
  S  S76  1  0.81643687  0.61684450  0.25356677  1
  S  S77  1  0.18356313  0.38315550  0.74643323  1
  S  S78  1  0.68356313  0.11684450  0.24643323  1
  S  S79  1  0.31643687  0.88315550  0.75356677  1
