# generated using pymatgen
data_Ta4Se8SI8
_symmetry_space_group_name_H-M   'P 1'
_cell_length_a   13.35517770
_cell_length_b   14.98049982
_cell_length_c   15.12131990
_cell_angle_alpha   90.00000000
_cell_angle_beta   90.00000000
_cell_angle_gamma   90.00000000
_symmetry_Int_Tables_number   1
_chemical_formula_structural   Ta4Se8SI8
_chemical_formula_sum   'Ta16 Se32 S4 I32'
_cell_volume   3025.28069417
_cell_formula_units_Z   4
loop_
 _symmetry_equiv_pos_site_id
 _symmetry_equiv_pos_as_xyz
  1  'x, y, z'
loop_
 _atom_site_type_symbol
 _atom_site_label
 _atom_site_symmetry_multiplicity
 _atom_site_fract_x
 _atom_site_fract_y
 _atom_site_fract_z
 _atom_site_occupancy
  Ta  Ta0  1  0.29546065  0.68266843  0.49649449  1
  Ta  Ta1  1  0.79546065  0.31733157  0.50350551  1
  Ta  Ta2  1  0.29546065  0.18266843  0.00350551  1
  Ta  Ta3  1  0.79546065  0.81733157  0.99649449  1
  Ta  Ta4  1  0.07762068  0.20506667  0.11125169  1
  Ta  Ta5  1  0.57762068  0.79493333  0.88874831  1
  Ta  Ta6  1  0.07762068  0.70506667  0.38874831  1
  Ta  Ta7  1  0.57762068  0.29493333  0.61125169  1
  Ta  Ta8  1  0.19906078  0.19822899  0.30128008  1
  Ta  Ta9  1  0.69906078  0.80177101  0.69871992  1
  Ta  Ta10  1  0.19906078  0.69822899  0.19871992  1
  Ta  Ta11  1  0.69906078  0.30177101  0.80128008  1
  Ta  Ta12  1  0.41803438  0.17565257  0.19790671  1
  Ta  Ta13  1  0.91803438  0.82434743  0.80209329  1
  Ta  Ta14  1  0.41803438  0.67565257  0.30209329  1
  Ta  Ta15  1  0.91803438  0.32434743  0.69790671  1
  Se  Se16  1  0.13950338  0.07076936  0.00980299  1
  Se  Se17  1  0.63950338  0.92923064  0.99019701  1
  Se  Se18  1  0.13950338  0.57076936  0.49019701  1
  Se  Se19  1  0.63950338  0.42923064  0.50980299  1
  Se  Se20  1  0.61460886  0.29170973  0.43718556  1
  Se  Se21  1  0.11460886  0.70829027  0.56281444  1
  Se  Se22  1  0.61460886  0.79170973  0.06281444  1
  Se  Se23  1  0.11460886  0.20829027  0.93718556  1
  Se  Se24  1  0.32355859  0.05978109  0.30262924  1
  Se  Se25  1  0.82355859  0.94021891  0.69737076  1
  Se  Se26  1  0.32355859  0.55978109  0.19737076  1
  Se  Se27  1  0.82355859  0.44021891  0.80262924  1
  Se  Se28  1  0.39581259  0.04866260  0.07713550  1
  Se  Se29  1  0.89581259  0.95133740  0.92286450  1
  Se  Se30  1  0.39581259  0.54866260  0.42286450  1
  Se  Se31  1  0.89581259  0.45133740  0.57713550  1
  Se  Se32  1  0.38125628  0.19179217  0.37074408  1
  Se  Se33  1  0.88125628  0.80820783  0.62925592  1
  Se  Se34  1  0.38125628  0.69179217  0.12925592  1
  Se  Se35  1  0.88125628  0.30820783  0.87074408  1
  Se  Se36  1  0.00409315  0.22393040  0.27337335  1
  Se  Se37  1  0.50409315  0.77606960  0.72662665  1
  Se  Se38  1  0.00409315  0.72393040  0.22662665  1
  Se  Se39  1  0.50409315  0.27606960  0.77337335  1
  Se  Se40  1  0.49265056  0.17519410  0.03394961  1
  Se  Se41  1  0.99265056  0.82480590  0.96605039  1
  Se  Se42  1  0.49265056  0.67519410  0.46605039  1
  Se  Se43  1  0.99265056  0.32480590  0.53394961  1
  Se  Se44  1  0.06975932  0.08132490  0.23814799  1
  Se  Se45  1  0.56975932  0.91867510  0.76185201  1
  Se  Se46  1  0.06975932  0.58132490  0.26185201  1
  Se  Se47  1  0.56975932  0.41867510  0.73814799  1
  S  S48  1  0.25302580  0.23670471  0.15212356  1
  S  S49  1  0.75302580  0.76329529  0.84787644  1
  S  S50  1  0.25302580  0.73670471  0.34787644  1
  S  S51  1  0.75302580  0.26329529  0.65212356  1
  I  I52  1  0.34059897  0.10772770  0.83951597  1
  I  I53  1  0.84059897  0.89227230  0.16048403  1
  I  I54  1  0.34059897  0.60772770  0.66048403  1
  I  I55  1  0.84059897  0.39227230  0.33951597  1
  I  I56  1  0.14147737  0.15014008  0.47262725  1
  I  I57  1  0.64147737  0.84985992  0.52737275  1
  I  I58  1  0.14147737  0.65014008  0.02737275  1
  I  I59  1  0.64147737  0.34985992  0.97262725  1
  I  I60  1  0.82517402  0.14330732  0.45666588  1
  I  I61  1  0.32517402  0.85669268  0.54333412  1
  I  I62  1  0.82517402  0.64330732  0.04333412  1
  I  I63  1  0.32517402  0.35669268  0.95666588  1
  I  I64  1  0.38207589  0.33803875  0.56778260  1
  I  I65  1  0.88207589  0.66196125  0.43221740  1
  I  I66  1  0.38207589  0.83803875  0.93221740  1
  I  I67  1  0.88207589  0.16196125  0.06778260  1
  I  I68  1  0.59754097  0.10024084  0.24890031  1
  I  I69  1  0.09754097  0.89975916  0.75109969  1
  I  I70  1  0.59754097  0.60024084  0.25109969  1
  I  I71  1  0.09754097  0.39975916  0.74890031  1
  I  I72  1  0.48461828  0.34843901  0.20642970  1
  I  I73  1  0.98461828  0.65156099  0.79357030  1
  I  I74  1  0.48461828  0.84843901  0.29357030  1
  I  I75  1  0.98461828  0.15156099  0.70642970  1
  I  I76  1  0.20532032  0.38162440  0.34179736  1
  I  I77  1  0.70532032  0.61837560  0.65820264  1
  I  I78  1  0.20532032  0.88162440  0.15820264  1
  I  I79  1  0.70532032  0.11837560  0.84179736  1
  I  I80  1  0.04853919  0.38527574  0.09093288  1
  I  I81  1  0.54853919  0.61472426  0.90906712  1
  I  I82  1  0.04853919  0.88527574  0.40906712  1
  I  I83  1  0.54853919  0.11472426  0.59093288  1
