# generated using pymatgen
data_V2Bi4O11
_symmetry_space_group_name_H-M   'P 1'
_cell_length_a   6.77319750
_cell_length_b   7.92508211
_cell_length_c   5.53156359
_cell_angle_alpha   92.50809456
_cell_angle_beta   106.96387750
_cell_angle_gamma   83.50845045
_symmetry_Int_Tables_number   1
_chemical_formula_structural   V2Bi4O11
_chemical_formula_sum   'V2 Bi4 O11'
_cell_volume   282.16556627
_cell_formula_units_Z   1
loop_
 _symmetry_equiv_pos_site_id
 _symmetry_equiv_pos_as_xyz
  1  'x, y, z'
loop_
 _atom_site_type_symbol
 _atom_site_label
 _atom_site_symmetry_multiplicity
 _atom_site_fract_x
 _atom_site_fract_y
 _atom_site_fract_z
 _atom_site_occupancy
  V  V0  1  0.45645833  0.41106694  0.94887113  1
  V  V1  1  0.94190603  0.81861476  0.13639514  1
  Bi  Bi2  1  0.01766899  0.36252912  0.12655435  1
  Bi  Bi3  1  0.19412583  0.03185064  0.67892157  1
  Bi  Bi4  1  0.60925060  0.15614304  0.43243577  1
  Bi  Bi5  1  0.72197489  0.67519944  0.58828176  1
  O  O6  1  0.06351306  0.65591511  0.34111034  1
  O  O7  1  0.95988493  0.20665110  0.77522832  1
  O  O8  1  0.05417738  0.83949701  0.89934706  1
  O  O9  1  0.91602928  0.00811314  0.32501250  1
  O  O10  1  0.20059981  0.48492034  0.92534672  1
  O  O11  1  0.52948534  0.90420740  0.48297249  1
  O  O12  1  0.55503252  0.46405917  0.70756043  1
  O  O13  1  0.47434420  0.18550630  0.97919467  1
  O  O14  1  0.61998763  0.46224151  0.23997445  1
  O  O15  1  0.26100579  0.21525049  0.40042820  1
  O  O16  1  0.70055539  0.75513448  0.97896511  1
