# generated using pymatgen
data_Tb2CdCu2
_symmetry_space_group_name_H-M   'P 1'
_cell_length_a   3.65066314
_cell_length_b   7.65650256
_cell_length_c   7.65650256
_cell_angle_alpha   90.00000000
_cell_angle_beta   90.00000000
_cell_angle_gamma   90.00000000
_symmetry_Int_Tables_number   1
_chemical_formula_structural   Tb2CdCu2
_chemical_formula_sum   'Tb4 Cd2 Cu4'
_cell_volume   214.00928941
_cell_formula_units_Z   2
loop_
 _symmetry_equiv_pos_site_id
 _symmetry_equiv_pos_as_xyz
  1  'x, y, z'
loop_
 _atom_site_type_symbol
 _atom_site_label
 _atom_site_symmetry_multiplicity
 _atom_site_fract_x
 _atom_site_fract_y
 _atom_site_fract_z
 _atom_site_occupancy
  Tb  Tb0  1  0.50000000  0.17690469  0.67690469  1
  Tb  Tb1  1  0.50000000  0.82309531  0.32309531  1
  Tb  Tb2  1  0.50000000  0.32309531  0.17690469  1
  Tb  Tb3  1  0.50000000  0.67690469  0.82309531  1
  Cd  Cd4  1  -0.00000000  -0.00000000  0.00000000  1
  Cd  Cd5  1  -0.00000000  0.50000000  0.50000000  1
  Cu  Cu6  1  -0.00000000  0.61682876  0.11682876  1
  Cu  Cu7  1  0.00000000  0.38317124  0.88317124  1
  Cu  Cu8  1  -0.00000000  0.88317124  0.61682876  1
  Cu  Cu9  1  0.00000000  0.11682876  0.38317124  1
