# generated using pymatgen
data_Sr2SmBiO6
_symmetry_space_group_name_H-M   'P 1'
_cell_length_a   5.98013074
_cell_length_b   6.16925403
_cell_length_c   8.56720336
_cell_angle_alpha   90.00000000
_cell_angle_beta   90.02596737
_cell_angle_gamma   90.00000000
_symmetry_Int_Tables_number   1
_chemical_formula_structural   Sr2SmBiO6
_chemical_formula_sum   'Sr4 Sm2 Bi2 O12'
_cell_volume   316.06933567
_cell_formula_units_Z   2
loop_
 _symmetry_equiv_pos_site_id
 _symmetry_equiv_pos_as_xyz
  1  'x, y, z'
loop_
 _atom_site_type_symbol
 _atom_site_label
 _atom_site_symmetry_multiplicity
 _atom_site_fract_x
 _atom_site_fract_y
 _atom_site_fract_z
 _atom_site_occupancy
  Sr  Sr0  1  0.01317250  0.45190625  0.25267760  1
  Sr  Sr1  1  0.98682750  0.54809375  0.74732240  1
  Sr  Sr2  1  0.48682750  0.95190625  0.24732240  1
  Sr  Sr3  1  0.51317250  0.04809375  0.75267760  1
  Sm  Sm4  1  -0.00000000  -0.00000000  0.50000000  1
  Sm  Sm5  1  0.50000000  0.50000000  -0.00000000  1
  Bi  Bi6  1  -0.00000000  -0.00000000  -0.00000000  1
  Bi  Bi7  1  0.50000000  0.50000000  0.50000000  1
  O  O8  1  0.90048517  0.04189836  0.23940330  1
  O  O9  1  0.09951483  0.95810164  0.76059670  1
  O  O10  1  0.59951483  0.54189836  0.26059670  1
  O  O11  1  0.40048517  0.45810164  0.73940330  1
  O  O12  1  0.19218043  0.71523599  0.05699714  1
  O  O13  1  0.80781957  0.28476401  0.94300286  1
  O  O14  1  0.30781957  0.21523599  0.44300286  1
  O  O15  1  0.69218043  0.78476401  0.55699714  1
  O  O16  1  0.28913574  0.19436444  0.04836199  1
  O  O17  1  0.71086426  0.80563556  0.95163801  1
  O  O18  1  0.21086426  0.69436444  0.45163801  1
  O  O19  1  0.78913574  0.30563556  0.54836199  1
