# generated using pymatgen
data_Tb2Hf3Si4
_symmetry_space_group_name_H-M   'P 1'
_cell_length_a   7.29778481
_cell_length_b   7.29778481
_cell_length_c   13.40847604
_cell_angle_alpha   90.00000000
_cell_angle_beta   90.00000000
_cell_angle_gamma   90.00000000
_symmetry_Int_Tables_number   1
_chemical_formula_structural   Tb2Hf3Si4
_chemical_formula_sum   'Tb8 Hf12 Si16'
_cell_volume   714.10410007
_cell_formula_units_Z   4
loop_
 _symmetry_equiv_pos_site_id
 _symmetry_equiv_pos_as_xyz
  1  'x, y, z'
loop_
 _atom_site_type_symbol
 _atom_site_label
 _atom_site_symmetry_multiplicity
 _atom_site_fract_x
 _atom_site_fract_y
 _atom_site_fract_z
 _atom_site_occupancy
  Tb  Tb0  1  0.99669584  0.34330787  0.21512362  1
  Tb  Tb1  1  0.00330416  0.65669213  0.71512362  1
  Tb  Tb2  1  0.15669213  0.49669584  0.46512362  1
  Tb  Tb3  1  0.50330416  0.84330787  0.03487638  1
  Tb  Tb4  1  0.84330787  0.50330416  0.96512362  1
  Tb  Tb5  1  0.49669584  0.15669213  0.53487638  1
  Tb  Tb6  1  0.34330787  0.99669584  0.78487638  1
  Tb  Tb7  1  0.65669213  0.00330416  0.28487638  1
  Hf  Hf8  1  0.17407713  0.17407713  0.00000000  1
  Hf  Hf9  1  0.82592287  0.82592287  0.50000000  1
  Hf  Hf10  1  0.32592287  0.67407713  0.25000000  1
  Hf  Hf11  1  0.67407713  0.32592287  0.75000000  1
  Hf  Hf12  1  0.14999888  0.99541658  0.37452318  1
  Hf  Hf13  1  0.85000112  0.00458342  0.87452318  1
  Hf  Hf14  1  0.50458342  0.64999888  0.62452318  1
  Hf  Hf15  1  0.35000112  0.49541658  0.87547682  1
  Hf  Hf16  1  0.49541658  0.35000112  0.12452318  1
  Hf  Hf17  1  0.64999888  0.50458342  0.37547682  1
  Hf  Hf18  1  0.99541658  0.14999888  0.62547682  1
  Hf  Hf19  1  0.00458342  0.85000112  0.12547682  1
  Si  Si20  1  0.36414873  0.29521022  0.31710700  1
  Si  Si21  1  0.63585127  0.70478978  0.81710700  1
  Si  Si22  1  0.20478978  0.86414873  0.56710700  1
  Si  Si23  1  0.13585127  0.79521022  0.93289300  1
  Si  Si24  1  0.79521022  0.13585127  0.06710700  1
  Si  Si25  1  0.86414873  0.20478978  0.43289300  1
  Si  Si26  1  0.29521022  0.36414873  0.68289300  1
  Si  Si27  1  0.70478978  0.63585127  0.18289300  1
  Si  Si28  1  0.29530509  0.04821674  0.18541577  1
  Si  Si29  1  0.70469491  0.95178326  0.68541577  1
  Si  Si30  1  0.45178326  0.79530509  0.43541577  1
  Si  Si31  1  0.20469491  0.54821674  0.06458423  1
  Si  Si32  1  0.54821674  0.20469491  0.93541577  1
  Si  Si33  1  0.79530509  0.45178326  0.56458423  1
  Si  Si34  1  0.04821674  0.29530509  0.81458423  1
  Si  Si35  1  0.95178326  0.70469491  0.31458423  1
