# generated using pymatgen
data_Tb3Pt
_symmetry_space_group_name_H-M   'P 1'
_cell_length_a   6.50759876
_cell_length_b   7.06951775
_cell_length_c   9.67941330
_cell_angle_alpha   90.00000000
_cell_angle_beta   90.00000000
_cell_angle_gamma   90.00000000
_symmetry_Int_Tables_number   1
_chemical_formula_structural   Tb3Pt
_chemical_formula_sum   'Tb12 Pt4'
_cell_volume   445.30707078
_cell_formula_units_Z   4
loop_
 _symmetry_equiv_pos_site_id
 _symmetry_equiv_pos_as_xyz
  1  'x, y, z'
loop_
 _atom_site_type_symbol
 _atom_site_label
 _atom_site_symmetry_multiplicity
 _atom_site_fract_x
 _atom_site_fract_y
 _atom_site_fract_z
 _atom_site_occupancy
  Tb  Tb0  1  0.63491752  0.02900067  0.25000000  1
  Tb  Tb1  1  0.36508248  0.97099933  0.75000000  1
  Tb  Tb2  1  0.13491752  0.47099933  0.75000000  1
  Tb  Tb3  1  0.86508248  0.52900067  0.25000000  1
  Tb  Tb4  1  0.17656737  0.17986831  0.06081106  1
  Tb  Tb5  1  0.82343263  0.82013169  0.93918894  1
  Tb  Tb6  1  0.67656737  0.32013169  0.93918894  1
  Tb  Tb7  1  0.82343263  0.82013169  0.56081106  1
  Tb  Tb8  1  0.32343263  0.67986831  0.06081106  1
  Tb  Tb9  1  0.17656737  0.17986831  0.43918894  1
  Tb  Tb10  1  0.32343263  0.67986831  0.43918894  1
  Tb  Tb11  1  0.67656737  0.32013169  0.56081106  1
  Pt  Pt12  1  0.44264618  0.38821555  0.25000000  1
  Pt  Pt13  1  0.55735382  0.61178445  0.75000000  1
  Pt  Pt14  1  0.94264618  0.11178445  0.75000000  1
  Pt  Pt15  1  0.05735382  0.88821555  0.25000000  1
