# generated using pymatgen
data_Sm2(Al3Rh)3
_symmetry_space_group_name_H-M   'P 1'
_cell_length_a   7.59272170
_cell_length_b   7.66673564
_cell_length_c   9.55819868
_cell_angle_alpha   90.00000000
_cell_angle_beta   90.00000000
_cell_angle_gamma   120.32298894
_symmetry_Int_Tables_number   1
_chemical_formula_structural   Sm2(Al3Rh)3
_chemical_formula_sum   'Sm4 Al18 Rh6'
_cell_volume   480.27718669
_cell_formula_units_Z   2
loop_
 _symmetry_equiv_pos_site_id
 _symmetry_equiv_pos_as_xyz
  1  'x, y, z'
loop_
 _atom_site_type_symbol
 _atom_site_label
 _atom_site_symmetry_multiplicity
 _atom_site_fract_x
 _atom_site_fract_y
 _atom_site_fract_z
 _atom_site_occupancy
  Sm  Sm0  1  0.67521811  0.66984125  0.25000000  1
  Sm  Sm1  1  0.32478189  0.33015875  0.75000000  1
  Sm  Sm2  1  0.32478189  0.99462314  0.25000000  1
  Sm  Sm3  1  0.67521811  0.00537686  0.75000000  1
  Al  Al4  1  -0.00000000  0.12879661  0.25000000  1
  Al  Al5  1  -0.00000000  0.87120339  0.75000000  1
  Al  Al6  1  0.33232343  0.33510359  0.07302422  1
  Al  Al7  1  0.66767657  0.66489641  0.92697578  1
  Al  Al8  1  0.66767657  0.66489641  0.57302422  1
  Al  Al9  1  0.66767657  0.00278016  0.42697578  1
  Al  Al10  1  0.33232343  0.33510359  0.42697578  1
  Al  Al11  1  0.33232343  0.99721984  0.57302422  1
  Al  Al12  1  0.33232343  0.99721984  0.92697578  1
  Al  Al13  1  0.66767657  0.00278016  0.07302422  1
  Al  Al14  1  -0.00000000  0.33409624  0.54912840  1
  Al  Al15  1  -0.00000000  0.66590376  0.45087160  1
  Al  Al16  1  -0.00000000  0.66590376  0.04912840  1
  Al  Al17  1  -0.00000000  0.33409624  0.95087160  1
  Al  Al18  1  0.20830222  0.54675197  0.25000000  1
  Al  Al19  1  0.79169778  0.45324803  0.75000000  1
  Al  Al20  1  0.79169778  0.33844975  0.25000000  1
  Al  Al21  1  0.20830222  0.66155025  0.75000000  1
  Rh  Rh22  1  0.65722471  0.32861236  0.00000000  1
  Rh  Rh23  1  0.34277529  0.67138764  0.00000000  1
  Rh  Rh24  1  0.34277529  0.67138764  0.50000000  1
  Rh  Rh25  1  0.65722471  0.32861236  0.50000000  1
  Rh  Rh26  1  -0.00000000  0.00000000  0.00000000  1
  Rh  Rh27  1  -0.00000000  0.00000000  0.50000000  1
