# generated using pymatgen
data_SnIBr
_symmetry_space_group_name_H-M   'P 1'
_cell_length_a   4.44032827
_cell_length_b   8.91685927
_cell_length_c   11.59904400
_cell_angle_alpha   90.00000000
_cell_angle_beta   90.00000000
_cell_angle_gamma   90.00000000
_symmetry_Int_Tables_number   1
_chemical_formula_structural   SnIBr
_chemical_formula_sum   'Sn4 I4 Br4'
_cell_volume   459.25002298
_cell_formula_units_Z   4
loop_
 _symmetry_equiv_pos_site_id
 _symmetry_equiv_pos_as_xyz
  1  'x, y, z'
loop_
 _atom_site_type_symbol
 _atom_site_label
 _atom_site_symmetry_multiplicity
 _atom_site_fract_x
 _atom_site_fract_y
 _atom_site_fract_z
 _atom_site_occupancy
  Sn  Sn0  1  0.75000000  0.87777209  0.85287005  1
  Sn  Sn1  1  0.25000000  0.12222791  0.14712995  1
  Sn  Sn2  1  0.25000000  0.62222791  0.35287005  1
  Sn  Sn3  1  0.75000000  0.37777209  0.64712995  1
  I  I4  1  0.75000000  0.98942843  0.30577290  1
  I  I5  1  0.25000000  0.01057157  0.69422710  1
  I  I6  1  0.25000000  0.51057157  0.80577290  1
  I  I7  1  0.75000000  0.48942843  0.19422710  1
  Br  Br8  1  0.75000000  0.66235876  0.54274138  1
  Br  Br9  1  0.25000000  0.33764124  0.45725862  1
  Br  Br10  1  0.25000000  0.83764124  0.04274138  1
  Br  Br11  1  0.75000000  0.16235876  0.95725862  1
