# generated using pymatgen
data_Sr2V2OF10
_symmetry_space_group_name_H-M   'P 1'
_cell_length_a   7.87471814
_cell_length_b   10.80665358
_cell_length_c   10.78762625
_cell_angle_alpha   90.00000000
_cell_angle_beta   90.00000000
_cell_angle_gamma   111.36733218
_symmetry_Int_Tables_number   1
_chemical_formula_structural   Sr2V2OF10
_chemical_formula_sum   'Sr8 V8 O4 F40'
_cell_volume   854.91869763
_cell_formula_units_Z   4
loop_
 _symmetry_equiv_pos_site_id
 _symmetry_equiv_pos_as_xyz
  1  'x, y, z'
loop_
 _atom_site_type_symbol
 _atom_site_label
 _atom_site_symmetry_multiplicity
 _atom_site_fract_x
 _atom_site_fract_y
 _atom_site_fract_z
 _atom_site_occupancy
  Sr  Sr0  1  0.11843065  0.23686130  0.45567858  1
  Sr  Sr1  1  0.88156935  0.76313870  0.54432142  1
  Sr  Sr2  1  0.38156935  0.76313870  0.95567858  1
  Sr  Sr3  1  0.61843065  0.23686130  0.04432142  1
  Sr  Sr4  1  0.53150210  0.56300420  0.25000000  1
  Sr  Sr5  1  0.46849790  0.43699580  0.75000000  1
  Sr  Sr6  1  0.96849790  0.43699580  0.75000000  1
  Sr  Sr7  1  0.03150210  0.56300420  0.25000000  1
  V  V8  1  0.17144376  0.34288752  0.06569158  1
  V  V9  1  0.82855624  0.65711248  0.93430842  1
  V  V10  1  0.32855624  0.65711248  0.56569158  1
  V  V11  1  0.67144376  0.34288752  0.43430842  1
  V  V12  1  0.71927024  0.93854047  0.25000000  1
  V  V13  1  0.28072976  0.06145953  0.75000000  1
  V  V14  1  0.78072976  0.06145953  0.75000000  1
  V  V15  1  0.21927024  0.93854047  0.25000000  1
  O  O16  1  0.09281849  0.18563697  0.04821846  1
  O  O17  1  0.90718151  0.81436303  0.95178154  1
  O  O18  1  0.40718151  0.81436303  0.54821846  1
  O  O19  1  0.59281849  0.18563697  0.45178154  1
  F  F20  1  0.28155761  0.56311522  0.10400422  1
  F  F21  1  0.71844239  0.43688478  0.89599578  1
  F  F22  1  0.21844239  0.43688478  0.60400422  1
  F  F23  1  0.78155761  0.56311522  0.39599578  1
  F  F24  1  0.30100919  0.60201838  0.39215855  1
  F  F25  1  0.69899081  0.39798162  0.60784145  1
  F  F26  1  0.19899081  0.39798162  0.89215855  1
  F  F27  1  0.80100919  0.60201838  0.10784145  1
  F  F28  1  0.46831450  0.93662900  0.29014889  1
  F  F29  1  0.53168550  0.06337100  0.70985111  1
  F  F30  1  0.03168550  0.06337100  0.79014889  1
  F  F31  1  0.96831450  0.93662900  0.20985111  1
  F  F32  1  0.17887827  0.35775654  0.24613004  1
  F  F33  1  0.82112173  0.64224346  0.75386996  1
  F  F34  1  0.32112173  0.64224346  0.74613004  1
  F  F35  1  0.67887827  0.35775654  0.25386996  1
  F  F36  1  0.33440814  0.06599775  0.12932778  1
  F  F37  1  0.66559186  0.93400225  0.87067222  1
  F  F38  1  0.16559186  0.93400225  0.62932778  1
  F  F39  1  0.23158962  0.06599775  0.37067222  1
  F  F40  1  0.83440814  0.06599775  0.37067222  1
  F  F41  1  0.76841038  0.93400225  0.62932778  1
  F  F42  1  0.26841038  0.93400225  0.87067222  1
  F  F43  1  0.73158962  0.06599775  0.12932778  1
  F  F44  1  0.59810978  0.79295174  0.13784720  1
  F  F45  1  0.40189022  0.20704826  0.86215280  1
  F  F46  1  0.90189022  0.20704826  0.63784720  1
  F  F47  1  0.69484196  0.79295174  0.36215280  1
  F  F48  1  0.09810978  0.79295174  0.36215280  1
  F  F49  1  0.30515804  0.20704826  0.63784720  1
  F  F50  1  0.80515804  0.20704826  0.86215280  1
  F  F51  1  0.19484196  0.79295174  0.13784720  1
  F  F52  1  0.42787847  0.37855583  0.07810053  1
  F  F53  1  0.57212153  0.62144417  0.92189947  1
  F  F54  1  0.07212153  0.62144417  0.57810053  1
  F  F55  1  0.45067736  0.37855583  0.42189947  1
  F  F56  1  0.92787847  0.37855583  0.42189947  1
  F  F57  1  0.54932264  0.62144417  0.57810053  1
  F  F58  1  0.04932264  0.62144417  0.92189947  1
  F  F59  1  0.95067736  0.37855583  0.07810053  1
