# generated using pymatgen
data_Sm3NiGe2
_symmetry_space_group_name_H-M   'P 1'
_cell_length_a   4.25938077
_cell_length_b   11.65036238
_cell_length_c   11.46403880
_cell_angle_alpha   90.00000000
_cell_angle_beta   90.00000000
_cell_angle_gamma   90.00000000
_symmetry_Int_Tables_number   1
_chemical_formula_structural   Sm3NiGe2
_chemical_formula_sum   'Sm12 Ni4 Ge8'
_cell_volume   568.88377460
_cell_formula_units_Z   4
loop_
 _symmetry_equiv_pos_site_id
 _symmetry_equiv_pos_as_xyz
  1  'x, y, z'
loop_
 _atom_site_type_symbol
 _atom_site_label
 _atom_site_symmetry_multiplicity
 _atom_site_fract_x
 _atom_site_fract_y
 _atom_site_fract_z
 _atom_site_occupancy
  Sm  Sm0  1  0.75000000  0.94195831  0.62550785  1
  Sm  Sm1  1  0.25000000  0.05804169  0.37449215  1
  Sm  Sm2  1  0.25000000  0.55804169  0.12550785  1
  Sm  Sm3  1  0.75000000  0.44195831  0.87449215  1
  Sm  Sm4  1  0.75000000  0.78554620  0.30308199  1
  Sm  Sm5  1  0.25000000  0.21445380  0.69691801  1
  Sm  Sm6  1  0.25000000  0.71445380  0.80308199  1
  Sm  Sm7  1  0.75000000  0.28554620  0.19691801  1
  Sm  Sm8  1  0.75000000  0.61861090  0.55948240  1
  Sm  Sm9  1  0.25000000  0.38138910  0.44051760  1
  Sm  Sm10  1  0.25000000  0.88138910  0.05948240  1
  Sm  Sm11  1  0.75000000  0.11861090  0.94051760  1
  Ni  Ni12  1  0.75000000  0.87081173  0.86631722  1
  Ni  Ni13  1  0.25000000  0.12918827  0.13368278  1
  Ni  Ni14  1  0.25000000  0.62918827  0.36631722  1
  Ni  Ni15  1  0.75000000  0.37081173  0.63368278  1
  Ge  Ge16  1  0.75000000  0.52482060  0.31358985  1
  Ge  Ge17  1  0.25000000  0.47517940  0.68641015  1
  Ge  Ge18  1  0.25000000  0.97517940  0.81358985  1
  Ge  Ge19  1  0.75000000  0.02482060  0.18641015  1
  Ge  Ge20  1  0.75000000  0.69567866  0.99556048  1
  Ge  Ge21  1  0.25000000  0.30432134  0.00443952  1
  Ge  Ge22  1  0.25000000  0.80432134  0.49556048  1
  Ge  Ge23  1  0.75000000  0.19567866  0.50443952  1
