# generated using pymatgen
data_Sr2ScTaO6
_symmetry_space_group_name_H-M   'P 1'
_cell_length_a   5.73483574
_cell_length_b   5.76193197
_cell_length_c   8.12641124
_cell_angle_alpha   90.00000000
_cell_angle_beta   89.98159759
_cell_angle_gamma   90.00000000
_symmetry_Int_Tables_number   1
_chemical_formula_structural   Sr2ScTaO6
_chemical_formula_sum   'Sr4 Sc2 Ta2 O12'
_cell_volume   268.52695246
_cell_formula_units_Z   2
loop_
 _symmetry_equiv_pos_site_id
 _symmetry_equiv_pos_as_xyz
  1  'x, y, z'
loop_
 _atom_site_type_symbol
 _atom_site_label
 _atom_site_symmetry_multiplicity
 _atom_site_fract_x
 _atom_site_fract_y
 _atom_site_fract_z
 _atom_site_occupancy
  Sr  Sr0  1  0.00443049  0.47566865  0.24868745  1
  Sr  Sr1  1  0.99556951  0.52433135  0.75131255  1
  Sr  Sr2  1  0.49556951  0.97566865  0.25131255  1
  Sr  Sr3  1  0.50443049  0.02433135  0.74868745  1
  Sc  Sc4  1  0.00000000  -0.00000000  0.00000000  1
  Sc  Sc5  1  0.50000000  0.50000000  0.50000000  1
  Ta  Ta6  1  0.00000000  -0.00000000  0.50000000  1
  Ta  Ta7  1  0.50000000  0.50000000  0.00000000  1
  O  O8  1  0.94122242  0.01159782  0.25683786  1
  O  O9  1  0.05877758  0.98840218  0.74316214  1
  O  O10  1  0.55877758  0.51159782  0.24316214  1
  O  O11  1  0.44122242  0.48840218  0.75683786  1
  O  O12  1  0.22666212  0.71301964  0.03009993  1
  O  O13  1  0.77333788  0.28698036  0.96990007  1
  O  O14  1  0.27333788  0.21301964  0.46990007  1
  O  O15  1  0.72666212  0.78698036  0.53009993  1
  O  O16  1  0.28707472  0.22682873  0.03149522  1
  O  O17  1  0.71292528  0.77317127  0.96850478  1
  O  O18  1  0.21292528  0.72682873  0.46850478  1
  O  O19  1  0.78707472  0.27317127  0.53149522  1
