# generated using pymatgen
data_SmAl8SiAu4
_symmetry_space_group_name_H-M   'P 1'
_cell_length_a   6.08474360
_cell_length_b   6.08474360
_cell_length_c   14.85064954
_cell_angle_alpha   101.82157246
_cell_angle_beta   101.82157246
_cell_angle_gamma   90.00000000
_symmetry_Int_Tables_number   1
_chemical_formula_structural   SmAl8SiAu4
_chemical_formula_sum   'Sm2 Al16 Si2 Au8'
_cell_volume   526.25012385
_cell_formula_units_Z   2
loop_
 _symmetry_equiv_pos_site_id
 _symmetry_equiv_pos_as_xyz
  1  'x, y, z'
loop_
 _atom_site_type_symbol
 _atom_site_label
 _atom_site_symmetry_multiplicity
 _atom_site_fract_x
 _atom_site_fract_y
 _atom_site_fract_z
 _atom_site_occupancy
  Sm  Sm0  1  0.25000000  0.75000000  0.50000000  1
  Sm  Sm1  1  0.75000000  0.25000000  0.50000000  1
  Al  Al2  1  0.40805026  0.40805026  0.31420131  1
  Al  Al3  1  0.59194974  0.59194974  0.68579869  1
  Al  Al4  1  0.90615105  0.90615105  0.31420131  1
  Al  Al5  1  0.90615105  0.40805026  0.31420131  1
  Al  Al6  1  0.59194974  0.09384895  0.68579869  1
  Al  Al7  1  0.09384895  0.09384895  0.68579869  1
  Al  Al8  1  0.09384895  0.59194974  0.68579869  1
  Al  Al9  1  0.40805026  0.90615105  0.31420131  1
  Al  Al10  1  0.30311786  0.30311786  0.10620300  1
  Al  Al11  1  0.69688214  0.69688214  0.89379700  1
  Al  Al12  1  0.80308514  0.80308514  0.10620300  1
  Al  Al13  1  0.80308514  0.30311786  0.10620300  1
  Al  Al14  1  0.69688214  0.19691486  0.89379700  1
  Al  Al15  1  0.19691486  0.19691486  0.89379700  1
  Al  Al16  1  0.19691486  0.69688214  0.89379700  1
  Al  Al17  1  0.30311786  0.80308514  0.10620300  1
  Si  Si18  1  0.29321651  0.29321651  0.58643302  1
  Si  Si19  1  0.70678349  0.70678349  0.41356698  1
  Au  Au20  1  0.20696994  0.20696994  0.41393988  1
  Au  Au21  1  0.79303006  0.79303006  0.58606012  1
  Au  Au22  1  0.00000000  0.00000000  0.00000000  1
  Au  Au23  1  0.10528754  0.60528754  0.21057508  1
  Au  Au24  1  0.89471246  0.39471246  0.78942492  1
  Au  Au25  1  0.60528754  0.10528754  0.21057508  1
  Au  Au26  1  0.39471246  0.89471246  0.78942492  1
  Au  Au27  1  0.50000000  0.50000000  0.00000000  1
