# generated using pymatgen
data_SrMnP2O7
_symmetry_space_group_name_H-M   'P 1'
_cell_length_a   5.45037197
_cell_length_b   8.52476787
_cell_length_c   12.91014059
_cell_angle_alpha   90.00000000
_cell_angle_beta   90.11401761
_cell_angle_gamma   90.00000000
_symmetry_Int_Tables_number   1
_chemical_formula_structural   SrMnP2O7
_chemical_formula_sum   'Sr4 Mn4 P8 O28'
_cell_volume   599.84468701
_cell_formula_units_Z   4
loop_
 _symmetry_equiv_pos_site_id
 _symmetry_equiv_pos_as_xyz
  1  'x, y, z'
loop_
 _atom_site_type_symbol
 _atom_site_label
 _atom_site_symmetry_multiplicity
 _atom_site_fract_x
 _atom_site_fract_y
 _atom_site_fract_z
 _atom_site_occupancy
  Sr  Sr0  1  0.78737838  0.32989875  0.22399198  1
  Sr  Sr1  1  0.21262162  0.67010125  0.77600802  1
  Sr  Sr2  1  0.71262162  0.82989875  0.27600802  1
  Sr  Sr3  1  0.28737838  0.17010125  0.72399198  1
  Mn  Mn4  1  0.17740337  0.64567359  0.10399783  1
  Mn  Mn5  1  0.82259663  0.35432641  0.89600217  1
  Mn  Mn6  1  0.32259663  0.14567359  0.39600217  1
  Mn  Mn7  1  0.67740337  0.85432641  0.60399783  1
  P  P8  1  0.31527166  0.29611786  0.02017700  1
  P  P9  1  0.68472834  0.70388214  0.97982300  1
  P  P10  1  0.18472834  0.79611786  0.47982300  1
  P  P11  1  0.81527166  0.20388214  0.52017700  1
  P  P12  1  0.25273236  0.03346179  0.16186465  1
  P  P13  1  0.74726764  0.96653821  0.83813535  1
  P  P14  1  0.24726764  0.53346179  0.33813535  1
  P  P15  1  0.75273236  0.46653821  0.66186465  1
  O  O16  1  0.44190491  0.11795575  0.23175513  1
  O  O17  1  0.55809509  0.88204425  0.76824487  1
  O  O18  1  0.05809509  0.61795575  0.26824487  1
  O  O19  1  0.94190491  0.38204425  0.73175513  1
  O  O20  1  0.16889021  0.36231557  0.35093401  1
  O  O21  1  0.83110979  0.63768443  0.64906599  1
  O  O22  1  0.33110979  0.86231557  0.14906599  1
  O  O23  1  0.66889021  0.13768443  0.85093401  1
  O  O24  1  0.58993112  0.33269258  0.03164328  1
  O  O25  1  0.41006888  0.66730742  0.96835672  1
  O  O26  1  0.91006888  0.83269258  0.46835672  1
  O  O27  1  0.08993112  0.16730742  0.53164328  1
  O  O28  1  0.71433063  0.18590692  0.40947715  1
  O  O29  1  0.28566937  0.81409308  0.59052285  1
  O  O30  1  0.78566937  0.68590692  0.09052285  1
  O  O31  1  0.21433063  0.31409308  0.90947715  1
  O  O32  1  0.27213411  0.11178885  0.04721464  1
  O  O33  1  0.72786589  0.88821115  0.95278536  1
  O  O34  1  0.22786589  0.61178885  0.45278536  1
  O  O35  1  0.77213411  0.38821115  0.54721464  1
  O  O36  1  0.98992093  0.05312013  0.20036210  1
  O  O37  1  0.01007907  0.94687987  0.79963790  1
  O  O38  1  0.51007907  0.55312013  0.29963790  1
  O  O39  1  0.48992093  0.44687987  0.70036210  1
  O  O40  1  0.16005955  0.39125372  0.09794388  1
  O  O41  1  0.83994045  0.60874628  0.90205612  1
  O  O42  1  0.33994045  0.89125372  0.40205612  1
  O  O43  1  0.66005955  0.10874628  0.59794388  1
