# generated using pymatgen
data_LiFe3SiPO8
_symmetry_space_group_name_H-M   'P 1'
_cell_length_a   5.56441518
_cell_length_b   8.33709986
_cell_length_c   7.16567717
_cell_angle_alpha   90.00000000
_cell_angle_beta   90.00000000
_cell_angle_gamma   87.73808311
_symmetry_Int_Tables_number   1
_chemical_formula_structural   LiFe3SiPO8
_chemical_formula_sum   'Li2 Fe6 Si2 P2 O16'
_cell_volume   332.16453099
_cell_formula_units_Z   2
loop_
 _symmetry_equiv_pos_site_id
 _symmetry_equiv_pos_as_xyz
  1  'x, y, z'
loop_
 _atom_site_type_symbol
 _atom_site_label
 _atom_site_symmetry_multiplicity
 _atom_site_fract_x
 _atom_site_fract_y
 _atom_site_fract_z
 _atom_site_occupancy
  Li  Li0  1  0.18595786  0.99575829  0.05521907  1
  Li  Li1  1  0.68595786  0.49575829  0.44478093  1
  Fe  Fe2  1  0.96329380  0.56452315  0.90382058  1
  Fe  Fe3  1  0.92445423  0.87352327  0.68703531  1
  Fe  Fe4  1  0.68205409  0.80779037  0.19880647  1
  Fe  Fe5  1  0.46329380  0.06452315  0.59617942  1
  Fe  Fe6  1  0.42445423  0.37352327  0.81296469  1
  Fe  Fe7  1  0.18205409  0.30779037  0.30119353  1
  Si  Si8  1  0.95915411  0.26659645  0.73800492  1
  Si  Si9  1  0.45915411  0.76659645  0.76199508  1
  P  P10  1  0.68761936  0.17862735  0.19637036  1
  P  P11  1  0.18761936  0.67862735  0.30362964  1
  O  O12  1  0.20449083  0.26097736  0.60045584  1
  O  O13  1  0.27990014  0.92984037  0.79809616  1
  O  O14  1  0.30186639  0.60690846  0.79939695  1
  O  O15  1  0.32661343  0.79518632  0.17787086  1
  O  O16  1  0.95751059  0.62568493  0.19230711  1
  O  O17  1  0.09042693  0.76559637  0.47534485  1
  O  O18  1  0.34854754  0.52484822  0.34102807  1
  O  O19  1  0.08811069  0.30413908  0.94275145  1
  O  O20  1  0.70449083  0.76097736  0.89954416  1
  O  O21  1  0.77990014  0.42984037  0.70190384  1
  O  O22  1  0.80186639  0.10690846  0.70060305  1
  O  O23  1  0.82661343  0.29518632  0.32212914  1
  O  O24  1  0.45751059  0.12568493  0.30769289  1
  O  O25  1  0.59042693  0.26559637  0.02465515  1
  O  O26  1  0.84854754  0.02484822  0.15897193  1
  O  O27  1  0.58811069  0.80413908  0.55724855  1
