# generated using pymatgen
data_Pr3(Al3Ru)4
_symmetry_space_group_name_H-M   'P 1'
_cell_length_a   8.90967001
_cell_length_b   8.90967001
_cell_length_c   9.70902580
_cell_angle_alpha   90.00000000
_cell_angle_beta   90.00000000
_cell_angle_gamma   120.00000139
_symmetry_Int_Tables_number   1
_chemical_formula_structural   Pr3(Al3Ru)4
_chemical_formula_sum   'Pr6 Al24 Ru8'
_cell_volume   667.46657003
_cell_formula_units_Z   2
loop_
 _symmetry_equiv_pos_site_id
 _symmetry_equiv_pos_as_xyz
  1  'x, y, z'
loop_
 _atom_site_type_symbol
 _atom_site_label
 _atom_site_symmetry_multiplicity
 _atom_site_fract_x
 _atom_site_fract_y
 _atom_site_fract_z
 _atom_site_occupancy
  Pr  Pr0  1  0.80781842  0.19218158  0.75000000  1
  Pr  Pr1  1  0.19218158  0.80781842  0.25000000  1
  Pr  Pr2  1  0.38436317  0.19218158  0.75000000  1
  Pr  Pr3  1  0.61563683  0.80781842  0.25000000  1
  Pr  Pr4  1  0.80781842  0.61563683  0.75000000  1
  Pr  Pr5  1  0.19218158  0.38436317  0.25000000  1
  Al  Al6  1  0.66666700  0.33333300  0.99065106  1
  Al  Al7  1  0.33333300  0.66666700  0.00934894  1
  Al  Al8  1  0.33333300  0.66666700  0.49065106  1
  Al  Al9  1  0.66666700  0.33333300  0.50934894  1
  Al  Al10  1  0.83772340  0.16227660  0.42413066  1
  Al  Al11  1  0.16227660  0.83772340  0.57586934  1
  Al  Al12  1  0.32455319  0.16227660  0.42413066  1
  Al  Al13  1  0.16227660  0.83772340  0.92413066  1
  Al  Al14  1  0.67544681  0.83772340  0.57586934  1
  Al  Al15  1  0.83772340  0.16227660  0.07586934  1
  Al  Al16  1  0.83772340  0.67544681  0.42413066  1
  Al  Al17  1  0.67544681  0.83772340  0.92413066  1
  Al  Al18  1  0.16227660  0.32455319  0.57586934  1
  Al  Al19  1  0.32455319  0.16227660  0.07586934  1
  Al  Al20  1  0.16227660  0.32455319  0.92413066  1
  Al  Al21  1  0.83772340  0.67544681  0.07586934  1
  Al  Al22  1  0.43730621  0.56269379  0.75000000  1
  Al  Al23  1  0.56269379  0.43730621  0.25000000  1
  Al  Al24  1  0.12538759  0.56269379  0.75000000  1
  Al  Al25  1  0.87461241  0.43730621  0.25000000  1
  Al  Al26  1  0.43730621  0.87461241  0.75000000  1
  Al  Al27  1  0.56269379  0.12538759  0.25000000  1
  Al  Al28  1  -0.00000000  0.00000000  0.75000000  1
  Al  Al29  1  -0.00000000  0.00000000  0.25000000  1
  Ru  Ru30  1  0.50000000  0.50000000  0.00000000  1
  Ru  Ru31  1  -0.00000000  0.50000000  0.00000000  1
  Ru  Ru32  1  0.50000000  0.50000000  0.50000000  1
  Ru  Ru33  1  0.50000000  0.00000000  0.00000000  1
  Ru  Ru34  1  -0.00000000  0.50000000  0.50000000  1
  Ru  Ru35  1  0.50000000  0.00000000  0.50000000  1
  Ru  Ru36  1  -0.00000000  0.00000000  0.00000000  1
  Ru  Ru37  1  -0.00000000  0.00000000  0.50000000  1
