# generated using pymatgen
data_PrSbIr
_symmetry_space_group_name_H-M   'P 1'
_cell_length_a   4.60646630
_cell_length_b   7.50069112
_cell_length_c   8.02946155
_cell_angle_alpha   90.00000000
_cell_angle_beta   90.00000000
_cell_angle_gamma   90.00000000
_symmetry_Int_Tables_number   1
_chemical_formula_structural   PrSbIr
_chemical_formula_sum   'Pr4 Sb4 Ir4'
_cell_volume   277.43139304
_cell_formula_units_Z   4
loop_
 _symmetry_equiv_pos_site_id
 _symmetry_equiv_pos_as_xyz
  1  'x, y, z'
loop_
 _atom_site_type_symbol
 _atom_site_label
 _atom_site_symmetry_multiplicity
 _atom_site_fract_x
 _atom_site_fract_y
 _atom_site_fract_z
 _atom_site_occupancy
  Pr  Pr0  1  0.75000000  0.98316593  0.30952687  1
  Pr  Pr1  1  0.25000000  0.01683407  0.69047313  1
  Pr  Pr2  1  0.25000000  0.51683407  0.80952687  1
  Pr  Pr3  1  0.75000000  0.48316593  0.19047313  1
  Sb  Sb4  1  0.75000000  0.82595049  0.91284140  1
  Sb  Sb5  1  0.25000000  0.17404951  0.08715860  1
  Sb  Sb6  1  0.25000000  0.67404951  0.41284140  1
  Sb  Sb7  1  0.75000000  0.32595049  0.58715860  1
  Ir  Ir8  1  0.75000000  0.69973635  0.59195535  1
  Ir  Ir9  1  0.25000000  0.30026365  0.40804465  1
  Ir  Ir10  1  0.25000000  0.80026365  0.09195535  1
  Ir  Ir11  1  0.75000000  0.19973635  0.90804465  1
