# generated using pymatgen
data_VPH6C2N3O7
_symmetry_space_group_name_H-M   'P 1'
_cell_length_a   6.27222779
_cell_length_b   8.30226957
_cell_length_c   9.16466638
_cell_angle_alpha   68.04486949
_cell_angle_beta   70.83432827
_cell_angle_gamma   78.51311487
_symmetry_Int_Tables_number   1
_chemical_formula_structural   VPH6C2N3O7
_chemical_formula_sum   'V2 P2 H12 C4 N6 O14'
_cell_volume   416.50131969
_cell_formula_units_Z   2
loop_
 _symmetry_equiv_pos_site_id
 _symmetry_equiv_pos_as_xyz
  1  'x, y, z'
loop_
 _atom_site_type_symbol
 _atom_site_label
 _atom_site_symmetry_multiplicity
 _atom_site_fract_x
 _atom_site_fract_y
 _atom_site_fract_z
 _atom_site_occupancy
  V  V0  1  0.66309822  0.57355741  0.15359797  1
  V  V1  1  0.33690178  0.42644259  0.84640203  1
  P  P2  1  0.17232131  0.65238486  0.09135312  1
  P  P3  1  0.82767869  0.34761514  0.90864688  1
  H  H4  1  0.70289271  0.83602529  0.70840551  1
  H  H5  1  0.29710729  0.16397471  0.29159449  1
  H  H6  1  0.93537741  0.97649487  0.20790283  1
  H  H7  1  0.06462259  0.02350513  0.79209717  1
  H  H8  1  0.97001495  0.68541083  0.37541697  1
  H  H9  1  0.02998505  0.31458917  0.62458303  1
  H  H10  1  0.65538799  0.05263862  0.59079346  1
  H  H11  1  0.34461201  0.94736138  0.40920654  1
  H  H12  1  0.89224523  0.63123797  0.58844888  1
  H  H13  1  0.10775477  0.36876203  0.41155112  1
  H  H14  1  0.77841006  0.13124925  0.30015571  1
  H  H15  1  0.22158994  0.86875075  0.69984429  1
  C  C16  1  0.52599137  0.40034993  0.52165267  1
  C  C17  1  0.47400863  0.59965007  0.47834733  1
  C  C18  1  0.82989643  0.88860477  0.45999496  1
  C  C19  1  0.17010357  0.11139523  0.54000504  1
  N  N20  1  0.72143360  0.92877487  0.59634992  1
  N  N21  1  0.27856640  0.07122513  0.40365008  1
  N  N22  1  0.92224594  0.72387091  0.47550825  1
  N  N23  1  0.07775406  0.27612909  0.52449175  1
  N  N24  1  0.85010611  0.00723245  0.31225453  1
  N  N25  1  0.14989389  0.99276755  0.68774547  1
  O  O26  1  0.61337128  0.34090891  0.40589378  1
  O  O27  1  0.38662872  0.65909109  0.59410622  1
  O  O28  1  0.35007813  0.53900657  0.18685322  1
  O  O29  1  0.64992187  0.46099343  0.81314678  1
  O  O30  1  0.94408271  0.56648723  0.20495961  1
  O  O31  1  0.05591729  0.43351277  0.79504039  1
  O  O32  1  0.23178055  0.61133028  0.92607318  1
  O  O33  1  0.76821945  0.38866972  0.07392682  1
  O  O34  1  0.47592542  0.30890488  0.67339839  1
  O  O35  1  0.52407458  0.69109512  0.32660161  1
  O  O36  1  0.69302228  0.74074006  0.98989720  1
  O  O37  1  0.30697772  0.25925994  0.01010280  1
  O  O38  1  0.15865264  0.84232785  0.06011797  1
  O  O39  1  0.84134736  0.15767215  0.93988203  1
