# generated using pymatgen
data_RbHg5Cl11
_symmetry_space_group_name_H-M   'P 1'
_cell_length_a   6.72294110
_cell_length_b   9.67953371
_cell_length_c   9.67953371
_cell_angle_alpha   99.97559064
_cell_angle_beta   108.53565806
_cell_angle_gamma   108.53565806
_symmetry_Int_Tables_number   1
_chemical_formula_structural   RbHg5Cl11
_chemical_formula_sum   'Rb1 Hg5 Cl11'
_cell_volume   539.23786203
_cell_formula_units_Z   1
loop_
 _symmetry_equiv_pos_site_id
 _symmetry_equiv_pos_as_xyz
  1  'x, y, z'
loop_
 _atom_site_type_symbol
 _atom_site_label
 _atom_site_symmetry_multiplicity
 _atom_site_fract_x
 _atom_site_fract_y
 _atom_site_fract_z
 _atom_site_occupancy
  Rb  Rb0  1  0.00000000  -0.00000000  -0.00000000  1
  Hg  Hg1  1  0.68597283  0.35224969  0.01535559  1
  Hg  Hg2  1  0.31402717  0.64775031  0.98464441  1
  Hg  Hg3  1  0.31402717  0.98464441  0.64775031  1
  Hg  Hg4  1  0.68597283  0.01535559  0.35224969  1
  Hg  Hg5  1  0.00000000  0.50000000  0.50000000  1
  Cl  Cl6  1  0.38885320  0.64909439  0.64909439  1
  Cl  Cl7  1  0.61114680  0.35090561  0.35090561  1
  Cl  Cl8  1  0.69404011  0.70201675  0.13936752  1
  Cl  Cl9  1  0.30595989  0.29798325  0.86063248  1
  Cl  Cl10  1  0.30595989  0.86063248  0.29798325  1
  Cl  Cl11  1  0.69404011  0.13936752  0.70201675  1
  Cl  Cl12  1  0.50000000  -0.00000000  -0.00000000  1
  Cl  Cl13  1  0.92969782  0.58245503  0.83205808  1
  Cl  Cl14  1  0.07030218  0.41754497  0.16794192  1
  Cl  Cl15  1  0.07030218  0.16794192  0.41754497  1
  Cl  Cl16  1  0.92969782  0.83205808  0.58245503  1
