# generated using pymatgen
data_Pr2TeO6
_symmetry_space_group_name_H-M   'P 1'
_cell_length_a   5.51706613
_cell_length_b   9.47194172
_cell_length_c   10.39521694
_cell_angle_alpha   90.00000000
_cell_angle_beta   90.00000000
_cell_angle_gamma   90.00000000
_symmetry_Int_Tables_number   1
_chemical_formula_structural   Pr2TeO6
_chemical_formula_sum   'Pr8 Te4 O24'
_cell_volume   543.22627009
_cell_formula_units_Z   4
loop_
 _symmetry_equiv_pos_site_id
 _symmetry_equiv_pos_as_xyz
  1  'x, y, z'
loop_
 _atom_site_type_symbol
 _atom_site_label
 _atom_site_symmetry_multiplicity
 _atom_site_fract_x
 _atom_site_fract_y
 _atom_site_fract_z
 _atom_site_occupancy
  Pr  Pr0  1  0.03213433  0.21709796  0.13724305  1
  Pr  Pr1  1  0.46786567  0.78290204  0.63724305  1
  Pr  Pr2  1  0.96786567  0.71709796  0.36275695  1
  Pr  Pr3  1  0.53213433  0.28290204  0.86275695  1
  Pr  Pr4  1  0.02606264  0.10392363  0.53999353  1
  Pr  Pr5  1  0.47393736  0.89607637  0.03999353  1
  Pr  Pr6  1  0.97393736  0.60392363  0.96000647  1
  Pr  Pr7  1  0.52606264  0.39607637  0.46000647  1
  Te  Te8  1  0.54162182  0.00372436  0.35549674  1
  Te  Te9  1  0.95837818  0.99627564  0.85549674  1
  Te  Te10  1  0.45837818  0.50372436  0.14450326  1
  Te  Te11  1  0.04162182  0.49627564  0.64450326  1
  O  O12  1  0.42907524  0.14937829  0.47445858  1
  O  O13  1  0.07092476  0.85062171  0.97445858  1
  O  O14  1  0.57092476  0.64937829  0.02554142  1
  O  O15  1  0.92907524  0.35062171  0.52554142  1
  O  O16  1  0.71813061  0.38782559  0.06531061  1
  O  O17  1  0.78186939  0.61217441  0.56531061  1
  O  O18  1  0.28186939  0.88782559  0.43468939  1
  O  O19  1  0.21813061  0.11217441  0.93468939  1
  O  O20  1  0.25100214  0.41417664  0.01092907  1
  O  O21  1  0.24899786  0.58582336  0.51092907  1
  O  O22  1  0.74899786  0.91417664  0.48907093  1
  O  O23  1  0.75100214  0.08582336  0.98907093  1
  O  O24  1  0.19367083  0.63778736  0.17745132  1
  O  O25  1  0.30632917  0.36221264  0.67745132  1
  O  O26  1  0.80632917  0.13778736  0.32254868  1
  O  O27  1  0.69367083  0.86221264  0.82254868  1
  O  O28  1  0.33107807  0.05113307  0.21308772  1
  O  O29  1  0.16892193  0.94886693  0.71308772  1
  O  O30  1  0.66892193  0.55113307  0.28691228  1
  O  O31  1  0.83107807  0.44886693  0.78691228  1
  O  O32  1  0.31903047  0.36350937  0.25807284  1
  O  O33  1  0.18096953  0.63649063  0.75807284  1
  O  O34  1  0.68096953  0.86350937  0.24192716  1
  O  O35  1  0.81903047  0.13649063  0.74192716  1
