# generated using pymatgen
data_Rb3TbV2O8
_symmetry_space_group_name_H-M   'P 1'
_cell_length_a   6.09396308
_cell_length_b   6.09396308
_cell_length_c   7.89025865
_cell_angle_alpha   90.00000000
_cell_angle_beta   90.00000000
_cell_angle_gamma   120.00000154
_symmetry_Int_Tables_number   1
_chemical_formula_structural   Rb3TbV2O8
_chemical_formula_sum   'Rb3 Tb1 V2 O8'
_cell_volume   253.75902837
_cell_formula_units_Z   1
loop_
 _symmetry_equiv_pos_site_id
 _symmetry_equiv_pos_as_xyz
  1  'x, y, z'
loop_
 _atom_site_type_symbol
 _atom_site_label
 _atom_site_symmetry_multiplicity
 _atom_site_fract_x
 _atom_site_fract_y
 _atom_site_fract_z
 _atom_site_occupancy
  Rb  Rb0  1  0.66666700  0.33333300  0.31300990  1
  Rb  Rb1  1  0.33333300  0.66666700  0.68699010  1
  Rb  Rb2  1  0.00000000  0.00000000  -0.00000000  1
  Tb  Tb3  1  0.00000000  0.00000000  0.50000000  1
  V  V4  1  0.66666700  0.33333300  0.74945456  1
  V  V5  1  0.33333300  0.66666700  0.25054544  1
  O  O6  1  0.66666700  0.33333300  0.96246262  1
  O  O7  1  0.33333300  0.66666700  0.03753738  1
  O  O8  1  0.82412896  0.64825792  0.67129689  1
  O  O9  1  0.17587104  0.35174208  0.32870311  1
  O  O10  1  0.82412896  0.17587104  0.67129689  1
  O  O11  1  0.17587104  0.82412896  0.32870311  1
  O  O12  1  0.35174208  0.17587104  0.67129689  1
  O  O13  1  0.64825792  0.82412896  0.32870311  1
