# generated using pymatgen
data_RbVSeO5
_symmetry_space_group_name_H-M   'P 1'
_cell_length_a   7.93913135
_cell_length_b   7.84800224
_cell_length_c   9.59781080
_cell_angle_alpha   90.00000000
_cell_angle_beta   92.97382976
_cell_angle_gamma   90.00000000
_symmetry_Int_Tables_number   1
_chemical_formula_structural   RbVSeO5
_chemical_formula_sum   'Rb4 V4 Se4 O20'
_cell_volume   597.19896594
_cell_formula_units_Z   4
loop_
 _symmetry_equiv_pos_site_id
 _symmetry_equiv_pos_as_xyz
  1  'x, y, z'
loop_
 _atom_site_type_symbol
 _atom_site_label
 _atom_site_symmetry_multiplicity
 _atom_site_fract_x
 _atom_site_fract_y
 _atom_site_fract_z
 _atom_site_occupancy
  Rb  Rb0  1  0.09315021  0.01177229  0.13500162  1
  Rb  Rb1  1  0.90684979  0.51177229  0.86499838  1
  Rb  Rb2  1  0.37571818  0.23803075  0.61386710  1
  Rb  Rb3  1  0.62428182  0.73803075  0.38613290  1
  V  V4  1  0.57091652  0.17924843  0.23762798  1
  V  V5  1  0.42908348  0.67924843  0.76237202  1
  V  V6  1  0.08016049  0.54962774  0.26721227  1
  V  V7  1  0.91983951  0.04962774  0.73278773  1
  Se  Se8  1  0.38095598  0.46842685  0.06901877  1
  Se  Se9  1  0.61904402  0.96842685  0.93098123  1
  Se  Se10  1  0.11789859  0.75019056  0.55340182  1
  Se  Se11  1  0.88210141  0.25019056  0.44659818  1
  O  O12  1  0.06886558  0.14483257  0.83179674  1
  O  O13  1  0.93113442  0.64483257  0.16820326  1
  O  O14  1  0.58669042  0.37482032  0.31035437  1
  O  O15  1  0.41330958  0.87482032  0.68964563  1
  O  O16  1  0.03164035  0.31178631  0.33205651  1
  O  O17  1  0.96835965  0.81178631  0.66794349  1
  O  O18  1  0.24801162  0.67937476  0.29033802  1
  O  O19  1  0.75198838  0.17937476  0.70966198  1
  O  O20  1  0.00949383  0.11090577  0.54625622  1
  O  O21  1  0.99050617  0.61090577  0.45374378  1
  O  O22  1  0.41875601  0.07628505  0.31347829  1
  O  O23  1  0.58124399  0.57628505  0.68652171  1
  O  O24  1  0.77816771  0.09706272  0.34030366  1
  O  O25  1  0.22183229  0.59706272  0.65969634  1
  O  O26  1  0.47090820  0.26462003  0.05835382  1
  O  O27  1  0.52909180  0.76462003  0.94164618  1
  O  O28  1  0.18201451  0.40901641  0.12152208  1
  O  O29  1  0.81798549  0.90901641  0.87847792  1
  O  O30  1  0.67028632  0.00319942  0.10459658  1
  O  O31  1  0.32971368  0.50319942  0.89540342  1
