# generated using pymatgen
data_Rb2SmCl5
_symmetry_space_group_name_H-M   'P 1'
_cell_length_a   8.35512935
_cell_length_b   8.82924361
_cell_length_c   13.66420200
_cell_angle_alpha   90.00000000
_cell_angle_beta   90.00000000
_cell_angle_gamma   90.00000000
_symmetry_Int_Tables_number   1
_chemical_formula_structural   Rb2SmCl5
_chemical_formula_sum   'Rb8 Sm4 Cl20'
_cell_volume   1008.00097264
_cell_formula_units_Z   4
loop_
 _symmetry_equiv_pos_site_id
 _symmetry_equiv_pos_as_xyz
  1  'x, y, z'
loop_
 _atom_site_type_symbol
 _atom_site_label
 _atom_site_symmetry_multiplicity
 _atom_site_fract_x
 _atom_site_fract_y
 _atom_site_fract_z
 _atom_site_occupancy
  Rb  Rb0  1  0.96529278  0.00042359  0.67388662  1
  Rb  Rb1  1  0.03470722  0.99957641  0.32611338  1
  Rb  Rb2  1  0.46529278  0.99957641  0.82611338  1
  Rb  Rb3  1  0.03470722  0.50042359  0.32611338  1
  Rb  Rb4  1  0.53470722  0.00042359  0.17388662  1
  Rb  Rb5  1  0.96529278  0.49957641  0.67388662  1
  Rb  Rb6  1  0.53470722  0.49957641  0.17388662  1
  Rb  Rb7  1  0.46529278  0.50042359  0.82611338  1
  Sm  Sm8  1  0.92916046  0.75000000  0.99813951  1
  Sm  Sm9  1  0.07083954  0.25000000  0.00186049  1
  Sm  Sm10  1  0.42916046  0.25000000  0.50186049  1
  Sm  Sm11  1  0.57083954  0.75000000  0.49813951  1
  Cl  Cl12  1  0.66452439  0.75000000  0.69148857  1
  Cl  Cl13  1  0.33547561  0.25000000  0.30851143  1
  Cl  Cl14  1  0.16452439  0.25000000  0.80851143  1
  Cl  Cl15  1  0.83547561  0.75000000  0.19148857  1
  Cl  Cl16  1  0.13159232  0.75000000  0.83898762  1
  Cl  Cl17  1  0.86840768  0.25000000  0.16101238  1
  Cl  Cl18  1  0.63159232  0.25000000  0.66101238  1
  Cl  Cl19  1  0.36840768  0.75000000  0.33898762  1
  Cl  Cl20  1  0.59826138  0.75000000  0.98628377  1
  Cl  Cl21  1  0.40173862  0.25000000  0.01371623  1
  Cl  Cl22  1  0.09826138  0.25000000  0.51371623  1
  Cl  Cl23  1  0.90173862  0.75000000  0.48628377  1
  Cl  Cl24  1  0.84904416  0.46074676  0.92183913  1
  Cl  Cl25  1  0.15095584  0.53925324  0.07816087  1
  Cl  Cl26  1  0.34904416  0.53925324  0.57816087  1
  Cl  Cl27  1  0.15095584  0.96074676  0.07816087  1
  Cl  Cl28  1  0.65095584  0.46074676  0.42183913  1
  Cl  Cl29  1  0.84904416  0.03925324  0.92183913  1
  Cl  Cl30  1  0.65095584  0.03925324  0.42183913  1
  Cl  Cl31  1  0.34904416  0.96074676  0.57816087  1
