# generated using pymatgen
data_Rb2PrBr5
_symmetry_space_group_name_H-M   'P 1'
_cell_length_a   8.78348747
_cell_length_b   9.45318763
_cell_length_c   14.10671950
_cell_angle_alpha   90.00000000
_cell_angle_beta   90.00000000
_cell_angle_gamma   90.00000000
_symmetry_Int_Tables_number   1
_chemical_formula_structural   Rb2PrBr5
_chemical_formula_sum   'Rb8 Pr4 Br20'
_cell_volume   1171.30850013
_cell_formula_units_Z   4
loop_
 _symmetry_equiv_pos_site_id
 _symmetry_equiv_pos_as_xyz
  1  'x, y, z'
loop_
 _atom_site_type_symbol
 _atom_site_label
 _atom_site_symmetry_multiplicity
 _atom_site_fract_x
 _atom_site_fract_y
 _atom_site_fract_z
 _atom_site_occupancy
  Rb  Rb0  1  0.55252269  0.49494002  0.67211160  1
  Rb  Rb1  1  0.44747731  0.50505998  0.32788840  1
  Rb  Rb2  1  0.05252269  0.50505998  0.82788840  1
  Rb  Rb3  1  0.44747731  0.99494002  0.32788840  1
  Rb  Rb4  1  0.94747731  0.49494002  0.17211160  1
  Rb  Rb5  1  0.55252269  0.00505998  0.67211160  1
  Rb  Rb6  1  0.94747731  0.00505998  0.17211160  1
  Rb  Rb7  1  0.05252269  0.99494002  0.82788840  1
  Pr  Pr8  1  0.57538181  0.75000000  0.99536559  1
  Pr  Pr9  1  0.42461819  0.25000000  0.00463441  1
  Pr  Pr10  1  0.07538181  0.25000000  0.50463441  1
  Pr  Pr11  1  0.92461819  0.75000000  0.49536559  1
  Br  Br12  1  0.37790434  0.75000000  0.82508357  1
  Br  Br13  1  0.62209566  0.25000000  0.17491643  1
  Br  Br14  1  0.87790434  0.25000000  0.67491643  1
  Br  Br15  1  0.12209566  0.75000000  0.32508357  1
  Br  Br16  1  0.66084218  0.45768189  0.92565408  1
  Br  Br17  1  0.33915782  0.54231811  0.07434592  1
  Br  Br18  1  0.16084218  0.54231811  0.57434592  1
  Br  Br19  1  0.33915782  0.95768189  0.07434592  1
  Br  Br20  1  0.83915782  0.45768189  0.42565408  1
  Br  Br21  1  0.66084218  0.04231811  0.92565408  1
  Br  Br22  1  0.83915782  0.04231811  0.42565408  1
  Br  Br23  1  0.16084218  0.95768189  0.57434592  1
  Br  Br24  1  0.91527019  0.75000000  0.99121656  1
  Br  Br25  1  0.08472981  0.25000000  0.00878344  1
  Br  Br26  1  0.41527019  0.25000000  0.50878344  1
  Br  Br27  1  0.58472981  0.75000000  0.49121656  1
  Br  Br28  1  0.83944921  0.75000000  0.69929105  1
  Br  Br29  1  0.16055079  0.25000000  0.30070895  1
  Br  Br30  1  0.33944921  0.25000000  0.80070895  1
  Br  Br31  1  0.66055079  0.75000000  0.19929105  1
