# generated using pymatgen
data_Rb4UC3O11
_symmetry_space_group_name_H-M   'P 1'
_cell_length_a   7.35407669
_cell_length_b   7.35407669
_cell_length_c   12.81696417
_cell_angle_alpha   87.93723610
_cell_angle_beta   87.93723610
_cell_angle_gamma   80.93910351
_symmetry_Int_Tables_number   1
_chemical_formula_structural   Rb4UC3O11
_chemical_formula_sum   'Rb8 U2 C6 O22'
_cell_volume   683.75637795
_cell_formula_units_Z   2
loop_
 _symmetry_equiv_pos_site_id
 _symmetry_equiv_pos_as_xyz
  1  'x, y, z'
loop_
 _atom_site_type_symbol
 _atom_site_label
 _atom_site_symmetry_multiplicity
 _atom_site_fract_x
 _atom_site_fract_y
 _atom_site_fract_z
 _atom_site_occupancy
  Rb  Rb0  1  0.57244963  0.21687336  0.54054897  1
  Rb  Rb1  1  0.42755037  0.78312664  0.45945103  1
  Rb  Rb2  1  0.78312664  0.42755037  0.95945103  1
  Rb  Rb3  1  0.21687336  0.57244963  0.04054897  1
  Rb  Rb4  1  0.65602934  0.97465780  0.84596578  1
  Rb  Rb5  1  0.34397066  0.02534220  0.15403422  1
  Rb  Rb6  1  0.02534220  0.34397066  0.65403422  1
  Rb  Rb7  1  0.97465780  0.65602934  0.34596578  1
  U  U8  1  0.18938378  0.81061622  0.75000000  1
  U  U9  1  0.81061622  0.18938378  0.25000000  1
  C  C10  1  0.16076951  0.08353702  0.90914181  1
  C  C11  1  0.83923049  0.91646298  0.09085819  1
  C  C12  1  0.91646298  0.83923049  0.59085819  1
  C  C13  1  0.08353702  0.16076951  0.40914181  1
  C  C14  1  0.49296010  0.50703990  0.75000000  1
  C  C15  1  0.50703990  0.49296010  0.25000000  1
  O  O16  1  0.34013011  0.95963416  0.68288323  1
  O  O17  1  0.65986989  0.04036584  0.31711677  1
  O  O18  1  0.04036584  0.65986989  0.81711677  1
  O  O19  1  0.95963416  0.34013011  0.18288323  1
  O  O20  1  0.08901056  0.03743432  0.33630169  1
  O  O21  1  0.91098944  0.96256568  0.66369831  1
  O  O22  1  0.96256568  0.91098944  0.16369831  1
  O  O23  1  0.03743432  0.08901056  0.83630169  1
  O  O24  1  0.21687947  0.17080151  0.46638855  1
  O  O25  1  0.78312053  0.82919849  0.53361145  1
  O  O26  1  0.82919849  0.78312053  0.03361145  1
  O  O27  1  0.17080151  0.21687947  0.96638855  1
  O  O28  1  0.62573448  0.37426552  0.75000000  1
  O  O29  1  0.37426552  0.62573448  0.25000000  1
  O  O30  1  0.45674690  0.62045139  0.82810355  1
  O  O31  1  0.54325310  0.37954861  0.17189645  1
  O  O32  1  0.37954861  0.54325310  0.67189645  1
  O  O33  1  0.62045139  0.45674690  0.32810355  1
  O  O34  1  0.27535839  0.92585543  0.91519650  1
  O  O35  1  0.72464161  0.07414457  0.08480350  1
  O  O36  1  0.07414457  0.72464161  0.58480350  1
  O  O37  1  0.92585543  0.27535839  0.41519650  1
