# generated using pymatgen
data_RbDyP2O7
_symmetry_space_group_name_H-M   'P 1'
_cell_length_a   7.88909516
_cell_length_b   8.84131722
_cell_length_c   11.08292784
_cell_angle_alpha   90.00000000
_cell_angle_beta   90.00000000
_cell_angle_gamma   105.86746657
_symmetry_Int_Tables_number   1
_chemical_formula_structural   RbDyP2O7
_chemical_formula_sum   'Rb4 Dy4 P8 O28'
_cell_volume   743.57899634
_cell_formula_units_Z   4
loop_
 _symmetry_equiv_pos_site_id
 _symmetry_equiv_pos_as_xyz
  1  'x, y, z'
loop_
 _atom_site_type_symbol
 _atom_site_label
 _atom_site_symmetry_multiplicity
 _atom_site_fract_x
 _atom_site_fract_y
 _atom_site_fract_z
 _atom_site_occupancy
  Rb  Rb0  1  0.81760207  0.94247923  0.31818010  1
  Rb  Rb1  1  0.18239793  0.05752077  0.68181990  1
  Rb  Rb2  1  0.18239793  0.55752077  0.81818010  1
  Rb  Rb3  1  0.81760207  0.44247923  0.18181990  1
  Dy  Dy4  1  0.76315995  0.74306626  0.89999676  1
  Dy  Dy5  1  0.23684005  0.25693374  0.10000324  1
  Dy  Dy6  1  0.23684005  0.75693374  0.39999676  1
  Dy  Dy7  1  0.76315995  0.24306626  0.60000324  1
  P  P8  1  0.56697018  0.80889403  0.63328971  1
  P  P9  1  0.43302982  0.19110597  0.36671029  1
  P  P10  1  0.43302982  0.69110597  0.13328971  1
  P  P11  1  0.56697018  0.30889403  0.86671029  1
  P  P12  1  0.86778567  0.67693752  0.59806319  1
  P  P13  1  0.13221433  0.32306248  0.40193681  1
  P  P14  1  0.13221433  0.82306248  0.09806319  1
  P  P15  1  0.86778567  0.17693752  0.90193681  1
  O  O16  1  0.38552939  0.76603692  0.57357284  1
  O  O17  1  0.61447061  0.23396308  0.42642716  1
  O  O18  1  0.61447061  0.73396308  0.07357284  1
  O  O19  1  0.38552939  0.26603692  0.92642716  1
  O  O20  1  0.91987902  0.74290784  0.72545879  1
  O  O21  1  0.08012098  0.25709216  0.27454121  1
  O  O22  1  0.08012098  0.75709216  0.22545879  1
  O  O23  1  0.91987902  0.24290784  0.77454121  1
  O  O24  1  0.55261211  0.76202965  0.76677565  1
  O  O25  1  0.44738789  0.23797035  0.23322435  1
  O  O26  1  0.44738789  0.73797035  0.26677565  1
  O  O27  1  0.55261211  0.26202965  0.73322435  1
  O  O28  1  0.67170454  0.97887125  0.60877873  1
  O  O29  1  0.32829546  0.02112875  0.39122127  1
  O  O30  1  0.32829546  0.52112875  0.10877873  1
  O  O31  1  0.67170454  0.47887125  0.89122127  1
  O  O32  1  0.85063418  0.00234148  0.90966653  1
  O  O33  1  0.14936582  0.99765852  0.09033347  1
  O  O34  1  0.14936582  0.49765852  0.40966653  1
  O  O35  1  0.85063418  0.50234148  0.59033347  1
  O  O36  1  0.67393672  0.69814226  0.56548351  1
  O  O37  1  0.32606328  0.30185774  0.43451649  1
  O  O38  1  0.32606328  0.80185774  0.06548351  1
  O  O39  1  0.67393672  0.19814226  0.93451649  1
  O  O40  1  0.00688940  0.72620968  0.00256748  1
  O  O41  1  0.99311060  0.27379032  0.99743252  1
  O  O42  1  0.99311060  0.77379032  0.50256748  1
  O  O43  1  0.00688940  0.22620968  0.49743252  1
