# generated using pymatgen
data_Rb5In(MoO4)4
_symmetry_space_group_name_H-M   'P 1'
_cell_length_a   8.16638383
_cell_length_b   11.65478557
_cell_length_c   11.35763341
_cell_angle_alpha   113.76113150
_cell_angle_beta   90.00000000
_cell_angle_gamma   90.00000000
_symmetry_Int_Tables_number   1
_chemical_formula_structural   Rb5In(MoO4)4
_chemical_formula_sum   'Rb10 In2 Mo8 O32'
_cell_volume   989.35851554
_cell_formula_units_Z   2
loop_
 _symmetry_equiv_pos_site_id
 _symmetry_equiv_pos_as_xyz
  1  'x, y, z'
loop_
 _atom_site_type_symbol
 _atom_site_label
 _atom_site_symmetry_multiplicity
 _atom_site_fract_x
 _atom_site_fract_y
 _atom_site_fract_z
 _atom_site_occupancy
  Rb  Rb0  1  0.34918484  0.89705833  0.84437092  1
  Rb  Rb1  1  0.65081516  0.10294167  0.15562908  1
  Rb  Rb2  1  0.34918484  0.10294167  0.65562908  1
  Rb  Rb3  1  0.65081516  0.89705833  0.34437092  1
  Rb  Rb4  1  0.86804743  0.40628297  0.35469128  1
  Rb  Rb5  1  0.13195257  0.59371703  0.64530872  1
  Rb  Rb6  1  0.86804743  0.59371703  0.14530872  1
  Rb  Rb7  1  0.13195257  0.40628297  0.85469128  1
  Rb  Rb8  1  0.61059000  0.50000000  0.75000000  1
  Rb  Rb9  1  0.38941000  0.50000000  0.25000000  1
  In  In10  1  0.91387575  -0.00000000  0.75000000  1
  In  In11  1  0.08612425  -0.00000000  0.25000000  1
  Mo  Mo12  1  0.66033926  0.71735425  0.55782358  1
  Mo  Mo13  1  0.33966074  0.28264575  0.44217642  1
  Mo  Mo14  1  0.66033926  0.28264575  0.94217642  1
  Mo  Mo15  1  0.33966074  0.71735425  0.05782358  1
  Mo  Mo16  1  0.85435595  0.80527762  0.94417728  1
  Mo  Mo17  1  0.14564405  0.19472238  0.05582272  1
  Mo  Mo18  1  0.85435595  0.19472238  0.55582272  1
  Mo  Mo19  1  0.14564405  0.80527762  0.44417728  1
  O  O20  1  0.89150105  0.88574855  0.11811775  1
  O  O21  1  0.10849895  0.11425145  0.88188225  1
  O  O22  1  0.89150105  0.11425145  0.38188225  1
  O  O23  1  0.10849895  0.88574855  0.61811775  1
  O  O24  1  0.72242475  0.88544302  0.62394385  1
  O  O25  1  0.27757525  0.11455698  0.37605615  1
  O  O26  1  0.72242475  0.11455698  0.87605615  1
  O  O27  1  0.27757525  0.88544302  0.12394385  1
  O  O28  1  0.90711115  0.64484811  0.89384190  1
  O  O29  1  0.09288885  0.35515189  0.10615810  1
  O  O30  1  0.90711115  0.35515189  0.60615810  1
  O  O31  1  0.09288885  0.64484811  0.39384190  1
  O  O32  1  0.45837630  0.69551444  0.60553902  1
  O  O33  1  0.54162370  0.30448556  0.39446098  1
  O  O34  1  0.45837630  0.30448556  0.89446098  1
  O  O35  1  0.54162370  0.69551444  0.10553902  1
  O  O36  1  0.97002624  0.87497388  0.85162893  1
  O  O37  1  0.02997376  0.12502612  0.14837107  1
  O  O38  1  0.97002624  0.12502612  0.64837107  1
  O  O39  1  0.02997376  0.87497388  0.35162893  1
  O  O40  1  0.64363193  0.82181961  0.91937647  1
  O  O41  1  0.35636807  0.17818039  0.08062353  1
  O  O42  1  0.64363193  0.17818039  0.58062353  1
  O  O43  1  0.35636807  0.82181961  0.41937647  1
  O  O44  1  0.32440514  0.65322291  0.88609610  1
  O  O45  1  0.67559486  0.34677709  0.11390390  1
  O  O46  1  0.32440514  0.34677709  0.61390390  1
  O  O47  1  0.67559486  0.65322291  0.38609610  1
  O  O48  1  0.79409392  0.62839524  0.61165586  1
  O  O49  1  0.20590608  0.37160476  0.38834414  1
  O  O50  1  0.79409392  0.37160476  0.88834414  1
  O  O51  1  0.20590608  0.62839524  0.11165586  1
