# generated using pymatgen
data_RbAg(PO3)2
_symmetry_space_group_name_H-M   'P 1'
_cell_length_a   6.30989269
_cell_length_b   7.65522386
_cell_length_c   13.56657714
_cell_angle_alpha   90.00000000
_cell_angle_beta   90.00000000
_cell_angle_gamma   95.24429629
_symmetry_Int_Tables_number   1
_chemical_formula_structural   RbAg(PO3)2
_chemical_formula_sum   'Rb4 Ag4 P8 O24'
_cell_volume   652.57194371
_cell_formula_units_Z   4
loop_
 _symmetry_equiv_pos_site_id
 _symmetry_equiv_pos_as_xyz
  1  'x, y, z'
loop_
 _atom_site_type_symbol
 _atom_site_label
 _atom_site_symmetry_multiplicity
 _atom_site_fract_x
 _atom_site_fract_y
 _atom_site_fract_z
 _atom_site_occupancy
  Rb  Rb0  1  0.29259512  0.73315958  0.66897961  1
  Rb  Rb1  1  0.70740488  0.26684042  0.33102039  1
  Rb  Rb2  1  0.70740488  0.76684042  0.16897961  1
  Rb  Rb3  1  0.29259512  0.23315958  0.83102039  1
  Ag  Ag4  1  0.81391576  0.69700950  0.47154533  1
  Ag  Ag5  1  0.18608424  0.30299050  0.52845467  1
  Ag  Ag6  1  0.18608424  0.80299050  0.97154533  1
  Ag  Ag7  1  0.81391576  0.19700950  0.02845467  1
  P  P8  1  0.68998921  0.84803024  0.86690002  1
  P  P9  1  0.31001079  0.15196976  0.13309998  1
  P  P10  1  0.31001079  0.65196976  0.36690002  1
  P  P11  1  0.68998921  0.34803024  0.63309998  1
  P  P12  1  0.84619635  0.99573559  0.67312227  1
  P  P13  1  0.15380365  0.00426441  0.32687773  1
  P  P14  1  0.15380365  0.50426441  0.17312227  1
  P  P15  1  0.84619635  0.49573559  0.82687773  1
  O  O16  1  0.93188521  0.93162109  0.35289109  1
  O  O17  1  0.06811479  0.06837891  0.64710891  1
  O  O18  1  0.06811479  0.56837891  0.85289109  1
  O  O19  1  0.93188521  0.43162109  0.14710891  1
  O  O20  1  0.46853413  0.90083046  0.85146982  1
  O  O21  1  0.53146587  0.09916954  0.14853018  1
  O  O22  1  0.53146587  0.59916954  0.35146982  1
  O  O23  1  0.46853413  0.40083046  0.64853018  1
  O  O24  1  0.74172047  0.83738731  0.62138554  1
  O  O25  1  0.25827953  0.16261269  0.37861446  1
  O  O26  1  0.25827953  0.66261269  0.12138554  1
  O  O27  1  0.74172047  0.33738731  0.87861446  1
  O  O28  1  0.85646061  0.95323729  0.79121779  1
  O  O29  1  0.14353939  0.04676271  0.20878221  1
  O  O30  1  0.14353939  0.54676271  0.29121779  1
  O  O31  1  0.85646061  0.45323729  0.70878221  1
  O  O32  1  0.79384369  0.86686848  0.96685680  1
  O  O33  1  0.20615631  0.13313152  0.03314320  1
  O  O34  1  0.20615631  0.63313152  0.46685680  1
  O  O35  1  0.79384369  0.36686848  0.53314320  1
  O  O36  1  0.68003183  0.64599411  0.82893536  1
  O  O37  1  0.31996817  0.35400589  0.17106464  1
  O  O38  1  0.31996817  0.85400589  0.32893536  1
  O  O39  1  0.68003183  0.14599411  0.67106464  1
