# generated using pymatgen
data_RbEu2Cl5
_symmetry_space_group_name_H-M   'P 1'
_cell_length_a   7.97802140
_cell_length_b   8.99635069
_cell_length_c   12.83317444
_cell_angle_alpha   90.26090799
_cell_angle_beta   90.00000000
_cell_angle_gamma   90.00000000
_symmetry_Int_Tables_number   1
_chemical_formula_structural   RbEu2Cl5
_chemical_formula_sum   'Rb4 Eu8 Cl20'
_cell_volume   921.06688452
_cell_formula_units_Z   4
loop_
 _symmetry_equiv_pos_site_id
 _symmetry_equiv_pos_as_xyz
  1  'x, y, z'
loop_
 _atom_site_type_symbol
 _atom_site_label
 _atom_site_symmetry_multiplicity
 _atom_site_fract_x
 _atom_site_fract_y
 _atom_site_fract_z
 _atom_site_occupancy
  Rb  Rb0  1  0.96298115  0.49590532  0.67075706  1
  Rb  Rb1  1  0.03701885  0.50409468  0.32924294  1
  Rb  Rb2  1  0.46298115  0.50409468  0.82924294  1
  Rb  Rb3  1  0.53701885  0.49590532  0.17075706  1
  Eu  Eu4  1  0.97894962  0.99938795  0.67798321  1
  Eu  Eu5  1  0.02105038  0.00061205  0.32201679  1
  Eu  Eu6  1  0.47894962  0.00061205  0.82201679  1
  Eu  Eu7  1  0.52105038  0.99938795  0.17798321  1
  Eu  Eu8  1  0.93281591  0.75507978  0.99397560  1
  Eu  Eu9  1  0.06718409  0.24492022  0.00602440  1
  Eu  Eu10  1  0.43281591  0.24492022  0.50602440  1
  Eu  Eu11  1  0.56718409  0.75507978  0.49397560  1
  Cl  Cl12  1  0.83809282  0.46724073  0.91577755  1
  Cl  Cl13  1  0.16190718  0.53275927  0.08422245  1
  Cl  Cl14  1  0.33809282  0.53275927  0.58422245  1
  Cl  Cl15  1  0.66190718  0.46724073  0.41577755  1
  Cl  Cl16  1  0.16626335  0.79063242  0.81759684  1
  Cl  Cl17  1  0.83373665  0.20936758  0.18240316  1
  Cl  Cl18  1  0.66626335  0.20936758  0.68240316  1
  Cl  Cl19  1  0.33373665  0.79063242  0.31759684  1
  Cl  Cl20  1  0.69414264  0.77973063  0.71287091  1
  Cl  Cl21  1  0.30585736  0.22026937  0.28712909  1
  Cl  Cl22  1  0.19414264  0.22026937  0.78712909  1
  Cl  Cl23  1  0.80585736  0.77973063  0.21287091  1
  Cl  Cl24  1  0.55225890  0.79066501  0.99612676  1
  Cl  Cl25  1  0.44774110  0.20933499  0.00387324  1
  Cl  Cl26  1  0.05225890  0.20933499  0.50387324  1
  Cl  Cl27  1  0.94774110  0.79066501  0.49612676  1
  Cl  Cl28  1  0.34086815  0.96019161  0.60230013  1
  Cl  Cl29  1  0.65913185  0.03980839  0.39769987  1
  Cl  Cl30  1  0.84086815  0.03980839  0.89769987  1
  Cl  Cl31  1  0.15913185  0.96019161  0.10230013  1
