# generated using pymatgen
data_Rb3NaRe2O9
_symmetry_space_group_name_H-M   'P 1'
_cell_length_a   6.25424472
_cell_length_b   6.25424472
_cell_length_c   14.63328423
_cell_angle_alpha   90.00000000
_cell_angle_beta   90.00000000
_cell_angle_gamma   119.99999853
_symmetry_Int_Tables_number   1
_chemical_formula_structural   Rb3NaRe2O9
_chemical_formula_sum   'Rb6 Na2 Re4 O18'
_cell_volume   495.70373096
_cell_formula_units_Z   2
loop_
 _symmetry_equiv_pos_site_id
 _symmetry_equiv_pos_as_xyz
  1  'x, y, z'
loop_
 _atom_site_type_symbol
 _atom_site_label
 _atom_site_symmetry_multiplicity
 _atom_site_fract_x
 _atom_site_fract_y
 _atom_site_fract_z
 _atom_site_occupancy
  Rb  Rb0  1  0.66666700  0.33333300  0.89587423  1
  Rb  Rb1  1  0.33333300  0.66666700  0.10412577  1
  Rb  Rb2  1  0.33333300  0.66666700  0.39587423  1
  Rb  Rb3  1  0.66666700  0.33333300  0.60412577  1
  Rb  Rb4  1  -0.00000000  -0.00000000  0.75000000  1
  Rb  Rb5  1  -0.00000000  -0.00000000  0.25000000  1
  Na  Na6  1  -0.00000000  -0.00000000  0.00000000  1
  Na  Na7  1  -0.00000000  -0.00000000  0.50000000  1
  Re  Re8  1  0.66666700  0.33333300  0.35002795  1
  Re  Re9  1  0.33333300  0.66666700  0.64997205  1
  Re  Re10  1  0.33333300  0.66666700  0.85002795  1
  Re  Re11  1  0.66666700  0.33333300  0.14997205  1
  O  O12  1  0.46614722  0.53385278  0.75000000  1
  O  O13  1  0.53385278  0.46614722  0.25000000  1
  O  O14  1  0.06770556  0.53385278  0.75000000  1
  O  O15  1  0.93229444  0.46614722  0.25000000  1
  O  O16  1  0.46614722  0.93229444  0.75000000  1
  O  O17  1  0.53385278  0.06770556  0.25000000  1
  O  O18  1  0.81402752  0.18597248  0.40654762  1
  O  O19  1  0.18597248  0.81402752  0.59345238  1
  O  O20  1  0.37194497  0.18597248  0.40654762  1
  O  O21  1  0.18597248  0.81402752  0.90654762  1
  O  O22  1  0.62805503  0.81402752  0.59345238  1
  O  O23  1  0.81402752  0.18597248  0.09345238  1
  O  O24  1  0.81402752  0.62805503  0.40654762  1
  O  O25  1  0.62805503  0.81402752  0.90654762  1
  O  O26  1  0.18597248  0.37194497  0.59345238  1
  O  O27  1  0.37194497  0.18597248  0.09345238  1
  O  O28  1  0.18597248  0.37194497  0.90654762  1
  O  O29  1  0.81402752  0.62805503  0.09345238  1
