# generated using pymatgen
data_Ca11YAl15Cr4SiO48
_symmetry_space_group_name_H-M   'P 1'
_cell_length_a   10.53558284
_cell_length_b   10.53558337
_cell_length_c   10.55715199
_cell_angle_alpha   109.48376554
_cell_angle_beta   109.38374030
_cell_angle_gamma   109.46339364
_symmetry_Int_Tables_number   1
_chemical_formula_structural   Ca11YAl15Cr4SiO48
_chemical_formula_sum   'Ca11 Y1 Al15 Cr4 Si1 O48'
_cell_volume   902.99336001
_cell_formula_units_Z   1
loop_
 _symmetry_equiv_pos_site_id
 _symmetry_equiv_pos_as_xyz
  1  'x, y, z'
loop_
 _atom_site_type_symbol
 _atom_site_label
 _atom_site_symmetry_multiplicity
 _atom_site_fract_x
 _atom_site_fract_y
 _atom_site_fract_z
 _atom_site_occupancy
  Ca  Ca0  1  0.25210043  0.87717426  0.62839511  1
  Ca  Ca1  1  0.12689168  0.24887397  0.37641823  1
  Ca  Ca2  1  0.37245574  0.75047346  0.12358177  1
  Ca  Ca3  1  0.25032243  0.37574090  0.12785105  1
  Ca  Ca4  1  0.62279495  0.87279495  0.75000000  1
  Ca  Ca5  1  0.37524161  0.12524161  0.25000000  1
  Ca  Ca6  1  0.62727508  0.25106165  0.87798051  1
  Ca  Ca7  1  0.74877916  0.62370533  0.87160489  1
  Ca  Ca8  1  0.87308114  0.74929457  0.62201949  1
  Ca  Ca9  1  0.74788985  0.12247138  0.37214895  1
  Ca  Ca10  1  0.87741001  0.62741001  0.25000000  1
  Y  Y11  1  0.12250096  0.37250096  0.75000000  1
  Al  Al12  1  0.99872795  0.00146379  0.49943241  1
  Al  Al13  1  0.12754618  0.74893975  0.87682165  1
  Al  Al14  1  0.24944709  0.62251423  0.37126867  1
  Al  Al15  1  0.37760441  0.62760441  0.75000000  1
  Al  Al16  1  0.24798783  0.12169590  0.87057370  1
  Al  Al17  1  0.37211810  0.25072453  0.62317835  1
  Al  Al18  1  0.50012304  0.49999641  0.50012433  1
  Al  Al19  1  0.62825453  0.75095794  0.37731102  1
  Al  Al20  1  0.62206000  0.37206000  0.25000000  1
  Al  Al21  1  0.75124556  0.87817842  0.12873133  1
  Al  Al22  1  0.75112220  0.37741413  0.62942630  1
  Al  Al23  1  0.49987208  -0.00000128  0.99987567  1
  Al  Al24  1  0.87689689  0.12689689  0.75000000  1
  Al  Al25  1  0.87364692  0.25094351  0.12268898  1
  Al  Al26  1  0.00203138  0.49929554  0.00056759  1
  Cr  Cr27  1  0.50210290  0.00153220  0.50456893  1
  Cr  Cr28  1  0.99696327  0.99753397  0.99543107  1
  Cr  Cr29  1  0.50188842  0.50053850  0.00178695  1
  Cr  Cr30  1  0.99875155  0.50010147  0.49821305  1
  Si  Si31  1  0.12383522  0.87383522  0.25000000  1
  O  O32  1  0.09814056  0.98314241  0.67770998  1
  O  O33  1  0.01707632  0.31932861  0.89866253  1
  O  O34  1  0.11373216  0.59343740  0.91171382  1
  O  O35  1  0.07579495  0.68831461  0.67713812  1
  O  O36  1  0.08847072  0.89057160  0.39341461  1
  O  O37  1  0.10196585  0.61510626  0.42409454  1
  O  O38  1  0.17789535  0.48559609  0.60478867  1
  O  O39  1  0.41564598  0.81886993  0.80284718  1
  O  O40  1  0.38080742  0.57310668  0.89521133  1
  O  O41  1  0.30309166  0.32069733  0.91948862  1
  O  O42  1  0.30848635  0.91773169  0.30386145  1
  O  O43  1  0.01205219  0.18782913  0.11427866  1
  O  O44  1  0.18172359  0.20201834  0.58828618  1
  O  O45  1  0.19708549  0.58215647  0.18018655  1
  O  O46  1  0.39874138  0.82220349  0.51189861  1
  O  O47  1  0.31850797  0.90224381  0.01452326  1
  O  O48  1  0.30394384  0.48536773  0.38858196  1
  O  O49  1  0.11387025  0.00462490  0.19613855  1
  O  O50  1  0.51602274  0.61279880  0.69715282  1
  O  O51  1  0.40276672  0.08483572  0.88824005  1
  O  O52  1  0.51117649  0.39865683  0.82286188  1
  O  O53  1  0.38772055  0.30398471  0.48547674  1
  O  O54  1  0.57355047  0.89777353  0.38572134  1
  O  O55  1  0.18869879  0.11078058  0.01138062  1
  O  O56  1  0.81030488  0.88684277  0.98810139  1
  O  O57  1  0.42318853  0.10194313  0.61402329  1
  O  O58  1  0.61222427  0.69657460  0.51444368  1
  O  O59  1  0.48926168  0.60155123  0.17722896  1
  O  O60  1  0.59678578  0.91536188  0.11141804  1
  O  O61  1  0.48397256  0.38717019  0.30323876  1
  O  O62  1  0.88515942  0.98655190  0.80824410  1
  O  O63  1  0.69659566  0.51452667  0.61175995  1
  O  O64  1  0.68213093  0.09778059  0.98555632  1
  O  O65  1  0.59939996  0.17731817  0.48861938  1
  O  O66  1  0.80543243  0.42043059  0.82229002  1
  O  O67  1  0.81963872  0.80416794  0.41492578  1
  O  O68  1  0.98791984  0.80916524  0.88597671  1
  O  O69  1  0.67830780  0.07691532  0.69175590  1
  O  O70  1  0.69101172  0.67787132  0.07590546  1
  O  O71  1  0.61326955  0.42257513  0.10161278  1
  O  O72  1  0.58393143  0.18073380  0.19676124  1
  O  O73  1  0.82096236  0.51165677  0.39838722  1
  O  O74  1  0.90120871  0.38360304  0.58051138  1
  O  O75  1  0.92066608  0.11841379  0.60133747  1
  O  O76  1  0.92432227  0.31203272  0.32277104  1
  O  O77  1  0.88924215  0.40471294  0.08507422  1
  O  O78  1  0.99715699  0.69505611  0.10658539  1
  O  O79  1  0.90196992  0.01689894  0.31981345  1
