# generated using pymatgen
data_Sm23Mg4Pt7
_symmetry_space_group_name_H-M   'P 1'
_cell_length_a   10.01704902
_cell_length_b   10.01704902
_cell_length_c   22.63074708
_cell_angle_alpha   90.00000000
_cell_angle_beta   90.00000000
_cell_angle_gamma   120.00000158
_symmetry_Int_Tables_number   1
_chemical_formula_structural   Sm23Mg4Pt7
_chemical_formula_sum   'Sm46 Mg8 Pt14'
_cell_volume   1966.56866010
_cell_formula_units_Z   2
loop_
 _symmetry_equiv_pos_site_id
 _symmetry_equiv_pos_as_xyz
  1  'x, y, z'
loop_
 _atom_site_type_symbol
 _atom_site_label
 _atom_site_symmetry_multiplicity
 _atom_site_fract_x
 _atom_site_fract_y
 _atom_site_fract_z
 _atom_site_occupancy
  Sm  Sm0  1  0.20664064  0.41328127  0.72022536  1
  Sm  Sm1  1  0.20664064  0.79335936  0.72022536  1
  Sm  Sm2  1  0.79335936  0.58671873  0.22022536  1
  Sm  Sm3  1  0.58671873  0.79335936  0.72022536  1
  Sm  Sm4  1  0.79335936  0.20664064  0.22022536  1
  Sm  Sm5  1  0.41328127  0.20664064  0.22022536  1
  Sm  Sm6  1  0.79337688  0.58675375  0.94625786  1
  Sm  Sm7  1  0.79337688  0.20662312  0.94625786  1
  Sm  Sm8  1  0.20662312  0.41324625  0.44625786  1
  Sm  Sm9  1  0.41324625  0.20662312  0.94625786  1
  Sm  Sm10  1  0.20662312  0.79337688  0.44625786  1
  Sm  Sm11  1  0.58675375  0.79337688  0.44625786  1
  Sm  Sm12  1  0.21220978  0.42441956  0.98984886  1
  Sm  Sm13  1  0.21220978  0.78779022  0.98984886  1
  Sm  Sm14  1  0.78779022  0.57558044  0.48984886  1
  Sm  Sm15  1  0.57558044  0.78779022  0.98984886  1
  Sm  Sm16  1  0.78779022  0.21220978  0.48984886  1
  Sm  Sm17  1  0.42441956  0.21220978  0.48984886  1
  Sm  Sm18  1  0.86985532  0.73971064  0.63520449  1
  Sm  Sm19  1  0.86985532  0.13014468  0.63520449  1
  Sm  Sm20  1  0.13014468  0.26028936  0.13520449  1
  Sm  Sm21  1  0.26028936  0.13014468  0.63520449  1
  Sm  Sm22  1  0.13014468  0.86985532  0.13520449  1
  Sm  Sm23  1  0.73971064  0.86985532  0.13520449  1
  Sm  Sm24  1  0.45605125  0.91210251  0.85675207  1
  Sm  Sm25  1  0.45605125  0.54394875  0.85675207  1
  Sm  Sm26  1  0.54394875  0.08789749  0.35675207  1
  Sm  Sm27  1  0.08789749  0.54394875  0.85675207  1
  Sm  Sm28  1  0.54394875  0.45605125  0.35675207  1
  Sm  Sm29  1  0.91210251  0.45605125  0.35675207  1
  Sm  Sm30  1  -0.00000000  0.00000000  0.99867327  1
  Sm  Sm31  1  -0.00000000  0.00000000  0.49867327  1
  Sm  Sm32  1  0.46188857  0.92377713  0.58509881  1
  Sm  Sm33  1  0.46188857  0.53811143  0.58509881  1
  Sm  Sm34  1  0.53811143  0.07622287  0.08509881  1
  Sm  Sm35  1  0.07622287  0.53811143  0.58509881  1
  Sm  Sm36  1  0.53811143  0.46188857  0.08509881  1
  Sm  Sm37  1  0.92377713  0.46188857  0.08509881  1
  Sm  Sm38  1  0.79918824  0.59837648  0.78289546  1
  Sm  Sm39  1  0.79918824  0.20081176  0.78289546  1
  Sm  Sm40  1  0.20081176  0.40162352  0.28289546  1
  Sm  Sm41  1  0.40162352  0.20081176  0.78289546  1
  Sm  Sm42  1  0.20081176  0.79918824  0.28289546  1
  Sm  Sm43  1  0.59837648  0.79918824  0.28289546  1
  Sm  Sm44  1  0.66666700  0.33333300  0.64185598  1
  Sm  Sm45  1  0.33333300  0.66666700  0.14185598  1
  Mg  Mg46  1  -0.00000000  0.00000000  0.74937629  1
  Mg  Mg47  1  -0.00000000  0.00000000  0.24937629  1
  Mg  Mg48  1  0.10634579  0.21269158  0.86352506  1
  Mg  Mg49  1  0.10634579  0.89365421  0.86352506  1
  Mg  Mg50  1  0.89365421  0.78730842  0.36352506  1
  Mg  Mg51  1  0.78730842  0.89365421  0.86352506  1
  Mg  Mg52  1  0.89365421  0.10634579  0.36352506  1
  Mg  Mg53  1  0.21269158  0.10634579  0.36352506  1
  Pt  Pt54  1  0.52264470  0.04528941  0.71026461  1
  Pt  Pt55  1  0.52264470  0.47735530  0.71026461  1
  Pt  Pt56  1  0.47735530  0.95471059  0.21026461  1
  Pt  Pt57  1  0.95471059  0.47735530  0.71026461  1
  Pt  Pt58  1  0.47735530  0.52264470  0.21026461  1
  Pt  Pt59  1  0.04528941  0.52264470  0.21026461  1
  Pt  Pt60  1  0.66666700  0.33333300  0.86160768  1
  Pt  Pt61  1  0.33333300  0.66666700  0.36160768  1
  Pt  Pt62  1  0.14368676  0.28737352  0.56499634  1
  Pt  Pt63  1  0.14368676  0.85631324  0.56499634  1
  Pt  Pt64  1  0.85631324  0.71262648  0.06499634  1
  Pt  Pt65  1  0.71262648  0.85631324  0.56499634  1
  Pt  Pt66  1  0.85631324  0.14368676  0.06499634  1
  Pt  Pt67  1  0.28737352  0.14368676  0.06499634  1
