# generated using pymatgen
data_Rb2Mg2(SO4)3
_symmetry_space_group_name_H-M   'P 1'
_cell_length_a   10.14991807
_cell_length_b   10.14991807
_cell_length_c   10.14991807
_cell_angle_alpha   90.00000000
_cell_angle_beta   90.00000000
_cell_angle_gamma   90.00000000
_symmetry_Int_Tables_number   1
_chemical_formula_structural   Rb2Mg2(SO4)3
_chemical_formula_sum   'Rb8 Mg8 S12 O48'
_cell_volume   1045.65305330
_cell_formula_units_Z   4
loop_
 _symmetry_equiv_pos_site_id
 _symmetry_equiv_pos_as_xyz
  1  'x, y, z'
loop_
 _atom_site_type_symbol
 _atom_site_label
 _atom_site_symmetry_multiplicity
 _atom_site_fract_x
 _atom_site_fract_y
 _atom_site_fract_z
 _atom_site_occupancy
  Rb  Rb0  1  0.04787068  0.04787068  0.04787068  1
  Rb  Rb1  1  0.45212932  0.95212932  0.54787068  1
  Rb  Rb2  1  0.95212932  0.54787068  0.45212932  1
  Rb  Rb3  1  0.54787068  0.45212932  0.95212932  1
  Rb  Rb4  1  0.81669985  0.81669985  0.81669985  1
  Rb  Rb5  1  0.68330015  0.18330015  0.31669985  1
  Rb  Rb6  1  0.18330015  0.31669985  0.68330015  1
  Rb  Rb7  1  0.31669985  0.68330015  0.18330015  1
  Mg  Mg8  1  0.33504344  0.33504344  0.33504344  1
  Mg  Mg9  1  0.16495656  0.66495656  0.83504344  1
  Mg  Mg10  1  0.66495656  0.83504344  0.16495656  1
  Mg  Mg11  1  0.83504344  0.16495656  0.66495656  1
  Mg  Mg12  1  0.59865654  0.59865654  0.59865654  1
  Mg  Mg13  1  0.90134346  0.40134346  0.09865654  1
  Mg  Mg14  1  0.40134346  0.09865654  0.90134346  1
  Mg  Mg15  1  0.09865654  0.90134346  0.40134346  1
  S  S16  1  0.01845088  0.21590252  0.37581940  1
  S  S17  1  0.48154912  0.78409748  0.87581940  1
  S  S18  1  0.98154912  0.71590252  0.12418060  1
  S  S19  1  0.37581940  0.01845088  0.21590252  1
  S  S20  1  0.51845088  0.28409748  0.62418060  1
  S  S21  1  0.87581940  0.48154912  0.78409748  1
  S  S22  1  0.12418060  0.98154912  0.71590252  1
  S  S23  1  0.62418060  0.51845088  0.28409748  1
  S  S24  1  0.21590252  0.37581940  0.01845088  1
  S  S25  1  0.71590252  0.12418060  0.98154912  1
  S  S26  1  0.28409748  0.62418060  0.51845088  1
  S  S27  1  0.78409748  0.87581940  0.48154912  1
  O  O28  1  0.01040032  0.07634167  0.33133793  1
  O  O29  1  0.48959968  0.92365833  0.83133793  1
  O  O30  1  0.98959968  0.57634167  0.16866207  1
  O  O31  1  0.33133793  0.01040032  0.07634167  1
  O  O32  1  0.51040032  0.42365833  0.66866207  1
  O  O33  1  0.83133793  0.48959968  0.92365833  1
  O  O34  1  0.16866207  0.98959968  0.57634167  1
  O  O35  1  0.66866207  0.51040032  0.42365833  1
  O  O36  1  0.07634167  0.33133793  0.01040032  1
  O  O37  1  0.57634167  0.16866207  0.98959968  1
  O  O38  1  0.42365833  0.66866207  0.51040032  1
  O  O39  1  0.92365833  0.83133793  0.48959968  1
  O  O40  1  0.26623554  0.50040801  0.44146325  1
  O  O41  1  0.23376446  0.49959199  0.94146325  1
  O  O42  1  0.73376446  0.00040801  0.05853675  1
  O  O43  1  0.44146325  0.26623554  0.50040801  1
  O  O44  1  0.76623554  0.99959199  0.55853675  1
  O  O45  1  0.94146325  0.23376446  0.49959199  1
  O  O46  1  0.05853675  0.73376446  0.00040801  1
  O  O47  1  0.55853675  0.76623554  0.99959199  1
  O  O48  1  0.50040801  0.44146325  0.26623554  1
  O  O49  1  0.00040801  0.05853675  0.73376446  1
  O  O50  1  0.99959199  0.55853675  0.76623554  1
  O  O51  1  0.49959199  0.94146325  0.23376446  1
  O  O52  1  0.04124198  0.80258509  0.22602032  1
  O  O53  1  0.45875802  0.19741491  0.72602032  1
  O  O54  1  0.95875802  0.30258509  0.27397968  1
  O  O55  1  0.22602032  0.04124198  0.80258509  1
  O  O56  1  0.54124198  0.69741491  0.77397968  1
  O  O57  1  0.72602032  0.45875802  0.19741491  1
  O  O58  1  0.27397968  0.95875802  0.30258509  1
  O  O59  1  0.77397968  0.54124198  0.69741491  1
  O  O60  1  0.80258509  0.22602032  0.04124198  1
  O  O61  1  0.30258509  0.27397968  0.95875802  1
  O  O62  1  0.69741491  0.77397968  0.54124198  1
  O  O63  1  0.19741491  0.72602032  0.45875802  1
  O  O64  1  0.15722884  0.25384652  0.40055955  1
  O  O65  1  0.34277116  0.74615348  0.90055955  1
  O  O66  1  0.84277116  0.75384652  0.09944045  1
  O  O67  1  0.40055955  0.15722884  0.25384652  1
  O  O68  1  0.65722884  0.24615348  0.59944045  1
  O  O69  1  0.90055955  0.34277116  0.74615348  1
  O  O70  1  0.09944045  0.84277116  0.75384652  1
  O  O71  1  0.59944045  0.65722884  0.24615348  1
  O  O72  1  0.25384652  0.40055955  0.15722884  1
  O  O73  1  0.75384652  0.09944045  0.84277116  1
  O  O74  1  0.24615348  0.59944045  0.65722884  1
  O  O75  1  0.74615348  0.90055955  0.34277116  1
