# generated using pymatgen
data_Pr2Cu(GeO4)2
_symmetry_space_group_name_H-M   'P 1'
_cell_length_a   5.22617116
_cell_length_b   8.57747215
_cell_length_c   9.23740073
_cell_angle_alpha   117.39233673
_cell_angle_beta   106.02103202
_cell_angle_gamma   90.85041014
_symmetry_Int_Tables_number   1
_chemical_formula_structural   Pr2Cu(GeO4)2
_chemical_formula_sum   'Pr4 Cu2 Ge4 O16'
_cell_volume   348.46573220
_cell_formula_units_Z   2
loop_
 _symmetry_equiv_pos_site_id
 _symmetry_equiv_pos_as_xyz
  1  'x, y, z'
loop_
 _atom_site_type_symbol
 _atom_site_label
 _atom_site_symmetry_multiplicity
 _atom_site_fract_x
 _atom_site_fract_y
 _atom_site_fract_z
 _atom_site_occupancy
  Pr  Pr0  1  0.11663401  0.29831764  0.75882978  1
  Pr  Pr1  1  0.35780423  0.53948786  0.24117022  1
  Pr  Pr2  1  0.36717518  0.04310479  0.24236014  1
  Pr  Pr3  1  0.12481504  0.80074465  0.75763986  1
  Cu  Cu4  1  0.54729197  0.92644187  0.58615817  1
  Cu  Cu5  1  0.96113380  0.34028371  0.41384183  1
  Ge  Ge6  1  0.78677916  0.16277116  0.00000000  1
  Ge  Ge7  1  0.96945273  0.88878631  0.42102185  1
  Ge  Ge8  1  0.54843088  0.46776446  0.57897815  1
  Ge  Ge9  1  0.69355957  0.66653746  1.00000000  1
  O  O10  1  0.16215287  0.08808754  0.46668158  1
  O  O11  1  0.69547128  0.62140596  0.53331842  1
  O  O12  1  0.48826861  0.06505834  0.81359487  1
  O  O13  1  0.67467374  0.25146347  0.18640513  1
  O  O14  1  0.49224579  0.49848993  0.00000000  1
  O  O15  1  0.19699455  0.75592284  0.48178008  1
  O  O16  1  0.71521447  0.27414276  0.51821992  1
  O  O17  1  0.99752017  0.75827523  0.18437570  1
  O  O18  1  0.81314447  0.57389953  0.81562430  1
  O  O19  1  0.99241883  0.33065703  0.00000000  1
  O  O20  1  0.49022375  0.83006835  0.00000000  1
  O  O21  1  0.60317159  0.84077272  0.34640475  1
  O  O22  1  0.25676684  0.49436797  0.65359525  1
  O  O23  1  0.00007574  0.00122216  1.00000000  1
  O  O24  1  0.92457389  0.99884665  0.65136705  1
  O  O25  1  0.27320684  0.34747960  0.34863295  1
