# generated using pymatgen
data_Rb2(NbBr3)3
_symmetry_space_group_name_H-M   'P 1'
_cell_length_a   10.60197016
_cell_length_b   10.60197016
_cell_length_c   10.50879480
_cell_angle_alpha   103.41140715
_cell_angle_beta   103.41140715
_cell_angle_gamma   116.18343199
_symmetry_Int_Tables_number   1
_chemical_formula_structural   Rb2(NbBr3)3
_chemical_formula_sum   'Rb4 Nb6 Br18'
_cell_volume   952.48993942
_cell_formula_units_Z   2
loop_
 _symmetry_equiv_pos_site_id
 _symmetry_equiv_pos_as_xyz
  1  'x, y, z'
loop_
 _atom_site_type_symbol
 _atom_site_label
 _atom_site_symmetry_multiplicity
 _atom_site_fract_x
 _atom_site_fract_y
 _atom_site_fract_z
 _atom_site_occupancy
  Rb  Rb0  1  0.73264549  0.05232385  0.67429364  1
  Rb  Rb1  1  0.26735451  0.94767615  0.32570636  1
  Rb  Rb2  1  0.94767615  0.26735451  0.32570636  1
  Rb  Rb3  1  0.05232385  0.73264549  0.67429364  1
  Nb  Nb4  1  0.60889409  0.60889409  0.87858140  1
  Nb  Nb5  1  0.39110591  0.39110591  0.12141860  1
  Nb  Nb6  1  0.45692093  0.29136548  0.86735472  1
  Nb  Nb7  1  0.54307907  0.70863452  0.13264528  1
  Nb  Nb8  1  0.70863452  0.54307907  0.13264528  1
  Nb  Nb9  1  0.29136548  0.45692093  0.86735472  1
  Br  Br10  1  0.70274562  0.29725438  0.00000000  1
  Br  Br11  1  0.29725438  0.70274562  -0.00000000  1
  Br  Br12  1  0.39397337  0.00350895  0.68442342  1
  Br  Br13  1  0.60602663  0.99649105  0.31557658  1
  Br  Br14  1  0.99649105  0.60602663  0.31557658  1
  Br  Br15  1  0.00350895  0.39397337  0.68442342  1
  Br  Br16  1  0.31432743  0.11124776  0.98580679  1
  Br  Br17  1  0.68567257  0.88875224  0.01419321  1
  Br  Br18  1  0.88875224  0.68567257  0.01419321  1
  Br  Br19  1  0.11124776  0.31432743  0.98580679  1
  Br  Br20  1  0.75562920  0.75562920  0.71686590  1
  Br  Br21  1  0.24437080  0.24437080  0.28313410  1
  Br  Br22  1  0.80999388  0.80999388  0.32544482  1
  Br  Br23  1  0.19000612  0.19000612  0.67455518  1
  Br  Br24  1  0.57960026  0.37702139  0.69016469  1
  Br  Br25  1  0.42039974  0.62297861  0.30983531  1
  Br  Br26  1  0.62297861  0.42039974  0.30983531  1
  Br  Br27  1  0.37702139  0.57960026  0.69016469  1
