# generated using pymatgen
data_Nd2Be2GeO7
_symmetry_space_group_name_H-M   'P 1'
_cell_length_a   4.92897133
_cell_length_b   7.63068314
_cell_length_c   7.63068314
_cell_angle_alpha   90.00000000
_cell_angle_beta   90.00000000
_cell_angle_gamma   90.00000000
_symmetry_Int_Tables_number   1
_chemical_formula_structural   Nd2Be2GeO7
_chemical_formula_sum   'Nd4 Be4 Ge2 O14'
_cell_volume   287.00081645
_cell_formula_units_Z   2
loop_
 _symmetry_equiv_pos_site_id
 _symmetry_equiv_pos_as_xyz
  1  'x, y, z'
loop_
 _atom_site_type_symbol
 _atom_site_label
 _atom_site_symmetry_multiplicity
 _atom_site_fract_x
 _atom_site_fract_y
 _atom_site_fract_z
 _atom_site_occupancy
  Nd  Nd0  1  0.50543797  0.15953346  0.65953346  1
  Nd  Nd1  1  0.50543797  0.84046654  0.34046654  1
  Nd  Nd2  1  0.49456203  0.65953346  0.84046654  1
  Nd  Nd3  1  0.49456203  0.34046654  0.15953346  1
  Be  Be4  1  0.95775298  0.63263117  0.13263117  1
  Be  Be5  1  0.95775298  0.36736883  0.86736883  1
  Be  Be6  1  0.04224702  0.13263117  0.36736883  1
  Be  Be7  1  0.04224702  0.86736883  0.63263117  1
  Ge  Ge8  1  -0.00000000  0.00000000  -0.00000000  1
  Ge  Ge9  1  -0.00000000  0.50000000  0.50000000  1
  O  O10  1  0.17574573  0.00000000  0.50000000  1
  O  O11  1  0.82425427  0.50000000  -0.00000000  1
  O  O12  1  0.27906053  0.64134038  0.14134038  1
  O  O13  1  0.27906053  0.35865962  0.85865962  1
  O  O14  1  0.72093947  0.14134038  0.35865962  1
  O  O15  1  0.72093947  0.85865962  0.64134038  1
  O  O16  1  0.20539725  0.07695886  0.17362422  1
  O  O17  1  0.20539725  0.92304114  0.82637578  1
  O  O18  1  0.79460275  0.17362422  0.92304114  1
  O  O19  1  0.79460275  0.42304114  0.67362422  1
  O  O20  1  0.79460275  0.82637578  0.07695886  1
  O  O21  1  0.79460275  0.57695886  0.32637578  1
  O  O22  1  0.20539725  0.32637578  0.42304114  1
  O  O23  1  0.20539725  0.67362422  0.57695886  1
