# generated using pymatgen
data_Al2CuO4
_symmetry_space_group_name_H-M   'P 1'
_cell_length_a   5.67720627
_cell_length_b   5.82222979
_cell_length_c   5.58745608
_cell_angle_alpha   118.67483381
_cell_angle_beta   90.00000339
_cell_angle_gamma   60.82059678
_symmetry_Int_Tables_number   1
_chemical_formula_structural   Al2CuO4
_chemical_formula_sum   'Al4 Cu2 O8'
_cell_volume   134.71506464
_cell_formula_units_Z   2
loop_
 _symmetry_equiv_pos_site_id
 _symmetry_equiv_pos_as_xyz
  1  'x, y, z'
loop_
 _atom_site_type_symbol
 _atom_site_label
 _atom_site_symmetry_multiplicity
 _atom_site_fract_x
 _atom_site_fract_y
 _atom_site_fract_z
 _atom_site_occupancy
  Al  Al0  1  0.01282867  0.97434267  0.98717133  1
  Al  Al1  1  0.23717133  0.52565733  0.26282867  1
  Al  Al2  1  0.12500000  0.25000000  0.62500000  1
  Al  Al3  1  0.62500000  0.25000000  0.62500000  1
  Cu  Cu4  1  0.62500000  0.75000000  0.12500000  1
  Cu  Cu5  1  0.62500000  0.75000000  0.62500000  1
  O  O6  1  0.35922676  0.78836839  0.39418470  1
  O  O7  1  0.85240484  0.78836839  0.39418470  1
  O  O8  1  0.39759516  0.71163161  0.85581530  1
  O  O9  1  0.35846697  0.28306606  0.40743559  1
  O  O10  1  0.35846697  0.28306606  0.87563047  1
  O  O11  1  0.89077324  0.71163161  0.85581530  1
  O  O12  1  0.89153303  0.21693394  0.37436953  1
  O  O13  1  0.89153303  0.21693394  0.84256441  1
