# generated using pymatgen
data_Pr6OsI10
_symmetry_space_group_name_H-M   'P 1'
_cell_length_a   8.07291552
_cell_length_b   10.03746867
_cell_length_c   10.17505188
_cell_angle_alpha   107.72326109
_cell_angle_beta   97.41781488
_cell_angle_gamma   105.16656874
_symmetry_Int_Tables_number   1
_chemical_formula_structural   Pr6OsI10
_chemical_formula_sum   'Pr6 Os1 I10'
_cell_volume   738.21531432
_cell_formula_units_Z   1
loop_
 _symmetry_equiv_pos_site_id
 _symmetry_equiv_pos_as_xyz
  1  'x, y, z'
loop_
 _atom_site_type_symbol
 _atom_site_label
 _atom_site_symmetry_multiplicity
 _atom_site_fract_x
 _atom_site_fract_y
 _atom_site_fract_z
 _atom_site_occupancy
  Pr  Pr0  1  0.52964088  0.22501523  0.41899875  1
  Pr  Pr1  1  0.47035912  0.77498477  0.58100125  1
  Pr  Pr2  1  0.13875915  0.36712694  0.32672534  1
  Pr  Pr3  1  0.86124085  0.63287306  0.67327466  1
  Pr  Pr4  1  0.61651953  0.54204144  0.25217414  1
  Pr  Pr5  1  0.38348047  0.45795856  0.74782586  1
  Os  Os6  1  0.50000000  0.50000000  0.50000000  1
  I  I7  1  0.14645635  0.04352158  0.22560672  1
  I  I8  1  0.85354365  0.95647842  0.77439328  1
  I  I9  1  0.23592575  0.40979206  0.03867442  1
  I  I10  1  0.76407425  0.59020794  0.96132558  1
  I  I11  1  0.70743102  0.23750762  0.15144915  1
  I  I12  1  0.29256898  0.76249238  0.84855085  1
  I  I13  1  0.04928564  0.68386974  0.41057683  1
  I  I14  1  0.95071436  0.31613026  0.58942317  1
  I  I15  1  0.41353396  0.13122667  0.67830937  1
  I  I16  1  0.58646604  0.86877333  0.32169063  1
