# generated using pymatgen
data_Rb2NdI5
_symmetry_space_group_name_H-M   'P 1'
_cell_length_a   9.49351257
_cell_length_b   10.02737770
_cell_length_c   15.13437552
_cell_angle_alpha   90.00000000
_cell_angle_beta   90.00000000
_cell_angle_gamma   90.00000000
_symmetry_Int_Tables_number   1
_chemical_formula_structural   Rb2NdI5
_chemical_formula_sum   'Rb8 Nd4 I20'
_cell_volume   1440.71742608
_cell_formula_units_Z   4
loop_
 _symmetry_equiv_pos_site_id
 _symmetry_equiv_pos_as_xyz
  1  'x, y, z'
loop_
 _atom_site_type_symbol
 _atom_site_label
 _atom_site_symmetry_multiplicity
 _atom_site_fract_x
 _atom_site_fract_y
 _atom_site_fract_z
 _atom_site_occupancy
  Rb  Rb0  1  0.55539807  0.49632703  0.67305650  1
  Rb  Rb1  1  0.44460193  0.50367297  0.32694350  1
  Rb  Rb2  1  0.05539807  0.50367297  0.82694350  1
  Rb  Rb3  1  0.44460193  0.99632703  0.32694350  1
  Rb  Rb4  1  0.94460193  0.49632703  0.17305650  1
  Rb  Rb5  1  0.55539807  0.00367297  0.67305650  1
  Rb  Rb6  1  0.94460193  0.00367297  0.17305650  1
  Rb  Rb7  1  0.05539807  0.99632703  0.82694350  1
  Nd  Nd8  1  0.57764312  0.75000000  0.99562074  1
  Nd  Nd9  1  0.42235688  0.25000000  0.00437926  1
  Nd  Nd10  1  0.07764312  0.25000000  0.50437926  1
  Nd  Nd11  1  0.92235688  0.75000000  0.49562074  1
  I  I12  1  0.37809380  0.75000000  0.82563720  1
  I  I13  1  0.62190620  0.25000000  0.17436280  1
  I  I14  1  0.87809380  0.25000000  0.67436280  1
  I  I15  1  0.12190620  0.75000000  0.32563720  1
  I  I16  1  0.66257075  0.45563472  0.92664890  1
  I  I17  1  0.33742925  0.54436528  0.07335110  1
  I  I18  1  0.16257075  0.54436528  0.57335110  1
  I  I19  1  0.33742925  0.95563472  0.07335110  1
  I  I20  1  0.83742925  0.45563472  0.42664890  1
  I  I21  1  0.66257075  0.04436528  0.92664890  1
  I  I22  1  0.83742925  0.04436528  0.42664890  1
  I  I23  1  0.16257075  0.95563472  0.57335110  1
  I  I24  1  0.91746781  0.75000000  0.99007384  1
  I  I25  1  0.08253219  0.25000000  0.00992616  1
  I  I26  1  0.41746781  0.25000000  0.50992616  1
  I  I27  1  0.58253219  0.75000000  0.49007384  1
  I  I28  1  0.84154106  0.75000000  0.69921533  1
  I  I29  1  0.15845894  0.25000000  0.30078467  1
  I  I30  1  0.34154106  0.25000000  0.80078467  1
  I  I31  1  0.65845894  0.75000000  0.19921533  1
