# generated using pymatgen
data_Pr5CoSb2
_symmetry_space_group_name_H-M   'P 1'
_cell_length_a   8.39191061
_cell_length_b   8.96058441
_cell_length_c   12.99163469
_cell_angle_alpha   90.00000000
_cell_angle_beta   90.00000000
_cell_angle_gamma   90.00000000
_symmetry_Int_Tables_number   1
_chemical_formula_structural   Pr5CoSb2
_chemical_formula_sum   'Pr20 Co4 Sb8'
_cell_volume   976.92446257
_cell_formula_units_Z   4
loop_
 _symmetry_equiv_pos_site_id
 _symmetry_equiv_pos_as_xyz
  1  'x, y, z'
loop_
 _atom_site_type_symbol
 _atom_site_label
 _atom_site_symmetry_multiplicity
 _atom_site_fract_x
 _atom_site_fract_y
 _atom_site_fract_z
 _atom_site_occupancy
  Pr  Pr0  1  0.66857025  0.75000000  0.70297927  1
  Pr  Pr1  1  0.33142975  0.25000000  0.29702073  1
  Pr  Pr2  1  0.16857025  0.25000000  0.79702073  1
  Pr  Pr3  1  0.83142975  0.75000000  0.20297927  1
  Pr  Pr4  1  0.14807127  0.75000000  0.81217469  1
  Pr  Pr5  1  0.85192873  0.25000000  0.18782531  1
  Pr  Pr6  1  0.64807127  0.25000000  0.68782531  1
  Pr  Pr7  1  0.35192873  0.75000000  0.31217469  1
  Pr  Pr8  1  0.54619993  0.75000000  0.99778846  1
  Pr  Pr9  1  0.45380007  0.25000000  0.00221154  1
  Pr  Pr10  1  0.04619993  0.25000000  0.50221154  1
  Pr  Pr11  1  0.95380007  0.75000000  0.49778846  1
  Pr  Pr12  1  0.82895838  0.46758163  0.92668297  1
  Pr  Pr13  1  0.17104162  0.53241837  0.07331703  1
  Pr  Pr14  1  0.32895838  0.53241837  0.57331703  1
  Pr  Pr15  1  0.17104162  0.96758163  0.07331703  1
  Pr  Pr16  1  0.67104162  0.46758163  0.42668297  1
  Pr  Pr17  1  0.82895838  0.03241837  0.92668297  1
  Pr  Pr18  1  0.67104162  0.03241837  0.42668297  1
  Pr  Pr19  1  0.32895838  0.96758163  0.57331703  1
  Co  Co20  1  0.92980804  0.75000000  0.99282692  1
  Co  Co21  1  0.07019196  0.25000000  0.00717308  1
  Co  Co22  1  0.42980804  0.25000000  0.50717308  1
  Co  Co23  1  0.57019196  0.75000000  0.49282692  1
  Sb  Sb24  1  0.95092825  0.00285863  0.67728125  1
  Sb  Sb25  1  0.04907175  0.99714137  0.32271875  1
  Sb  Sb26  1  0.45092825  0.99714137  0.82271875  1
  Sb  Sb27  1  0.04907175  0.50285863  0.32271875  1
  Sb  Sb28  1  0.54907175  0.00285863  0.17728125  1
  Sb  Sb29  1  0.95092825  0.49714137  0.67728125  1
  Sb  Sb30  1  0.54907175  0.49714137  0.17728125  1
  Sb  Sb31  1  0.45092825  0.50285863  0.82271875  1
