# generated using pymatgen
data_Nd2Sn5
_symmetry_space_group_name_H-M   'P 1'
_cell_length_a   4.65514272
_cell_length_b   4.68411625
_cell_length_c   17.89697601
_cell_angle_alpha   90.00000000
_cell_angle_beta   97.47270475
_cell_angle_gamma   90.00000000
_symmetry_Int_Tables_number   1
_chemical_formula_structural   Nd2Sn5
_chemical_formula_sum   'Nd4 Sn10'
_cell_volume   386.93327155
_cell_formula_units_Z   2
loop_
 _symmetry_equiv_pos_site_id
 _symmetry_equiv_pos_as_xyz
  1  'x, y, z'
loop_
 _atom_site_type_symbol
 _atom_site_label
 _atom_site_symmetry_multiplicity
 _atom_site_fract_x
 _atom_site_fract_y
 _atom_site_fract_z
 _atom_site_occupancy
  Nd  Nd0  1  0.93236547  0.50000000  0.86473095  1
  Nd  Nd1  1  0.06763453  0.50000000  0.13526905  1
  Nd  Nd2  1  0.79785294  0.50000000  0.59570588  1
  Nd  Nd3  1  0.20214706  0.50000000  0.40429412  1
  Sn  Sn4  1  0.63726624  0.50000000  0.27453248  1
  Sn  Sn5  1  0.36273376  0.50000000  0.72546752  1
  Sn  Sn6  1  0.72122485  0.00000000  0.44244970  1
  Sn  Sn7  1  0.27877515  0.00000000  0.55755030  1
  Sn  Sn8  1  0.50000000  0.50000000  -0.00000000  1
  Sn  Sn9  1  0.57076912  0.00000000  0.14153823  1
  Sn  Sn10  1  0.42923088  0.00000000  0.85846177  1
  Sn  Sn11  1  0.86206200  -0.00000000  0.72412401  1
  Sn  Sn12  1  0.13793800  -0.00000000  0.27587599  1
  Sn  Sn13  1  0.00000000  0.00000000  -0.00000000  1
