# generated using pymatgen
data_Li4CuF5
_symmetry_space_group_name_H-M   'P 1'
_cell_length_a   4.09365399
_cell_length_b   5.19892554
_cell_length_c   5.19892554
_cell_angle_alpha   98.91686615
_cell_angle_beta   113.18504096
_cell_angle_gamma   66.81495904
_symmetry_Int_Tables_number   1
_chemical_formula_structural   Li4CuF5
_chemical_formula_sum   'Li4 Cu1 F5'
_cell_volume   93.49629830
_cell_formula_units_Z   1
loop_
 _symmetry_equiv_pos_site_id
 _symmetry_equiv_pos_as_xyz
  1  'x, y, z'
loop_
 _atom_site_type_symbol
 _atom_site_label
 _atom_site_symmetry_multiplicity
 _atom_site_fract_x
 _atom_site_fract_y
 _atom_site_fract_z
 _atom_site_occupancy
  Li  Li0  1  0.19260964  0.41454295  0.79976124  1
  Li  Li1  1  0.60715259  0.20023876  0.41454295  1
  Li  Li2  1  0.39284741  0.79976124  0.58545705  1
  Li  Li3  1  0.80739036  0.58545705  0.20023876  1
  Cu  Cu4  1  0.00000000  0.00000000  0.00000000  1
  F  F5  1  0.11757214  0.20472819  0.43987347  1
  F  F6  1  0.50000000  0.00000000  0.00000000  1
  F  F7  1  0.32230133  0.56012653  0.20472819  1
  F  F8  1  0.67769867  0.43987347  0.79527181  1
  F  F9  1  0.88242786  0.79527181  0.56012653  1
