# generated using pymatgen
data_Pr3Ga5O12
_symmetry_space_group_name_H-M   'P 1'
_cell_length_a   11.00039842
_cell_length_b   11.00039842
_cell_length_c   11.00039842
_cell_angle_alpha   109.47122063
_cell_angle_beta   109.47122063
_cell_angle_gamma   109.47122063
_symmetry_Int_Tables_number   1
_chemical_formula_structural   Pr3Ga5O12
_chemical_formula_sum   'Pr12 Ga20 O48'
_cell_volume   1024.71561575
_cell_formula_units_Z   4
loop_
 _symmetry_equiv_pos_site_id
 _symmetry_equiv_pos_as_xyz
  1  'x, y, z'
loop_
 _atom_site_type_symbol
 _atom_site_label
 _atom_site_symmetry_multiplicity
 _atom_site_fract_x
 _atom_site_fract_y
 _atom_site_fract_z
 _atom_site_occupancy
  Pr  Pr0  1  0.87500000  0.62500000  0.75000000  1
  Pr  Pr1  1  0.12500000  0.37500000  0.25000000  1
  Pr  Pr2  1  0.62500000  0.87500000  0.25000000  1
  Pr  Pr3  1  0.62500000  0.75000000  0.87500000  1
  Pr  Pr4  1  0.87500000  0.25000000  0.62500000  1
  Pr  Pr5  1  0.37500000  0.12500000  0.75000000  1
  Pr  Pr6  1  0.37500000  0.25000000  0.12500000  1
  Pr  Pr7  1  0.12500000  0.75000000  0.37500000  1
  Pr  Pr8  1  0.75000000  0.87500000  0.62500000  1
  Pr  Pr9  1  0.25000000  0.12500000  0.37500000  1
  Pr  Pr10  1  0.25000000  0.62500000  0.87500000  1
  Pr  Pr11  1  0.75000000  0.37500000  0.12500000  1
  Ga  Ga12  1  0.62500000  0.37500000  0.75000000  1
  Ga  Ga13  1  0.37500000  0.62500000  0.25000000  1
  Ga  Ga14  1  0.87500000  0.12500000  0.25000000  1
  Ga  Ga15  1  0.37500000  0.75000000  0.62500000  1
  Ga  Ga16  1  0.62500000  0.25000000  0.37500000  1
  Ga  Ga17  1  0.12500000  0.87500000  0.75000000  1
  Ga  Ga18  1  0.12500000  0.25000000  0.87500000  1
  Ga  Ga19  1  0.87500000  0.75000000  0.12500000  1
  Ga  Ga20  1  0.75000000  0.62500000  0.37500000  1
  Ga  Ga21  1  0.25000000  0.37500000  0.62500000  1
  Ga  Ga22  1  0.25000000  0.87500000  0.12500000  1
  Ga  Ga23  1  0.75000000  0.12500000  0.87500000  1
  Ga  Ga24  1  -0.00000000  -0.00000000  0.00000000  1
  Ga  Ga25  1  0.50000000  -0.00000000  0.50000000  1
  Ga  Ga26  1  0.50000000  0.50000000  0.00000000  1
  Ga  Ga27  1  -0.00000000  -0.00000000  0.50000000  1
  Ga  Ga28  1  -0.00000000  0.50000000  0.50000000  1
  Ga  Ga29  1  0.50000000  0.50000000  0.50000000  1
  Ga  Ga30  1  0.50000000  -0.00000000  0.00000000  1
  Ga  Ga31  1  -0.00000000  0.50000000  0.00000000  1
  O  O32  1  0.70064114  0.61817987  0.52174259  1
  O  O33  1  0.29935886  0.38182013  0.47825741  1
  O  O34  1  0.79935886  0.82110144  0.41753873  1
  O  O35  1  0.40356271  0.88182013  0.08246127  1
  O  O36  1  0.61817987  0.52174259  0.70064114  1
  O  O37  1  0.70064114  0.08246127  0.67889856  1
  O  O38  1  0.20064114  0.17889856  0.58246127  1
  O  O39  1  0.59643729  0.11817987  0.91753873  1
  O  O40  1  0.38182013  0.47825741  0.29935886  1
  O  O41  1  0.29935886  0.91753873  0.32110144  1
  O  O42  1  0.09643729  0.67889856  0.97825741  1
  O  O43  1  0.82110144  0.41753873  0.79935886  1
  O  O44  1  0.79935886  0.97825741  0.88182013  1
  O  O45  1  0.90356271  0.32110144  0.02174259  1
  O  O46  1  0.17889856  0.58246127  0.20064114  1
  O  O47  1  0.20064114  0.02174259  0.11817987  1
  O  O48  1  0.88182013  0.08246127  0.40356271  1
  O  O49  1  0.40356271  0.52174259  0.82110144  1
  O  O50  1  0.11817987  0.91753873  0.59643729  1
  O  O51  1  0.59643729  0.47825741  0.17889856  1
  O  O52  1  0.67889856  0.97825741  0.09643729  1
  O  O53  1  0.09643729  0.41753873  0.61817987  1
  O  O54  1  0.32110144  0.02174259  0.90356271  1
  O  O55  1  0.90356271  0.58246127  0.38182013  1
  O  O56  1  0.52174259  0.70064114  0.61817987  1
  O  O57  1  0.61817987  0.09643729  0.41753873  1
  O  O58  1  0.47825741  0.29935886  0.38182013  1
  O  O59  1  0.38182013  0.90356271  0.58246127  1
  O  O60  1  0.08246127  0.40356271  0.88182013  1
  O  O61  1  0.88182013  0.79935886  0.97825741  1
  O  O62  1  0.91753873  0.59643729  0.11817987  1
  O  O63  1  0.11817987  0.20064114  0.02174259  1
  O  O64  1  0.97825741  0.09643729  0.67889856  1
  O  O65  1  0.67889856  0.70064114  0.08246127  1
  O  O66  1  0.02174259  0.90356271  0.32110144  1
  O  O67  1  0.32110144  0.29935886  0.91753873  1
  O  O68  1  0.41753873  0.79935886  0.82110144  1
  O  O69  1  0.82110144  0.40356271  0.52174259  1
  O  O70  1  0.58246127  0.20064114  0.17889856  1
  O  O71  1  0.17889856  0.59643729  0.47825741  1
  O  O72  1  0.08246127  0.67889856  0.70064114  1
  O  O73  1  0.91753873  0.32110144  0.29935886  1
  O  O74  1  0.97825741  0.88182013  0.79935886  1
  O  O75  1  0.02174259  0.11817987  0.20064114  1
  O  O76  1  0.41753873  0.61817987  0.09643729  1
  O  O77  1  0.58246127  0.38182013  0.90356271  1
  O  O78  1  0.52174259  0.82110144  0.40356271  1
  O  O79  1  0.47825741  0.17889856  0.59643729  1
