# generated using pymatgen
data_Nd4CdPd
_symmetry_space_group_name_H-M   'P 1'
_cell_length_a   10.03696143
_cell_length_b   10.03696143
_cell_length_c   10.03696143
_cell_angle_alpha   60.00000000
_cell_angle_beta   60.00000000
_cell_angle_gamma   60.00000000
_symmetry_Int_Tables_number   1
_chemical_formula_structural   Nd4CdPd
_chemical_formula_sum   'Nd16 Cd4 Pd4'
_cell_volume   714.97650069
_cell_formula_units_Z   4
loop_
 _symmetry_equiv_pos_site_id
 _symmetry_equiv_pos_as_xyz
  1  'x, y, z'
loop_
 _atom_site_type_symbol
 _atom_site_label
 _atom_site_symmetry_multiplicity
 _atom_site_fract_x
 _atom_site_fract_y
 _atom_site_fract_z
 _atom_site_occupancy
  Nd  Nd0  1  0.64906784  0.64906784  0.64906784  1
  Nd  Nd1  1  0.05279649  0.64906784  0.64906784  1
  Nd  Nd2  1  0.64906784  0.05279649  0.64906784  1
  Nd  Nd3  1  0.64906784  0.64906784  0.05279649  1
  Nd  Nd4  1  0.80782045  0.80782045  0.19217955  1
  Nd  Nd5  1  0.19217955  0.19217955  0.80782045  1
  Nd  Nd6  1  0.80782045  0.19217955  0.80782045  1
  Nd  Nd7  1  0.19217955  0.80782045  0.19217955  1
  Nd  Nd8  1  0.19217955  0.80782045  0.80782045  1
  Nd  Nd9  1  0.80782045  0.19217955  0.19217955  1
  Nd  Nd10  1  0.43453154  0.43453154  0.06546846  1
  Nd  Nd11  1  0.06546846  0.06546846  0.43453154  1
  Nd  Nd12  1  0.43453154  0.06546846  0.43453154  1
  Nd  Nd13  1  0.06546846  0.43453154  0.06546846  1
  Nd  Nd14  1  0.06546846  0.43453154  0.43453154  1
  Nd  Nd15  1  0.43453154  0.06546846  0.06546846  1
  Cd  Cd16  1  0.41970723  0.41970723  0.41970723  1
  Cd  Cd17  1  0.74087832  0.41970723  0.41970723  1
  Cd  Cd18  1  0.41970723  0.74087832  0.41970723  1
  Cd  Cd19  1  0.41970723  0.41970723  0.74087832  1
  Pd  Pd20  1  0.85675675  0.85675675  0.85675675  1
  Pd  Pd21  1  0.42972976  0.85675675  0.85675675  1
  Pd  Pd22  1  0.85675675  0.42972976  0.85675675  1
  Pd  Pd23  1  0.85675675  0.85675675  0.42972976  1
