# generated using pymatgen
data_Nd4MgPt
_symmetry_space_group_name_H-M   'P 1'
_cell_length_a   10.10269922
_cell_length_b   10.10269922
_cell_length_c   10.10269922
_cell_angle_alpha   60.00000000
_cell_angle_beta   60.00000000
_cell_angle_gamma   60.00000000
_symmetry_Int_Tables_number   1
_chemical_formula_structural   Nd4MgPt
_chemical_formula_sum   'Nd16 Mg4 Pt4'
_cell_volume   729.11708098
_cell_formula_units_Z   4
loop_
 _symmetry_equiv_pos_site_id
 _symmetry_equiv_pos_as_xyz
  1  'x, y, z'
loop_
 _atom_site_type_symbol
 _atom_site_label
 _atom_site_symmetry_multiplicity
 _atom_site_fract_x
 _atom_site_fract_y
 _atom_site_fract_z
 _atom_site_occupancy
  Nd  Nd0  1  0.65269321  0.65269321  0.65269321  1
  Nd  Nd1  1  0.04192037  0.65269321  0.65269321  1
  Nd  Nd2  1  0.65269321  0.04192037  0.65269321  1
  Nd  Nd3  1  0.65269321  0.65269321  0.04192037  1
  Nd  Nd4  1  0.80985964  0.80985964  0.19014036  1
  Nd  Nd5  1  0.19014036  0.19014036  0.80985964  1
  Nd  Nd6  1  0.80985964  0.19014036  0.80985964  1
  Nd  Nd7  1  0.19014036  0.80985964  0.19014036  1
  Nd  Nd8  1  0.19014036  0.80985964  0.80985964  1
  Nd  Nd9  1  0.80985964  0.19014036  0.19014036  1
  Nd  Nd10  1  0.43412117  0.43412117  0.06587883  1
  Nd  Nd11  1  0.06587883  0.06587883  0.43412117  1
  Nd  Nd12  1  0.43412117  0.06587883  0.43412117  1
  Nd  Nd13  1  0.06587883  0.43412117  0.06587883  1
  Nd  Nd14  1  0.06587883  0.43412117  0.43412117  1
  Nd  Nd15  1  0.43412117  0.06587883  0.06587883  1
  Mg  Mg16  1  0.42047048  0.42047048  0.42047048  1
  Mg  Mg17  1  0.73858857  0.42047048  0.42047048  1
  Mg  Mg18  1  0.42047048  0.73858857  0.42047048  1
  Mg  Mg19  1  0.42047048  0.42047048  0.73858857  1
  Pt  Pt20  1  0.85776030  0.85776030  0.85776030  1
  Pt  Pt21  1  0.42671911  0.85776030  0.85776030  1
  Pt  Pt22  1  0.85776030  0.42671911  0.85776030  1
  Pt  Pt23  1  0.85776030  0.85776030  0.42671911  1
