# generated using pymatgen
data_Pr12(MnC3)5
_symmetry_space_group_name_H-M   'P 1'
_cell_length_a   5.36690932
_cell_length_b   10.83867931
_cell_length_c   10.83867931
_cell_angle_alpha   120.00000021
_cell_angle_beta   90.00000000
_cell_angle_gamma   90.00000000
_symmetry_Int_Tables_number   1
_chemical_formula_structural   Pr12(MnC3)5
_chemical_formula_sum   'Pr12 Mn5 C15'
_cell_volume   546.01883263
_cell_formula_units_Z   1
loop_
 _symmetry_equiv_pos_site_id
 _symmetry_equiv_pos_as_xyz
  1  'x, y, z'
loop_
 _atom_site_type_symbol
 _atom_site_label
 _atom_site_symmetry_multiplicity
 _atom_site_fract_x
 _atom_site_fract_y
 _atom_site_fract_z
 _atom_site_occupancy
  Pr  Pr0  1  0.50000000  0.20671340  0.20671340  1
  Pr  Pr1  1  0.50000000  1.00000000  0.79328660  1
  Pr  Pr2  1  0.50000000  0.79328660  1.00000000  1
  Pr  Pr3  1  0.00000000  0.72846723  0.18640711  1
  Pr  Pr4  1  -0.00000000  0.45793988  0.27153277  1
  Pr  Pr5  1  0.00000000  0.54206012  0.81359289  1
  Pr  Pr6  1  -0.00000000  0.81359289  0.54206012  1
  Pr  Pr7  1  -0.00000000  0.18640711  0.72846723  1
  Pr  Pr8  1  0.00000000  0.27153277  0.45793988  1
  Pr  Pr9  1  0.50000000  0.57735321  0.57735321  1
  Pr  Pr10  1  0.50000000  0.00000000  0.42264679  1
  Pr  Pr11  1  0.50000000  0.42264679  0.00000000  1
  Mn  Mn12  1  -0.00000000  0.84584320  0.84584320  1
  Mn  Mn13  1  0.00000000  0.00000000  0.15415680  1
  Mn  Mn14  1  -0.00000000  0.15415680  0.00000000  1
  Mn  Mn15  1  0.50000000  0.66666700  0.33333300  1
  Mn  Mn16  1  0.50000000  0.33333300  0.66666700  1
  C  C17  1  0.00000000  0.67961796  0.67961796  1
  C  C18  1  -0.00000000  1.00000000  0.32038204  1
  C  C19  1  0.00000000  0.32038204  1.00000000  1
  C  C20  1  -0.00000000  0.19033750  0.19033750  1
  C  C21  1  -0.00000000  0.00000000  0.80966250  1
  C  C22  1  0.00000000  0.80966250  0.00000000  1
  C  C23  1  -0.00000000  0.55521898  0.55521898  1
  C  C24  1  0.00000000  0.00000000  0.44478102  1
  C  C25  1  -0.00000000  0.44478102  0.00000000  1
  C  C26  1  0.50000000  0.71090949  0.19516610  1
  C  C27  1  0.50000000  0.48425661  0.28909051  1
  C  C28  1  0.50000000  0.51574339  0.80483390  1
  C  C29  1  0.50000000  0.80483390  0.51574339  1
  C  C30  1  0.50000000  0.19516610  0.71090949  1
  C  C31  1  0.50000000  0.28909051  0.48425661  1
