# generated using pymatgen
data_Sc44Ru7
_symmetry_space_group_name_H-M   'P 1'
_cell_length_a   14.69144578
_cell_length_b   14.69144578
_cell_length_c   14.69144578
_cell_angle_alpha   60.00000000
_cell_angle_beta   60.00000000
_cell_angle_gamma   60.00000000
_symmetry_Int_Tables_number   1
_chemical_formula_structural   Sc44Ru7
_chemical_formula_sum   'Sc88 Ru14'
_cell_volume   2242.22201637
_cell_formula_units_Z   2
loop_
 _symmetry_equiv_pos_site_id
 _symmetry_equiv_pos_as_xyz
  1  'x, y, z'
loop_
 _atom_site_type_symbol
 _atom_site_label
 _atom_site_symmetry_multiplicity
 _atom_site_fract_x
 _atom_site_fract_y
 _atom_site_fract_z
 _atom_site_occupancy
  Sc  Sc0  1  0.55159520  0.33663561  0.33663561  1
  Sc  Sc1  1  0.77513358  0.33663561  0.33663561  1
  Sc  Sc2  1  0.33663561  0.77513358  0.55159520  1
  Sc  Sc3  1  0.33663561  0.33663561  0.55159520  1
  Sc  Sc4  1  0.33663561  0.55159520  0.77513358  1
  Sc  Sc5  1  0.33663561  0.33663561  0.77513358  1
  Sc  Sc6  1  0.77513358  0.55159520  0.33663561  1
  Sc  Sc7  1  0.55159520  0.77513358  0.33663561  1
  Sc  Sc8  1  0.33663561  0.55159520  0.33663561  1
  Sc  Sc9  1  0.55159520  0.33663561  0.77513358  1
  Sc  Sc10  1  0.77513358  0.33663561  0.55159520  1
  Sc  Sc11  1  0.33663561  0.77513358  0.33663561  1
  Sc  Sc12  1  0.35758249  0.35758249  0.14241751  1
  Sc  Sc13  1  0.14241751  0.14241751  0.35758249  1
  Sc  Sc14  1  0.35758249  0.14241751  0.35758249  1
  Sc  Sc15  1  0.14241751  0.35758249  0.14241751  1
  Sc  Sc16  1  0.14241751  0.35758249  0.35758249  1
  Sc  Sc17  1  0.35758249  0.14241751  0.14241751  1
  Sc  Sc18  1  0.56167652  0.56167652  0.56167652  1
  Sc  Sc19  1  0.31497045  0.56167652  0.56167652  1
  Sc  Sc20  1  0.56167652  0.31497045  0.56167652  1
  Sc  Sc21  1  0.56167652  0.56167652  0.31497045  1
  Sc  Sc22  1  0.10732176  0.71460559  0.71460559  1
  Sc  Sc23  1  0.46346706  0.71460559  0.71460559  1
  Sc  Sc24  1  0.71460559  0.46346706  0.10732176  1
  Sc  Sc25  1  0.71460559  0.71460559  0.10732176  1
  Sc  Sc26  1  0.71460559  0.10732176  0.46346706  1
  Sc  Sc27  1  0.71460559  0.71460559  0.46346706  1
  Sc  Sc28  1  0.46346706  0.10732176  0.71460559  1
  Sc  Sc29  1  0.10732176  0.46346706  0.71460559  1
  Sc  Sc30  1  0.71460559  0.10732176  0.71460559  1
  Sc  Sc31  1  0.10732176  0.71460559  0.46346706  1
  Sc  Sc32  1  0.46346706  0.71460559  0.10732176  1
  Sc  Sc33  1  0.71460559  0.46346706  0.71460559  1
  Sc  Sc34  1  0.11941626  0.48640133  0.48640133  1
  Sc  Sc35  1  0.90778107  0.48640133  0.48640133  1
  Sc  Sc36  1  0.48640133  0.90778107  0.11941626  1
  Sc  Sc37  1  0.48640133  0.48640133  0.11941626  1
  Sc  Sc38  1  0.48640133  0.11941626  0.90778107  1
  Sc  Sc39  1  0.48640133  0.48640133  0.90778107  1
  Sc  Sc40  1  0.90778107  0.11941626  0.48640133  1
  Sc  Sc41  1  0.11941626  0.90778107  0.48640133  1
  Sc  Sc42  1  0.48640133  0.11941626  0.48640133  1
  Sc  Sc43  1  0.11941626  0.48640133  0.90778107  1
  Sc  Sc44  1  0.90778107  0.48640133  0.11941626  1
  Sc  Sc45  1  0.48640133  0.90778107  0.48640133  1
  Sc  Sc46  1  0.83780369  0.83780369  0.83780369  1
  Sc  Sc47  1  0.48658893  0.83780369  0.83780369  1
  Sc  Sc48  1  0.83780369  0.48658893  0.83780369  1
  Sc  Sc49  1  0.83780369  0.83780369  0.48658893  1
  Sc  Sc50  1  0.94302744  0.94302744  0.94302744  1
  Sc  Sc51  1  0.17091767  0.94302744  0.94302744  1
  Sc  Sc52  1  0.94302744  0.17091767  0.94302744  1
  Sc  Sc53  1  0.94302744  0.94302744  0.17091767  1
  Sc  Sc54  1  0.69139010  0.69139010  0.69139010  1
  Sc  Sc55  1  0.92582969  0.69139010  0.69139010  1
  Sc  Sc56  1  0.69139010  0.92582969  0.69139010  1
  Sc  Sc57  1  0.69139010  0.69139010  0.92582969  1
  Sc  Sc58  1  0.57416645  0.21214994  0.21214994  1
  Sc  Sc59  1  0.00153366  0.21214994  0.21214994  1
  Sc  Sc60  1  0.21214994  0.00153366  0.57416645  1
  Sc  Sc61  1  0.21214994  0.21214994  0.57416645  1
  Sc  Sc62  1  0.21214994  0.57416645  0.00153366  1
  Sc  Sc63  1  0.21214994  0.21214994  0.00153366  1
  Sc  Sc64  1  0.00153366  0.57416645  0.21214994  1
  Sc  Sc65  1  0.57416645  0.00153366  0.21214994  1
  Sc  Sc66  1  0.21214994  0.57416645  0.21214994  1
  Sc  Sc67  1  0.57416645  0.21214994  0.00153366  1
  Sc  Sc68  1  0.00153366  0.21214994  0.57416645  1
  Sc  Sc69  1  0.21214994  0.00153366  0.21214994  1
  Sc  Sc70  1  0.70179431  0.97930275  0.97930275  1
  Sc  Sc71  1  0.33960018  0.97930275  0.97930275  1
  Sc  Sc72  1  0.97930275  0.33960018  0.70179431  1
  Sc  Sc73  1  0.97930275  0.97930275  0.70179431  1
  Sc  Sc74  1  0.97930275  0.70179431  0.33960018  1
  Sc  Sc75  1  0.97930275  0.97930275  0.33960018  1
  Sc  Sc76  1  0.33960018  0.70179431  0.97930275  1
  Sc  Sc77  1  0.70179431  0.33960018  0.97930275  1
  Sc  Sc78  1  0.97930275  0.70179431  0.97930275  1
  Sc  Sc79  1  0.70179431  0.97930275  0.33960018  1
  Sc  Sc80  1  0.33960018  0.97930275  0.70179431  1
  Sc  Sc81  1  0.97930275  0.33960018  0.97930275  1
  Sc  Sc82  1  0.80809664  0.80809664  0.19190336  1
  Sc  Sc83  1  0.19190336  0.19190336  0.80809664  1
  Sc  Sc84  1  0.80809664  0.19190336  0.80809664  1
  Sc  Sc85  1  0.19190336  0.80809664  0.19190336  1
  Sc  Sc86  1  0.19190336  0.80809664  0.80809664  1
  Sc  Sc87  1  0.80809664  0.19190336  0.19190336  1
  Ru  Ru88  1  0.35018639  0.35018639  0.35018639  1
  Ru  Ru89  1  0.94944082  0.35018639  0.35018639  1
  Ru  Ru90  1  0.35018639  0.94944082  0.35018639  1
  Ru  Ru91  1  0.35018639  0.35018639  0.94944082  1
  Ru  Ru92  1  0.90941358  0.90941358  0.59058642  1
  Ru  Ru93  1  0.59058642  0.59058642  0.90941358  1
  Ru  Ru94  1  0.90941358  0.59058642  0.90941358  1
  Ru  Ru95  1  0.59058642  0.90941358  0.59058642  1
  Ru  Ru96  1  0.59058642  0.90941358  0.90941358  1
  Ru  Ru97  1  0.90941358  0.59058642  0.59058642  1
  Ru  Ru98  1  0.08212298  0.08212298  0.08212298  1
  Ru  Ru99  1  0.75363107  0.08212298  0.08212298  1
  Ru  Ru100  1  0.08212298  0.75363107  0.08212298  1
  Ru  Ru101  1  0.08212298  0.08212298  0.75363107  1
