# generated using pymatgen
data_Pm2(WO4)3
_symmetry_space_group_name_H-M   'P 1'
_cell_length_a   7.05607844
_cell_length_b   7.05607844
_cell_length_c   11.68491498
_cell_angle_alpha   100.97152863
_cell_angle_beta   100.97152863
_cell_angle_gamma   111.87604350
_symmetry_Int_Tables_number   1
_chemical_formula_structural   Pm2(WO4)3
_chemical_formula_sum   'Pm4 W6 O24'
_cell_volume   507.75423741
_cell_formula_units_Z   2
loop_
 _symmetry_equiv_pos_site_id
 _symmetry_equiv_pos_as_xyz
  1  'x, y, z'
loop_
 _atom_site_type_symbol
 _atom_site_label
 _atom_site_symmetry_multiplicity
 _atom_site_fract_x
 _atom_site_fract_y
 _atom_site_fract_z
 _atom_site_occupancy
  Pm  Pm0  1  0.54179611  0.78789340  0.59367827  1
  Pm  Pm1  1  0.45820389  0.21210660  0.40632173  1
  Pm  Pm2  1  0.21210660  0.45820389  0.90632173  1
  Pm  Pm3  1  0.78789340  0.54179611  0.09367827  1
  W  W4  1  0.74981829  0.96046571  0.95072419  1
  W  W5  1  0.25018171  0.03953429  0.04927581  1
  W  W6  1  0.03953429  0.25018171  0.54927581  1
  W  W7  1  0.96046571  0.74981829  0.45072419  1
  W  W8  1  0.63255820  0.36744180  0.75000000  1
  W  W9  1  0.36744180  0.63255820  0.25000000  1
  O  O10  1  0.57757201  0.15954430  0.60955843  1
  O  O11  1  0.42242799  0.84045570  0.39044157  1
  O  O12  1  0.84045570  0.42242799  0.89044157  1
  O  O13  1  0.15954430  0.57757201  0.10955843  1
  O  O14  1  0.37961164  0.29567258  0.78177637  1
  O  O15  1  0.62038836  0.70432742  0.21822363  1
  O  O16  1  0.70432742  0.62038836  0.71822363  1
  O  O17  1  0.29567258  0.37961164  0.28177637  1
  O  O18  1  0.58725267  0.68729755  0.96159758  1
  O  O19  1  0.41274733  0.31270245  0.03840242  1
  O  O20  1  0.31270245  0.41274733  0.53840242  1
  O  O21  1  0.68729755  0.58725267  0.46159758  1
  O  O22  1  0.90103319  0.97530592  0.57511736  1
  O  O23  1  0.09896681  0.02469408  0.42488264  1
  O  O24  1  0.02469408  0.09896681  0.92488264  1
  O  O25  1  0.97530592  0.90103319  0.07511736  1
  O  O26  1  0.59933016  0.95364405  0.80291439  1
  O  O27  1  0.40066984  0.04635595  0.19708561  1
  O  O28  1  0.04635595  0.40066984  0.69708561  1
  O  O29  1  0.95364405  0.59933016  0.30291439  1
  O  O30  1  0.26707136  0.83433622  0.94201431  1
  O  O31  1  0.73292864  0.16566378  0.05798569  1
  O  O32  1  0.16566378  0.73292864  0.55798569  1
  O  O33  1  0.83433622  0.26707136  0.44201431  1
