# generated using pymatgen
data_Nd2(Al3Rh)3
_symmetry_space_group_name_H-M   'P 1'
_cell_length_a   7.63719643
_cell_length_b   7.70642537
_cell_length_c   9.63319697
_cell_angle_alpha   90.00000000
_cell_angle_beta   90.00000000
_cell_angle_gamma   120.30031387
_symmetry_Int_Tables_number   1
_chemical_formula_structural   Nd2(Al3Rh)3
_chemical_formula_sum   'Nd4 Al18 Rh6'
_cell_volume   489.51476344
_cell_formula_units_Z   2
loop_
 _symmetry_equiv_pos_site_id
 _symmetry_equiv_pos_as_xyz
  1  'x, y, z'
loop_
 _atom_site_type_symbol
 _atom_site_label
 _atom_site_symmetry_multiplicity
 _atom_site_fract_x
 _atom_site_fract_y
 _atom_site_fract_z
 _atom_site_occupancy
  Nd  Nd0  1  0.67362322  0.66903530  0.25000000  1
  Nd  Nd1  1  0.32637678  0.33096470  0.75000000  1
  Nd  Nd2  1  0.32637678  0.99541208  0.25000000  1
  Nd  Nd3  1  0.67362322  0.00458792  0.75000000  1
  Al  Al4  1  -0.00000000  0.12774987  0.25000000  1
  Al  Al5  1  -0.00000000  0.87225013  0.75000000  1
  Al  Al6  1  0.33123837  0.33466120  0.07243649  1
  Al  Al7  1  0.66876163  0.66533880  0.92756351  1
  Al  Al8  1  0.66876163  0.66533880  0.57243649  1
  Al  Al9  1  0.66876163  0.00342283  0.42756351  1
  Al  Al10  1  0.33123837  0.33466120  0.42756351  1
  Al  Al11  1  0.33123837  0.99657717  0.57243649  1
  Al  Al12  1  0.33123837  0.99657717  0.92756351  1
  Al  Al13  1  0.66876163  0.00342283  0.07243649  1
  Al  Al14  1  0.00000000  0.33491358  0.55086297  1
  Al  Al15  1  -0.00000000  0.66508642  0.44913703  1
  Al  Al16  1  -0.00000000  0.66508642  0.05086297  1
  Al  Al17  1  0.00000000  0.33491358  0.94913703  1
  Al  Al18  1  0.20824231  0.54571670  0.25000000  1
  Al  Al19  1  0.79175769  0.45428330  0.75000000  1
  Al  Al20  1  0.79175769  0.33747439  0.25000000  1
  Al  Al21  1  0.20824231  0.66252561  0.75000000  1
  Rh  Rh22  1  0.65766759  0.32883380  0.00000000  1
  Rh  Rh23  1  0.34233241  0.67116620  0.00000000  1
  Rh  Rh24  1  0.34233241  0.67116620  0.50000000  1
  Rh  Rh25  1  0.65766759  0.32883380  0.50000000  1
  Rh  Rh26  1  0.00000000  -0.00000000  0.00000000  1
  Rh  Rh27  1  -0.00000000  -0.00000000  0.50000000  1
