# generated using pymatgen
data_Nd2Co3Ge5
_symmetry_space_group_name_H-M   'P 1'
_cell_length_a   5.89850931
_cell_length_b   8.23156339
_cell_length_c   8.23156339
_cell_angle_alpha   73.13343013
_cell_angle_beta   69.00502061
_cell_angle_gamma   69.00502061
_symmetry_Int_Tables_number   1
_chemical_formula_structural   Nd2Co3Ge5
_chemical_formula_sum   'Nd4 Co6 Ge10'
_cell_volume   342.31629259
_cell_formula_units_Z   2
loop_
 _symmetry_equiv_pos_site_id
 _symmetry_equiv_pos_as_xyz
  1  'x, y, z'
loop_
 _atom_site_type_symbol
 _atom_site_label
 _atom_site_symmetry_multiplicity
 _atom_site_fract_x
 _atom_site_fract_y
 _atom_site_fract_z
 _atom_site_occupancy
  Nd  Nd0  1  0.63443381  0.10142559  0.62970679  1
  Nd  Nd1  1  0.36556619  0.89857441  0.37029321  1
  Nd  Nd2  1  0.13443381  0.62970679  0.10142559  1
  Nd  Nd3  1  0.86556619  0.37029321  0.89857441  1
  Co  Co4  1  0.86276444  0.02953645  0.24493466  1
  Co  Co5  1  0.13723556  0.97046355  0.75506534  1
  Co  Co6  1  0.36276444  0.24493466  0.02953645  1
  Co  Co7  1  0.63723556  0.75506534  0.97046355  1
  Co  Co8  1  0.75000000  0.50000000  0.50000000  1
  Co  Co9  1  0.25000000  0.50000000  0.50000000  1
  Ge  Ge10  1  0.48204943  0.26795057  0.26795057  1
  Ge  Ge11  1  0.51795057  0.73204943  0.73204943  1
  Ge  Ge12  1  0.01795057  0.73204943  0.73204943  1
  Ge  Ge13  1  0.98204943  0.26795057  0.26795057  1
  Ge  Ge14  1  0.90268097  0.75569955  0.43893851  1
  Ge  Ge15  1  0.09731903  0.24430045  0.56106149  1
  Ge  Ge16  1  0.40268097  0.43893851  0.75569955  1
  Ge  Ge17  1  0.59731903  0.56106149  0.24430045  1
  Ge  Ge18  1  0.75000000  -0.00000000  -0.00000000  1
  Ge  Ge19  1  0.25000000  -0.00000000  -0.00000000  1
