# generated using pymatgen
data_NdMg(BO2)5
_symmetry_space_group_name_H-M   'P 1'
_cell_length_a   7.68692591
_cell_length_b   8.74480815
_cell_length_c   9.51661995
_cell_angle_alpha   92.79523785
_cell_angle_beta   90.00000000
_cell_angle_gamma   90.00000000
_symmetry_Int_Tables_number   1
_chemical_formula_structural   NdMg(BO2)5
_chemical_formula_sum   'Nd4 Mg4 B20 O40'
_cell_volume   638.95264629
_cell_formula_units_Z   4
loop_
 _symmetry_equiv_pos_site_id
 _symmetry_equiv_pos_as_xyz
  1  'x, y, z'
loop_
 _atom_site_type_symbol
 _atom_site_label
 _atom_site_symmetry_multiplicity
 _atom_site_fract_x
 _atom_site_fract_y
 _atom_site_fract_z
 _atom_site_occupancy
  Nd  Nd0  1  0.81581954  0.81573101  0.76399930  1
  Nd  Nd1  1  0.18418046  0.18426899  0.23600070  1
  Nd  Nd2  1  0.31581954  0.68426899  0.73600070  1
  Nd  Nd3  1  0.68418046  0.31573101  0.26399930  1
  Mg  Mg4  1  0.09042127  0.10468770  0.62507612  1
  Mg  Mg5  1  0.90957873  0.89531230  0.37492388  1
  Mg  Mg6  1  0.59042127  0.39531230  0.87492388  1
  Mg  Mg7  1  0.40957873  0.60468770  0.12507612  1
  B  B8  1  0.17371539  0.98479564  0.89373426  1
  B  B9  1  0.82628461  0.01520436  0.10626574  1
  B  B10  1  0.67371539  0.51520436  0.60626574  1
  B  B11  1  0.32628461  0.48479564  0.39373426  1
  B  B12  1  0.42146024  0.08584538  0.73910277  1
  B  B13  1  0.57853976  0.91415462  0.26089723  1
  B  B14  1  0.92146024  0.41415462  0.76089723  1
  B  B15  1  0.07853976  0.58584538  0.23910277  1
  B  B16  1  0.18515598  0.43109114  0.91283797  1
  B  B17  1  0.81484402  0.56890886  0.08716203  1
  B  B18  1  0.68515598  0.06890886  0.58716203  1
  B  B19  1  0.31484402  0.93109114  0.41283797  1
  B  B20  1  0.53325501  0.71960558  0.44426147  1
  B  B21  1  0.46674499  0.28039442  0.55573853  1
  B  B22  1  0.03325501  0.78039442  0.05573853  1
  B  B23  1  0.96674499  0.21960558  0.94426147  1
  B  B24  1  0.40197703  0.15590189  0.99909954  1
  B  B25  1  0.59802297  0.84409811  0.00090046  1
  B  B26  1  0.90197703  0.34409811  0.50090046  1
  B  B27  1  0.09802297  0.65590189  0.49909954  1
  O  O28  1  0.08438680  0.48964490  0.80779494  1
  O  O29  1  0.91561320  0.51035510  0.19220506  1
  O  O30  1  0.58438680  0.01035510  0.69220506  1
  O  O31  1  0.41561320  0.98964490  0.30779494  1
  O  O32  1  0.12351483  0.31401026  0.99005890  1
  O  O33  1  0.87648517  0.68598974  0.00994110  1
  O  O34  1  0.62351483  0.18598974  0.50994110  1
  O  O35  1  0.37648517  0.81401026  0.49005890  1
  O  O36  1  0.60797019  0.67100231  0.58112573  1
  O  O37  1  0.39202981  0.32899769  0.41887427  1
  O  O38  1  0.10797019  0.82899769  0.91887427  1
  O  O39  1  0.89202981  0.17100231  0.08112573  1
  O  O40  1  0.28647490  0.96970822  0.76648028  1
  O  O41  1  0.71352510  0.03029178  0.23351972  1
  O  O42  1  0.78647490  0.53029178  0.73351972  1
  O  O43  1  0.21352510  0.46970822  0.26648028  1
  O  O44  1  0.34670085  0.49810497  0.92994792  1
  O  O45  1  0.65329915  0.50189503  0.07005208  1
  O  O46  1  0.84670085  0.00189503  0.57005208  1
  O  O47  1  0.15329915  0.99810497  0.42994792  1
  O  O48  1  0.22570043  0.54462083  0.51505085  1
  O  O49  1  0.77429957  0.45537917  0.48494915  1
  O  O50  1  0.72570043  0.95537917  0.98494915  1
  O  O51  1  0.27429957  0.04462083  0.01505085  1
  O  O52  1  0.34793246  0.18491652  0.63330294  1
  O  O53  1  0.65206754  0.81508348  0.36669706  1
  O  O54  1  0.84793246  0.31508348  0.86669706  1
  O  O55  1  0.15206754  0.68491652  0.13330294  1
  O  O56  1  0.46718017  0.18301232  0.86803859  1
  O  O57  1  0.53281983  0.81698768  0.13196141  1
  O  O58  1  0.96718017  0.31698768  0.63196141  1
  O  O59  1  0.03281983  0.68301232  0.36803859  1
  O  O60  1  0.04686373  0.73858964  0.61540347  1
  O  O61  1  0.95313627  0.26141036  0.38459653  1
  O  O62  1  0.54686373  0.76141036  0.88459653  1
  O  O63  1  0.45313627  0.23858964  0.11540347  1
  O  O64  1  0.02713622  0.08600497  0.85208584  1
  O  O65  1  0.97286378  0.91399503  0.14791416  1
  O  O66  1  0.52713622  0.41399503  0.64791416  1
  O  O67  1  0.47286378  0.58600497  0.35208584  1
