# generated using pymatgen
data_NdHfF7
_symmetry_space_group_name_H-M   'P 1'
_cell_length_a   5.82307285
_cell_length_b   6.26707403
_cell_length_c   8.44516786
_cell_angle_alpha   101.58436189
_cell_angle_beta   90.00000000
_cell_angle_gamma   90.00000000
_symmetry_Int_Tables_number   1
_chemical_formula_structural   NdHfF7
_chemical_formula_sum   'Nd2 Hf2 F14'
_cell_volume   301.91692022
_cell_formula_units_Z   2
loop_
 _symmetry_equiv_pos_site_id
 _symmetry_equiv_pos_as_xyz
  1  'x, y, z'
loop_
 _atom_site_type_symbol
 _atom_site_label
 _atom_site_symmetry_multiplicity
 _atom_site_fract_x
 _atom_site_fract_y
 _atom_site_fract_z
 _atom_site_occupancy
  Nd  Nd0  1  0.69948289  0.65789533  0.68808511  1
  Nd  Nd1  1  0.19948289  0.34210467  0.31191489  1
  Hf  Hf2  1  0.70878570  0.81146018  0.22418217  1
  Hf  Hf3  1  0.20878570  0.18853982  0.77581783  1
  F  F4  1  0.88438771  0.44828404  0.47397315  1
  F  F5  1  0.38438771  0.55171596  0.52602685  1
  F  F6  1  0.42058302  0.93379348  0.76938667  1
  F  F7  1  0.92058302  0.06620652  0.23061333  1
  F  F8  1  0.94919147  0.97175853  0.76105678  1
  F  F9  1  0.44919147  0.02824147  0.23894322  1
  F  F10  1  0.00053541  0.44698556  0.78641411  1
  F  F11  1  0.50053541  0.55301444  0.21358589  1
  F  F12  1  0.70601098  0.75762883  0.98257702  1
  F  F13  1  0.20601098  0.24237117  0.01742298  1
  F  F14  1  0.71333298  0.85844262  0.46684564  1
  F  F15  1  0.21333298  0.14155738  0.53315436  1
  F  F16  1  0.49404984  0.37401743  0.78350731  1
  F  F17  1  0.99404984  0.62598257  0.21649269  1
