# generated using pymatgen
data_NaLuSiO4
_symmetry_space_group_name_H-M   'P 1'
_cell_length_a   5.15602943
_cell_length_b   6.33265228
_cell_length_c   11.05159866
_cell_angle_alpha   90.00000000
_cell_angle_beta   90.00000000
_cell_angle_gamma   90.00000000
_symmetry_Int_Tables_number   1
_chemical_formula_structural   NaLuSiO4
_chemical_formula_sum   'Na4 Lu4 Si4 O16'
_cell_volume   360.84952225
_cell_formula_units_Z   4
loop_
 _symmetry_equiv_pos_site_id
 _symmetry_equiv_pos_as_xyz
  1  'x, y, z'
loop_
 _atom_site_type_symbol
 _atom_site_label
 _atom_site_symmetry_multiplicity
 _atom_site_fract_x
 _atom_site_fract_y
 _atom_site_fract_z
 _atom_site_occupancy
  Na  Na0  1  0.00000000  0.00000000  0.00000000  1
  Na  Na1  1  0.50000000  0.00000000  0.50000000  1
  Na  Na2  1  -0.00000000  0.50000000  -0.00000000  1
  Na  Na3  1  0.50000000  0.50000000  0.50000000  1
  Lu  Lu4  1  0.49372408  0.75000000  0.77946226  1
  Lu  Lu5  1  0.50627592  0.25000000  0.22053774  1
  Lu  Lu6  1  0.99372408  0.25000000  0.72053774  1
  Lu  Lu7  1  0.00627592  0.75000000  0.27946226  1
  Si  Si8  1  0.93445621  0.75000000  0.60106209  1
  Si  Si9  1  0.06554379  0.25000000  0.39893791  1
  Si  Si10  1  0.43445621  0.25000000  0.89893791  1
  Si  Si11  1  0.56554379  0.75000000  0.10106209  1
  O  O12  1  0.78793805  0.95092646  0.67323789  1
  O  O13  1  0.21206195  0.04907354  0.32676211  1
  O  O14  1  0.28793805  0.04907354  0.82676211  1
  O  O15  1  0.21206195  0.45092646  0.32676211  1
  O  O16  1  0.71206195  0.95092646  0.17323789  1
  O  O17  1  0.78793805  0.54907354  0.67323789  1
  O  O18  1  0.71206195  0.54907354  0.17323789  1
  O  O19  1  0.28793805  0.45092646  0.82676211  1
  O  O20  1  0.66109111  0.75000000  0.95964182  1
  O  O21  1  0.33890889  0.25000000  0.04035818  1
  O  O22  1  0.16109111  0.25000000  0.54035818  1
  O  O23  1  0.83890889  0.75000000  0.45964182  1
  O  O24  1  0.24804377  0.75000000  0.61676506  1
  O  O25  1  0.75195623  0.25000000  0.38323494  1
  O  O26  1  0.74804377  0.25000000  0.88323494  1
  O  O27  1  0.25195623  0.75000000  0.11676506  1
