# generated using pymatgen
data_Nd3CoGe2
_symmetry_space_group_name_H-M   'P 1'
_cell_length_a   4.26679493
_cell_length_b   11.91962156
_cell_length_c   11.53949110
_cell_angle_alpha   90.00000000
_cell_angle_beta   90.00000000
_cell_angle_gamma   90.00000000
_symmetry_Int_Tables_number   1
_chemical_formula_structural   Nd3CoGe2
_chemical_formula_sum   'Nd12 Co4 Ge8'
_cell_volume   586.88214096
_cell_formula_units_Z   4
loop_
 _symmetry_equiv_pos_site_id
 _symmetry_equiv_pos_as_xyz
  1  'x, y, z'
loop_
 _atom_site_type_symbol
 _atom_site_label
 _atom_site_symmetry_multiplicity
 _atom_site_fract_x
 _atom_site_fract_y
 _atom_site_fract_z
 _atom_site_occupancy
  Nd  Nd0  1  0.75000000  0.94255706  0.62820189  1
  Nd  Nd1  1  0.25000000  0.05744294  0.37179811  1
  Nd  Nd2  1  0.25000000  0.55744294  0.12820189  1
  Nd  Nd3  1  0.75000000  0.44255706  0.87179811  1
  Nd  Nd4  1  0.75000000  0.78069843  0.30119391  1
  Nd  Nd5  1  0.25000000  0.21930157  0.69880609  1
  Nd  Nd6  1  0.25000000  0.71930157  0.80119391  1
  Nd  Nd7  1  0.75000000  0.28069843  0.19880609  1
  Nd  Nd8  1  0.75000000  0.61786225  0.55650127  1
  Nd  Nd9  1  0.25000000  0.38213775  0.44349873  1
  Nd  Nd10  1  0.25000000  0.88213775  0.05650127  1
  Nd  Nd11  1  0.75000000  0.11786225  0.94349873  1
  Co  Co12  1  0.75000000  0.86754408  0.86568711  1
  Co  Co13  1  0.25000000  0.13245592  0.13431289  1
  Co  Co14  1  0.25000000  0.63245592  0.36568711  1
  Co  Co15  1  0.75000000  0.36754408  0.63431289  1
  Ge  Ge16  1  0.75000000  0.52574102  0.31543777  1
  Ge  Ge17  1  0.25000000  0.47425898  0.68456223  1
  Ge  Ge18  1  0.25000000  0.97425898  0.81543777  1
  Ge  Ge19  1  0.75000000  0.02574102  0.18456223  1
  Ge  Ge20  1  0.75000000  0.69681796  0.99561759  1
  Ge  Ge21  1  0.25000000  0.30318204  0.00438241  1
  Ge  Ge22  1  0.25000000  0.80318204  0.49561759  1
  Ge  Ge23  1  0.75000000  0.19681796  0.50438241  1
