# generated using pymatgen
data_Na5AgGe2Se7
_symmetry_space_group_name_H-M   'P 1'
_cell_length_a   7.33296071
_cell_length_b   7.33296071
_cell_length_c   15.46812618
_cell_angle_alpha   98.38399677
_cell_angle_beta   98.38399677
_cell_angle_gamma   94.41520415
_symmetry_Int_Tables_number   1
_chemical_formula_structural   Na5AgGe2Se7
_chemical_formula_sum   'Na10 Ag2 Ge4 Se14'
_cell_volume   809.96258543
_cell_formula_units_Z   2
loop_
 _symmetry_equiv_pos_site_id
 _symmetry_equiv_pos_as_xyz
  1  'x, y, z'
loop_
 _atom_site_type_symbol
 _atom_site_label
 _atom_site_symmetry_multiplicity
 _atom_site_fract_x
 _atom_site_fract_y
 _atom_site_fract_z
 _atom_site_occupancy
  Na  Na0  1  0.00000000  0.00000000  0.00000000  1
  Na  Na1  1  0.00000000  0.00000000  0.50000000  1
  Na  Na2  1  0.47810473  0.75884373  0.58508568  1
  Na  Na3  1  0.52189527  0.24115627  0.41491432  1
  Na  Na4  1  0.24115627  0.52189527  0.91491432  1
  Na  Na5  1  0.75884373  0.47810473  0.08508568  1
  Na  Na6  1  0.51421103  0.03471650  0.85565314  1
  Na  Na7  1  0.48578897  0.96528350  0.14434686  1
  Na  Na8  1  0.96528350  0.48578897  0.64434686  1
  Na  Na9  1  0.03471650  0.51421103  0.35565314  1
  Ag  Ag10  1  0.91289799  0.08710201  0.75000000  1
  Ag  Ag11  1  0.08710201  0.91289799  0.25000000  1
  Ge  Ge12  1  0.41535844  0.26225082  0.64271428  1
  Ge  Ge13  1  0.58464156  0.73774918  0.35728572  1
  Ge  Ge14  1  0.73774918  0.58464156  0.85728572  1
  Ge  Ge15  1  0.26225082  0.41535844  0.14271428  1
  Se  Se16  1  0.24865671  0.02058736  0.69332720  1
  Se  Se17  1  0.75134329  0.97941264  0.30667280  1
  Se  Se18  1  0.97941264  0.75134329  0.80667280  1
  Se  Se19  1  0.02058736  0.24865671  0.19332720  1
  Se  Se20  1  0.45310115  0.54689885  0.75000000  1
  Se  Se21  1  0.54689885  0.45310115  0.25000000  1
  Se  Se22  1  0.69647224  0.15879774  0.60448755  1
  Se  Se23  1  0.30352776  0.84120226  0.39551245  1
  Se  Se24  1  0.84120226  0.30352776  0.89551245  1
  Se  Se25  1  0.15879774  0.69647224  0.10448755  1
  Se  Se26  1  0.62921134  0.77146702  0.97381707  1
  Se  Se27  1  0.37078866  0.22853298  0.02618293  1
  Se  Se28  1  0.22853298  0.37078866  0.52618293  1
  Se  Se29  1  0.77146702  0.62921134  0.47381707  1
