# generated using pymatgen
data_NaFeBr4
_symmetry_space_group_name_H-M   'P 1'
_cell_length_a   7.68193108
_cell_length_b   7.75973761
_cell_length_c   14.28687174
_cell_angle_alpha   90.00000000
_cell_angle_beta   90.00000000
_cell_angle_gamma   90.00000000
_symmetry_Int_Tables_number   1
_chemical_formula_structural   NaFeBr4
_chemical_formula_sum   'Na4 Fe4 Br16'
_cell_volume   851.63713157
_cell_formula_units_Z   4
loop_
 _symmetry_equiv_pos_site_id
 _symmetry_equiv_pos_as_xyz
  1  'x, y, z'
loop_
 _atom_site_type_symbol
 _atom_site_label
 _atom_site_symmetry_multiplicity
 _atom_site_fract_x
 _atom_site_fract_y
 _atom_site_fract_z
 _atom_site_occupancy
  Na  Na0  1  0.94921548  0.75000000  0.65125742  1
  Na  Na1  1  0.05078452  0.25000000  0.34874258  1
  Na  Na2  1  0.44921548  0.25000000  0.84874258  1
  Na  Na3  1  0.55078452  0.75000000  0.15125742  1
  Fe  Fe4  1  0.70277601  0.75000000  0.89754439  1
  Fe  Fe5  1  0.29722399  0.25000000  0.10245561  1
  Fe  Fe6  1  0.20277601  0.25000000  0.60245561  1
  Fe  Fe7  1  0.79722399  0.75000000  0.39754439  1
  Br  Br8  1  0.40863998  0.75000000  0.94424970  1
  Br  Br9  1  0.59136002  0.25000000  0.05575030  1
  Br  Br10  1  0.90863998  0.25000000  0.55575030  1
  Br  Br11  1  0.09136002  0.75000000  0.44424970  1
  Br  Br12  1  0.76378313  0.99502221  0.80362492  1
  Br  Br13  1  0.23621687  0.00497779  0.19637508  1
  Br  Br14  1  0.26378313  0.00497779  0.69637508  1
  Br  Br15  1  0.23621687  0.49502221  0.19637508  1
  Br  Br16  1  0.73621687  0.99502221  0.30362492  1
  Br  Br17  1  0.76378313  0.50497779  0.80362492  1
  Br  Br18  1  0.73621687  0.50497779  0.30362492  1
  Br  Br19  1  0.26378313  0.49502221  0.69637508  1
  Br  Br20  1  0.62536050  0.75000000  0.53315753  1
  Br  Br21  1  0.37463950  0.25000000  0.46684247  1
  Br  Br22  1  0.12536050  0.25000000  0.96684247  1
  Br  Br23  1  0.87463950  0.75000000  0.03315753  1
