# generated using pymatgen
data_Nd3In4Ge
_symmetry_space_group_name_H-M   'P 1'
_cell_length_a   8.57446409
_cell_length_b   8.57446409
_cell_length_c   8.57446409
_cell_angle_alpha   90.52483082
_cell_angle_beta   119.69745280
_cell_angle_gamma   119.69745280
_symmetry_Int_Tables_number   1
_chemical_formula_structural   Nd3In4Ge
_chemical_formula_sum   'Nd6 In8 Ge2'
_cell_volume   447.78313427
_cell_formula_units_Z   2
loop_
 _symmetry_equiv_pos_site_id
 _symmetry_equiv_pos_as_xyz
  1  'x, y, z'
loop_
 _atom_site_type_symbol
 _atom_site_label
 _atom_site_symmetry_multiplicity
 _atom_site_fract_x
 _atom_site_fract_y
 _atom_site_fract_z
 _atom_site_occupancy
  Nd  Nd0  1  0.00000000  0.75000000  0.75000000  1
  Nd  Nd1  1  0.00000000  0.25000000  0.25000000  1
  Nd  Nd2  1  0.17066625  0.33533312  0.83533312  1
  Nd  Nd3  1  0.82933375  0.66466688  0.16466688  1
  Nd  Nd4  1  0.50000000  0.16466688  0.33533312  1
  Nd  Nd5  1  0.50000000  0.83533312  0.66466688  1
  In  In6  1  0.21871816  0.68233887  0.18233887  1
  In  In7  1  0.78128184  0.31766113  0.81766113  1
  In  In8  1  0.78128184  0.96362071  0.46362071  1
  In  In9  1  0.50000000  0.46362071  0.68233887  1
  In  In10  1  0.50000000  0.81766113  0.03637929  1
  In  In11  1  0.21871816  0.03637929  0.53637929  1
  In  In12  1  0.50000000  0.53637929  0.31766113  1
  In  In13  1  0.50000000  0.18233887  0.96362071  1
  Ge  Ge14  1  0.00000000  -0.00000000  0.00000000  1
  Ge  Ge15  1  0.00000000  0.50000000  0.50000000  1
