# generated using pymatgen
data_Nd(SiP3)2
_symmetry_space_group_name_H-M   'P 1'
_cell_length_a   10.17903598
_cell_length_b   10.36067825
_cell_length_c   14.93003607
_cell_angle_alpha   90.00000000
_cell_angle_beta   109.93118230
_cell_angle_gamma   90.00000000
_symmetry_Int_Tables_number   1
_chemical_formula_structural   Nd(SiP3)2
_chemical_formula_sum   'Nd8 Si16 P48'
_cell_volume   1480.23617191
_cell_formula_units_Z   8
loop_
 _symmetry_equiv_pos_site_id
 _symmetry_equiv_pos_as_xyz
  1  'x, y, z'
loop_
 _atom_site_type_symbol
 _atom_site_label
 _atom_site_symmetry_multiplicity
 _atom_site_fract_x
 _atom_site_fract_y
 _atom_site_fract_z
 _atom_site_occupancy
  Nd  Nd0  1  0.31076019  0.24093036  0.62152038  1
  Nd  Nd1  1  0.68923981  0.74093036  0.37847962  1
  Nd  Nd2  1  0.58048980  0.14793553  0.16097959  1
  Nd  Nd3  1  0.41951020  0.64793553  0.83902041  1
  Nd  Nd4  1  0.76599609  0.26206274  0.53199218  1
  Nd  Nd5  1  0.23400391  0.76206274  0.46800782  1
  Nd  Nd6  1  0.95964793  0.72322779  0.91929585  1
  Nd  Nd7  1  0.04035207  0.22322779  0.08070415  1
  Si  Si8  1  0.98777472  0.36460279  0.33023327  1
  Si  Si9  1  0.01222528  0.86460279  0.66976673  1
  Si  Si10  1  0.65754145  0.86460279  0.66976673  1
  Si  Si11  1  0.34245855  0.36460279  0.33023327  1
  Si  Si12  1  0.00685700  0.03177499  0.35684033  1
  Si  Si13  1  0.99314300  0.53177499  0.64315967  1
  Si  Si14  1  0.65001668  0.53177499  0.64315967  1
  Si  Si15  1  0.34998332  0.03177499  0.35684033  1
  Si  Si16  1  0.07970744  0.32374582  0.83879410  1
  Si  Si17  1  0.92029256  0.82374582  0.16120590  1
  Si  Si18  1  0.24091334  0.82374582  0.16120590  1
  Si  Si19  1  0.75908666  0.32374582  0.83879410  1
  Si  Si20  1  0.26328195  0.00480973  0.86707323  1
  Si  Si21  1  0.73671805  0.50480973  0.13292677  1
  Si  Si22  1  0.39620871  0.50480973  0.13292677  1
  Si  Si23  1  0.60379129  0.00480973  0.86707323  1
  P  P24  1  0.03571965  0.33379995  0.48619807  1
  P  P25  1  0.96428035  0.83379995  0.51380193  1
  P  P26  1  0.54952159  0.83379995  0.51380193  1
  P  P27  1  0.45047841  0.33379995  0.48619807  1
  P  P28  1  0.79997646  0.50086160  0.29331050  1
  P  P29  1  0.20002354  0.00086160  0.70668950  1
  P  P30  1  0.50666596  0.00086160  0.70668950  1
  P  P31  1  0.49333404  0.50086160  0.29331050  1
  P  P32  1  0.84347833  -0.00008072  0.68695666  1
  P  P33  1  0.15652167  0.49991928  0.31304334  1
  P  P34  1  0.95849138  0.42580599  0.91698276  1
  P  P35  1  0.04150862  0.92580599  0.08301724  1
  P  P36  1  0.89703280  0.03460244  0.46651856  1
  P  P37  1  0.10296720  0.53460244  0.53348144  1
  P  P38  1  0.43051424  0.53460244  0.53348144  1
  P  P39  1  0.56948576  0.03460244  0.46651856  1
  P  P40  1  0.10632814  0.12439213  0.90766888  1
  P  P41  1  0.89367186  0.62439213  0.09233112  1
  P  P42  1  0.19865927  0.62439213  0.09233112  1
  P  P43  1  0.80134073  0.12439213  0.90766888  1
  P  P44  1  0.42429893  0.28422934  0.84859785  1
  P  P45  1  0.57570107  0.78422934  0.15140215  1
  P  P46  1  0.77205130  0.54692357  0.54410259  1
  P  P47  1  0.22794870  0.04692357  0.45589741  1
  P  P48  1  0.46963393  0.10884159  0.93926785  1
  P  P49  1  0.53036607  0.60884159  0.06073215  1
  P  P50  1  0.91500467  0.18314887  0.24224095  1
  P  P51  1  0.08499533  0.68314887  0.75775905  1
  P  P52  1  0.67276372  0.68314887  0.75775905  1
  P  P53  1  0.32723628  0.18314887  0.24224095  1
  P  P54  1  0.29856091  0.40024574  0.91507444  1
  P  P55  1  0.70143909  0.90024574  0.08492556  1
  P  P56  1  0.38348647  0.90024574  0.08492556  1
  P  P57  1  0.61651353  0.40024574  0.91507444  1
  P  P58  1  0.65483849  0.35142968  0.30967698  1
  P  P59  1  0.34516151  0.85142968  0.69032302  1
  P  P60  1  0.92268509  0.99933986  0.84537018  1
  P  P61  1  0.07731491  0.49933986  0.15462982  1
  P  P62  1  0.68112607  0.02142171  0.36225215  1
  P  P63  1  0.31887393  0.52142171  0.63774785  1
  P  P64  1  0.73004412  0.31566417  0.05914000  1
  P  P65  1  0.26995588  0.81566417  0.94086000  1
  P  P66  1  0.67090412  0.81566417  0.94086000  1
  P  P67  1  0.32909588  0.31566417  0.05914000  1
  P  P68  1  0.04635503  0.32200306  0.68499537  1
  P  P69  1  0.95364497  0.82200306  0.31500463  1
  P  P70  1  0.36135965  0.82200306  0.31500463  1
  P  P71  1  0.63864035  0.32200306  0.68499537  1
