# generated using pymatgen
data_LiAg2F4
_symmetry_space_group_name_H-M   'P 1'
_cell_length_a   5.19868086
_cell_length_b   6.18591894
_cell_length_c   5.19868167
_cell_angle_alpha   65.15260355
_cell_angle_beta   89.99999736
_cell_angle_gamma   114.84739488
_symmetry_Int_Tables_number   1
_chemical_formula_structural   LiAg2F4
_chemical_formula_sum   'Li1 Ag2 F4'
_cell_volume   134.46072581
_cell_formula_units_Z   1
loop_
 _symmetry_equiv_pos_site_id
 _symmetry_equiv_pos_as_xyz
  1  'x, y, z'
loop_
 _atom_site_type_symbol
 _atom_site_label
 _atom_site_symmetry_multiplicity
 _atom_site_fract_x
 _atom_site_fract_y
 _atom_site_fract_z
 _atom_site_occupancy
  Li  Li0  1  0.00000000  0.00000000  0.00000000  1
  Ag  Ag1  1  0.75000000  0.50000000  0.75000000  1
  Ag  Ag2  1  0.50000000  0.00000000  0.50000000  1
  F  F3  1  0.81998870  0.17151531  0.72453997  1
  F  F4  1  0.72453997  0.82848469  0.35152761  1
  F  F5  1  0.35152761  0.17151531  0.10394471  1
  F  F6  1  0.10394471  0.82848469  0.81998870  1
