# generated using pymatgen
data_Nd6Ti4Al43
_symmetry_space_group_name_H-M   'P 1'
_cell_length_a   11.16686292
_cell_length_b   11.16686292
_cell_length_c   17.98428978
_cell_angle_alpha   90.00000000
_cell_angle_beta   90.00000000
_cell_angle_gamma   120.00000240
_symmetry_Int_Tables_number   1
_chemical_formula_structural   Nd6Ti4Al43
_chemical_formula_sum   'Nd12 Ti8 Al86'
_cell_volume   1942.16571452
_cell_formula_units_Z   2
loop_
 _symmetry_equiv_pos_site_id
 _symmetry_equiv_pos_as_xyz
  1  'x, y, z'
loop_
 _atom_site_type_symbol
 _atom_site_label
 _atom_site_symmetry_multiplicity
 _atom_site_fract_x
 _atom_site_fract_y
 _atom_site_fract_z
 _atom_site_occupancy
  Nd  Nd0  1  0.47024853  0.47024853  0.90382294  1
  Nd  Nd1  1  0.52975147  0.52975147  0.09617706  1
  Nd  Nd2  1  1.00000000  0.52975147  0.90382294  1
  Nd  Nd3  1  0.52975147  0.52975147  0.40382294  1
  Nd  Nd4  1  1.00000000  0.52975147  0.59617706  1
  Nd  Nd5  1  0.00000000  0.47024853  0.09617706  1
  Nd  Nd6  1  0.47024853  0.47024853  0.59617706  1
  Nd  Nd7  1  0.00000000  0.47024853  0.40382294  1
  Nd  Nd8  1  0.52975147  1.00000000  0.90382294  1
  Nd  Nd9  1  0.47024853  0.00000000  0.09617706  1
  Nd  Nd10  1  0.47024853  0.00000000  0.40382294  1
  Nd  Nd11  1  0.52975147  1.00000000  0.59617706  1
  Ti  Ti12  1  -0.00000000  -0.00000000  0.00000000  1
  Ti  Ti13  1  -0.00000000  -0.00000000  0.50000000  1
  Ti  Ti14  1  0.27108609  0.27108609  0.75000000  1
  Ti  Ti15  1  0.72891391  0.72891391  0.25000000  1
  Ti  Ti16  1  1.00000000  0.72891391  0.75000000  1
  Ti  Ti17  1  0.00000000  0.27108609  0.25000000  1
  Ti  Ti18  1  0.72891391  1.00000000  0.75000000  1
  Ti  Ti19  1  0.27108609  0.00000000  0.25000000  1
  Al  Al20  1  0.84915704  0.44709176  0.75000000  1
  Al  Al21  1  0.15084296  0.55290824  0.25000000  1
  Al  Al22  1  0.59793473  0.15084296  0.75000000  1
  Al  Al23  1  0.40206527  0.55290824  0.75000000  1
  Al  Al24  1  0.40206527  0.84915704  0.25000000  1
  Al  Al25  1  0.59793473  0.44709176  0.25000000  1
  Al  Al26  1  0.55290824  0.40206527  0.75000000  1
  Al  Al27  1  0.44709176  0.84915704  0.75000000  1
  Al  Al28  1  0.44709176  0.59793473  0.25000000  1
  Al  Al29  1  0.55290824  0.15084296  0.25000000  1
  Al  Al30  1  0.15084296  0.59793473  0.75000000  1
  Al  Al31  1  0.84915704  0.40206527  0.25000000  1
  Al  Al32  1  0.84393303  0.84393303  0.38368515  1
  Al  Al33  1  0.15606697  0.15606697  0.61631485  1
  Al  Al34  1  1.00000000  0.15606697  0.38368515  1
  Al  Al35  1  0.15606697  0.15606697  0.88368515  1
  Al  Al36  1  1.00000000  0.15606697  0.11631485  1
  Al  Al37  1  0.00000000  0.84393303  0.61631485  1
  Al  Al38  1  0.84393303  0.84393303  0.11631485  1
  Al  Al39  1  0.00000000  0.84393303  0.88368515  1
  Al  Al40  1  0.15606697  1.00000000  0.38368515  1
  Al  Al41  1  0.84393303  0.00000000  0.61631485  1
  Al  Al42  1  0.84393303  0.00000000  0.88368515  1
  Al  Al43  1  0.15606697  1.00000000  0.11631485  1
  Al  Al44  1  0.75270856  0.24729144  0.00000000  1
  Al  Al45  1  0.24729144  0.75270856  0.00000000  1
  Al  Al46  1  0.49458287  0.24729144  0.00000000  1
  Al  Al47  1  0.24729144  0.75270856  0.50000000  1
  Al  Al48  1  0.50541713  0.75270856  0.50000000  1
  Al  Al49  1  0.50541713  0.75270856  0.00000000  1
  Al  Al50  1  0.75270856  0.24729144  0.50000000  1
  Al  Al51  1  0.49458287  0.24729144  0.50000000  1
  Al  Al52  1  0.75270856  0.50541713  0.00000000  1
  Al  Al53  1  0.24729144  0.49458287  0.00000000  1
  Al  Al54  1  0.24729144  0.49458287  0.50000000  1
  Al  Al55  1  0.75270856  0.50541713  0.50000000  1
  Al  Al56  1  0.85436146  0.85436146  0.75000000  1
  Al  Al57  1  0.14563854  0.14563854  0.25000000  1
  Al  Al58  1  1.00000000  0.14563854  0.75000000  1
  Al  Al59  1  0.00000000  0.85436146  0.25000000  1
  Al  Al60  1  0.14563854  1.00000000  0.75000000  1
  Al  Al61  1  0.85436146  0.00000000  0.25000000  1
  Al  Al62  1  0.66666700  0.33333300  0.87287747  1
  Al  Al63  1  0.33333300  0.66666700  0.12712253  1
  Al  Al64  1  0.33333300  0.66666700  0.37287747  1
  Al  Al65  1  0.33333300  0.66666700  0.62712253  1
  Al  Al66  1  0.66666700  0.33333300  0.62712253  1
  Al  Al67  1  0.66666700  0.33333300  0.37287747  1
  Al  Al68  1  0.66666700  0.33333300  0.12712253  1
  Al  Al69  1  0.33333300  0.66666700  0.87287747  1
  Al  Al70  1  0.74877232  0.74877232  0.97031680  1
  Al  Al71  1  0.25122768  0.25122768  0.02968320  1
  Al  Al72  1  1.00000000  0.25122768  0.97031680  1
  Al  Al73  1  0.25122768  0.25122768  0.47031680  1
  Al  Al74  1  1.00000000  0.25122768  0.52968320  1
  Al  Al75  1  0.00000000  0.74877232  0.02968320  1
  Al  Al76  1  0.74877232  0.74877232  0.52968320  1
  Al  Al77  1  0.00000000  0.74877232  0.47031680  1
  Al  Al78  1  0.25122768  1.00000000  0.97031680  1
  Al  Al79  1  0.74877232  0.00000000  0.02968320  1
  Al  Al80  1  0.74877232  0.00000000  0.47031680  1
  Al  Al81  1  0.25122768  1.00000000  0.52968320  1
  Al  Al82  1  0.84199151  0.23392057  0.83392300  1
  Al  Al83  1  0.15800849  0.76607943  0.16607700  1
  Al  Al84  1  0.39192906  0.15800849  0.83392300  1
  Al  Al85  1  0.15800849  0.76607943  0.33392300  1
  Al  Al86  1  0.60807094  0.76607943  0.66607700  1
  Al  Al87  1  0.60807094  0.84199151  0.16607700  1
  Al  Al88  1  0.84199151  0.23392057  0.66607700  1
  Al  Al89  1  0.39192906  0.23392057  0.33392300  1
  Al  Al90  1  0.76607943  0.60807094  0.83392300  1
  Al  Al91  1  0.60807094  0.84199151  0.33392300  1
  Al  Al92  1  0.23392057  0.84199151  0.66607700  1
  Al  Al93  1  0.23392057  0.39192906  0.16607700  1
  Al  Al94  1  0.39192906  0.15800849  0.66607700  1
  Al  Al95  1  0.76607943  0.15800849  0.33392300  1
  Al  Al96  1  0.39192906  0.23392057  0.16607700  1
  Al  Al97  1  0.60807094  0.76607943  0.83392300  1
  Al  Al98  1  0.23392057  0.39192906  0.33392300  1
  Al  Al99  1  0.76607943  0.15800849  0.16607700  1
  Al  Al100  1  0.76607943  0.60807094  0.66607700  1
  Al  Al101  1  0.23392057  0.84199151  0.83392300  1
  Al  Al102  1  0.15800849  0.39192906  0.66607700  1
  Al  Al103  1  0.84199151  0.60807094  0.33392300  1
  Al  Al104  1  0.84199151  0.60807094  0.16607700  1
  Al  Al105  1  0.15800849  0.39192906  0.83392300  1
