# generated using pymatgen
data_Nd12Co6Pb
_symmetry_space_group_name_H-M   'P 1'
_cell_length_a   8.72610020
_cell_length_b   8.72610020
_cell_length_c   8.72610020
_cell_angle_alpha   109.47122063
_cell_angle_beta   109.47122063
_cell_angle_gamma   109.47122063
_symmetry_Int_Tables_number   1
_chemical_formula_structural   Nd12Co6Pb
_chemical_formula_sum   'Nd12 Co6 Pb1'
_cell_volume   511.49182411
_cell_formula_units_Z   1
loop_
 _symmetry_equiv_pos_site_id
 _symmetry_equiv_pos_as_xyz
  1  'x, y, z'
loop_
 _atom_site_type_symbol
 _atom_site_label
 _atom_site_symmetry_multiplicity
 _atom_site_fract_x
 _atom_site_fract_y
 _atom_site_fract_z
 _atom_site_occupancy
  Nd  Nd0  1  0.80631538  0.69275892  0.49907430  1
  Nd  Nd1  1  0.19368462  0.30724108  0.50092570  1
  Nd  Nd2  1  0.19368462  0.69275892  0.88644355  1
  Nd  Nd3  1  0.80631538  0.30724108  0.11355645  1
  Nd  Nd4  1  0.69275892  0.49907430  0.80631538  1
  Nd  Nd5  1  0.30724108  0.50092570  0.19368462  1
  Nd  Nd6  1  0.69275892  0.88644355  0.19368462  1
  Nd  Nd7  1  0.30724108  0.11355645  0.80631538  1
  Nd  Nd8  1  0.49907430  0.80631538  0.69275892  1
  Nd  Nd9  1  0.50092570  0.19368462  0.30724108  1
  Nd  Nd10  1  0.11355645  0.80631538  0.30724108  1
  Nd  Nd11  1  0.88644355  0.19368462  0.69275892  1
  Co  Co12  1  0.88951291  0.38951291  0.50000000  1
  Co  Co13  1  0.11048709  0.61048709  0.50000000  1
  Co  Co14  1  0.38951291  0.50000000  0.88951291  1
  Co  Co15  1  0.61048709  0.50000000  0.11048709  1
  Co  Co16  1  0.50000000  0.88951291  0.38951291  1
  Co  Co17  1  0.50000000  0.11048709  0.61048709  1
  Pb  Pb18  1  -0.00000000  -0.00000000  -0.00000000  1
