# generated using pymatgen
data_Mg3Cu2(AsO4)3
_symmetry_space_group_name_H-M   'P 1'
_cell_length_a   6.82331822
_cell_length_b   8.88492343
_cell_length_c   8.88492343
_cell_angle_alpha   94.50040946
_cell_angle_beta   105.38040894
_cell_angle_gamma   105.38040894
_symmetry_Int_Tables_number   1
_chemical_formula_structural   Mg3Cu2(AsO4)3
_chemical_formula_sum   'Mg6 Cu4 As6 O24'
_cell_volume   494.29738946
_cell_formula_units_Z   2
loop_
 _symmetry_equiv_pos_site_id
 _symmetry_equiv_pos_as_xyz
  1  'x, y, z'
loop_
 _atom_site_type_symbol
 _atom_site_label
 _atom_site_symmetry_multiplicity
 _atom_site_fract_x
 _atom_site_fract_y
 _atom_site_fract_z
 _atom_site_occupancy
  Mg  Mg0  1  0.75000000  0.74335450  0.25664550  1
  Mg  Mg1  1  0.25000000  0.25664550  0.74335450  1
  Mg  Mg2  1  0.87948306  0.62930892  0.94414116  1
  Mg  Mg3  1  0.12051694  0.37069108  0.05585884  1
  Mg  Mg4  1  0.62051694  0.05585884  0.37069108  1
  Mg  Mg5  1  0.37948306  0.94414116  0.62930892  1
  Cu  Cu6  1  0.00000000  0.00000000  -0.00000000  1
  Cu  Cu7  1  0.50000000  0.00000000  -0.00000000  1
  Cu  Cu8  1  0.75000000  0.49701088  0.50298912  1
  Cu  Cu9  1  0.25000000  0.50298912  0.49701088  1
  As  As10  1  0.62346305  0.35000680  0.11443681  1
  As  As11  1  0.37653695  0.64999320  0.88556319  1
  As  As12  1  0.87653695  0.88556319  0.64999320  1
  As  As13  1  0.12346305  0.11443681  0.35000680  1
  As  As14  1  0.75000000  0.28691064  0.71308936  1
  As  As15  1  0.25000000  0.71308936  0.28691064  1
  O  O16  1  0.97828745  0.25139355  0.81940184  1
  O  O17  1  0.02171255  0.74860645  0.18059816  1
  O  O18  1  0.52171255  0.18059816  0.74860645  1
  O  O19  1  0.47828745  0.81940184  0.25139355  1
  O  O20  1  0.68544804  0.49517409  0.27566901  1
  O  O21  1  0.31455196  0.50482591  0.72433099  1
  O  O22  1  0.81455196  0.72433099  0.50482591  1
  O  O23  1  0.18544804  0.27566901  0.49517409  1
  O  O24  1  0.88856764  0.82836220  0.83419319  1
  O  O25  1  0.11143236  0.17163780  0.16580681  1
  O  O26  1  0.61143236  0.16580681  0.17163780  1
  O  O27  1  0.38856764  0.83419319  0.82836220  1
  O  O28  1  0.62265516  0.66616344  0.01144843  1
  O  O29  1  0.37734484  0.33383656  0.98855157  1
  O  O30  1  0.87734484  0.98855157  0.33383656  1
  O  O31  1  0.12265516  0.01144843  0.66616344  1
  O  O32  1  0.82051313  0.40432081  0.02543408  1
  O  O33  1  0.17948687  0.59567919  0.97456592  1
  O  O34  1  0.67948687  0.97456592  0.59567919  1
  O  O35  1  0.32051313  0.02543408  0.40432081  1
  O  O36  1  0.76482787  0.48818790  0.72597923  1
  O  O37  1  0.23517213  0.51181210  0.27402077  1
  O  O38  1  0.73517213  0.27402077  0.51181210  1
  O  O39  1  0.26482787  0.72597923  0.48818790  1
