# generated using pymatgen
data_Li2Sm2Si3
_symmetry_space_group_name_H-M   'P 1'
_cell_length_a   4.35585977
_cell_length_b   6.76596938
_cell_length_c   9.41602384
_cell_angle_alpha   90.00000000
_cell_angle_beta   103.37363976
_cell_angle_gamma   90.00000000
_symmetry_Int_Tables_number   1
_chemical_formula_structural   Li2Sm2Si3
_chemical_formula_sum   'Li4 Sm4 Si6'
_cell_volume   269.98013638
_cell_formula_units_Z   2
loop_
 _symmetry_equiv_pos_site_id
 _symmetry_equiv_pos_as_xyz
  1  'x, y, z'
loop_
 _atom_site_type_symbol
 _atom_site_label
 _atom_site_symmetry_multiplicity
 _atom_site_fract_x
 _atom_site_fract_y
 _atom_site_fract_z
 _atom_site_occupancy
  Li  Li0  1  0.80976277  0.55963310  0.61952555  1
  Li  Li1  1  0.19023723  0.44036690  0.38047445  1
  Li  Li2  1  0.19023723  0.05963310  0.38047445  1
  Li  Li3  1  0.80976277  0.94036690  0.61952555  1
  Sm  Sm4  1  0.55225765  0.25000000  0.10451530  1
  Sm  Sm5  1  0.44774235  0.75000000  0.89548470  1
  Sm  Sm6  1  0.34277496  0.25000000  0.68554992  1
  Sm  Sm7  1  0.65722504  0.75000000  0.31445008  1
  Si  Si8  1  0.94111341  0.07278758  0.88222682  1
  Si  Si9  1  0.05888659  0.92721242  0.11777318  1
  Si  Si10  1  0.05888659  0.57278758  0.11777318  1
  Si  Si11  1  0.94111341  0.42721242  0.88222682  1
  Si  Si12  1  0.71953833  0.25000000  0.43907665  1
  Si  Si13  1  0.28046167  0.75000000  0.56092335  1
