# generated using pymatgen
data_NdIn2Cu9
_symmetry_space_group_name_H-M   'P 1'
_cell_length_a   5.04108839
_cell_length_b   8.51036107
_cell_length_c   8.51036107
_cell_angle_alpha   90.00000000
_cell_angle_beta   90.00000000
_cell_angle_gamma   90.00000000
_symmetry_Int_Tables_number   1
_chemical_formula_structural   NdIn2Cu9
_chemical_formula_sum   'Nd2 In4 Cu18'
_cell_volume   365.10710553
_cell_formula_units_Z   2
loop_
 _symmetry_equiv_pos_site_id
 _symmetry_equiv_pos_as_xyz
  1  'x, y, z'
loop_
 _atom_site_type_symbol
 _atom_site_label
 _atom_site_symmetry_multiplicity
 _atom_site_fract_x
 _atom_site_fract_y
 _atom_site_fract_z
 _atom_site_occupancy
  Nd  Nd0  1  0.00000000  -0.00000000  0.00000000  1
  Nd  Nd1  1  0.00000000  0.50000000  0.50000000  1
  In  In2  1  0.00000000  0.62275867  0.12275867  1
  In  In3  1  0.00000000  0.37724133  0.87724133  1
  In  In4  1  0.00000000  0.87724133  0.62275867  1
  In  In5  1  0.00000000  0.12275867  0.37724133  1
  Cu  Cu6  1  0.50000000  -0.00000000  0.50000000  1
  Cu  Cu7  1  0.50000000  0.50000000  0.00000000  1
  Cu  Cu8  1  0.50000000  0.06391513  0.20661160  1
  Cu  Cu9  1  0.50000000  0.93608487  0.79338840  1
  Cu  Cu10  1  0.50000000  0.79338840  0.06391513  1
  Cu  Cu11  1  0.50000000  0.43608487  0.70661160  1
  Cu  Cu12  1  0.50000000  0.20661160  0.93608487  1
  Cu  Cu13  1  0.50000000  0.56391513  0.29338840  1
  Cu  Cu14  1  0.50000000  0.70661160  0.56391513  1
  Cu  Cu15  1  0.50000000  0.29338840  0.43608487  1
  Cu  Cu16  1  0.24680192  0.17678011  0.67678011  1
  Cu  Cu17  1  0.75319808  0.82321989  0.32321989  1
  Cu  Cu18  1  0.24680192  0.82321989  0.32321989  1
  Cu  Cu19  1  0.24680192  0.32321989  0.17678011  1
  Cu  Cu20  1  0.75319808  0.32321989  0.17678011  1
  Cu  Cu21  1  0.75319808  0.17678011  0.67678011  1
  Cu  Cu22  1  0.75319808  0.67678011  0.82321989  1
  Cu  Cu23  1  0.24680192  0.67678011  0.82321989  1
