# generated using pymatgen
data_Na2Ca4YZrSi4(O5F)3
_symmetry_space_group_name_H-M   'P 1'
_cell_length_a   7.45743395
_cell_length_b   10.38388893
_cell_length_c   11.18245427
_cell_angle_alpha   90.11567849
_cell_angle_beta   109.10432170
_cell_angle_gamma   89.70094236
_symmetry_Int_Tables_number   1
_chemical_formula_structural   Na2Ca4YZrSi4(O5F)3
_chemical_formula_sum   'Na4 Ca8 Y2 Zr2 Si8 O30 F6'
_cell_volume   818.23419628
_cell_formula_units_Z   2
loop_
 _symmetry_equiv_pos_site_id
 _symmetry_equiv_pos_as_xyz
  1  'x, y, z'
loop_
 _atom_site_type_symbol
 _atom_site_label
 _atom_site_symmetry_multiplicity
 _atom_site_fract_x
 _atom_site_fract_y
 _atom_site_fract_z
 _atom_site_occupancy
  Na  Na0  1  0.34217974  0.37453246  0.42503982  1
  Na  Na1  1  0.65782026  0.62546754  0.57496018  1
  Na  Na2  1  0.33496725  0.11890389  0.92468087  1
  Na  Na3  1  0.66503275  0.88109611  0.07531913  1
  Ca  Ca4  1  0.15967954  0.63343756  0.57502462  1
  Ca  Ca5  1  0.84032046  0.36656244  0.42497538  1
  Ca  Ca6  1  0.52557630  0.09688808  0.30323525  1
  Ca  Ca7  1  0.47442370  0.90311192  0.69676475  1
  Ca  Ca8  1  0.15422821  0.87591736  0.06864170  1
  Ca  Ca9  1  0.84577179  0.12408264  0.93135830  1
  Ca  Ca10  1  0.47563175  0.60524461  0.20098076  1
  Ca  Ca11  1  0.52436825  0.39475539  0.79901924  1
  Y  Y12  1  0.02911085  0.39871287  0.80949750  1
  Y  Y13  1  0.97088915  0.60128713  0.19050250  1
  Zr  Zr14  1  0.01925961  0.09318393  0.28911213  1
  Zr  Zr15  1  0.98074039  0.90681607  0.71088787  1
  Si  Si16  1  0.65653104  0.32021812  0.12105399  1
  Si  Si17  1  0.34346896  0.67978188  0.87894601  1
  Si  Si18  1  0.22294138  0.32015316  0.12959347  1
  Si  Si19  1  0.77705862  0.67984684  0.87040653  1
  Si  Si20  1  0.21468194  0.17092883  0.62076404  1
  Si  Si21  1  0.78531806  0.82907117  0.37923596  1
  Si  Si22  1  0.65744346  0.17299159  0.61855524  1
  Si  Si23  1  0.34255654  0.82700841  0.38144476  1
  O  O24  1  0.79183840  0.23332719  0.24083797  1
  O  O25  1  0.20816160  0.76667281  0.75916203  1
  O  O26  1  0.94503045  0.01725190  0.12039458  1
  O  O27  1  0.05496955  0.98274810  0.87960542  1
  O  O28  1  0.35829837  0.72739980  0.01907431  1
  O  O29  1  0.64170163  0.27260020  0.98092569  1
  O  O30  1  0.44212910  0.16295266  0.63077025  1
  O  O31  1  0.55787090  0.83704734  0.36922975  1
  O  O32  1  0.73305272  0.02286327  0.64159287  1
  O  O33  1  0.26694728  0.97713673  0.35840713  1
  O  O34  1  0.17145921  0.02284006  0.65450208  1
  O  O35  1  0.82854079  0.97715994  0.34549792  1
  O  O36  1  0.21431018  0.27163531  0.73325600  1
  O  O37  1  0.78568982  0.72836469  0.26674400  1
  O  O38  1  0.71263255  0.47231165  0.15125239  1
  O  O39  1  0.28736745  0.52768835  0.84874761  1
  O  O40  1  0.20719884  0.22725740  0.24441152  1
  O  O41  1  0.79280116  0.77274260  0.75558848  1
  O  O42  1  0.09541275  0.27805691  0.98638618  1
  O  O43  1  0.90458725  0.72194309  0.01361382  1
  O  O44  1  0.22674764  0.73521567  0.26155135  1
  O  O45  1  0.77325236  0.26478433  0.73844865  1
  O  O46  1  0.09016727  0.21574174  0.47774912  1
  O  O47  1  0.90983273  0.78425826  0.52225088  1
  O  O48  1  0.44867182  0.29630775  0.14253631  1
  O  O49  1  0.55132818  0.70369225  0.85746369  1
  O  O50  1  0.63908825  0.22908328  0.47990749  1
  O  O51  1  0.36091175  0.77091672  0.52009251  1
  O  O52  1  0.19499815  0.47135754  0.15901549  1
  O  O53  1  0.80500185  0.52864246  0.84098451  1
  F  F54  1  0.06192751  0.50999330  0.39002130  1
  F  F55  1  0.93807249  0.49000670  0.60997870  1
  F  F56  1  0.58410518  0.50579385  0.39051282  1
  F  F57  1  0.41589482  0.49420615  0.60948718  1
  F  F58  1  0.42206322  0.00217155  0.11474262  1
  F  F59  1  0.57793678  0.99782845  0.88525738  1
