# generated using pymatgen
data_Li2CuPO4
_symmetry_space_group_name_H-M   'P 1'
_cell_length_a   5.33748167
_cell_length_b   4.90534614
_cell_length_c   6.87832492
_cell_angle_alpha   90.00000000
_cell_angle_beta   87.78992159
_cell_angle_gamma   90.00000000
_symmetry_Int_Tables_number   1
_chemical_formula_structural   Li2CuPO4
_chemical_formula_sum   'Li4 Cu2 P2 O8'
_cell_volume   179.95568514
_cell_formula_units_Z   2
loop_
 _symmetry_equiv_pos_site_id
 _symmetry_equiv_pos_as_xyz
  1  'x, y, z'
loop_
 _atom_site_type_symbol
 _atom_site_label
 _atom_site_symmetry_multiplicity
 _atom_site_fract_x
 _atom_site_fract_y
 _atom_site_fract_z
 _atom_site_occupancy
  Li  Li0  1  0.08673240  0.96405945  0.17629682  1
  Li  Li1  1  0.20061112  0.49300077  0.48833718  1
  Li  Li2  1  0.79938888  0.99300077  0.51166282  1
  Li  Li3  1  0.91326760  0.46405945  0.82370318  1
  Cu  Cu4  1  0.33609249  0.53370570  0.00012627  1
  Cu  Cu5  1  0.66390751  0.03370570  0.99987373  1
  P  P6  1  0.27253214  0.99475670  0.73707835  1
  P  P7  1  0.72746786  0.49475670  0.26292165  1
  O  O8  1  0.14176702  0.13626421  0.91811802  1
  O  O9  1  0.15679225  0.10389176  0.55057847  1
  O  O10  1  0.22822420  0.67685084  0.74902659  1
  O  O11  1  0.56281678  0.05143256  0.73418216  1
  O  O12  1  0.43718322  0.55143256  0.26581784  1
  O  O13  1  0.77177580  0.17685084  0.25097341  1
  O  O14  1  0.84320775  0.60389176  0.44942153  1
  O  O15  1  0.85823298  0.63626421  0.08188198  1
