# generated using pymatgen
data_Na2Nd2B2O7
_symmetry_space_group_name_H-M   'P 1'
_cell_length_a   6.49235374
_cell_length_b   10.91425280
_cell_length_c   10.57917627
_cell_angle_alpha   117.77596083
_cell_angle_beta   90.00000000
_cell_angle_gamma   90.00000000
_symmetry_Int_Tables_number   1
_chemical_formula_structural   Na2Nd2B2O7
_chemical_formula_sum   'Na8 Nd8 B8 O28'
_cell_volume   663.25671069
_cell_formula_units_Z   4
loop_
 _symmetry_equiv_pos_site_id
 _symmetry_equiv_pos_as_xyz
  1  'x, y, z'
loop_
 _atom_site_type_symbol
 _atom_site_label
 _atom_site_symmetry_multiplicity
 _atom_site_fract_x
 _atom_site_fract_y
 _atom_site_fract_z
 _atom_site_occupancy
  Na  Na0  1  0.26342414  0.89110823  0.95413186  1
  Na  Na1  1  0.73657586  0.10889177  0.04586814  1
  Na  Na2  1  0.76342414  0.10889177  0.54586814  1
  Na  Na3  1  0.23657586  0.89110823  0.45413186  1
  Na  Na4  1  0.94260190  0.97738755  0.73756080  1
  Na  Na5  1  0.05739810  0.02261245  0.26243920  1
  Na  Na6  1  0.44260190  0.02261245  0.76243920  1
  Na  Na7  1  0.55739810  0.97738755  0.23756080  1
  Nd  Nd8  1  0.95981517  0.48134451  0.67959331  1
  Nd  Nd9  1  0.04018483  0.51865549  0.32040669  1
  Nd  Nd10  1  0.45981517  0.51865549  0.82040669  1
  Nd  Nd11  1  0.54018483  0.48134451  0.17959331  1
  Nd  Nd12  1  0.58235735  0.68688410  0.59000546  1
  Nd  Nd13  1  0.41764265  0.31311590  0.40999454  1
  Nd  Nd14  1  0.08235735  0.31311590  0.90999454  1
  Nd  Nd15  1  0.91764265  0.68688410  0.09000546  1
  B  B16  1  0.74861454  0.81934490  0.92103286  1
  B  B17  1  0.25138546  0.18065510  0.07896714  1
  B  B18  1  0.24861454  0.18065510  0.57896714  1
  B  B19  1  0.75138546  0.81934490  0.42103286  1
  B  B20  1  0.65280151  0.28933608  0.84975454  1
  B  B21  1  0.34719849  0.71066392  0.15024546  1
  B  B22  1  0.15280151  0.71066392  0.65024546  1
  B  B23  1  0.84719849  0.28933608  0.34975454  1
  O  O24  1  0.75560698  0.34637392  0.77260903  1
  O  O25  1  0.24439302  0.65362608  0.22739097  1
  O  O26  1  0.25560698  0.65362608  0.72739097  1
  O  O27  1  0.74439302  0.34637392  0.27260903  1
  O  O28  1  0.96363770  0.65264293  0.58859951  1
  O  O29  1  0.03636230  0.34735707  0.41140049  1
  O  O30  1  0.46363770  0.34735707  0.91140049  1
  O  O31  1  0.53636230  0.65264293  0.08859951  1
  O  O32  1  0.65026879  0.87387282  0.84283962  1
  O  O33  1  0.34973121  0.12612718  0.15716038  1
  O  O34  1  0.15026879  0.12612718  0.65716038  1
  O  O35  1  0.84973121  0.87387282  0.34283962  1
  O  O36  1  0.62286244  0.47306499  0.59718037  1
  O  O37  1  0.37713756  0.52693501  0.40281963  1
  O  O38  1  0.12286244  0.52693501  0.90281963  1
  O  O39  1  0.87713756  0.47306499  0.09718037  1
  O  O40  1  0.76202829  0.67363173  0.86662725  1
  O  O41  1  0.23797171  0.32636827  0.13337275  1
  O  O42  1  0.26202829  0.32636827  0.63337275  1
  O  O43  1  0.73797171  0.67363173  0.36662725  1
  O  O44  1  0.24135900  0.81742470  0.63631174  1
  O  O45  1  0.75864100  0.18257530  0.36368826  1
  O  O46  1  0.74135900  0.18257530  0.86368826  1
  O  O47  1  0.25864100  0.81742470  0.13631174  1
  O  O48  1  0.66526035  0.89907493  0.55436232  1
  O  O49  1  0.33473965  0.10092507  0.44563768  1
  O  O50  1  0.16526035  0.10092507  0.94563768  1
  O  O51  1  0.83473965  0.89907493  0.05436232  1
