# generated using pymatgen
data_Rb3EuCl6
_symmetry_space_group_name_H-M   'P 1'
_cell_length_a   8.31395275
_cell_length_b   13.22829996
_cell_length_c   13.86165101
_cell_angle_alpha   99.00708853
_cell_angle_beta   107.45102350
_cell_angle_gamma   90.00000000
_symmetry_Int_Tables_number   1
_chemical_formula_structural   Rb3EuCl6
_chemical_formula_sum   'Rb12 Eu4 Cl24'
_cell_volume   1434.61212022
_cell_formula_units_Z   4
loop_
 _symmetry_equiv_pos_site_id
 _symmetry_equiv_pos_as_xyz
  1  'x, y, z'
loop_
 _atom_site_type_symbol
 _atom_site_label
 _atom_site_symmetry_multiplicity
 _atom_site_fract_x
 _atom_site_fract_y
 _atom_site_fract_z
 _atom_site_occupancy
  Rb  Rb0  1  0.69867094  0.06722284  0.90175782  1
  Rb  Rb1  1  0.30132906  0.93277716  0.09824218  1
  Rb  Rb2  1  0.79691311  0.43277716  0.09824218  1
  Rb  Rb3  1  0.20308689  0.56722284  0.90175782  1
  Rb  Rb4  1  0.53442425  0.35506328  0.69214495  1
  Rb  Rb5  1  0.46557575  0.64493672  0.30785505  1
  Rb  Rb6  1  0.84227930  0.14493672  0.30785505  1
  Rb  Rb7  1  0.15772070  0.85506328  0.69214495  1
  Rb  Rb8  1  0.34947370  0.29867195  0.32363199  1
  Rb  Rb9  1  0.65052630  0.70132805  0.67636801  1
  Rb  Rb10  1  0.02584172  0.20132805  0.67636801  1
  Rb  Rb11  1  0.97415828  0.79867195  0.32363199  1
  Eu  Eu12  1  0.21850960  0.25000000  0.00000000  1
  Eu  Eu13  1  0.78149040  0.75000000  1.00000000  1
  Eu  Eu14  1  0.50000000  0.00000000  0.50000000  1
  Eu  Eu15  1  -0.00000000  0.50000000  0.50000000  1
  Cl  Cl16  1  0.37947384  0.08220552  0.65825147  1
  Cl  Cl17  1  0.62052616  0.91779448  0.34174853  1
  Cl  Cl18  1  0.72122237  0.41779448  0.34174853  1
  Cl  Cl19  1  0.27877763  0.58220552  0.65825147  1
  Cl  Cl20  1  0.50521452  0.17671169  0.11872780  1
  Cl  Cl21  1  0.49478548  0.82328831  0.88127220  1
  Cl  Cl22  1  0.38648672  0.32328831  0.88127220  1
  Cl  Cl23  1  0.61351328  0.67671169  0.11872780  1
  Cl  Cl24  1  0.21562308  0.03495433  0.35070510  1
  Cl  Cl25  1  0.78437692  0.96504567  0.64929490  1
  Cl  Cl26  1  0.86491799  0.46504567  0.64929490  1
  Cl  Cl27  1  0.13508201  0.53495433  0.35070510  1
  Cl  Cl28  1  0.09075611  0.69791841  0.11918149  1
  Cl  Cl29  1  0.90924389  0.30208159  0.88081851  1
  Cl  Cl30  1  0.97157461  0.80208159  0.88081851  1
  Cl  Cl31  1  0.02842539  0.19791841  0.11918149  1
  Cl  Cl32  1  0.28138648  0.43704303  0.11806456  1
  Cl  Cl33  1  0.71861352  0.56295697  0.88193544  1
  Cl  Cl34  1  0.16332192  0.06295697  0.88193544  1
  Cl  Cl35  1  0.83667808  0.93704303  0.11806456  1
  Cl  Cl36  1  0.64229143  0.18833748  0.49893631  1
  Cl  Cl37  1  0.35770857  0.81166252  0.50106369  1
  Cl  Cl38  1  0.14335511  0.31166252  0.50106369  1
  Cl  Cl39  1  0.85664489  0.68833748  0.49893631  1
