# generated using pymatgen
data_Mg3Fe2H4(Se3O10)2
_symmetry_space_group_name_H-M   'P 1'
_cell_length_a   6.57251411
_cell_length_b   8.08513784
_cell_length_c   9.05727044
_cell_angle_alpha   85.70578648
_cell_angle_beta   78.93042836
_cell_angle_gamma   76.39357673
_symmetry_Int_Tables_number   1
_chemical_formula_structural   Mg3Fe2H4(Se3O10)2
_chemical_formula_sum   'Mg3 Fe2 H4 Se6 O20'
_cell_volume   458.86646863
_cell_formula_units_Z   1
loop_
 _symmetry_equiv_pos_site_id
 _symmetry_equiv_pos_as_xyz
  1  'x, y, z'
loop_
 _atom_site_type_symbol
 _atom_site_label
 _atom_site_symmetry_multiplicity
 _atom_site_fract_x
 _atom_site_fract_y
 _atom_site_fract_z
 _atom_site_occupancy
  Mg  Mg0  1  0.50000000  0.00000000  -0.00000000  1
  Mg  Mg1  1  0.31285965  0.67583637  0.26499914  1
  Mg  Mg2  1  0.68714035  0.32416363  0.73500086  1
  Fe  Fe3  1  0.13469778  0.39685920  0.11783981  1
  Fe  Fe4  1  0.86530222  0.60314080  0.88216019  1
  H  H5  1  0.31604419  0.46765073  0.53640268  1
  H  H6  1  0.68395581  0.53234927  0.46359732  1
  H  H7  1  0.14822050  0.64207980  0.55663669  1
  H  H8  1  0.85177950  0.35792020  0.44336331  1
  Se  Se9  1  0.23635096  0.07711486  0.36558910  1
  Se  Se10  1  0.76364904  0.92288514  0.63441090  1
  Se  Se11  1  0.66669260  0.29110844  0.12847551  1
  Se  Se12  1  0.33330740  0.70889156  0.87152449  1
  Se  Se13  1  0.19991750  0.21748058  0.77659594  1
  Se  Se14  1  0.80008250  0.78251942  0.22340406  1
  O  O15  1  0.33430840  0.79636710  0.03757543  1
  O  O16  1  0.66569160  0.20363290  0.96242457  1
  O  O17  1  0.45583586  0.05652822  0.22059691  1
  O  O18  1  0.54416414  0.94347178  0.77940309  1
  O  O19  1  0.13541523  0.90786923  0.34653934  1
  O  O20  1  0.86458477  0.09213077  0.65346066  1
  O  O21  1  0.05687098  0.24829687  0.29245377  1
  O  O22  1  0.94312902  0.75170313  0.70754623  1
  O  O23  1  0.23060387  0.20348708  0.96907240  1
  O  O24  1  0.76939613  0.79651292  0.03092760  1
  O  O25  1  0.82998836  0.43985084  0.07047118  1
  O  O26  1  0.17001164  0.56014916  0.92952882  1
  O  O27  1  0.41610241  0.43290481  0.16139403  1
  O  O28  1  0.58389759  0.56709519  0.83860597  1
  O  O29  1  0.39383353  0.31504087  0.68815961  1
  O  O30  1  0.60616647  0.68495913  0.31184039  1
  O  O31  1  0.26035498  0.57392414  0.48265351  1
  O  O32  1  0.73964502  0.42607586  0.51734649  1
  O  O33  1  0.02610945  0.61834162  0.23106512  1
  O  O34  1  0.97389055  0.38165838  0.76893488  1
