# generated using pymatgen
data_Na2CaZrSi2O7F2
_symmetry_space_group_name_H-M   'P 1'
_cell_length_a   7.35373731
_cell_length_b   10.20076796
_cell_length_c   10.60879396
_cell_angle_alpha   90.00000000
_cell_angle_beta   90.00000000
_cell_angle_gamma   89.91092372
_symmetry_Int_Tables_number   1
_chemical_formula_structural   Na2CaZrSi2O7F2
_chemical_formula_sum   'Na8 Ca4 Zr4 Si8 O28 F8'
_cell_volume   795.80464687
_cell_formula_units_Z   4
loop_
 _symmetry_equiv_pos_site_id
 _symmetry_equiv_pos_as_xyz
  1  'x, y, z'
loop_
 _atom_site_type_symbol
 _atom_site_label
 _atom_site_symmetry_multiplicity
 _atom_site_fract_x
 _atom_site_fract_y
 _atom_site_fract_z
 _atom_site_occupancy
  Na  Na0  1  0.38170738  0.87983004  0.57209946  1
  Na  Na1  1  0.61829262  0.12016996  0.42790054  1
  Na  Na2  1  0.61829262  0.62016996  0.07209946  1
  Na  Na3  1  0.38170738  0.37983004  0.92790054  1
  Na  Na4  1  0.87182621  0.87563460  0.56887698  1
  Na  Na5  1  0.12817379  0.12436540  0.43112302  1
  Na  Na6  1  0.12817379  0.62436540  0.06887698  1
  Na  Na7  1  0.87182621  0.37563460  0.93112302  1
  Ca  Ca8  1  0.62609171  0.60586983  0.70125027  1
  Ca  Ca9  1  0.37390829  0.39413017  0.29874973  1
  Ca  Ca10  1  0.37390829  0.89413017  0.20125027  1
  Ca  Ca11  1  0.62609171  0.10586983  0.79874973  1
  Zr  Zr12  1  0.87430701  0.89099649  0.19791468  1
  Zr  Zr13  1  0.12569299  0.10900351  0.80208532  1
  Zr  Zr14  1  0.12569299  0.60900351  0.69791468  1
  Zr  Zr15  1  0.87430701  0.39099649  0.30208532  1
  Si  Si16  1  0.40113156  0.82918660  0.87971578  1
  Si  Si17  1  0.59886844  0.17081340  0.12028422  1
  Si  Si18  1  0.59886844  0.67081340  0.37971578  1
  Si  Si19  1  0.40113156  0.32918660  0.62028422  1
  Si  Si20  1  0.84532596  0.83310596  0.87902045  1
  Si  Si21  1  0.15467404  0.16689404  0.12097955  1
  Si  Si22  1  0.15467404  0.66689404  0.37902045  1
  Si  Si23  1  0.84532596  0.33310596  0.62097955  1
  O  O24  1  0.33754633  0.98203800  0.85216898  1
  O  O25  1  0.66245367  0.01796200  0.14783102  1
  O  O26  1  0.66245367  0.51796200  0.35216898  1
  O  O27  1  0.33754633  0.48203800  0.64783102  1
  O  O28  1  0.33258870  0.73460111  0.76254045  1
  O  O29  1  0.66741130  0.26539889  0.23745955  1
  O  O30  1  0.66741130  0.76539889  0.26254045  1
  O  O31  1  0.33258870  0.23460111  0.73745955  1
  O  O32  1  0.62462058  0.83425651  0.85096871  1
  O  O33  1  0.37537942  0.16574349  0.14903129  1
  O  O34  1  0.37537942  0.66574349  0.35096871  1
  O  O35  1  0.62462058  0.33425651  0.64903129  1
  O  O36  1  0.91177864  0.98287387  0.84989204  1
  O  O37  1  0.08822136  0.01712613  0.15010796  1
  O  O38  1  0.08822136  0.51712613  0.34989204  1
  O  O39  1  0.91177864  0.48287387  0.65010796  1
  O  O40  1  0.63947813  0.72262485  0.51910215  1
  O  O41  1  0.36052187  0.27737515  0.48089785  1
  O  O42  1  0.36052187  0.77737515  0.01910215  1
  O  O43  1  0.63947813  0.22262485  0.98089785  1
  O  O44  1  0.88320536  0.78912114  0.02453481  1
  O  O45  1  0.11679464  0.21087886  0.97546519  1
  O  O46  1  0.11679464  0.71087886  0.52453481  1
  O  O47  1  0.88320536  0.28912114  0.47546519  1
  O  O48  1  0.92085132  0.73151995  0.77158180  1
  O  O49  1  0.07914868  0.26848005  0.22841820  1
  O  O50  1  0.07914868  0.76848005  0.27158180  1
  O  O51  1  0.92085132  0.23151995  0.72841820  1
  F  F52  1  0.62923780  0.01493082  0.61273909  1
  F  F53  1  0.37076220  0.98506918  0.38726091  1
  F  F54  1  0.37076220  0.48506918  0.11273909  1
  F  F55  1  0.62923780  0.51493082  0.88726091  1
  F  F56  1  0.87549898  0.98428957  0.37710646  1
  F  F57  1  0.12450102  0.01571043  0.62289354  1
  F  F58  1  0.12450102  0.51571043  0.87710646  1
  F  F59  1  0.87549898  0.48428957  0.12289354  1
