# generated using pymatgen
data_Mn2TeO6
_symmetry_space_group_name_H-M   'P 1'
_cell_length_a   4.77212759
_cell_length_b   4.77212759
_cell_length_c   9.06132647
_cell_angle_alpha   90.00000000
_cell_angle_beta   90.00000000
_cell_angle_gamma   90.00000000
_symmetry_Int_Tables_number   1
_chemical_formula_structural   Mn2TeO6
_chemical_formula_sum   'Mn4 Te2 O12'
_cell_volume   206.35541569
_cell_formula_units_Z   2
loop_
 _symmetry_equiv_pos_site_id
 _symmetry_equiv_pos_as_xyz
  1  'x, y, z'
loop_
 _atom_site_type_symbol
 _atom_site_label
 _atom_site_symmetry_multiplicity
 _atom_site_fract_x
 _atom_site_fract_y
 _atom_site_fract_z
 _atom_site_occupancy
  Mn  Mn0  1  0.00000000  -0.00000000  0.33379465  1
  Mn  Mn1  1  0.00000000  -0.00000000  0.66620535  1
  Mn  Mn2  1  0.50000000  0.50000000  0.83379465  1
  Mn  Mn3  1  0.50000000  0.50000000  0.16620535  1
  Te  Te4  1  0.00000000  -0.00000000  0.00000000  1
  Te  Te5  1  0.50000000  0.50000000  0.50000000  1
  O  O6  1  0.30040322  0.30040322  0.00000000  1
  O  O7  1  0.69959678  0.69959678  0.00000000  1
  O  O8  1  0.19959678  0.80040322  0.50000000  1
  O  O9  1  0.80040322  0.19959678  0.50000000  1
  O  O10  1  0.31461901  0.31461901  0.33584147  1
  O  O11  1  0.68538099  0.68538099  0.66415853  1
  O  O12  1  0.68538099  0.68538099  0.33584147  1
  O  O13  1  0.18538099  0.81461901  0.83584147  1
  O  O14  1  0.18538099  0.81461901  0.16415853  1
  O  O15  1  0.31461901  0.31461901  0.66415853  1
  O  O16  1  0.81461901  0.18538099  0.16415853  1
  O  O17  1  0.81461901  0.18538099  0.83584147  1
