# generated using pymatgen
data_MnAlPH4O7
_symmetry_space_group_name_H-M   'P 1'
_cell_length_a   6.52081817
_cell_length_b   6.52081817
_cell_length_c   13.57492811
_cell_angle_alpha   90.00000000
_cell_angle_beta   90.00000000
_cell_angle_gamma   109.68872161
_symmetry_Int_Tables_number   1
_chemical_formula_structural   MnAlPH4O7
_chemical_formula_sum   'Mn4 Al4 P4 H16 O28'
_cell_volume   543.47435455
_cell_formula_units_Z   4
loop_
 _symmetry_equiv_pos_site_id
 _symmetry_equiv_pos_as_xyz
  1  'x, y, z'
loop_
 _atom_site_type_symbol
 _atom_site_label
 _atom_site_symmetry_multiplicity
 _atom_site_fract_x
 _atom_site_fract_y
 _atom_site_fract_z
 _atom_site_occupancy
  Mn  Mn0  1  0.63039158  0.86960842  0.75000000  1
  Mn  Mn1  1  0.36960842  0.13039158  0.25000000  1
  Mn  Mn2  1  0.86960842  0.63039158  0.25000000  1
  Mn  Mn3  1  0.13039158  0.36960842  0.75000000  1
  Al  Al4  1  0.50000000  -0.00000000  -0.00000000  1
  Al  Al5  1  -0.00000000  0.50000000  0.50000000  1
  Al  Al6  1  0.50000000  -0.00000000  0.50000000  1
  Al  Al7  1  -0.00000000  0.50000000  -0.00000000  1
  P  P8  1  0.63164501  0.36835499  0.66394421  1
  P  P9  1  0.36835499  0.63164501  0.33605579  1
  P  P10  1  0.86835499  0.13164501  0.16394421  1
  P  P11  1  0.13164501  0.86835499  0.83605579  1
  H  H12  1  0.56462285  0.23667948  0.87815115  1
  H  H13  1  0.43537715  0.76332052  0.12184885  1
  H  H14  1  0.93537715  0.26332052  0.37815115  1
  H  H15  1  0.26332052  0.93537715  0.62184885  1
  H  H16  1  0.06462285  0.73667948  0.62184885  1
  H  H17  1  0.73667948  0.06462285  0.37815115  1
  H  H18  1  0.23667948  0.56462285  0.12184885  1
  H  H19  1  0.76332052  0.43537715  0.87815115  1
  H  H20  1  0.72077069  0.80833852  0.92857616  1
  H  H21  1  0.27922931  0.19166148  0.07142384  1
  H  H22  1  0.77922931  0.69166148  0.42857616  1
  H  H23  1  0.69166148  0.77922931  0.57142384  1
  H  H24  1  0.22077069  0.30833852  0.57142384  1
  H  H25  1  0.30833852  0.22077069  0.42857616  1
  H  H26  1  0.80833852  0.72077069  0.07142384  1
  H  H27  1  0.19166148  0.27922931  0.92857616  1
  O  O28  1  0.74528887  0.25471113  0.73432907  1
  O  O29  1  0.25471113  0.74528887  0.26567093  1
  O  O30  1  0.75471113  0.24528887  0.23432907  1
  O  O31  1  0.24528887  0.75471113  0.76567093  1
  O  O32  1  0.30133841  0.03148095  0.90586786  1
  O  O33  1  0.69866159  0.96851905  0.09413214  1
  O  O34  1  0.19866159  0.46851905  0.40586786  1
  O  O35  1  0.46851905  0.19866159  0.59413214  1
  O  O36  1  0.80133841  0.53148095  0.59413214  1
  O  O37  1  0.53148095  0.80133841  0.40586786  1
  O  O38  1  0.03148095  0.30133841  0.09413214  1
  O  O39  1  0.96851905  0.69866159  0.90586786  1
  O  O40  1  0.00698518  0.99301482  0.77827445  1
  O  O41  1  0.99301482  0.00698518  0.22172555  1
  O  O42  1  0.49301482  0.50698518  0.27827445  1
  O  O43  1  0.50698518  0.49301482  0.72172555  1
  O  O44  1  0.67034250  0.32965750  0.92617930  1
  O  O45  1  0.32965750  0.67034250  0.07382070  1
  O  O46  1  0.82965750  0.17034250  0.42617930  1
  O  O47  1  0.17034250  0.82965750  0.57382070  1
  O  O48  1  0.60865506  0.86724792  0.90731090  1
  O  O49  1  0.39134494  0.13275208  0.09268910  1
  O  O50  1  0.89134494  0.63275208  0.40731090  1
  O  O51  1  0.63275208  0.89134494  0.59268910  1
  O  O52  1  0.10865506  0.36724792  0.59268910  1
  O  O53  1  0.36724792  0.10865506  0.40731090  1
  O  O54  1  0.86724792  0.60865506  0.09268910  1
  O  O55  1  0.13275208  0.39134494  0.90731090  1
