# generated using pymatgen
data_LiVCdF6
_symmetry_space_group_name_H-M   'P 1'
_cell_length_a   5.23443672
_cell_length_b   5.23443672
_cell_length_c   9.68369245
_cell_angle_alpha   90.00000000
_cell_angle_beta   90.00000000
_cell_angle_gamma   119.99998809
_symmetry_Int_Tables_number   1
_chemical_formula_structural   LiVCdF6
_chemical_formula_sum   'Li2 V2 Cd2 F12'
_cell_volume   229.77965828
_cell_formula_units_Z   2
loop_
 _symmetry_equiv_pos_site_id
 _symmetry_equiv_pos_as_xyz
  1  'x, y, z'
loop_
 _atom_site_type_symbol
 _atom_site_label
 _atom_site_symmetry_multiplicity
 _atom_site_fract_x
 _atom_site_fract_y
 _atom_site_fract_z
 _atom_site_occupancy
  Li  Li0  1  0.33333300  0.66666700  0.75000000  1
  Li  Li1  1  0.66666700  0.33333300  0.25000000  1
  V  V2  1  0.66666700  0.33333300  0.75000000  1
  V  V3  1  0.33333300  0.66666700  0.25000000  1
  Cd  Cd4  1  -0.00000000  0.00000000  0.00000000  1
  Cd  Cd5  1  -0.00000000  0.00000000  0.50000000  1
  F  F6  1  0.98725652  0.34700441  0.86318519  1
  F  F7  1  0.01274348  0.65299559  0.13681481  1
  F  F8  1  0.35974788  0.01274348  0.86318519  1
  F  F9  1  0.35974788  0.34700441  0.63681481  1
  F  F10  1  0.64025212  0.98725652  0.13681481  1
  F  F11  1  0.64025212  0.65299559  0.36318519  1
  F  F12  1  0.65299559  0.64025212  0.86318519  1
  F  F13  1  0.65299559  0.01274348  0.63681481  1
  F  F14  1  0.34700441  0.35974788  0.13681481  1
  F  F15  1  0.34700441  0.98725652  0.36318519  1
  F  F16  1  0.98725652  0.64025212  0.63681481  1
  F  F17  1  0.01274348  0.35974788  0.36318519  1
