# generated using pymatgen
data_LuPtF7
_symmetry_space_group_name_H-M   'P 1'
_cell_length_a   5.45423543
_cell_length_b   8.78037807
_cell_length_c   11.02949227
_cell_angle_alpha   107.55811481
_cell_angle_beta   90.00000000
_cell_angle_gamma   90.00000000
_symmetry_Int_Tables_number   1
_chemical_formula_structural   LuPtF7
_chemical_formula_sum   'Lu4 Pt4 F28'
_cell_volume   503.59682504
_cell_formula_units_Z   4
loop_
 _symmetry_equiv_pos_site_id
 _symmetry_equiv_pos_as_xyz
  1  'x, y, z'
loop_
 _atom_site_type_symbol
 _atom_site_label
 _atom_site_symmetry_multiplicity
 _atom_site_fract_x
 _atom_site_fract_y
 _atom_site_fract_z
 _atom_site_occupancy
  Lu  Lu0  1  0.73660936  0.91992032  0.73722282  1
  Lu  Lu1  1  0.26339064  0.08007968  0.26277718  1
  Lu  Lu2  1  0.23660936  0.58007968  0.76277718  1
  Lu  Lu3  1  0.76339064  0.41992032  0.23722282  1
  Pt  Pt4  1  0.24080288  0.23064613  0.95813937  1
  Pt  Pt5  1  0.75919712  0.76935387  0.04186063  1
  Pt  Pt6  1  0.74080288  0.26935387  0.54186063  1
  Pt  Pt7  1  0.25919712  0.73064613  0.45813937  1
  F  F8  1  0.05819516  0.88063321  0.58882381  1
  F  F9  1  0.94180484  0.11936679  0.41117619  1
  F  F10  1  0.55819516  0.61936679  0.91117619  1
  F  F11  1  0.44180484  0.38063321  0.08882381  1
  F  F12  1  0.53825111  0.13520991  0.86440891  1
  F  F13  1  0.46174889  0.86479009  0.13559109  1
  F  F14  1  0.03825111  0.36479009  0.63559109  1
  F  F15  1  0.96174889  0.63520991  0.36440891  1
  F  F16  1  0.04500141  0.08113117  0.82309636  1
  F  F17  1  0.95499859  0.91886883  0.17690364  1
  F  F18  1  0.54500141  0.41886883  0.67690364  1
  F  F19  1  0.45499859  0.58113117  0.32309636  1
  F  F20  1  0.23170585  0.38372057  0.85903298  1
  F  F21  1  0.76829415  0.61627943  0.14096702  1
  F  F22  1  0.73170585  0.11627943  0.64096702  1
  F  F23  1  0.26829415  0.88372057  0.35903298  1
  F  F24  1  0.06297982  0.67396627  0.95425570  1
  F  F25  1  0.93702018  0.32603373  0.04574430  1
  F  F26  1  0.56297982  0.82603373  0.54574430  1
  F  F27  1  0.43702018  0.17396627  0.45425570  1
  F  F28  1  0.26181396  0.57442762  0.55340069  1
  F  F29  1  0.73818604  0.42557238  0.44659931  1
  F  F30  1  0.76181396  0.92557238  0.94659931  1
  F  F31  1  0.23818604  0.07442762  0.05340069  1
  F  F32  1  0.40986589  0.79903089  0.76811352  1
  F  F33  1  0.59013411  0.20096911  0.23188648  1
  F  F34  1  0.90986589  0.70096911  0.73188648  1
  F  F35  1  0.09013411  0.29903089  0.26811352  1
