# generated using pymatgen
data_LuHfF7
_symmetry_space_group_name_H-M   'P 1'
_cell_length_a   5.59301999
_cell_length_b   5.96719782
_cell_length_c   8.13514966
_cell_angle_alpha   102.11459228
_cell_angle_beta   90.00000000
_cell_angle_gamma   90.00000000
_symmetry_Int_Tables_number   1
_chemical_formula_structural   LuHfF7
_chemical_formula_sum   'Lu2 Hf2 F14'
_cell_volume   265.46129824
_cell_formula_units_Z   2
loop_
 _symmetry_equiv_pos_site_id
 _symmetry_equiv_pos_as_xyz
  1  'x, y, z'
loop_
 _atom_site_type_symbol
 _atom_site_label
 _atom_site_symmetry_multiplicity
 _atom_site_fract_x
 _atom_site_fract_y
 _atom_site_fract_z
 _atom_site_occupancy
  Lu  Lu0  1  0.69673678  0.65429285  0.68284489  1
  Lu  Lu1  1  0.19673678  0.34570715  0.31715511  1
  Hf  Hf2  1  0.70712495  0.81164307  0.22387557  1
  Hf  Hf3  1  0.20712495  0.18835693  0.77612443  1
  F  F4  1  0.89022380  0.45501399  0.47822135  1
  F  F5  1  0.39022380  0.54498601  0.52177865  1
  F  F6  1  0.42891418  0.92180085  0.76749176  1
  F  F7  1  0.92891418  0.07819915  0.23250824  1
  F  F8  1  0.94340583  0.95492405  0.75968293  1
  F  F9  1  0.44340583  0.04507595  0.24031707  1
  F  F10  1  0.99260734  0.45959027  0.78706288  1
  F  F11  1  0.49260734  0.54040973  0.21293712  1
  F  F12  1  0.70291710  0.75509676  0.97399003  1
  F  F13  1  0.20291710  0.24490324  0.02600997  1
  F  F14  1  0.70934290  0.86148485  0.47527100  1
  F  F15  1  0.20934290  0.13851515  0.52472900  1
  F  F16  1  0.50508711  0.38103089  0.78080285  1
  F  F17  1  0.00508711  0.61896911  0.21919715  1
