# generated using pymatgen
data_LuSi3Ni5
_symmetry_space_group_name_H-M   'P 1'
_cell_length_a   3.72899276
_cell_length_b   18.49067109
_cell_length_c   6.65898012
_cell_angle_alpha   90.00000000
_cell_angle_beta   90.00000000
_cell_angle_gamma   90.00000000
_symmetry_Int_Tables_number   1
_chemical_formula_structural   LuSi3Ni5
_chemical_formula_sum   'Lu4 Si12 Ni20'
_cell_volume   459.14719129
_cell_formula_units_Z   4
loop_
 _symmetry_equiv_pos_site_id
 _symmetry_equiv_pos_as_xyz
  1  'x, y, z'
loop_
 _atom_site_type_symbol
 _atom_site_label
 _atom_site_symmetry_multiplicity
 _atom_site_fract_x
 _atom_site_fract_y
 _atom_site_fract_z
 _atom_site_occupancy
  Lu  Lu0  1  0.75000000  0.64367068  0.12257399  1
  Lu  Lu1  1  0.25000000  0.35632932  0.87742601  1
  Lu  Lu2  1  0.25000000  0.85632932  0.62257399  1
  Lu  Lu3  1  0.75000000  0.14367068  0.37742601  1
  Si  Si4  1  0.75000000  0.73826395  0.62208168  1
  Si  Si5  1  0.25000000  0.26173605  0.37791832  1
  Si  Si6  1  0.25000000  0.76173605  0.12208168  1
  Si  Si7  1  0.75000000  0.23826395  0.87791832  1
  Si  Si8  1  0.75000000  0.92430002  0.34875863  1
  Si  Si9  1  0.25000000  0.07569998  0.65124137  1
  Si  Si10  1  0.25000000  0.57569998  0.84875863  1
  Si  Si11  1  0.75000000  0.42430002  0.15124137  1
  Si  Si12  1  0.75000000  0.91470274  0.91039848  1
  Si  Si13  1  0.25000000  0.08529726  0.08960152  1
  Si  Si14  1  0.25000000  0.58529726  0.41039848  1
  Si  Si15  1  0.75000000  0.41470274  0.58960152  1
  Ni  Ni16  1  0.75000000  0.80008381  0.31758330  1
  Ni  Ni17  1  0.25000000  0.19991619  0.68241670  1
  Ni  Ni18  1  0.25000000  0.69991619  0.81758330  1
  Ni  Ni19  1  0.75000000  0.30008381  0.18241670  1
  Ni  Ni20  1  0.75000000  0.99467083  0.63092919  1
  Ni  Ni21  1  0.25000000  0.00532917  0.36907081  1
  Ni  Ni22  1  0.25000000  0.50532917  0.13092919  1
  Ni  Ni23  1  0.75000000  0.49467083  0.86907081  1
  Ni  Ni24  1  0.75000000  0.51352407  0.38116457  1
  Ni  Ni25  1  0.25000000  0.48647593  0.61883543  1
  Ni  Ni26  1  0.25000000  0.98647593  0.88116457  1
  Ni  Ni27  1  0.75000000  0.01352407  0.11883543  1
  Ni  Ni28  1  0.75000000  0.79401906  0.92969380  1
  Ni  Ni29  1  0.25000000  0.20598094  0.07030620  1
  Ni  Ni30  1  0.25000000  0.70598094  0.42969380  1
  Ni  Ni31  1  0.75000000  0.29401906  0.57030620  1
  Ni  Ni32  1  0.75000000  0.61432711  0.64216410  1
  Ni  Ni33  1  0.25000000  0.38567289  0.35783590  1
  Ni  Ni34  1  0.25000000  0.88567289  0.14216410  1
  Ni  Ni35  1  0.75000000  0.11432711  0.85783590  1
