# generated using pymatgen
data_LiNd(WO4)2
_symmetry_space_group_name_H-M   'P 1'
_cell_length_a   7.22204698
_cell_length_b   7.44933094
_cell_length_c   7.53787056
_cell_angle_alpha   113.76090631
_cell_angle_beta   115.54359163
_cell_angle_gamma   91.51022703
_symmetry_Int_Tables_number   1
_chemical_formula_structural   LiNd(WO4)2
_chemical_formula_sum   'Li2 Nd2 W4 O16'
_cell_volume   324.90026382
_cell_formula_units_Z   2
loop_
 _symmetry_equiv_pos_site_id
 _symmetry_equiv_pos_as_xyz
  1  'x, y, z'
loop_
 _atom_site_type_symbol
 _atom_site_label
 _atom_site_symmetry_multiplicity
 _atom_site_fract_x
 _atom_site_fract_y
 _atom_site_fract_z
 _atom_site_occupancy
  Li  Li0  1  0.25064650  0.67652128  0.00984466  1
  Li  Li1  1  0.74935350  0.32347872  0.99015534  1
  Nd  Nd2  1  0.18408873  0.28749411  0.46129346  1
  Nd  Nd3  1  0.81591127  0.71250589  0.53870654  1
  W  W4  1  0.26177963  0.29309531  0.02977301  1
  W  W5  1  0.73822037  0.70690469  0.97022699  1
  W  W6  1  0.64727048  0.10447220  0.28627983  1
  W  W7  1  0.35272952  0.89552780  0.71372017  1
  O  O8  1  0.18436534  0.36461260  0.80671515  1
  O  O9  1  0.81563466  0.63538740  0.19328485  1
  O  O10  1  0.44758748  0.53749550  0.25116303  1
  O  O11  1  0.55241252  0.46250450  0.74883697  1
  O  O12  1  0.86320245  0.01074329  0.19965680  1
  O  O13  1  0.13679755  0.98925671  0.80034320  1
  O  O14  1  0.70685530  0.00904971  0.48309691  1
  O  O15  1  0.29314470  0.99095029  0.51690309  1
  O  O16  1  0.17834209  0.63887563  0.56110483  1
  O  O17  1  0.82165791  0.36112437  0.43889517  1
  O  O18  1  0.48119129  0.82766088  0.00891877  1
  O  O19  1  0.51880871  0.17233912  0.99108123  1
  O  O20  1  0.04262233  0.30428896  0.09282272  1
  O  O21  1  0.95737767  0.69571104  0.90717728  1
  O  O22  1  0.38466033  0.17182790  0.26008029  1
  O  O23  1  0.61533967  0.82817210  0.73991971  1
