# generated using pymatgen
data_Li2Ce2Si3
_symmetry_space_group_name_H-M   'P 1'
_cell_length_a   4.40362914
_cell_length_b   6.73918032
_cell_length_c   9.42614897
_cell_angle_alpha   90.00000000
_cell_angle_beta   103.50827532
_cell_angle_gamma   90.00000000
_symmetry_Int_Tables_number   1
_chemical_formula_structural   Li2Ce2Si3
_chemical_formula_sum   'Li4 Ce4 Si6'
_cell_volume   271.99978755
_cell_formula_units_Z   2
loop_
 _symmetry_equiv_pos_site_id
 _symmetry_equiv_pos_as_xyz
  1  'x, y, z'
loop_
 _atom_site_type_symbol
 _atom_site_label
 _atom_site_symmetry_multiplicity
 _atom_site_fract_x
 _atom_site_fract_y
 _atom_site_fract_z
 _atom_site_occupancy
  Li  Li0  1  0.81067505  0.56039290  0.62135010  1
  Li  Li1  1  0.18932495  0.43960710  0.37864990  1
  Li  Li2  1  0.18932495  0.06039290  0.37864990  1
  Li  Li3  1  0.81067505  0.93960710  0.62135010  1
  Ce  Ce4  1  0.55058986  0.25000000  0.10117973  1
  Ce  Ce5  1  0.44941014  0.75000000  0.89882027  1
  Ce  Ce6  1  0.34401177  0.25000000  0.68802354  1
  Ce  Ce7  1  0.65598823  0.75000000  0.31197646  1
  Si  Si8  1  0.94105677  0.07347203  0.88211354  1
  Si  Si9  1  0.05894323  0.92652797  0.11788646  1
  Si  Si10  1  0.05894323  0.57347203  0.11788646  1
  Si  Si11  1  0.94105677  0.42652797  0.88211354  1
  Si  Si12  1  0.71993110  0.25000000  0.43986220  1
  Si  Si13  1  0.28006890  0.75000000  0.56013780  1
