# generated using pymatgen
data_LaAlRh
_symmetry_space_group_name_H-M   'P 1'
_cell_length_a   4.30849624
_cell_length_b   7.29818390
_cell_length_c   16.23958020
_cell_angle_alpha   90.00000000
_cell_angle_beta   90.00000000
_cell_angle_gamma   90.00000000
_symmetry_Int_Tables_number   1
_chemical_formula_structural   LaAlRh
_chemical_formula_sum   'La8 Al8 Rh8'
_cell_volume   510.64057349
_cell_formula_units_Z   8
loop_
 _symmetry_equiv_pos_site_id
 _symmetry_equiv_pos_as_xyz
  1  'x, y, z'
loop_
 _atom_site_type_symbol
 _atom_site_label
 _atom_site_symmetry_multiplicity
 _atom_site_fract_x
 _atom_site_fract_y
 _atom_site_fract_z
 _atom_site_occupancy
  La  La0  1  0.75000000  0.98948081  0.71856604  1
  La  La1  1  0.25000000  0.01051919  0.28143396  1
  La  La2  1  0.25000000  0.51051919  0.21856604  1
  La  La3  1  0.75000000  0.48948081  0.78143396  1
  La  La4  1  0.75000000  0.84810322  0.93876129  1
  La  La5  1  0.25000000  0.15189678  0.06123871  1
  La  La6  1  0.25000000  0.65189678  0.43876129  1
  La  La7  1  0.75000000  0.34810322  0.56123871  1
  Al  Al8  1  0.75000000  0.84008515  0.14870824  1
  Al  Al9  1  0.25000000  0.15991485  0.85129176  1
  Al  Al10  1  0.25000000  0.65991485  0.64870824  1
  Al  Al11  1  0.75000000  0.34008515  0.35129176  1
  Al  Al12  1  0.75000000  0.99343689  0.44026265  1
  Al  Al13  1  0.25000000  0.00656311  0.55973735  1
  Al  Al14  1  0.25000000  0.50656311  0.94026265  1
  Al  Al15  1  0.75000000  0.49343689  0.05973735  1
  Rh  Rh16  1  0.75000000  0.72070792  0.32019412  1
  Rh  Rh17  1  0.25000000  0.27929208  0.67980588  1
  Rh  Rh18  1  0.25000000  0.77929208  0.82019412  1
  Rh  Rh19  1  0.75000000  0.22070792  0.17980588  1
  Rh  Rh20  1  0.75000000  0.78448607  0.57251634  1
  Rh  Rh21  1  0.25000000  0.21551393  0.42748366  1
  Rh  Rh22  1  0.25000000  0.71551393  0.07251634  1
  Rh  Rh23  1  0.75000000  0.28448607  0.92748366  1
