# generated using pymatgen
data_KCr(MoO4)2
_symmetry_space_group_name_H-M   'P 1'
_cell_length_a   5.80080718
_cell_length_b   9.24511522
_cell_length_c   9.42581926
_cell_angle_alpha   117.76006674
_cell_angle_beta   107.92118107
_cell_angle_gamma   90.00000000
_symmetry_Int_Tables_number   1
_chemical_formula_structural   KCr(MoO4)2
_chemical_formula_sum   'K2 Cr2 Mo4 O16'
_cell_volume   419.40349916
_cell_formula_units_Z   2
loop_
 _symmetry_equiv_pos_site_id
 _symmetry_equiv_pos_as_xyz
  1  'x, y, z'
loop_
 _atom_site_type_symbol
 _atom_site_label
 _atom_site_symmetry_multiplicity
 _atom_site_fract_x
 _atom_site_fract_y
 _atom_site_fract_z
 _atom_site_occupancy
  K  K0  1  0.81264328  0.25000000  -0.00000000  1
  K  K1  1  0.18735672  0.75000000  -0.00000000  1
  Cr  Cr2  1  0.50000000  0.00000000  0.50000000  1
  Cr  Cr3  1  -0.00000000  0.50000000  0.50000000  1
  Mo  Mo4  1  0.42130143  0.26588542  0.29925557  1
  Mo  Mo5  1  0.57869857  0.73411458  0.70074443  1
  Mo  Mo6  1  0.12204586  0.23411458  0.70074443  1
  Mo  Mo7  1  0.87795414  0.76588542  0.29925557  1
  O  O8  1  0.21684402  0.41699113  0.35550946  1
  O  O9  1  0.78315598  0.58300887  0.64449054  1
  O  O10  1  0.86133456  0.08300887  0.64449054  1
  O  O11  1  0.13866544  0.91699113  0.35550946  1
  O  O12  1  0.26644137  0.10784887  0.09058224  1
  O  O13  1  0.73355863  0.89215113  0.90941776  1
  O  O14  1  0.17585912  0.39215113  0.90941776  1
  O  O15  1  0.82414088  0.60784887  0.09058224  1
  O  O16  1  0.49658240  0.18096749  0.44106091  1
  O  O17  1  0.50341760  0.81903251  0.55893909  1
  O  O18  1  0.05552149  0.31903251  0.55893909  1
  O  O19  1  0.94447851  0.68096749  0.44106091  1
  O  O20  1  0.40349831  0.14477743  0.70265218  1
  O  O21  1  0.59650169  0.85522257  0.29734782  1
  O  O22  1  0.70084613  0.35522257  0.29734782  1
  O  O23  1  0.29915387  0.64477743  0.70265218  1
