# generated using pymatgen
data_Li2NdPCO7
_symmetry_space_group_name_H-M   'P 1'
_cell_length_a   9.28413445
_cell_length_b   6.91864847
_cell_length_c   4.99301511
_cell_angle_alpha   90.00000000
_cell_angle_beta   86.84874523
_cell_angle_gamma   90.00000000
_symmetry_Int_Tables_number   1
_chemical_formula_structural   Li2NdPCO7
_chemical_formula_sum   'Li4 Nd2 P2 C2 O14'
_cell_volume   320.23468585
_cell_formula_units_Z   2
loop_
 _symmetry_equiv_pos_site_id
 _symmetry_equiv_pos_as_xyz
  1  'x, y, z'
loop_
 _atom_site_type_symbol
 _atom_site_label
 _atom_site_symmetry_multiplicity
 _atom_site_fract_x
 _atom_site_fract_y
 _atom_site_fract_z
 _atom_site_occupancy
  Li  Li0  1  0.19653143  0.47354228  0.20797665  1
  Li  Li1  1  0.19653143  0.02645772  0.20797665  1
  Li  Li2  1  0.80346857  0.52645772  0.79202335  1
  Li  Li3  1  0.80346857  0.97354228  0.79202335  1
  Nd  Nd4  1  0.37546318  0.75000000  0.74332629  1
  Nd  Nd5  1  0.62453682  0.25000000  0.25667371  1
  P  P6  1  0.39740387  0.25000000  0.74065671  1
  P  P7  1  0.60259613  0.75000000  0.25934329  1
  C  C8  1  0.06849337  0.75000000  0.74067482  1
  C  C9  1  0.93150663  0.25000000  0.25932518  1
  O  O10  1  0.06785012  0.25000000  0.27725167  1
  O  O11  1  0.13008360  0.75000000  0.97012415  1
  O  O12  1  0.15694155  0.75000000  0.52293425  1
  O  O13  1  0.33497216  0.06822524  0.88416458  1
  O  O14  1  0.33497216  0.43177476  0.88416458  1
  O  O15  1  0.43346010  0.75000000  0.24295309  1
  O  O16  1  0.37175688  0.25000000  0.43645943  1
  O  O17  1  0.62824312  0.75000000  0.56354057  1
  O  O18  1  0.56653990  0.25000000  0.75704691  1
  O  O19  1  0.66502784  0.56822524  0.11583542  1
  O  O20  1  0.66502784  0.93177476  0.11583542  1
  O  O21  1  0.84305845  0.25000000  0.47706575  1
  O  O22  1  0.86991640  0.25000000  0.02987585  1
  O  O23  1  0.93214988  0.75000000  0.72274833  1
