# generated using pymatgen
data_KLi3SiO4
_symmetry_space_group_name_H-M   'P 1'
_cell_length_a   5.81156230
_cell_length_b   7.43554300
_cell_length_c   9.82806242
_cell_angle_alpha   84.01776302
_cell_angle_beta   76.52799376
_cell_angle_gamma   80.18840742
_symmetry_Int_Tables_number   1
_chemical_formula_structural   KLi3SiO4
_chemical_formula_sum   'K4 Li12 Si4 O16'
_cell_volume   406.04119884
_cell_formula_units_Z   4
loop_
 _symmetry_equiv_pos_site_id
 _symmetry_equiv_pos_as_xyz
  1  'x, y, z'
loop_
 _atom_site_type_symbol
 _atom_site_label
 _atom_site_symmetry_multiplicity
 _atom_site_fract_x
 _atom_site_fract_y
 _atom_site_fract_z
 _atom_site_occupancy
  K  K0  1  0.00508948  0.38309326  0.88379141  1
  K  K1  1  0.99491052  0.61690674  0.11620859  1
  K  K2  1  0.04183359  0.14054937  0.62898149  1
  K  K3  1  0.95816641  0.85945063  0.37101851  1
  Li  Li4  1  0.79279215  0.06140699  0.10331172  1
  Li  Li5  1  0.20720785  0.93859301  0.89668828  1
  Li  Li6  1  0.48251482  0.32766124  0.61122211  1
  Li  Li7  1  0.51748518  0.67233876  0.38877789  1
  Li  Li8  1  0.20024037  0.16988257  0.14516181  1
  Li  Li9  1  0.79975963  0.83011743  0.85483819  1
  Li  Li10  1  0.53497713  0.42574551  0.12872917  1
  Li  Li11  1  0.46502287  0.57425449  0.87127083  1
  Li  Li12  1  0.43217342  0.05020191  0.37354991  1
  Li  Li13  1  0.56782658  0.94979809  0.62645009  1
  Li  Li14  1  0.18708785  0.45064386  0.39547504  1
  Li  Li15  1  0.81291215  0.54935614  0.60452496  1
  Si  Si16  1  0.83872230  0.29199610  0.35137687  1
  Si  Si17  1  0.16127770  0.70800390  0.64862313  1
  Si  Si18  1  0.44002709  0.78667591  0.13687862  1
  Si  Si19  1  0.55997291  0.21332409  0.86312138  1
  O  O20  1  0.64955201  0.16827431  0.45756090  1
  O  O21  1  0.35044799  0.83172569  0.54243910  1
  O  O22  1  0.20550162  0.92257928  0.09622042  1
  O  O23  1  0.79449838  0.07742072  0.90377958  1
  O  O24  1  0.34580588  0.61671249  0.25141242  1
  O  O25  1  0.65419412  0.38328751  0.74858758  1
  O  O26  1  0.12578924  0.20743279  0.35034878  1
  O  O27  1  0.87421076  0.79256721  0.64965122  1
  O  O28  1  0.19644075  0.49948637  0.59179558  1
  O  O29  1  0.80355925  0.50051363  0.40820442  1
  O  O30  1  0.39200427  0.31770059  0.00233496  1
  O  O31  1  0.60799573  0.68229941  0.99766504  1
  O  O32  1  0.81720887  0.28836931  0.18597084  1
  O  O33  1  0.18279113  0.71163069  0.81402916  1
  O  O34  1  0.40634427  0.10844801  0.78218879  1
  O  O35  1  0.59365573  0.89155199  0.21781121  1
