# generated using pymatgen
data_KCaEr2CuS5
_symmetry_space_group_name_H-M   'P 1'
_cell_length_a   3.94332647
_cell_length_b   7.07648802
_cell_length_c   17.10831721
_cell_angle_alpha   90.00000000
_cell_angle_beta   90.00000000
_cell_angle_gamma   106.17796166
_symmetry_Int_Tables_number   1
_chemical_formula_structural   KCaEr2CuS5
_chemical_formula_sum   'K2 Ca2 Er4 Cu2 S10'
_cell_volume   458.50109176
_cell_formula_units_Z   2
loop_
 _symmetry_equiv_pos_site_id
 _symmetry_equiv_pos_as_xyz
  1  'x, y, z'
loop_
 _atom_site_type_symbol
 _atom_site_label
 _atom_site_symmetry_multiplicity
 _atom_site_fract_x
 _atom_site_fract_y
 _atom_site_fract_z
 _atom_site_occupancy
  K  K0  1  0.47601008  0.95202015  0.25000000  1
  K  K1  1  0.52398992  0.04797985  0.75000000  1
  Ca  Ca2  1  0.00000000  0.00000000  0.00000000  1
  Ca  Ca3  1  0.00000000  0.00000000  0.50000000  1
  Er  Er4  1  0.27059424  0.54118848  0.60308206  1
  Er  Er5  1  0.72940576  0.45881152  0.39691794  1
  Er  Er6  1  0.72940576  0.45881152  0.10308206  1
  Er  Er7  1  0.27059424  0.54118848  0.89691794  1
  Cu  Cu8  1  0.20358052  0.40716103  0.25000000  1
  Cu  Cu9  1  0.79641948  0.59283897  0.75000000  1
  S  S10  1  0.35595315  0.71190630  0.04675329  1
  S  S11  1  0.64404685  0.28809370  0.95324671  1
  S  S12  1  0.64404685  0.28809370  0.54675329  1
  S  S13  1  0.35595315  0.71190630  0.45324671  1
  S  S14  1  0.10444332  0.20888663  0.13872838  1
  S  S15  1  0.89555668  0.79111337  0.86127162  1
  S  S16  1  0.89555668  0.79111337  0.63872838  1
  S  S17  1  0.10444332  0.20888663  0.36127162  1
  S  S18  1  0.79851553  0.59703105  0.25000000  1
  S  S19  1  0.20148447  0.40296895  0.75000000  1
