# generated using pymatgen
data_KDyBeF6
_symmetry_space_group_name_H-M   'P 1'
_cell_length_a   5.86026113
_cell_length_b   6.43438021
_cell_length_c   7.11590076
_cell_angle_alpha   113.05333698
_cell_angle_beta   90.00000000
_cell_angle_gamma   90.00000000
_symmetry_Int_Tables_number   1
_chemical_formula_structural   KDyBeF6
_chemical_formula_sum   'K2 Dy2 Be2 F12'
_cell_volume   246.89245715
_cell_formula_units_Z   2
loop_
 _symmetry_equiv_pos_site_id
 _symmetry_equiv_pos_as_xyz
  1  'x, y, z'
loop_
 _atom_site_type_symbol
 _atom_site_label
 _atom_site_symmetry_multiplicity
 _atom_site_fract_x
 _atom_site_fract_y
 _atom_site_fract_z
 _atom_site_occupancy
  K  K0  1  0.75000000  0.07130090  0.20340813  1
  K  K1  1  0.25000000  0.92869910  0.79659187  1
  Dy  Dy2  1  0.75000000  0.38828036  0.81972260  1
  Dy  Dy3  1  0.25000000  0.61171964  0.18027740  1
  Be  Be4  1  0.75000000  0.76705519  0.53575053  1
  Be  Be5  1  0.25000000  0.23294481  0.46424947  1
  F  F6  1  0.96521022  0.76718919  0.40504747  1
  F  F7  1  0.03478978  0.23281081  0.59495253  1
  F  F8  1  0.46521022  0.23281081  0.59495253  1
  F  F9  1  0.53478978  0.76718919  0.40504747  1
  F  F10  1  0.75000000  0.55867062  0.59185535  1
  F  F11  1  0.25000000  0.44132938  0.40814465  1
  F  F12  1  0.99860446  0.67982058  0.96570539  1
  F  F13  1  0.00139554  0.32017942  0.03429461  1
  F  F14  1  0.49860446  0.32017942  0.03429461  1
  F  F15  1  0.50139554  0.67982058  0.96570539  1
  F  F16  1  0.75000000  0.98843635  0.73617734  1
  F  F17  1  0.25000000  0.01156365  0.26382266  1
