# generated using pymatgen
data_La3IrI3
_symmetry_space_group_name_H-M   'P 1'
_cell_length_a   11.00204749
_cell_length_b   11.00204749
_cell_length_c   11.00204749
_cell_angle_alpha   109.47122063
_cell_angle_beta   109.47122063
_cell_angle_gamma   109.47122063
_symmetry_Int_Tables_number   1
_chemical_formula_structural   La3IrI3
_chemical_formula_sum   'La12 Ir4 I12'
_cell_volume   1025.17652978
_cell_formula_units_Z   4
loop_
 _symmetry_equiv_pos_site_id
 _symmetry_equiv_pos_as_xyz
  1  'x, y, z'
loop_
 _atom_site_type_symbol
 _atom_site_label
 _atom_site_symmetry_multiplicity
 _atom_site_fract_x
 _atom_site_fract_y
 _atom_site_fract_z
 _atom_site_occupancy
  La  La0  1  0.77199763  0.52199763  0.54399526  1
  La  La1  1  0.72800237  0.77199763  0.25000000  1
  La  La2  1  0.52199763  0.97800237  0.25000000  1
  La  La3  1  0.52199763  0.54399526  0.77199763  1
  La  La4  1  0.77199763  0.25000000  0.72800237  1
  La  La5  1  0.97800237  0.72800237  0.95600474  1
  La  La6  1  0.72800237  0.95600474  0.97800237  1
  La  La7  1  0.97800237  0.25000000  0.52199763  1
  La  La8  1  0.54399526  0.77199763  0.52199763  1
  La  La9  1  0.25000000  0.52199763  0.97800237  1
  La  La10  1  0.95600474  0.97800237  0.72800237  1
  La  La11  1  0.25000000  0.72800237  0.77199763  1
  Ir  Ir12  1  0.75000000  0.75000000  0.75000000  1
  Ir  Ir13  1  0.75000000  -0.00000000  0.50000000  1
  Ir  Ir14  1  0.50000000  0.75000000  -0.00000000  1
  Ir  Ir15  1  -0.00000000  0.50000000  0.75000000  1
  I  I16  1  0.25961859  0.24038141  0.75000000  1
  I  I17  1  0.24038141  0.49038141  0.48076283  1
  I  I18  1  0.00961859  0.25961859  0.01923717  1
  I  I19  1  0.24038141  0.75000000  0.25961859  1
  I  I20  1  0.25961859  0.01923717  0.00961859  1
  I  I21  1  0.49038141  0.00961859  0.75000000  1
  I  I22  1  0.49038141  0.48076283  0.24038141  1
  I  I23  1  0.00961859  0.75000000  0.49038141  1
  I  I24  1  0.75000000  0.25961859  0.24038141  1
  I  I25  1  0.01923717  0.00961859  0.25961859  1
  I  I26  1  0.75000000  0.49038141  0.00961859  1
  I  I27  1  0.48076283  0.24038141  0.49038141  1
