# generated using pymatgen
data_Li3Yb3(TeO6)2
_symmetry_space_group_name_H-M   'P 1'
_cell_length_a   10.83058052
_cell_length_b   10.83058052
_cell_length_c   10.83058052
_cell_angle_alpha   109.47122063
_cell_angle_beta   109.47122063
_cell_angle_gamma   109.47122063
_symmetry_Int_Tables_number   1
_chemical_formula_structural   Li3Yb3(TeO6)2
_chemical_formula_sum   'Li12 Yb12 Te8 O48'
_cell_volume   977.98752696
_cell_formula_units_Z   4
loop_
 _symmetry_equiv_pos_site_id
 _symmetry_equiv_pos_as_xyz
  1  'x, y, z'
loop_
 _atom_site_type_symbol
 _atom_site_label
 _atom_site_symmetry_multiplicity
 _atom_site_fract_x
 _atom_site_fract_y
 _atom_site_fract_z
 _atom_site_occupancy
  Li  Li0  1  0.62500000  0.37500000  0.75000000  1
  Li  Li1  1  0.37500000  0.62500000  0.25000000  1
  Li  Li2  1  0.87500000  0.12500000  0.25000000  1
  Li  Li3  1  0.37500000  0.75000000  0.62500000  1
  Li  Li4  1  0.62500000  0.25000000  0.37500000  1
  Li  Li5  1  0.12500000  0.87500000  0.75000000  1
  Li  Li6  1  0.12500000  0.25000000  0.87500000  1
  Li  Li7  1  0.87500000  0.75000000  0.12500000  1
  Li  Li8  1  0.75000000  0.62500000  0.37500000  1
  Li  Li9  1  0.25000000  0.37500000  0.62500000  1
  Li  Li10  1  0.25000000  0.87500000  0.12500000  1
  Li  Li11  1  0.75000000  0.12500000  0.87500000  1
  Yb  Yb12  1  0.87500000  0.62500000  0.75000000  1
  Yb  Yb13  1  0.12500000  0.37500000  0.25000000  1
  Yb  Yb14  1  0.62500000  0.87500000  0.25000000  1
  Yb  Yb15  1  0.62500000  0.75000000  0.87500000  1
  Yb  Yb16  1  0.87500000  0.25000000  0.62500000  1
  Yb  Yb17  1  0.37500000  0.12500000  0.75000000  1
  Yb  Yb18  1  0.37500000  0.25000000  0.12500000  1
  Yb  Yb19  1  0.12500000  0.75000000  0.37500000  1
  Yb  Yb20  1  0.75000000  0.87500000  0.62500000  1
  Yb  Yb21  1  0.25000000  0.12500000  0.37500000  1
  Yb  Yb22  1  0.25000000  0.62500000  0.87500000  1
  Yb  Yb23  1  0.75000000  0.37500000  0.12500000  1
  Te  Te24  1  0.00000000  -0.00000000  0.00000000  1
  Te  Te25  1  0.50000000  0.00000000  0.50000000  1
  Te  Te26  1  0.50000000  0.50000000  0.00000000  1
  Te  Te27  1  0.00000000  -0.00000000  0.50000000  1
  Te  Te28  1  0.00000000  0.50000000  0.50000000  1
  Te  Te29  1  0.50000000  0.50000000  0.50000000  1
  Te  Te30  1  0.50000000  0.00000000  0.00000000  1
  Te  Te31  1  0.00000000  0.50000000  0.00000000  1
  O  O32  1  0.69665719  0.61607301  0.52593620  1
  O  O33  1  0.30334281  0.38392699  0.47406380  1
  O  O34  1  0.80334281  0.82927901  0.41941582  1
  O  O35  1  0.40986319  0.88392699  0.08058418  1
  O  O36  1  0.61607301  0.52593620  0.69665719  1
  O  O37  1  0.69665719  0.08058418  0.67072099  1
  O  O38  1  0.19665719  0.17072099  0.58058418  1
  O  O39  1  0.59013681  0.11607301  0.91941582  1
  O  O40  1  0.38392699  0.47406380  0.30334281  1
  O  O41  1  0.30334281  0.91941582  0.32927901  1
  O  O42  1  0.09013681  0.67072099  0.97406380  1
  O  O43  1  0.82927901  0.41941582  0.80334281  1
  O  O44  1  0.80334281  0.97406380  0.88392699  1
  O  O45  1  0.90986319  0.32927901  0.02593620  1
  O  O46  1  0.17072099  0.58058418  0.19665719  1
  O  O47  1  0.19665719  0.02593620  0.11607301  1
  O  O48  1  0.88392699  0.08058418  0.40986319  1
  O  O49  1  0.40986319  0.52593620  0.82927901  1
  O  O50  1  0.11607301  0.91941582  0.59013681  1
  O  O51  1  0.59013681  0.47406380  0.17072099  1
  O  O52  1  0.67072099  0.97406380  0.09013681  1
  O  O53  1  0.09013681  0.41941582  0.61607301  1
  O  O54  1  0.32927901  0.02593620  0.90986319  1
  O  O55  1  0.90986319  0.58058418  0.38392699  1
  O  O56  1  0.52593620  0.69665719  0.61607301  1
  O  O57  1  0.61607301  0.09013681  0.41941582  1
  O  O58  1  0.47406380  0.30334281  0.38392699  1
  O  O59  1  0.38392699  0.90986319  0.58058418  1
  O  O60  1  0.08058418  0.40986319  0.88392699  1
  O  O61  1  0.88392699  0.80334281  0.97406380  1
  O  O62  1  0.91941582  0.59013681  0.11607301  1
  O  O63  1  0.11607301  0.19665719  0.02593620  1
  O  O64  1  0.97406380  0.09013681  0.67072099  1
  O  O65  1  0.67072099  0.69665719  0.08058418  1
  O  O66  1  0.02593620  0.90986319  0.32927901  1
  O  O67  1  0.32927901  0.30334281  0.91941582  1
  O  O68  1  0.41941582  0.80334281  0.82927901  1
  O  O69  1  0.82927901  0.40986319  0.52593620  1
  O  O70  1  0.58058418  0.19665719  0.17072099  1
  O  O71  1  0.17072099  0.59013681  0.47406380  1
  O  O72  1  0.08058418  0.67072099  0.69665719  1
  O  O73  1  0.91941582  0.32927901  0.30334281  1
  O  O74  1  0.97406380  0.88392699  0.80334281  1
  O  O75  1  0.02593620  0.11607301  0.19665719  1
  O  O76  1  0.41941582  0.61607301  0.09013681  1
  O  O77  1  0.58058418  0.38392699  0.90986319  1
  O  O78  1  0.52593620  0.82927901  0.40986319  1
  O  O79  1  0.47406380  0.17072099  0.59013681  1
