# generated using pymatgen
data_LaZrF7
_symmetry_space_group_name_H-M   'P 1'
_cell_length_a   5.91656543
_cell_length_b   6.39222405
_cell_length_c   8.59893017
_cell_angle_alpha   101.91560725
_cell_angle_beta   90.00000000
_cell_angle_gamma   90.00000000
_symmetry_Int_Tables_number   1
_chemical_formula_structural   LaZrF7
_chemical_formula_sum   'La2 Zr2 F14'
_cell_volume   318.20423382
_cell_formula_units_Z   2
loop_
 _symmetry_equiv_pos_site_id
 _symmetry_equiv_pos_as_xyz
  1  'x, y, z'
loop_
 _atom_site_type_symbol
 _atom_site_label
 _atom_site_symmetry_multiplicity
 _atom_site_fract_x
 _atom_site_fract_y
 _atom_site_fract_z
 _atom_site_occupancy
  La  La0  1  0.70294625  0.65640039  0.68692659  1
  La  La1  1  0.20294625  0.34359961  0.31307341  1
  Zr  Zr2  1  0.71086953  0.81324872  0.22451328  1
  Zr  Zr3  1  0.21086953  0.18675128  0.77548672  1
  F  F4  1  0.88147762  0.44455241  0.47208629  1
  F  F5  1  0.38147762  0.55544759  0.52791371  1
  F  F6  1  0.41759112  0.92836926  0.76354307  1
  F  F7  1  0.91759112  0.07163074  0.23645693  1
  F  F8  1  0.94692523  0.97565743  0.76370877  1
  F  F9  1  0.44692523  0.02434257  0.23629123  1
  F  F10  1  0.00286031  0.44394640  0.78570589  1
  F  F11  1  0.50286031  0.55605360  0.21429411  1
  F  F12  1  0.70502957  0.75842129  0.98280144  1
  F  F13  1  0.20502957  0.24157871  0.01719856  1
  F  F14  1  0.71322565  0.85738800  0.46685414  1
  F  F15  1  0.21322565  0.14261200  0.53314586  1
  F  F16  1  0.49543472  0.37235921  0.78126549  1
  F  F17  1  0.99543472  0.62764079  0.21873451  1
