# generated using pymatgen
data_KSbCl6
_symmetry_space_group_name_H-M   'P 1'
_cell_length_a   6.63015926
_cell_length_b   6.97415614
_cell_length_c   12.44483106
_cell_angle_alpha   100.32219931
_cell_angle_beta   90.00000000
_cell_angle_gamma   118.38133844
_symmetry_Int_Tables_number   1
_chemical_formula_structural   KSbCl6
_chemical_formula_sum   'K2 Sb2 Cl12'
_cell_volume   495.66835143
_cell_formula_units_Z   2
loop_
 _symmetry_equiv_pos_site_id
 _symmetry_equiv_pos_as_xyz
  1  'x, y, z'
loop_
 _atom_site_type_symbol
 _atom_site_label
 _atom_site_symmetry_multiplicity
 _atom_site_fract_x
 _atom_site_fract_y
 _atom_site_fract_z
 _atom_site_occupancy
  K  K0  1  0.88761308  0.00000000  0.75000000  1
  K  K1  1  0.11238692  1.00000000  0.25000000  1
  Sb  Sb2  1  0.50000000  0.50000000  -0.00000000  1
  Sb  Sb3  1  -0.00000000  0.50000000  0.50000000  1
  Cl  Cl4  1  0.45633486  0.15578758  0.89209115  1
  Cl  Cl5  1  0.54366514  0.84421242  0.10790885  1
  Cl  Cl6  1  0.30054728  0.84421242  0.60790885  1
  Cl  Cl7  1  0.69945272  0.15578758  0.39209115  1
  Cl  Cl8  1  0.37374944  0.57434041  0.83795678  1
  Cl  Cl9  1  0.62625056  0.42565959  0.16204322  1
  Cl  Cl10  1  0.79940903  0.42565959  0.66204322  1
  Cl  Cl11  1  0.20059097  0.57434041  0.33795678  1
  Cl  Cl12  1  0.80270634  0.69715522  0.46037232  1
  Cl  Cl13  1  0.19729366  0.30284478  0.53962768  1
  Cl  Cl14  1  0.10555112  0.30284478  0.03962768  1
  Cl  Cl15  1  0.89444888  0.69715522  0.96037232  1
