# generated using pymatgen
data_KDy2F7
_symmetry_space_group_name_H-M   'P 1'
_cell_length_a   8.08612284
_cell_length_b   8.28673440
_cell_length_c   10.64809551
_cell_angle_alpha   78.03790718
_cell_angle_beta   67.68501771
_cell_angle_gamma   60.79763960
_symmetry_Int_Tables_number   1
_chemical_formula_structural   KDy2F7
_chemical_formula_sum   'K4 Dy8 F28'
_cell_volume   575.96138240
_cell_formula_units_Z   4
loop_
 _symmetry_equiv_pos_site_id
 _symmetry_equiv_pos_as_xyz
  1  'x, y, z'
loop_
 _atom_site_type_symbol
 _atom_site_label
 _atom_site_symmetry_multiplicity
 _atom_site_fract_x
 _atom_site_fract_y
 _atom_site_fract_z
 _atom_site_occupancy
  K  K0  1  0.14360905  0.34552876  0.36725313  1
  K  K1  1  0.65071921  0.65661672  0.04194487  1
  K  K2  1  0.11846655  0.02794328  0.73512362  1
  K  K3  1  0.62049745  0.35291100  0.40609411  1
  Dy  Dy4  1  0.62164534  0.84907806  0.38853054  1
  Dy  Dy5  1  0.14074605  0.84907806  0.38853054  1
  Dy  Dy6  1  0.12359958  0.68611392  0.06668693  1
  Dy  Dy7  1  0.64133109  0.00759692  0.70974091  1
  Dy  Dy8  1  0.64718764  0.52495775  0.70614116  1
  Dy  Dy9  1  0.12171346  0.52495775  0.70614116  1
  Dy  Dy10  1  0.64421011  0.16871769  0.06817099  1
  Dy  Dy11  1  0.11890121  0.16871769  0.06817099  1
  F  F12  1  0.76084221  0.84951692  0.15146013  1
  F  F13  1  0.23818074  0.84951692  0.15146013  1
  F  F14  1  0.75091373  0.56214495  0.47215406  1
  F  F15  1  0.21478727  0.56214495  0.47215406  1
  F  F16  1  0.37599328  0.12949221  0.11852124  1
  F  F17  1  0.98690197  0.38735871  0.63883734  1
  F  F18  1  0.27623563  0.98357926  0.46394948  1
  F  F19  1  0.38670721  0.67013444  0.88843902  1
  F  F20  1  0.05471933  0.67013444  0.88843902  1
  F  F21  1  0.78002094  0.30243933  0.13751879  1
  F  F22  1  0.37887818  0.01967024  0.88723472  1
  F  F23  1  0.71421686  0.01967024  0.88723472  1
  F  F24  1  0.52975461  0.84713097  0.62485665  1
  F  F25  1  0.99825777  0.84713097  0.62485665  1
  F  F26  1  0.70482976  0.34524635  0.88689250  1
  F  F27  1  0.06303139  0.34524635  0.88689250  1
  F  F28  1  0.38483036  0.57940862  0.65093067  1
  F  F29  1  0.98576034  0.72856152  0.29991779  1
  F  F30  1  0.38113395  0.45545399  0.12679045  1
  F  F31  1  0.03662161  0.45545399  0.12679045  1
  F  F32  1  0.38576649  0.24285190  0.64943860  1
  F  F33  1  0.72194301  0.24285190  0.64943860  1
  F  F34  1  0.76963720  0.69064629  0.77007930  1
  F  F35  1  0.48548100  0.71204790  0.31699011  1
  F  F36  1  0.77517832  0.97480549  0.47483786  1
  F  F37  1  0.54225944  0.13562751  0.30336164  1
  F  F38  1  0.01875140  0.13562751  0.30336164  1
  F  F39  1  0.99643925  0.99968857  0.00743293  1
