# generated using pymatgen
data_K3TmCl6
_symmetry_space_group_name_H-M   'P 1'
_cell_length_a   7.79989101
_cell_length_b   13.17288485
_cell_length_c   12.64290087
_cell_angle_alpha   108.60694852
_cell_angle_beta   90.00000000
_cell_angle_gamma   90.00000000
_symmetry_Int_Tables_number   1
_chemical_formula_structural   K3TmCl6
_chemical_formula_sum   'K12 Tm4 Cl24'
_cell_volume   1231.12078335
_cell_formula_units_Z   4
loop_
 _symmetry_equiv_pos_site_id
 _symmetry_equiv_pos_as_xyz
  1  'x, y, z'
loop_
 _atom_site_type_symbol
 _atom_site_label
 _atom_site_symmetry_multiplicity
 _atom_site_fract_x
 _atom_site_fract_y
 _atom_site_fract_z
 _atom_site_occupancy
  K  K0  1  0.43461304  0.68491975  0.73372540  1
  K  K1  1  0.56538696  0.31508025  0.26627460  1
  K  K2  1  0.93461304  0.31508025  0.76627460  1
  K  K3  1  0.06538696  0.68491975  0.23372540  1
  K  K4  1  0.96631597  0.90154546  0.64141660  1
  K  K5  1  0.03368403  0.09845454  0.35858340  1
  K  K6  1  0.46631597  0.09845454  0.85858340  1
  K  K7  1  0.53368403  0.90154546  0.14141660  1
  K  K8  1  0.93425429  0.67930728  0.88733613  1
  K  K9  1  0.06574571  0.32069272  0.11266387  1
  K  K10  1  0.43425429  0.32069272  0.61266387  1
  K  K11  1  0.56574571  0.67930728  0.38733613  1
  Tm  Tm12  1  -0.00000000  0.50000000  0.50000000  1
  Tm  Tm13  1  0.50000000  0.50000000  -0.00000000  1
  Tm  Tm14  1  -0.00000000  0.00000000  -0.00000000  1
  Tm  Tm15  1  0.50000000  0.00000000  0.50000000  1
  Cl  Cl16  1  0.49817387  0.88184334  0.62824934  1
  Cl  Cl17  1  0.50182613  0.11815666  0.37175066  1
  Cl  Cl18  1  0.99817387  0.11815666  0.87175066  1
  Cl  Cl19  1  0.00182613  0.88184334  0.12824934  1
  Cl  Cl20  1  0.29258729  0.65318341  0.99507324  1
  Cl  Cl21  1  0.70741271  0.34681659  0.00492676  1
  Cl  Cl22  1  0.79258729  0.34681659  0.50492676  1
  Cl  Cl23  1  0.20741271  0.65318341  0.49507324  1
  Cl  Cl24  1  0.78630797  0.65128311  0.60677962  1
  Cl  Cl25  1  0.21369203  0.34871689  0.39322038  1
  Cl  Cl26  1  0.28630797  0.34871689  0.89322038  1
  Cl  Cl27  1  0.71369203  0.65128311  0.10677962  1
  Cl  Cl28  1  0.64012776  0.50032836  0.81048859  1
  Cl  Cl29  1  0.35987224  0.49967164  0.18951141  1
  Cl  Cl30  1  0.14012776  0.49967164  0.68951141  1
  Cl  Cl31  1  0.85987224  0.50032836  0.31048859  1
  Cl  Cl32  1  0.17915134  0.86225511  0.84686277  1
  Cl  Cl33  1  0.82084866  0.13774489  0.15313723  1
  Cl  Cl34  1  0.67915134  0.13774489  0.65313723  1
  Cl  Cl35  1  0.32084866  0.86225511  0.34686277  1
  Cl  Cl36  1  0.71865122  0.89940803  0.90525453  1
  Cl  Cl37  1  0.28134878  0.10059197  0.09474547  1
  Cl  Cl38  1  0.21865122  0.10059197  0.59474547  1
  Cl  Cl39  1  0.78134878  0.89940803  0.40525453  1
