# generated using pymatgen
data_KEr(SeO4)2
_symmetry_space_group_name_H-M   'P 1'
_cell_length_a   5.69218428
_cell_length_b   27.75380589
_cell_length_c   9.06367329
_cell_angle_alpha   90.00000000
_cell_angle_beta   90.00000000
_cell_angle_gamma   90.00000000
_symmetry_Int_Tables_number   1
_chemical_formula_structural   KEr(SeO4)2
_chemical_formula_sum   'K8 Er8 Se16 O64'
_cell_volume   1431.87709057
_cell_formula_units_Z   8
loop_
 _symmetry_equiv_pos_site_id
 _symmetry_equiv_pos_as_xyz
  1  'x, y, z'
loop_
 _atom_site_type_symbol
 _atom_site_label
 _atom_site_symmetry_multiplicity
 _atom_site_fract_x
 _atom_site_fract_y
 _atom_site_fract_z
 _atom_site_occupancy
  K  K0  1  0.24482223  0.91864216  0.66014208  1
  K  K1  1  0.75517777  0.08135784  0.16014208  1
  K  K2  1  0.25517777  0.41864216  0.66014208  1
  K  K3  1  0.74482223  0.58135784  0.16014208  1
  K  K4  1  0.71309377  0.83237328  0.99899186  1
  K  K5  1  0.28690623  0.16762672  0.49899186  1
  K  K6  1  0.78690623  0.33237328  0.99899186  1
  K  K7  1  0.21309377  0.66762672  0.49899186  1
  Er  Er8  1  0.72393790  0.55278397  0.63180701  1
  Er  Er9  1  0.27606210  0.44721603  0.13180701  1
  Er  Er10  1  0.77606210  0.05278397  0.63180701  1
  Er  Er11  1  0.22393790  0.94721603  0.13180701  1
  Er  Er12  1  0.67675680  0.80103099  0.53678861  1
  Er  Er13  1  0.32324320  0.19896901  0.03678861  1
  Er  Er14  1  0.82324320  0.30103099  0.53678861  1
  Er  Er15  1  0.17675680  0.69896901  0.03678861  1
  Se  Se16  1  0.20928810  0.79252825  0.73561704  1
  Se  Se17  1  0.79071190  0.20747175  0.23561704  1
  Se  Se18  1  0.29071190  0.29252825  0.73561704  1
  Se  Se19  1  0.70928810  0.70747175  0.23561704  1
  Se  Se20  1  0.73440881  0.93342043  0.40220393  1
  Se  Se21  1  0.26559119  0.06657957  0.90220393  1
  Se  Se22  1  0.76559119  0.43342043  0.40220393  1
  Se  Se23  1  0.23440881  0.56657957  0.90220393  1
  Se  Se24  1  0.69040264  0.68278468  0.77053172  1
  Se  Se25  1  0.30959736  0.31721532  0.27053172  1
  Se  Se26  1  0.80959736  0.18278468  0.77053172  1
  Se  Se27  1  0.19040264  0.81721532  0.27053172  1
  Se  Se28  1  0.76338801  0.95603931  0.93052969  1
  Se  Se29  1  0.23661199  0.04396069  0.43052969  1
  Se  Se30  1  0.73661199  0.45603931  0.93052969  1
  Se  Se31  1  0.26338801  0.54396069  0.43052969  1
  O  O32  1  0.42162090  0.68241069  0.84425689  1
  O  O33  1  0.57837910  0.31758931  0.34425689  1
  O  O34  1  0.07837910  0.18241069  0.84425689  1
  O  O35  1  0.92162090  0.81758931  0.34425689  1
  O  O36  1  0.54014620  0.92353009  0.26786440  1
  O  O37  1  0.45985380  0.07646991  0.76786440  1
  O  O38  1  0.95985380  0.42353009  0.26786440  1
  O  O39  1  0.04014620  0.57646991  0.76786440  1
  O  O40  1  0.69062230  0.98916694  0.46613149  1
  O  O41  1  0.30937770  0.01083306  0.96613149  1
  O  O42  1  0.80937770  0.48916694  0.46613149  1
  O  O43  1  0.19062230  0.51083306  0.96613149  1
  O  O44  1  0.88713513  0.66884187  0.89976635  1
  O  O45  1  0.11286487  0.33115813  0.39976635  1
  O  O46  1  0.61286487  0.16884187  0.89976635  1
  O  O47  1  0.38713513  0.83115813  0.39976635  1
  O  O48  1  0.27107660  0.75455740  0.59939260  1
  O  O49  1  0.72892340  0.24544260  0.09939260  1
  O  O50  1  0.22892340  0.25455740  0.59939260  1
  O  O51  1  0.77107660  0.74544260  0.09939260  1
  O  O52  1  0.74750078  0.98324031  0.76757659  1
  O  O53  1  0.25249922  0.01675969  0.26757659  1
  O  O54  1  0.75249922  0.48324031  0.76757659  1
  O  O55  1  0.24750078  0.51675969  0.26757659  1
  O  O56  1  0.66981755  0.73023858  0.40377600  1
  O  O57  1  0.33018245  0.26976142  0.90377600  1
  O  O58  1  0.83018245  0.23023858  0.40377600  1
  O  O59  1  0.16981755  0.76976142  0.90377600  1
  O  O60  1  0.75379205  0.73754228  0.70470141  1
  O  O61  1  0.24620795  0.26245772  0.20470141  1
  O  O62  1  0.74620795  0.23754228  0.70470141  1
  O  O63  1  0.25379205  0.76245772  0.20470141  1
  O  O64  1  0.70350510  0.89318512  0.53786183  1
  O  O65  1  0.29649490  0.10681488  0.03786183  1
  O  O66  1  0.79649490  0.39318512  0.53786183  1
  O  O67  1  0.20350510  0.60681488  0.03786183  1
  O  O68  1  0.70384991  0.64188025  0.63576741  1
  O  O69  1  0.29615009  0.35811975  0.13576741  1
  O  O70  1  0.79615009  0.14188025  0.63576741  1
  O  O71  1  0.20384991  0.85811975  0.13576741  1
  O  O72  1  0.44699527  0.82905852  0.73882001  1
  O  O73  1  0.55300473  0.17094148  0.23882001  1
  O  O74  1  0.05300473  0.32905852  0.73882001  1
  O  O75  1  0.94699527  0.67094148  0.23882001  1
  O  O76  1  0.51610993  0.92393382  0.95399360  1
  O  O77  1  0.48389007  0.07606618  0.45399360  1
  O  O78  1  0.98389007  0.42393382  0.95399360  1
  O  O79  1  0.01610993  0.57606618  0.45399360  1
  O  O80  1  0.50740186  0.57196211  0.83509462  1
  O  O81  1  0.49259814  0.42803789  0.33509462  1
  O  O82  1  0.99259814  0.07196211  0.83509462  1
  O  O83  1  0.00740186  0.92803789  0.33509462  1
  O  O84  1  0.99181611  0.91709696  0.92990251  1
  O  O85  1  0.00818389  0.08290304  0.42990251  1
  O  O86  1  0.50818389  0.41709696  0.92990251  1
  O  O87  1  0.49181611  0.58290304  0.42990251  1
  O  O88  1  0.33234855  0.50978350  0.57624248  1
  O  O89  1  0.66765145  0.49021650  0.07624248  1
  O  O90  1  0.16765145  0.00978350  0.57624248  1
  O  O91  1  0.83234855  0.99021650  0.07624248  1
  O  O92  1  0.97553801  0.82681167  0.69353986  1
  O  O93  1  0.02446199  0.17318833  0.19353986  1
  O  O94  1  0.52446199  0.32681167  0.69353986  1
  O  O95  1  0.47553801  0.67318833  0.19353986  1
