# generated using pymatgen
data_K3Si6H6N11
_symmetry_space_group_name_H-M   'P 1'
_cell_length_a   10.90863820
_cell_length_b   10.90863820
_cell_length_c   10.90863820
_cell_angle_alpha   90.00000000
_cell_angle_beta   90.00000000
_cell_angle_gamma   90.00000000
_symmetry_Int_Tables_number   1
_chemical_formula_structural   K3Si6H6N11
_chemical_formula_sum   'K12 Si24 H24 N44'
_cell_volume   1298.11035430
_cell_formula_units_Z   4
loop_
 _symmetry_equiv_pos_site_id
 _symmetry_equiv_pos_as_xyz
  1  'x, y, z'
loop_
 _atom_site_type_symbol
 _atom_site_label
 _atom_site_symmetry_multiplicity
 _atom_site_fract_x
 _atom_site_fract_y
 _atom_site_fract_z
 _atom_site_occupancy
  K  K0  1  0.79217567  0.79217567  0.79217567  1
  K  K1  1  0.70782433  0.20782433  0.29217567  1
  K  K2  1  0.20782433  0.29217567  0.70782433  1
  K  K3  1  0.54217567  0.04217567  0.45782433  1
  K  K4  1  0.29217567  0.70782433  0.20782433  1
  K  K5  1  0.95782433  0.95782433  0.95782433  1
  K  K6  1  0.04217567  0.45782433  0.54217567  1
  K  K7  1  0.45782433  0.54217567  0.04217567  1
  K  K8  1  0.37500000  0.37500000  0.37500000  1
  K  K9  1  0.12500000  0.62500000  0.87500000  1
  K  K10  1  0.62500000  0.87500000  0.12500000  1
  K  K11  1  0.87500000  0.12500000  0.62500000  1
  Si  Si12  1  0.08902288  0.23604029  0.31506317  1
  Si  Si13  1  0.41097712  0.76395971  0.81506317  1
  Si  Si14  1  0.91097712  0.73604029  0.18493683  1
  Si  Si15  1  0.31506317  0.08902288  0.23604029  1
  Si  Si16  1  0.98604029  0.33902288  0.93493683  1
  Si  Si17  1  0.58902288  0.26395971  0.68493683  1
  Si  Si18  1  0.81506317  0.41097712  0.76395971  1
  Si  Si19  1  0.51395971  0.66097712  0.43493683  1
  Si  Si20  1  0.18493683  0.91097712  0.73604029  1
  Si  Si21  1  0.48604029  0.16097712  0.06506317  1
  Si  Si22  1  0.68493683  0.58902288  0.26395971  1
  Si  Si23  1  0.01395971  0.83902288  0.56506317  1
  Si  Si24  1  0.23604029  0.31506317  0.08902288  1
  Si  Si25  1  0.83902288  0.56506317  0.01395971  1
  Si  Si26  1  0.73604029  0.18493683  0.91097712  1
  Si  Si27  1  0.66097712  0.43493683  0.51395971  1
  Si  Si28  1  0.26395971  0.68493683  0.58902288  1
  Si  Si29  1  0.33902288  0.93493683  0.98604029  1
  Si  Si30  1  0.76395971  0.81506317  0.41097712  1
  Si  Si31  1  0.16097712  0.06506317  0.48604029  1
  Si  Si32  1  0.93493683  0.98604029  0.33902288  1
  Si  Si33  1  0.43493683  0.51395971  0.66097712  1
  Si  Si34  1  0.56506317  0.01395971  0.83902288  1
  Si  Si35  1  0.06506317  0.48604029  0.16097712  1
  H  H36  1  0.04637206  0.62890330  0.31398047  1
  H  H37  1  0.45362794  0.37109670  0.81398047  1
  H  H38  1  0.95362794  0.12890330  0.18601953  1
  H  H39  1  0.31398047  0.04637206  0.62890330  1
  H  H40  1  0.37890330  0.29637206  0.93601953  1
  H  H41  1  0.54637206  0.87109670  0.68601953  1
  H  H42  1  0.81398047  0.45362794  0.37109670  1
  H  H43  1  0.12109670  0.70362794  0.43601953  1
  H  H44  1  0.18601953  0.95362794  0.12890330  1
  H  H45  1  0.87890330  0.20362794  0.06398047  1
  H  H46  1  0.68601953  0.54637206  0.87109670  1
  H  H47  1  0.62109670  0.79637206  0.56398047  1
  H  H48  1  0.62890330  0.31398047  0.04637206  1
  H  H49  1  0.79637206  0.56398047  0.62109670  1
  H  H50  1  0.12890330  0.18601953  0.95362794  1
  H  H51  1  0.70362794  0.43601953  0.12109670  1
  H  H52  1  0.87109670  0.68601953  0.54637206  1
  H  H53  1  0.29637206  0.93601953  0.37890330  1
  H  H54  1  0.37109670  0.81398047  0.45362794  1
  H  H55  1  0.20362794  0.06398047  0.87890330  1
  H  H56  1  0.93601953  0.37890330  0.29637206  1
  H  H57  1  0.43601953  0.12109670  0.70362794  1
  H  H58  1  0.56398047  0.62109670  0.79637206  1
  H  H59  1  0.06398047  0.87890330  0.20362794  1
  N  N60  1  0.12500000  0.21530680  0.46530680  1
  N  N61  1  0.37500000  0.78469320  0.96530680  1
  N  N62  1  0.87500000  0.71530680  0.03469320  1
  N  N63  1  0.46530680  0.12500000  0.21530680  1
  N  N64  1  0.96530680  0.37500000  0.78469320  1
  N  N65  1  0.62500000  0.28469320  0.53469320  1
  N  N66  1  0.53469320  0.62500000  0.28469320  1
  N  N67  1  0.03469320  0.87500000  0.71530680  1
  N  N68  1  0.21530680  0.46530680  0.12500000  1
  N  N69  1  0.71530680  0.03469320  0.87500000  1
  N  N70  1  0.28469320  0.53469320  0.62500000  1
  N  N71  1  0.78469320  0.96530680  0.37500000  1
  N  N72  1  0.21782592  0.21782592  0.21782592  1
  N  N73  1  0.28217408  0.78217408  0.71782592  1
  N  N74  1  0.78217408  0.71782592  0.28217408  1
  N  N75  1  0.96782592  0.46782592  0.03217408  1
  N  N76  1  0.71782592  0.28217408  0.78217408  1
  N  N77  1  0.53217408  0.53217408  0.53217408  1
  N  N78  1  0.46782592  0.03217408  0.96782592  1
  N  N79  1  0.03217408  0.96782592  0.46782592  1
  N  N80  1  0.02861692  0.38153515  0.28048470  1
  N  N81  1  0.47138308  0.61846485  0.78048470  1
  N  N82  1  0.97138308  0.88153515  0.21951530  1
  N  N83  1  0.28048470  0.02861692  0.38153515  1
  N  N84  1  0.13153515  0.27861692  0.96951530  1
  N  N85  1  0.52861692  0.11846485  0.71951530  1
  N  N86  1  0.78048470  0.47138308  0.61846485  1
  N  N87  1  0.36846485  0.72138308  0.46951530  1
  N  N88  1  0.21951530  0.97138308  0.88153515  1
  N  N89  1  0.63153515  0.22138308  0.03048470  1
  N  N90  1  0.71951530  0.52861692  0.11846485  1
  N  N91  1  0.86846485  0.77861692  0.53048470  1
  N  N92  1  0.38153515  0.28048470  0.02861692  1
  N  N93  1  0.77861692  0.53048470  0.86846485  1
  N  N94  1  0.88153515  0.21951530  0.97138308  1
  N  N95  1  0.72138308  0.46951530  0.36846485  1
  N  N96  1  0.11846485  0.71951530  0.52861692  1
  N  N97  1  0.27861692  0.96951530  0.13153515  1
  N  N98  1  0.61846485  0.78048470  0.47138308  1
  N  N99  1  0.22138308  0.03048470  0.63153515  1
  N  N100  1  0.96951530  0.13153515  0.27861692  1
  N  N101  1  0.46951530  0.36846485  0.72138308  1
  N  N102  1  0.53048470  0.86846485  0.77861692  1
  N  N103  1  0.03048470  0.63153515  0.22138308  1
