# generated using pymatgen
data_K4MoO5
_symmetry_space_group_name_H-M   'P 1'
_cell_length_a   6.35817648
_cell_length_b   10.34093092
_cell_length_c   17.13259178
_cell_angle_alpha   94.29369520
_cell_angle_beta   92.55590440
_cell_angle_gamma   96.12802224
_symmetry_Int_Tables_number   1
_chemical_formula_structural   K4MoO5
_chemical_formula_sum   'K24 Mo6 O30'
_cell_volume   1115.30651073
_cell_formula_units_Z   6
loop_
 _symmetry_equiv_pos_site_id
 _symmetry_equiv_pos_as_xyz
  1  'x, y, z'
loop_
 _atom_site_type_symbol
 _atom_site_label
 _atom_site_symmetry_multiplicity
 _atom_site_fract_x
 _atom_site_fract_y
 _atom_site_fract_z
 _atom_site_occupancy
  K  K0  1  0.00937463  0.51109156  0.17924519  1
  K  K1  1  0.99062537  0.48890844  0.82075481  1
  K  K2  1  0.54153665  0.20255152  0.50441720  1
  K  K3  1  0.45846335  0.79744848  0.49558280  1
  K  K4  1  0.07555321  0.69195477  0.00399341  1
  K  K5  1  0.92444679  0.30804523  0.99600659  1
  K  K6  1  0.07624689  0.85102154  0.21856916  1
  K  K7  1  0.92375311  0.14897846  0.78143084  1
  K  K8  1  0.55353609  0.00120471  0.32005529  1
  K  K9  1  0.44646391  0.99879529  0.67994471  1
  K  K10  1  0.23059274  0.03793456  0.05792313  1
  K  K11  1  0.76940726  0.96206544  0.94207687  1
  K  K12  1  0.43316298  0.41045422  0.09452412  1
  K  K13  1  0.56683702  0.58954578  0.90547588  1
  K  K14  1  0.72151795  0.38585156  0.34625460  1
  K  K15  1  0.27848205  0.61414844  0.65374540  1
  K  K16  1  0.24579810  0.45469783  0.42853530  1
  K  K17  1  0.75420190  0.54530217  0.57146470  1
  K  K18  1  0.73309328  0.09572283  0.14723632  1
  K  K19  1  0.26690672  0.90427717  0.85276368  1
  K  K20  1  0.05797745  0.07994096  0.41627954  1
  K  K21  1  0.94202255  0.92005904  0.58372046  1
  K  K22  1  0.44953205  0.66264662  0.28956171  1
  K  K23  1  0.55046795  0.33735338  0.71043829  1
  Mo  Mo24  1  0.06338413  0.27405586  0.59205780  1
  Mo  Mo25  1  0.93661587  0.72594414  0.40794220  1
  Mo  Mo26  1  0.59998431  0.75670806  0.09658751  1
  Mo  Mo27  1  0.40001569  0.24329194  0.90341249  1
  Mo  Mo28  1  0.21787411  0.23385795  0.24919858  1
  Mo  Mo29  1  0.78212589  0.76614205  0.75080142  1
  O  O30  1  0.07050873  0.68341011  0.49920715  1
  O  O31  1  0.92949127  0.31658989  0.50079285  1
  O  O32  1  0.14009948  0.13457517  0.92410615  1
  O  O33  1  0.85990052  0.86542483  0.07589385  1
  O  O34  1  0.36069554  0.21788612  0.35089107  1
  O  O35  1  0.63930446  0.78211388  0.64910893  1
  O  O36  1  0.21496888  0.12779171  0.58227155  1
  O  O37  1  0.78503112  0.87220829  0.41772845  1
  O  O38  1  0.08562876  0.26052573  0.14628066  1
  O  O39  1  0.91437124  0.73947427  0.85371934  1
  O  O40  1  0.34372510  0.09461623  0.20560096  1
  O  O41  1  0.65627490  0.90538377  0.79439904  1
  O  O42  1  0.34032753  0.65892101  0.12415855  1
  O  O43  1  0.65967247  0.34107899  0.87584145  1
  O  O44  1  0.37319472  0.16068192  0.80238101  1
  O  O45  1  0.62680528  0.83931808  0.19761899  1
  O  O46  1  0.45824556  0.82001665  0.01152556  1
  O  O47  1  0.54175444  0.17998335  0.98847444  1
  O  O48  1  0.18367903  0.83876297  0.38061671  1
  O  O49  1  0.81632097  0.16123703  0.61938329  1
  O  O50  1  0.32450959  0.38327188  0.57313613  1
  O  O51  1  0.67549041  0.61672812  0.42686387  1
  O  O52  1  0.72709307  0.60406094  0.07314211  1
  O  O53  1  0.27290693  0.39593906  0.92685789  1
  O  O54  1  0.95208829  0.19345862  0.28790297  1
  O  O55  1  0.04791171  0.80654138  0.71209703  1
  O  O56  1  0.03777285  0.38066732  0.68345235  1
  O  O57  1  0.96222715  0.61933268  0.31654765  1
  O  O58  1  0.35189818  0.40469871  0.25261061  1
  O  O59  1  0.64810182  0.59530129  0.74738939  1
