# generated using pymatgen
data_LaAlGe2O7
_symmetry_space_group_name_H-M   'P 1'
_cell_length_a   6.63000415
_cell_length_b   7.37766887
_cell_length_c   11.61354076
_cell_angle_alpha   96.81373927
_cell_angle_beta   90.00000000
_cell_angle_gamma   90.00000000
_symmetry_Int_Tables_number   1
_chemical_formula_structural   LaAlGe2O7
_chemical_formula_sum   'La4 Al4 Ge8 O28'
_cell_volume   564.05225515
_cell_formula_units_Z   4
loop_
 _symmetry_equiv_pos_site_id
 _symmetry_equiv_pos_as_xyz
  1  'x, y, z'
loop_
 _atom_site_type_symbol
 _atom_site_label
 _atom_site_symmetry_multiplicity
 _atom_site_fract_x
 _atom_site_fract_y
 _atom_site_fract_z
 _atom_site_occupancy
  La  La0  1  0.64792951  0.73568989  0.47439366  1
  La  La1  1  0.35207049  0.26431011  0.52560634  1
  La  La2  1  0.14792951  0.76431011  0.02560634  1
  La  La3  1  0.85207049  0.23568989  0.97439366  1
  Al  Al4  1  0.60233560  0.01682475  0.73030699  1
  Al  Al5  1  0.39766440  0.98317525  0.26969301  1
  Al  Al6  1  0.10233560  0.48317525  0.76969301  1
  Al  Al7  1  0.89766440  0.51682475  0.23030699  1
  Ge  Ge8  1  0.34267943  0.24169160  0.95040138  1
  Ge  Ge9  1  0.65732057  0.75830840  0.04959862  1
  Ge  Ge10  1  0.84267943  0.25830840  0.54959862  1
  Ge  Ge11  1  0.15732057  0.74169160  0.45040138  1
  Ge  Ge12  1  0.09026485  0.91590222  0.71919484  1
  Ge  Ge13  1  0.90973515  0.08409778  0.28080516  1
  Ge  Ge14  1  0.59026485  0.58409778  0.78080516  1
  Ge  Ge15  1  0.40973515  0.41590222  0.21919484  1
  O  O16  1  0.62459411  0.77140719  0.70013059  1
  O  O17  1  0.37540589  0.22859281  0.29986941  1
  O  O18  1  0.12459411  0.72859281  0.79986941  1
  O  O19  1  0.87540589  0.27140719  0.20013059  1
  O  O20  1  0.17790495  0.06989357  0.97663874  1
  O  O21  1  0.82209505  0.93010643  0.02336126  1
  O  O22  1  0.67790495  0.43010643  0.52336126  1
  O  O23  1  0.32209505  0.56989357  0.47663874  1
  O  O24  1  0.38488870  0.44898582  0.72349391  1
  O  O25  1  0.61511130  0.55101418  0.27650609  1
  O  O26  1  0.88488870  0.05101418  0.77650609  1
  O  O27  1  0.11511130  0.94898582  0.22349391  1
  O  O28  1  0.00393455  0.82617059  0.57281964  1
  O  O29  1  0.99606545  0.17382941  0.42718036  1
  O  O30  1  0.50393455  0.67382941  0.92718036  1
  O  O31  1  0.49606545  0.32617059  0.07281964  1
  O  O32  1  0.54954064  0.16058813  0.86395836  1
  O  O33  1  0.45045936  0.83941187  0.13604164  1
  O  O34  1  0.04954064  0.33941187  0.63604164  1
  O  O35  1  0.95045936  0.66058813  0.36395836  1
  O  O36  1  0.16277868  0.40857234  0.91265603  1
  O  O37  1  0.83722132  0.59142766  0.08734397  1
  O  O38  1  0.66277868  0.09142766  0.58734397  1
  O  O39  1  0.33722132  0.90857234  0.41265603  1
  O  O40  1  0.31856229  0.02525043  0.68785550  1
  O  O41  1  0.68143771  0.97474957  0.31214450  1
  O  O42  1  0.81856229  0.47474957  0.81214450  1
  O  O43  1  0.18143771  0.52525043  0.18785550  1
