# generated using pymatgen
data_HfBr4
_symmetry_space_group_name_H-M   'P 1'
_cell_length_a   12.52459396
_cell_length_b   12.52459396
_cell_length_c   12.52459396
_cell_angle_alpha   90.00000000
_cell_angle_beta   90.00000000
_cell_angle_gamma   90.00000000
_symmetry_Int_Tables_number   1
_chemical_formula_structural   HfBr4
_chemical_formula_sum   'Hf8 Br32'
_cell_volume   1964.67611598
_cell_formula_units_Z   8
loop_
 _symmetry_equiv_pos_site_id
 _symmetry_equiv_pos_as_xyz
  1  'x, y, z'
loop_
 _atom_site_type_symbol
 _atom_site_label
 _atom_site_symmetry_multiplicity
 _atom_site_fract_x
 _atom_site_fract_y
 _atom_site_fract_z
 _atom_site_occupancy
  Hf  Hf0  1  0.12650349  0.12650349  0.12650349  1
  Hf  Hf1  1  0.87349651  0.87349651  0.87349651  1
  Hf  Hf2  1  0.37349651  0.87349651  0.62650349  1
  Hf  Hf3  1  0.87349651  0.62650349  0.37349651  1
  Hf  Hf4  1  0.62650349  0.12650349  0.37349651  1
  Hf  Hf5  1  0.12650349  0.37349651  0.62650349  1
  Hf  Hf6  1  0.62650349  0.37349651  0.87349651  1
  Hf  Hf7  1  0.37349651  0.62650349  0.12650349  1
  Br  Br8  1  0.98579690  0.51200539  0.26000032  1
  Br  Br9  1  0.01420310  0.48799461  0.73999968  1
  Br  Br10  1  0.51420310  0.48799461  0.76000032  1
  Br  Br11  1  0.01420310  0.01200539  0.23999968  1
  Br  Br12  1  0.26000032  0.98579690  0.51200539  1
  Br  Br13  1  0.48579690  0.51200539  0.23999968  1
  Br  Br14  1  0.98579690  0.98799461  0.76000032  1
  Br  Br15  1  0.73999968  0.01420310  0.48799461  1
  Br  Br16  1  0.48579690  0.98799461  0.73999968  1
  Br  Br17  1  0.76000032  0.51420310  0.48799461  1
  Br  Br18  1  0.51420310  0.01200539  0.26000032  1
  Br  Br19  1  0.23999968  0.48579690  0.51200539  1
  Br  Br20  1  0.23999968  0.01420310  0.01200539  1
  Br  Br21  1  0.76000032  0.98579690  0.98799461  1
  Br  Br22  1  0.73999968  0.48579690  0.98799461  1
  Br  Br23  1  0.26000032  0.51420310  0.01200539  1
  Br  Br24  1  0.51200539  0.26000032  0.98579690  1
  Br  Br25  1  0.48799461  0.73999968  0.01420310  1
  Br  Br26  1  0.01200539  0.23999968  0.01420310  1
  Br  Br27  1  0.98799461  0.76000032  0.98579690  1
  Br  Br28  1  0.98799461  0.73999968  0.48579690  1
  Br  Br29  1  0.01200539  0.26000032  0.51420310  1
  Br  Br30  1  0.48799461  0.76000032  0.51420310  1
  Br  Br31  1  0.51200539  0.23999968  0.48579690  1
  Br  Br32  1  0.23988252  0.23988252  0.23988252  1
  Br  Br33  1  0.76011748  0.76011748  0.76011748  1
  Br  Br34  1  0.26011748  0.76011748  0.73988252  1
  Br  Br35  1  0.76011748  0.73988252  0.26011748  1
  Br  Br36  1  0.73988252  0.23988252  0.26011748  1
  Br  Br37  1  0.23988252  0.26011748  0.73988252  1
  Br  Br38  1  0.73988252  0.26011748  0.76011748  1
  Br  Br39  1  0.26011748  0.73988252  0.23988252  1
