# generated using pymatgen
data_Lu10Ni28As19
_symmetry_space_group_name_H-M   'P 1'
_cell_length_a   3.84314007
_cell_length_b   16.01467672
_cell_length_c   16.01467672
_cell_angle_alpha   120.00000244
_cell_angle_beta   90.00000000
_cell_angle_gamma   90.00000000
_symmetry_Int_Tables_number   1
_chemical_formula_structural   Lu10Ni28As19
_chemical_formula_sum   'Lu10 Ni28 As19'
_cell_volume   853.59760303
_cell_formula_units_Z   1
loop_
 _symmetry_equiv_pos_site_id
 _symmetry_equiv_pos_as_xyz
  1  'x, y, z'
loop_
 _atom_site_type_symbol
 _atom_site_label
 _atom_site_symmetry_multiplicity
 _atom_site_fract_x
 _atom_site_fract_y
 _atom_site_fract_z
 _atom_site_occupancy
  Lu  Lu0  1  0.50000000  0.96582251  0.26827516  1
  Lu  Lu1  1  0.50000000  0.30245266  0.03417749  1
  Lu  Lu2  1  0.50000000  0.73172484  0.69754734  1
  Lu  Lu3  1  0.00000000  0.46885518  0.81218787  1
  Lu  Lu4  1  -0.00000000  0.34333268  0.53114482  1
  Lu  Lu5  1  -0.00000000  0.18781213  0.65666732  1
  Lu  Lu6  1  0.00000000  0.66666700  0.33333300  1
  Lu  Lu7  1  0.50000000  0.84734717  0.97880143  1
  Lu  Lu8  1  0.50000000  0.13145426  0.15265283  1
  Lu  Lu9  1  0.50000000  0.02119857  0.86854574  1
  Ni  Ni10  1  -0.00000000  0.57185980  0.67830299  1
  Ni  Ni11  1  0.00000000  0.10644319  0.42814020  1
  Ni  Ni12  1  0.00000000  0.32169701  0.89355681  1
  Ni  Ni13  1  0.50000000  0.84007998  0.37545162  1
  Ni  Ni14  1  0.50000000  0.53537164  0.15992002  1
  Ni  Ni15  1  0.50000000  0.62454838  0.46462836  1
  Ni  Ni16  1  0.00000000  0.68673832  0.96378166  1
  Ni  Ni17  1  -0.00000000  0.27704334  0.31326168  1
  Ni  Ni18  1  -0.00000000  0.03621834  0.72295666  1
  Ni  Ni19  1  0.50000000  0.62580155  0.82248838  1
  Ni  Ni20  1  0.50000000  0.19668682  0.37419845  1
  Ni  Ni21  1  0.50000000  0.17751162  0.80331318  1
  Ni  Ni22  1  -0.00000000  0.98542010  0.13453423  1
  Ni  Ni23  1  -0.00000000  0.14911413  0.01457990  1
  Ni  Ni24  1  0.00000000  0.86546577  0.85088587  1
  Ni  Ni25  1  0.00000000  0.79941780  0.24066288  1
  Ni  Ni26  1  0.00000000  0.44124508  0.20058220  1
  Ni  Ni27  1  -0.00000000  0.75933712  0.55875492  1
  Ni  Ni28  1  0.50000000  0.50876275  0.54198289  1
  Ni  Ni29  1  0.50000000  0.03322014  0.49123725  1
  Ni  Ni30  1  0.50000000  0.45801711  0.96677986  1
  Ni  Ni31  1  0.50000000  0.74493770  0.09973274  1
  Ni  Ni32  1  0.50000000  0.35479504  0.25506230  1
  Ni  Ni33  1  0.50000000  0.90026726  0.64520496  1
  Ni  Ni34  1  0.50000000  0.33333300  0.66666700  1
  Ni  Ni35  1  0.00000000  0.61202865  0.08080143  1
  Ni  Ni36  1  -0.00000000  0.46877278  0.38797135  1
  Ni  Ni37  1  -0.00000000  0.91919857  0.53122722  1
  As  As38  1  0.00000000  0.00000000  0.00000000  1
  As  As39  1  0.50000000  0.59636835  0.95492341  1
  As  As40  1  0.50000000  0.35855505  0.40363165  1
  As  As41  1  0.50000000  0.04507659  0.64144495  1
  As  As42  1  0.50000000  0.48020670  0.67499003  1
  As  As43  1  0.50000000  0.19478333  0.51979330  1
  As  As44  1  0.50000000  0.32500997  0.80521667  1
  As  As45  1  0.50000000  0.70079759  0.21687353  1
  As  As46  1  0.50000000  0.51607594  0.29920241  1
  As  As47  1  0.50000000  0.78312647  0.48392406  1
  As  As48  1  0.00000000  0.94380596  0.39521750  1
  As  As49  1  0.00000000  0.45141154  0.05619404  1
  As  As50  1  -0.00000000  0.60478250  0.54858846  1
  As  As51  1  0.00000000  0.83623178  0.11253593  1
  As  As52  1  -0.00000000  0.27630415  0.16376822  1
  As  As53  1  0.00000000  0.88746407  0.72369585  1
  As  As54  1  0.00000000  0.71643524  0.83162254  1
  As  As55  1  -0.00000000  0.11518730  0.28356476  1
  As  As56  1  -0.00000000  0.16837746  0.88481270  1
