# generated using pymatgen
data_HoPPd
_symmetry_space_group_name_H-M   'P 1'
_cell_length_a   4.00349061
_cell_length_b   6.89551852
_cell_length_c   7.74365100
_cell_angle_alpha   90.00000000
_cell_angle_beta   90.00000000
_cell_angle_gamma   90.00000000
_symmetry_Int_Tables_number   1
_chemical_formula_structural   HoPPd
_chemical_formula_sum   'Ho4 P4 Pd4'
_cell_volume   213.77234185
_cell_formula_units_Z   4
loop_
 _symmetry_equiv_pos_site_id
 _symmetry_equiv_pos_as_xyz
  1  'x, y, z'
loop_
 _atom_site_type_symbol
 _atom_site_label
 _atom_site_symmetry_multiplicity
 _atom_site_fract_x
 _atom_site_fract_y
 _atom_site_fract_z
 _atom_site_occupancy
  Ho  Ho0  1  0.75000000  0.97112093  0.31316477  1
  Ho  Ho1  1  0.25000000  0.02887907  0.68683523  1
  Ho  Ho2  1  0.25000000  0.52887907  0.81316477  1
  Ho  Ho3  1  0.75000000  0.47112093  0.18683523  1
  P  P4  1  0.75000000  0.74742104  0.62272864  1
  P  P5  1  0.25000000  0.25257896  0.37727136  1
  P  P6  1  0.25000000  0.75257896  0.12272864  1
  P  P7  1  0.75000000  0.24742104  0.87727136  1
  Pd  Pd8  1  0.75000000  0.85168756  0.93854712  1
  Pd  Pd9  1  0.25000000  0.14831244  0.06145288  1
  Pd  Pd10  1  0.25000000  0.64831244  0.43854712  1
  Pd  Pd11  1  0.75000000  0.35168756  0.56145288  1
