# generated using pymatgen
data_Hf5CoP3
_symmetry_space_group_name_H-M   'P 1'
_cell_length_a   3.59249383
_cell_length_b   16.98133422
_cell_length_c   10.18687761
_cell_angle_alpha   90.00000000
_cell_angle_beta   90.00000000
_cell_angle_gamma   90.00000000
_symmetry_Int_Tables_number   1
_chemical_formula_structural   Hf5CoP3
_chemical_formula_sum   'Hf20 Co4 P12'
_cell_volume   621.45391594
_cell_formula_units_Z   4
loop_
 _symmetry_equiv_pos_site_id
 _symmetry_equiv_pos_as_xyz
  1  'x, y, z'
loop_
 _atom_site_type_symbol
 _atom_site_label
 _atom_site_symmetry_multiplicity
 _atom_site_fract_x
 _atom_site_fract_y
 _atom_site_fract_z
 _atom_site_occupancy
  Hf  Hf0  1  0.75000000  0.52373831  0.87814612  1
  Hf  Hf1  1  0.25000000  0.47626169  0.12185388  1
  Hf  Hf2  1  0.25000000  0.97626169  0.37814612  1
  Hf  Hf3  1  0.75000000  0.02373831  0.62185388  1
  Hf  Hf4  1  0.75000000  0.92410940  0.93848786  1
  Hf  Hf5  1  0.25000000  0.07589060  0.06151214  1
  Hf  Hf6  1  0.25000000  0.57589060  0.43848786  1
  Hf  Hf7  1  0.75000000  0.42410940  0.56151214  1
  Hf  Hf8  1  0.75000000  0.72742449  0.51176918  1
  Hf  Hf9  1  0.25000000  0.27257551  0.48823082  1
  Hf  Hf10  1  0.25000000  0.77257551  0.01176918  1
  Hf  Hf11  1  0.75000000  0.22742449  0.98823082  1
  Hf  Hf12  1  0.75000000  0.63188914  0.18499300  1
  Hf  Hf13  1  0.25000000  0.36811086  0.81500700  1
  Hf  Hf14  1  0.25000000  0.86811086  0.68499300  1
  Hf  Hf15  1  0.75000000  0.13188914  0.31500700  1
  Hf  Hf16  1  0.75000000  0.83227237  0.24636375  1
  Hf  Hf17  1  0.25000000  0.16772763  0.75363625  1
  Hf  Hf18  1  0.25000000  0.66772763  0.74636375  1
  Hf  Hf19  1  0.75000000  0.33227237  0.25363625  1
  Co  Co20  1  0.75000000  0.58786137  0.63250136  1
  Co  Co21  1  0.25000000  0.41213863  0.36749864  1
  Co  Co22  1  0.25000000  0.91213863  0.13250136  1
  Co  Co23  1  0.75000000  0.08786137  0.86749864  1
  P  P24  1  0.75000000  0.99067129  0.18899456  1
  P  P25  1  0.25000000  0.00932871  0.81100544  1
  P  P26  1  0.25000000  0.50932871  0.68899456  1
  P  P27  1  0.75000000  0.49067129  0.31100544  1
  P  P28  1  0.75000000  0.88386045  0.49467619  1
  P  P29  1  0.25000000  0.11613955  0.50532381  1
  P  P30  1  0.25000000  0.61613955  0.99467619  1
  P  P31  1  0.75000000  0.38386045  0.00532381  1
  P  P32  1  0.75000000  0.78193957  0.81475826  1
  P  P33  1  0.25000000  0.21806043  0.18524174  1
  P  P34  1  0.25000000  0.71806043  0.31475826  1
  P  P35  1  0.75000000  0.28193957  0.68524174  1
