# generated using pymatgen
data_Ho2Sc3Si4
_symmetry_space_group_name_H-M   'P 1'
_cell_length_a   7.08744310
_cell_length_b   7.38016107
_cell_length_c   13.98965626
_cell_angle_alpha   90.00000000
_cell_angle_beta   90.00000000
_cell_angle_gamma   90.00000000
_symmetry_Int_Tables_number   1
_chemical_formula_structural   Ho2Sc3Si4
_chemical_formula_sum   'Ho8 Sc12 Si16'
_cell_volume   731.74955859
_cell_formula_units_Z   4
loop_
 _symmetry_equiv_pos_site_id
 _symmetry_equiv_pos_as_xyz
  1  'x, y, z'
loop_
 _atom_site_type_symbol
 _atom_site_label
 _atom_site_symmetry_multiplicity
 _atom_site_fract_x
 _atom_site_fract_y
 _atom_site_fract_z
 _atom_site_occupancy
  Ho  Ho0  1  0.98799809  0.82510944  0.40288132  1
  Ho  Ho1  1  0.01200191  0.17489056  0.59711868  1
  Ho  Ho2  1  0.51200191  0.32510944  0.59711868  1
  Ho  Ho3  1  0.01200191  0.17489056  0.90288132  1
  Ho  Ho4  1  0.48799809  0.67489056  0.40288132  1
  Ho  Ho5  1  0.98799809  0.82510944  0.09711868  1
  Ho  Ho6  1  0.48799809  0.67489056  0.09711868  1
  Ho  Ho7  1  0.51200191  0.32510944  0.90288132  1
  Sc  Sc8  1  0.83928526  0.49712493  0.75000000  1
  Sc  Sc9  1  0.16071474  0.50287507  0.25000000  1
  Sc  Sc10  1  0.66071474  0.99712493  0.25000000  1
  Sc  Sc11  1  0.33928526  0.00287507  0.75000000  1
  Sc  Sc12  1  0.66976083  0.82328364  0.87514470  1
  Sc  Sc13  1  0.33023917  0.17671636  0.12485530  1
  Sc  Sc14  1  0.83023917  0.32328364  0.12485530  1
  Sc  Sc15  1  0.33023917  0.17671636  0.37514470  1
  Sc  Sc16  1  0.16976083  0.67671636  0.87514470  1
  Sc  Sc17  1  0.66976083  0.82328364  0.62485530  1
  Sc  Sc18  1  0.16976083  0.67671636  0.62485530  1
  Sc  Sc19  1  0.83023917  0.32328364  0.37514470  1
  Si  Si20  1  0.96699947  0.88198432  0.75000000  1
  Si  Si21  1  0.03300053  0.11801568  0.25000000  1
  Si  Si22  1  0.53300053  0.38198432  0.25000000  1
  Si  Si23  1  0.46699947  0.61801568  0.75000000  1
  Si  Si24  1  0.71450455  0.12634854  0.75000000  1
  Si  Si25  1  0.28549545  0.87365146  0.25000000  1
  Si  Si26  1  0.78549545  0.62634854  0.25000000  1
  Si  Si27  1  0.21450455  0.37365146  0.75000000  1
  Si  Si28  1  0.84218839  0.53527293  0.96055334  1
  Si  Si29  1  0.15781161  0.46472707  0.03944666  1
  Si  Si30  1  0.65781161  0.03527293  0.03944666  1
  Si  Si31  1  0.15781161  0.46472707  0.46055334  1
  Si  Si32  1  0.34218839  0.96472707  0.96055334  1
  Si  Si33  1  0.84218839  0.53527293  0.53944666  1
  Si  Si34  1  0.34218839  0.96472707  0.53944666  1
  Si  Si35  1  0.65781161  0.03527293  0.46055334  1
