# generated using pymatgen
data_ErSbRh
_symmetry_space_group_name_H-M   'P 1'
_cell_length_a   4.50734416
_cell_length_b   7.17315910
_cell_length_c   7.89480495
_cell_angle_alpha   90.00000000
_cell_angle_beta   90.00000000
_cell_angle_gamma   90.00000000
_symmetry_Int_Tables_number   1
_chemical_formula_structural   ErSbRh
_chemical_formula_sum   'Er4 Sb4 Rh4'
_cell_volume   255.25401873
_cell_formula_units_Z   4
loop_
 _symmetry_equiv_pos_site_id
 _symmetry_equiv_pos_as_xyz
  1  'x, y, z'
loop_
 _atom_site_type_symbol
 _atom_site_label
 _atom_site_symmetry_multiplicity
 _atom_site_fract_x
 _atom_site_fract_y
 _atom_site_fract_z
 _atom_site_occupancy
  Er  Er0  1  0.75000000  0.98748268  0.30622254  1
  Er  Er1  1  0.25000000  0.01251732  0.69377746  1
  Er  Er2  1  0.25000000  0.51251732  0.80622254  1
  Er  Er3  1  0.75000000  0.48748268  0.19377746  1
  Sb  Sb4  1  0.75000000  0.81713076  0.91064268  1
  Sb  Sb5  1  0.25000000  0.18286924  0.08935732  1
  Sb  Sb6  1  0.25000000  0.68286924  0.41064268  1
  Sb  Sb7  1  0.75000000  0.31713076  0.58935732  1
  Rh  Rh8  1  0.75000000  0.70446519  0.58837076  1
  Rh  Rh9  1  0.25000000  0.29553481  0.41162924  1
  Rh  Rh10  1  0.25000000  0.79553481  0.08837076  1
  Rh  Rh11  1  0.75000000  0.20446519  0.91162924  1
