# generated using pymatgen
data_Er4(Al8Pd3)3
_symmetry_space_group_name_H-M   'P 1'
_cell_length_a   7.47048957
_cell_length_b   7.54982968
_cell_length_c   13.22816961
_cell_angle_alpha   84.60195968
_cell_angle_beta   79.37364677
_cell_angle_gamma   60.02276714
_symmetry_Int_Tables_number   1
_chemical_formula_structural   Er4(Al8Pd3)3
_chemical_formula_sum   'Er4 Al24 Pd9'
_cell_volume   635.18845170
_cell_formula_units_Z   1
loop_
 _symmetry_equiv_pos_site_id
 _symmetry_equiv_pos_as_xyz
  1  'x, y, z'
loop_
 _atom_site_type_symbol
 _atom_site_label
 _atom_site_symmetry_multiplicity
 _atom_site_fract_x
 _atom_site_fract_y
 _atom_site_fract_z
 _atom_site_occupancy
  Er  Er0  1  0.39313093  0.16896618  0.80864420  1
  Er  Er1  1  0.60686907  0.83103382  0.19135580  1
  Er  Er2  1  0.73406843  0.49805712  0.80824503  1
  Er  Er3  1  0.26593157  0.50194288  0.19175497  1
  Al  Al4  1  0.68475414  0.83379294  0.94471860  1
  Al  Al5  1  0.31524586  0.16620706  0.05528140  1
  Al  Al6  1  0.14625757  0.83311745  0.56068956  1
  Al  Al7  1  0.85374243  0.16688255  0.43931044  1
  Al  Al8  1  0.47919446  0.16678089  0.55853401  1
  Al  Al9  1  0.52080554  0.83321911  0.44146599  1
  Al  Al10  1  0.21626684  0.16554135  0.32926979  1
  Al  Al11  1  0.78373316  0.83445865  0.67073021  1
  Al  Al12  1  0.43738279  0.50579126  0.67071839  1
  Al  Al13  1  0.56261721  0.49420874  0.32928161  1
  Al  Al14  1  0.10917342  0.15971178  0.66983745  1
  Al  Al15  1  0.89082658  0.84028822  0.33016255  1
  Al  Al16  1  0.35365345  0.49908656  0.94491067  1
  Al  Al17  1  0.64634655  0.50091344  0.05508933  1
  Al  Al18  1  0.01527452  0.16777481  0.95317816  1
  Al  Al19  1  0.98472548  0.83222519  0.04682184  1
  Al  Al20  1  0.18692709  0.49921320  0.44101562  1
  Al  Al21  1  0.81307291  0.50078680  0.55898438  1
  Al  Al22  1  0.73366956  0.16352567  0.18298470  1
  Al  Al23  1  0.26633044  0.83647433  0.81701530  1
  Al  Al24  1  0.06158501  0.63124817  0.81549118  1
  Al  Al25  1  0.93841499  0.36875183  0.18450882  1
  Al  Al26  1  0.85439601  0.04188160  0.81615448  1
  Al  Al27  1  0.14560399  0.95811840  0.18384552  1
  Pd  Pd28  1  0.12010199  0.49254926  0.63862083  1
  Pd  Pd29  1  0.87989801  0.50745074  0.36137917  1
  Pd  Pd30  1  0.65755877  0.17096530  0.99967181  1
  Pd  Pd31  1  0.34244123  0.82903470  0.00032819  1
  Pd  Pd32  1  0.53853292  0.16684064  0.36113022  1
  Pd  Pd33  1  0.46146708  0.83315936  0.63886978  1
  Pd  Pd34  1  0.77888721  0.17428246  0.63745290  1
  Pd  Pd35  1  0.22111279  0.82571754  0.36254710  1
  Pd  Pd36  1  0.00000000  0.50000000  0.00000000  1
