# generated using pymatgen
data_EuAl12O19
_symmetry_space_group_name_H-M   'P 1'
_cell_length_a   5.62801257
_cell_length_b   5.62801257
_cell_length_c   22.19220634
_cell_angle_alpha   90.00000000
_cell_angle_beta   90.00000000
_cell_angle_gamma   120.00000859
_symmetry_Int_Tables_number   1
_chemical_formula_structural   EuAl12O19
_chemical_formula_sum   'Eu2 Al24 O38'
_cell_volume   608.75311072
_cell_formula_units_Z   2
loop_
 _symmetry_equiv_pos_site_id
 _symmetry_equiv_pos_as_xyz
  1  'x, y, z'
loop_
 _atom_site_type_symbol
 _atom_site_label
 _atom_site_symmetry_multiplicity
 _atom_site_fract_x
 _atom_site_fract_y
 _atom_site_fract_z
 _atom_site_occupancy
  Eu  Eu0  1  0.66666700  0.33333300  0.99070825  1
  Eu  Eu1  1  0.33333300  0.66666700  0.49070825  1
  Al  Al2  1  0.66666700  0.33333300  0.55224635  1
  Al  Al3  1  0.33333300  0.66666700  0.05224635  1
  Al  Al4  1  0.66666700  0.33333300  0.27090859  1
  Al  Al5  1  0.33333300  0.66666700  0.77090859  1
  Al  Al6  1  -0.00000000  -0.00000000  0.74264948  1
  Al  Al7  1  -0.00000000  -0.00000000  0.24264948  1
  Al  Al8  1  -0.00000000  -0.00000000  0.99993406  1
  Al  Al9  1  -0.00000000  -0.00000000  0.49993406  1
  Al  Al10  1  0.83237251  0.66474503  0.85135124  1
  Al  Al11  1  0.83237251  0.16762749  0.85135124  1
  Al  Al12  1  0.16762749  0.33525497  0.35135124  1
  Al  Al13  1  0.33525497  0.16762749  0.85135124  1
  Al  Al14  1  0.16762749  0.83237251  0.35135124  1
  Al  Al15  1  0.66474503  0.83237251  0.35135124  1
  Al  Al16  1  0.66666700  0.33333300  0.71423834  1
  Al  Al17  1  0.33333300  0.66666700  0.21423834  1
  Al  Al18  1  0.16896484  0.33792969  0.63414700  1
  Al  Al19  1  0.16896484  0.83103516  0.63414700  1
  Al  Al20  1  0.83103516  0.66207031  0.13414700  1
  Al  Al21  1  0.66207031  0.83103516  0.63414700  1
  Al  Al22  1  0.83103516  0.16896484  0.13414700  1
  Al  Al23  1  0.33792969  0.16896484  0.13414700  1
  Al  Al24  1  0.66666700  0.33333300  0.43304565  1
  Al  Al25  1  0.33333300  0.66666700  0.93304565  1
  O  O26  1  0.15522030  0.31044061  0.79391333  1
  O  O27  1  0.15522030  0.84477970  0.79391333  1
  O  O28  1  0.84477970  0.68955939  0.29391333  1
  O  O29  1  0.68955939  0.84477970  0.79391333  1
  O  O30  1  0.84477970  0.15522030  0.29391333  1
  O  O31  1  0.31044061  0.15522030  0.29391333  1
  O  O32  1  -0.00000000  -0.00000000  0.59269441  1
  O  O33  1  -0.00000000  -0.00000000  0.09269441  1
  O  O34  1  0.18152220  0.36304439  0.99331551  1
  O  O35  1  0.18152220  0.81847780  0.99331551  1
  O  O36  1  0.81847780  0.63695561  0.49331551  1
  O  O37  1  0.63695561  0.81847780  0.99331551  1
  O  O38  1  0.81847780  0.18152220  0.49331551  1
  O  O39  1  0.36304439  0.18152220  0.49331551  1
  O  O40  1  0.50228930  0.00457860  0.89058413  1
  O  O41  1  0.50228930  0.49771070  0.89058413  1
  O  O42  1  0.49771070  0.99542140  0.39058413  1
  O  O43  1  0.99542140  0.49771070  0.89058413  1
  O  O44  1  0.49771070  0.50228930  0.39058413  1
  O  O45  1  0.00457860  0.50228930  0.39058413  1
  O  O46  1  -0.00000000  -0.00000000  0.89024844  1
  O  O47  1  -0.00000000  -0.00000000  0.39024844  1
  O  O48  1  0.84539468  0.69078936  0.69032797  1
  O  O49  1  0.84539468  0.15460532  0.69032797  1
  O  O50  1  0.15460532  0.30921064  0.19032797  1
  O  O51  1  0.30921064  0.15460532  0.69032797  1
  O  O52  1  0.15460532  0.84539468  0.19032797  1
  O  O53  1  0.69078936  0.84539468  0.19032797  1
  O  O54  1  0.66666700  0.33333300  0.79657696  1
  O  O55  1  0.33333300  0.66666700  0.29657696  1
  O  O56  1  0.66666700  0.33333300  0.18834711  1
  O  O57  1  0.33333300  0.66666700  0.68834711  1
  O  O58  1  0.49749231  0.99498463  0.59472827  1
  O  O59  1  0.49749231  0.50250769  0.59472827  1
  O  O60  1  0.50250769  0.00501537  0.09472827  1
  O  O61  1  0.00501537  0.50250769  0.59472827  1
  O  O62  1  0.50250769  0.49749231  0.09472827  1
  O  O63  1  0.99498463  0.49749231  0.09472827  1
