# generated using pymatgen
data_Er2(Ga3Ir)3
_symmetry_space_group_name_H-M   'P 1'
_cell_length_a   7.58082223
_cell_length_b   7.58082223
_cell_length_c   9.48123331
_cell_angle_alpha   90.00000000
_cell_angle_beta   90.00000000
_cell_angle_gamma   120.03144560
_symmetry_Int_Tables_number   1
_chemical_formula_structural   Er2(Ga3Ir)3
_chemical_formula_sum   'Er4 Ga18 Ir6'
_cell_volume   471.72662568
_cell_formula_units_Z   2
loop_
 _symmetry_equiv_pos_site_id
 _symmetry_equiv_pos_as_xyz
  1  'x, y, z'
loop_
 _atom_site_type_symbol
 _atom_site_label
 _atom_site_symmetry_multiplicity
 _atom_site_fract_x
 _atom_site_fract_y
 _atom_site_fract_z
 _atom_site_occupancy
  Er  Er0  1  0.66766059  0.99699014  0.25000000  1
  Er  Er1  1  0.33233941  0.00300986  0.75000000  1
  Er  Er2  1  0.99699014  0.66766059  0.25000000  1
  Er  Er3  1  0.00300986  0.33233941  0.75000000  1
  Ga  Ga4  1  0.12647127  0.12647127  0.25000000  1
  Ga  Ga5  1  0.87352873  0.87352873  0.75000000  1
  Ga  Ga6  1  0.33367203  0.99890914  0.08002238  1
  Ga  Ga7  1  0.66632797  0.00109086  0.91997762  1
  Ga  Ga8  1  0.66632797  0.00109086  0.58002238  1
  Ga  Ga9  1  0.99890914  0.33367203  0.41997762  1
  Ga  Ga10  1  0.33367203  0.99890914  0.41997762  1
  Ga  Ga11  1  0.00109086  0.66632797  0.58002238  1
  Ga  Ga12  1  0.00109086  0.66632797  0.91997762  1
  Ga  Ga13  1  0.99890914  0.33367203  0.08002238  1
  Ga  Ga14  1  0.33284278  0.33284278  0.56442426  1
  Ga  Ga15  1  0.66715722  0.66715722  0.43557574  1
  Ga  Ga16  1  0.66715722  0.66715722  0.06442426  1
  Ga  Ga17  1  0.33284278  0.33284278  0.93557574  1
  Ga  Ga18  1  0.54633063  0.33851430  0.25000000  1
  Ga  Ga19  1  0.45366937  0.66148570  0.75000000  1
  Ga  Ga20  1  0.33851430  0.54633063  0.25000000  1
  Ga  Ga21  1  0.66148570  0.45366937  0.75000000  1
  Ir  Ir22  1  0.32821291  0.67178709  0.00000000  1
  Ir  Ir23  1  0.67178709  0.32821291  0.00000000  1
  Ir  Ir24  1  0.67178709  0.32821291  0.50000000  1
  Ir  Ir25  1  0.32821291  0.67178709  0.50000000  1
  Ir  Ir26  1  -0.00000000  0.00000000  0.00000000  1
  Ir  Ir27  1  -0.00000000  0.00000000  0.50000000  1
