# generated using pymatgen
data_DySbIr
_symmetry_space_group_name_H-M   'P 1'
_cell_length_a   4.50191238
_cell_length_b   7.17284368
_cell_length_c   7.96346222
_cell_angle_alpha   90.00000000
_cell_angle_beta   90.00000000
_cell_angle_gamma   90.00000000
_symmetry_Int_Tables_number   1
_chemical_formula_structural   DySbIr
_chemical_formula_sum   'Dy4 Sb4 Ir4'
_cell_volume   257.15224988
_cell_formula_units_Z   4
loop_
 _symmetry_equiv_pos_site_id
 _symmetry_equiv_pos_as_xyz
  1  'x, y, z'
loop_
 _atom_site_type_symbol
 _atom_site_label
 _atom_site_symmetry_multiplicity
 _atom_site_fract_x
 _atom_site_fract_y
 _atom_site_fract_z
 _atom_site_occupancy
  Dy  Dy0  1  0.75000000  0.98580107  0.31108032  1
  Dy  Dy1  1  0.25000000  0.01419893  0.68891968  1
  Dy  Dy2  1  0.25000000  0.51419893  0.81108032  1
  Dy  Dy3  1  0.75000000  0.48580107  0.18891968  1
  Sb  Sb4  1  0.75000000  0.82551643  0.91374959  1
  Sb  Sb5  1  0.25000000  0.17448357  0.08625041  1
  Sb  Sb6  1  0.25000000  0.67448357  0.41374959  1
  Sb  Sb7  1  0.75000000  0.32551643  0.58625041  1
  Ir  Ir8  1  0.75000000  0.71190739  0.59218797  1
  Ir  Ir9  1  0.25000000  0.28809261  0.40781203  1
  Ir  Ir10  1  0.25000000  0.78809261  0.09218797  1
  Ir  Ir11  1  0.75000000  0.21190739  0.90781203  1
