# generated using pymatgen
data_BaY2Br8
_symmetry_space_group_name_H-M   'P 1'
_cell_length_a   10.37257473
_cell_length_b   10.37257473
_cell_length_c   11.10699800
_cell_angle_alpha   65.79951423
_cell_angle_beta   114.20048577
_cell_angle_gamma   111.22148644
_symmetry_Int_Tables_number   1
_chemical_formula_structural   BaY2Br8
_chemical_formula_sum   'Ba2 Y4 Br16'
_cell_volume   966.80498243
_cell_formula_units_Z   2
loop_
 _symmetry_equiv_pos_site_id
 _symmetry_equiv_pos_as_xyz
  1  'x, y, z'
loop_
 _atom_site_type_symbol
 _atom_site_label
 _atom_site_symmetry_multiplicity
 _atom_site_fract_x
 _atom_site_fract_y
 _atom_site_fract_z
 _atom_site_occupancy
  Ba  Ba0  1  0.02803444  0.02803444  0.75000000  1
  Ba  Ba1  1  0.97196556  0.97196556  0.25000000  1
  Y  Y2  1  0.50806692  0.93958356  0.72961555  1
  Y  Y3  1  0.06041644  0.49193308  0.22961555  1
  Y  Y4  1  0.93958356  0.50806692  0.77038445  1
  Y  Y5  1  0.49193308  0.06041644  0.27038445  1
  Br  Br6  1  0.40220856  0.66318605  0.82896244  1
  Br  Br7  1  0.78836501  0.97899023  0.91502686  1
  Br  Br8  1  0.06305300  0.36770869  0.70461459  1
  Br  Br9  1  0.67606487  0.97985369  0.55563729  1
  Br  Br10  1  0.33681395  0.59779144  0.32896244  1
  Br  Br11  1  0.02100977  0.21163499  0.41502686  1
  Br  Br12  1  0.63229131  0.93694700  0.20461459  1
  Br  Br13  1  0.02014631  0.32393513  0.05563729  1
  Br  Br14  1  0.97985369  0.67606487  0.94436271  1
  Br  Br15  1  0.36770869  0.06305300  0.79538541  1
  Br  Br16  1  0.97899023  0.78836501  0.58497314  1
  Br  Br17  1  0.66318605  0.40220856  0.67103756  1
  Br  Br18  1  0.32393513  0.02014631  0.44436271  1
  Br  Br19  1  0.93694700  0.63229131  0.29538541  1
  Br  Br20  1  0.21163499  0.02100977  0.08497314  1
  Br  Br21  1  0.59779144  0.33681395  0.17103756  1
