# generated using pymatgen
data_H12PbN3Cl5
_symmetry_space_group_name_H-M   'P 1'
_cell_length_a   8.39071019
_cell_length_b   8.72008717
_cell_length_c   15.99424976
_cell_angle_alpha   90.00000000
_cell_angle_beta   90.00000000
_cell_angle_gamma   90.00000000
_symmetry_Int_Tables_number   1
_chemical_formula_structural   H12PbN3Cl5
_chemical_formula_sum   'H48 Pb4 N12 Cl20'
_cell_volume   1170.26285643
_cell_formula_units_Z   4
loop_
 _symmetry_equiv_pos_site_id
 _symmetry_equiv_pos_as_xyz
  1  'x, y, z'
loop_
 _atom_site_type_symbol
 _atom_site_label
 _atom_site_symmetry_multiplicity
 _atom_site_fract_x
 _atom_site_fract_y
 _atom_site_fract_z
 _atom_site_occupancy
  H  H0  1  0.50407846  0.74774420  0.75000000  1
  H  H1  1  0.49592154  0.25225580  0.25000000  1
  H  H2  1  -0.00407846  0.24774420  0.25000000  1
  H  H3  1  0.00407846  0.75225580  0.75000000  1
  H  H4  1  0.78519795  0.85270457  0.94904181  1
  H  H5  1  0.21480205  0.14729543  0.05095819  1
  H  H6  1  0.71480205  0.35270457  0.05095819  1
  H  H7  1  0.21480205  0.14729543  0.44904181  1
  H  H8  1  0.28519795  0.64729543  0.94904181  1
  H  H9  1  0.78519795  0.85270457  0.55095819  1
  H  H10  1  0.28519795  0.64729543  0.55095819  1
  H  H11  1  0.71480205  0.35270457  0.44904181  1
  H  H12  1  0.68061035  0.53309464  0.41599813  1
  H  H13  1  0.31938965  0.46690536  0.58400187  1
  H  H14  1  0.81938965  0.03309464  0.58400187  1
  H  H15  1  0.31938965  0.46690536  0.91599813  1
  H  H16  1  0.18061035  0.96690536  0.41599813  1
  H  H17  1  0.68061035  0.53309464  0.08400187  1
  H  H18  1  0.18061035  0.96690536  0.08400187  1
  H  H19  1  0.81938965  0.03309464  0.91599813  1
  H  H20  1  0.98320891  0.94386344  0.75000000  1
  H  H21  1  0.01679109  0.05613656  0.25000000  1
  H  H22  1  0.51679109  0.44386344  0.25000000  1
  H  H23  1  0.48320891  0.55613656  0.75000000  1
  H  H24  1  0.76730553  0.50483563  0.98873145  1
  H  H25  1  0.23269447  0.49516437  0.01126855  1
  H  H26  1  0.73269447  0.00483563  0.01126855  1
  H  H27  1  0.23269447  0.49516437  0.48873145  1
  H  H28  1  0.26730553  0.99516437  0.98873145  1
  H  H29  1  0.76730553  0.50483563  0.51126855  1
  H  H30  1  0.26730553  0.99516437  0.51126855  1
  H  H31  1  0.73269447  0.00483563  0.48873145  1
  H  H32  1  0.63029517  0.96427018  0.92296800  1
  H  H33  1  0.36970483  0.03572982  0.07703200  1
  H  H34  1  0.86970483  0.46427018  0.07703200  1
  H  H35  1  0.36970483  0.03572982  0.42296800  1
  H  H36  1  0.13029517  0.53572982  0.92296800  1
  H  H37  1  0.63029517  0.96427018  0.57703200  1
  H  H38  1  0.13029517  0.53572982  0.57703200  1
  H  H39  1  0.86970483  0.46427018  0.42296800  1
  H  H40  1  0.63670021  0.63825009  0.80264572  1
  H  H41  1  0.36329979  0.36174991  0.19735428  1
  H  H42  1  0.86329979  0.13825009  0.19735428  1
  H  H43  1  0.36329979  0.36174991  0.30264572  1
  H  H44  1  0.13670021  0.86174991  0.80264572  1
  H  H45  1  0.63670021  0.63825009  0.69735428  1
  H  H46  1  0.13670021  0.86174991  0.69735428  1
  H  H47  1  0.86329979  0.13825009  0.30264572  1
  Pb  Pb48  1  0.91760679  0.34317340  0.75000000  1
  Pb  Pb49  1  0.08239321  0.65682660  0.25000000  1
  Pb  Pb50  1  0.58239321  0.84317340  0.25000000  1
  Pb  Pb51  1  0.41760679  0.15682660  0.75000000  1
  N  N52  1  0.74207056  0.96377868  0.95024949  1
  N  N53  1  0.25792944  0.03622132  0.04975051  1
  N  N54  1  0.75792944  0.46377868  0.04975051  1
  N  N55  1  0.25792944  0.03622132  0.45024949  1
  N  N56  1  0.24207056  0.53622132  0.95024949  1
  N  N57  1  0.74207056  0.96377868  0.54975051  1
  N  N58  1  0.24207056  0.53622132  0.54975051  1
  N  N59  1  0.75792944  0.46377868  0.45024949  1
  N  N60  1  0.56484497  0.64507655  0.75000000  1
  N  N61  1  0.43515503  0.35492345  0.25000000  1
  N  N62  1  0.93515503  0.14507655  0.25000000  1
  N  N63  1  0.06484497  0.85492345  0.75000000  1
  Cl  Cl64  1  0.95845522  0.82860060  0.38016822  1
  Cl  Cl65  1  0.04154478  0.17139940  0.61983178  1
  Cl  Cl66  1  0.54154478  0.32860060  0.61983178  1
  Cl  Cl67  1  0.04154478  0.17139940  0.88016822  1
  Cl  Cl68  1  0.45845522  0.67139940  0.38016822  1
  Cl  Cl69  1  0.95845522  0.82860060  0.11983178  1
  Cl  Cl70  1  0.45845522  0.67139940  0.11983178  1
  Cl  Cl71  1  0.54154478  0.32860060  0.88016822  1
  Cl  Cl72  1  0.71832065  0.02410598  0.75000000  1
  Cl  Cl73  1  0.28167935  0.97589402  0.25000000  1
  Cl  Cl74  1  0.78167935  0.52410598  0.25000000  1
  Cl  Cl75  1  0.21832065  0.47589402  0.75000000  1
  Cl  Cl76  1  0.87071149  0.62469102  0.88021095  1
  Cl  Cl77  1  0.12928851  0.37530898  0.11978905  1
  Cl  Cl78  1  0.62928851  0.12469102  0.11978905  1
  Cl  Cl79  1  0.12928851  0.37530898  0.38021095  1
  Cl  Cl80  1  0.37071149  0.87530898  0.88021095  1
  Cl  Cl81  1  0.87071149  0.62469102  0.61978905  1
  Cl  Cl82  1  0.37071149  0.87530898  0.61978905  1
  Cl  Cl83  1  0.62928851  0.12469102  0.38021095  1
