# generated using pymatgen
data_Er(Al5Fe)2
_symmetry_space_group_name_H-M   'P 1'
_cell_length_a   6.73465070
_cell_length_b   6.73465070
_cell_length_c   8.92750616
_cell_angle_alpha   90.00000000
_cell_angle_beta   90.00000000
_cell_angle_gamma   97.26550252
_symmetry_Int_Tables_number   1
_chemical_formula_structural   Er(Al5Fe)2
_chemical_formula_sum   'Er2 Al20 Fe4'
_cell_volume   401.66055478
_cell_formula_units_Z   2
loop_
 _symmetry_equiv_pos_site_id
 _symmetry_equiv_pos_as_xyz
  1  'x, y, z'
loop_
 _atom_site_type_symbol
 _atom_site_label
 _atom_site_symmetry_multiplicity
 _atom_site_fract_x
 _atom_site_fract_y
 _atom_site_fract_z
 _atom_site_occupancy
  Er  Er0  1  0.87382251  0.12617749  0.75000000  1
  Er  Er1  1  0.12617749  0.87382251  0.25000000  1
  Al  Al2  1  0.62574568  0.37425432  0.95167104  1
  Al  Al3  1  0.37425432  0.62574568  0.04832896  1
  Al  Al4  1  0.37425432  0.62574568  0.45167104  1
  Al  Al5  1  0.62574568  0.37425432  0.54832896  1
  Al  Al6  1  0.77231798  0.77231798  -0.00000000  1
  Al  Al7  1  0.22768202  0.22768202  -0.00000000  1
  Al  Al8  1  0.22768202  0.22768202  0.50000000  1
  Al  Al9  1  0.77231798  0.77231798  0.50000000  1
  Al  Al10  1  0.84254427  0.15745573  0.40302806  1
  Al  Al11  1  0.15745573  0.84254427  0.59697194  1
  Al  Al12  1  0.15745573  0.84254427  0.90302806  1
  Al  Al13  1  0.84254427  0.15745573  0.09697194  1
  Al  Al14  1  0.41599313  0.13467832  0.75000000  1
  Al  Al15  1  0.58400687  0.86532168  0.25000000  1
  Al  Al16  1  0.86532168  0.58400687  0.75000000  1
  Al  Al17  1  0.13467832  0.41599313  0.25000000  1
  Al  Al18  1  0.52167817  0.77937193  0.75000000  1
  Al  Al19  1  0.47832183  0.22062807  0.25000000  1
  Al  Al20  1  0.22062807  0.47832183  0.75000000  1
  Al  Al21  1  0.77937193  0.52167817  0.25000000  1
  Fe  Fe22  1  0.50000000  -0.00000000  -0.00000000  1
  Fe  Fe23  1  0.50000000  -0.00000000  0.50000000  1
  Fe  Fe24  1  0.00000000  0.50000000  0.50000000  1
  Fe  Fe25  1  0.00000000  0.50000000  -0.00000000  1
