# generated using pymatgen
data_Gd2MgPtO6
_symmetry_space_group_name_H-M   'P 1'
_cell_length_a   5.43008119
_cell_length_b   5.73985839
_cell_length_c   7.79580877
_cell_angle_alpha   90.00000000
_cell_angle_beta   90.34669813
_cell_angle_gamma   90.00000000
_symmetry_Int_Tables_number   1
_chemical_formula_structural   Gd2MgPtO6
_chemical_formula_sum   'Gd4 Mg2 Pt2 O12'
_cell_volume   242.97451712
_cell_formula_units_Z   2
loop_
 _symmetry_equiv_pos_site_id
 _symmetry_equiv_pos_as_xyz
  1  'x, y, z'
loop_
 _atom_site_type_symbol
 _atom_site_label
 _atom_site_symmetry_multiplicity
 _atom_site_fract_x
 _atom_site_fract_y
 _atom_site_fract_z
 _atom_site_occupancy
  Gd  Gd0  1  0.02048485  0.43182092  0.25157812  1
  Gd  Gd1  1  0.97951515  0.56817908  0.74842188  1
  Gd  Gd2  1  0.47951515  0.93182092  0.24842188  1
  Gd  Gd3  1  0.52048485  0.06817908  0.75157812  1
  Mg  Mg4  1  0.00000000  0.00000000  0.50000000  1
  Mg  Mg5  1  0.50000000  0.50000000  -0.00000000  1
  Pt  Pt6  1  0.00000000  0.00000000  -0.00000000  1
  Pt  Pt7  1  0.50000000  0.50000000  0.50000000  1
  O  O8  1  0.88488154  0.04369355  0.24728649  1
  O  O9  1  0.11511846  0.95630645  0.75271351  1
  O  O10  1  0.61511846  0.54369355  0.25271351  1
  O  O11  1  0.38488154  0.45630645  0.74728649  1
  O  O12  1  0.18928687  0.70103205  0.06137139  1
  O  O13  1  0.81071313  0.29896795  0.93862861  1
  O  O14  1  0.31071313  0.20103205  0.43862861  1
  O  O15  1  0.68928687  0.79896795  0.56137139  1
  O  O16  1  0.30674237  0.19567144  0.05564828  1
  O  O17  1  0.69325763  0.80432856  0.94435172  1
  O  O18  1  0.19325763  0.69567144  0.44435172  1
  O  O19  1  0.80674237  0.30432856  0.55564828  1
