# generated using pymatgen
data_Li4Ti3Sn5O16
_symmetry_space_group_name_H-M   'P 1'
_cell_length_a   6.23240773
_cell_length_b   6.20268470
_cell_length_c   10.69937785
_cell_angle_alpha   89.99504744
_cell_angle_beta   90.10290281
_cell_angle_gamma   119.83999158
_symmetry_Int_Tables_number   1
_chemical_formula_structural   Li4Ti3Sn5O16
_chemical_formula_sum   'Li4 Ti3 Sn5 O16'
_cell_volume   358.77470023
_cell_formula_units_Z   1
loop_
 _symmetry_equiv_pos_site_id
 _symmetry_equiv_pos_as_xyz
  1  'x, y, z'
loop_
 _atom_site_type_symbol
 _atom_site_label
 _atom_site_symmetry_multiplicity
 _atom_site_fract_x
 _atom_site_fract_y
 _atom_site_fract_z
 _atom_site_occupancy
  Li  Li0  1  0.33636961  0.66824197  0.86772730  1
  Li  Li1  1  0.97996892  0.99001571  0.99620295  1
  Li  Li2  1  0.98816008  0.99400539  0.50090921  1
  Li  Li3  1  0.67112768  0.33554321  0.39021430  1
  Ti  Ti4  1  0.65187932  0.82587247  0.22180880  1
  Ti  Ti5  1  0.82904421  0.17042113  0.71576978  1
  Ti  Ti6  1  0.82905857  0.65926731  0.71604118  1
  Sn  Sn7  1  0.33970848  0.66991734  0.51060665  1
  Sn  Sn8  1  0.67558382  0.33775639  0.00831223  1
  Sn  Sn9  1  0.16416932  0.83199731  0.22016611  1
  Sn  Sn10  1  0.16408452  0.33216425  0.22015542  1
  Sn  Sn11  1  0.33238398  0.16612599  0.71665164  1
  O  O12  1  0.14109673  0.84479561  0.60961963  1
  O  O13  1  0.01979424  0.50990113  0.32472862  1
  O  O14  1  0.34308658  0.67157365  0.11346527  1
  O  O15  1  0.99065759  0.99532700  0.32217000  1
  O  O16  1  0.99197785  0.99576020  0.81617578  1
  O  O17  1  0.14104039  0.29621134  0.60968936  1
  O  O18  1  0.50478602  0.98028324  0.31868252  1
  O  O19  1  0.50476030  0.52441928  0.31864989  1
  O  O20  1  0.29910840  0.14958727  0.10962258  1
  O  O21  1  0.70930626  0.85468474  0.61504675  1
  O  O22  1  0.52536421  0.50483672  0.81083435  1
  O  O23  1  0.52551467  0.02059791  0.81092316  1
  O  O24  1  0.68264875  0.34127590  0.61102515  1
  O  O25  1  0.84208129  0.70090717  0.11223263  1
  O  O26  1  0.97517011  0.48759978  0.80820881  1
  O  O27  1  0.84206611  0.14121058  0.11220093  1
