# generated using pymatgen
data_Er12(MnC3)5
_symmetry_space_group_name_H-M   'P 1'
_cell_length_a   4.97639719
_cell_length_b   10.37733022
_cell_length_c   10.37733022
_cell_angle_alpha   119.99999884
_cell_angle_beta   90.00000000
_cell_angle_gamma   90.00000000
_symmetry_Int_Tables_number   1
_chemical_formula_structural   Er12(MnC3)5
_chemical_formula_sum   'Er12 Mn5 C15'
_cell_volume   464.10574703
_cell_formula_units_Z   1
loop_
 _symmetry_equiv_pos_site_id
 _symmetry_equiv_pos_as_xyz
  1  'x, y, z'
loop_
 _atom_site_type_symbol
 _atom_site_label
 _atom_site_symmetry_multiplicity
 _atom_site_fract_x
 _atom_site_fract_y
 _atom_site_fract_z
 _atom_site_occupancy
  Er  Er0  1  0.50000000  0.20690622  0.20690622  1
  Er  Er1  1  0.50000000  0.00000000  0.79309378  1
  Er  Er2  1  0.50000000  0.79309378  0.00000000  1
  Er  Er3  1  0.00000000  0.73019031  0.18525214  1
  Er  Er4  1  0.00000000  0.45506184  0.26980969  1
  Er  Er5  1  0.00000000  0.54493816  0.81474786  1
  Er  Er6  1  -0.00000000  0.81474786  0.54493816  1
  Er  Er7  1  -0.00000000  0.18525214  0.73019031  1
  Er  Er8  1  -0.00000000  0.26980969  0.45506184  1
  Er  Er9  1  0.50000000  0.57180852  0.57180852  1
  Er  Er10  1  0.50000000  1.00000000  0.42819148  1
  Er  Er11  1  0.50000000  0.42819148  1.00000000  1
  Mn  Mn12  1  -0.00000000  0.84719444  0.84719444  1
  Mn  Mn13  1  -0.00000000  1.00000000  0.15280556  1
  Mn  Mn14  1  0.00000000  0.15280556  1.00000000  1
  Mn  Mn15  1  0.50000000  0.66666700  0.33333300  1
  Mn  Mn16  1  0.50000000  0.33333300  0.66666700  1
  C  C17  1  0.00000000  0.67549844  0.67549844  1
  C  C18  1  -0.00000000  0.00000000  0.32450156  1
  C  C19  1  0.00000000  0.32450156  0.00000000  1
  C  C20  1  -0.00000000  0.20297393  0.20297393  1
  C  C21  1  -0.00000000  0.00000000  0.79702607  1
  C  C22  1  0.00000000  0.79702607  0.00000000  1
  C  C23  1  -0.00000000  0.54478051  0.54478051  1
  C  C24  1  -0.00000000  1.00000000  0.45521949  1
  C  C25  1  0.00000000  0.45521949  1.00000000  1
  C  C26  1  0.50000000  0.71564325  0.19141704  1
  C  C27  1  0.50000000  0.47577379  0.28435675  1
  C  C28  1  0.50000000  0.52422621  0.80858296  1
  C  C29  1  0.50000000  0.80858296  0.52422621  1
  C  C30  1  0.50000000  0.19141704  0.71564325  1
  C  C31  1  0.50000000  0.28435675  0.47577379  1
