# generated using pymatgen
data_Dy2Be2SiO7
_symmetry_space_group_name_H-M   'P 1'
_cell_length_a   4.79225479
_cell_length_b   7.34427131
_cell_length_c   7.34427131
_cell_angle_alpha   90.00000000
_cell_angle_beta   90.00000000
_cell_angle_gamma   90.00000000
_symmetry_Int_Tables_number   1
_chemical_formula_structural   Dy2Be2SiO7
_chemical_formula_sum   'Dy4 Be4 Si2 O14'
_cell_volume   258.48617754
_cell_formula_units_Z   2
loop_
 _symmetry_equiv_pos_site_id
 _symmetry_equiv_pos_as_xyz
  1  'x, y, z'
loop_
 _atom_site_type_symbol
 _atom_site_label
 _atom_site_symmetry_multiplicity
 _atom_site_fract_x
 _atom_site_fract_y
 _atom_site_fract_z
 _atom_site_occupancy
  Dy  Dy0  1  0.51040379  0.15866977  0.65866977  1
  Dy  Dy1  1  0.51040379  0.84133023  0.34133023  1
  Dy  Dy2  1  0.48959621  0.65866977  0.84133023  1
  Dy  Dy3  1  0.48959621  0.34133023  0.15866977  1
  Be  Be4  1  0.95900618  0.63602954  0.13602954  1
  Be  Be5  1  0.95900618  0.36397046  0.86397046  1
  Be  Be6  1  0.04099382  0.13602954  0.36397046  1
  Be  Be7  1  0.04099382  0.86397046  0.63602954  1
  Si  Si8  1  -0.00000000  -0.00000000  0.00000000  1
  Si  Si9  1  -0.00000000  0.50000000  0.50000000  1
  O  O10  1  0.18418901  -0.00000000  0.50000000  1
  O  O11  1  0.81581099  0.50000000  0.00000000  1
  O  O12  1  0.29126394  0.64048668  0.14048668  1
  O  O13  1  0.29126394  0.35951332  0.85951332  1
  O  O14  1  0.70873606  0.14048668  0.35951332  1
  O  O15  1  0.70873606  0.85951332  0.64048668  1
  O  O16  1  0.19969768  0.08090881  0.16337846  1
  O  O17  1  0.19969768  0.91909119  0.83662154  1
  O  O18  1  0.80030232  0.16337846  0.91909119  1
  O  O19  1  0.80030232  0.41909119  0.66337846  1
  O  O20  1  0.80030232  0.83662154  0.08090881  1
  O  O21  1  0.80030232  0.58090881  0.33662154  1
  O  O22  1  0.19969768  0.33662154  0.41909119  1
  O  O23  1  0.19969768  0.66337846  0.58090881  1
