# generated using pymatgen
data_Dy(Al5Fe)2
_symmetry_space_group_name_H-M   'P 1'
_cell_length_a   6.74604094
_cell_length_b   6.74604094
_cell_length_c   8.96766870
_cell_angle_alpha   90.00000000
_cell_angle_beta   90.00000000
_cell_angle_gamma   97.11326456
_symmetry_Int_Tables_number   1
_chemical_formula_structural   Dy(Al5Fe)2
_chemical_formula_sum   'Dy2 Al20 Fe4'
_cell_volume   404.96914370
_cell_formula_units_Z   2
loop_
 _symmetry_equiv_pos_site_id
 _symmetry_equiv_pos_as_xyz
  1  'x, y, z'
loop_
 _atom_site_type_symbol
 _atom_site_label
 _atom_site_symmetry_multiplicity
 _atom_site_fract_x
 _atom_site_fract_y
 _atom_site_fract_z
 _atom_site_occupancy
  Dy  Dy0  1  0.87487298  0.12512702  0.75000000  1
  Dy  Dy1  1  0.12512702  0.87487298  0.25000000  1
  Al  Al2  1  0.62570474  0.37429526  0.95271881  1
  Al  Al3  1  0.37429526  0.62570474  0.04728119  1
  Al  Al4  1  0.37429526  0.62570474  0.45271881  1
  Al  Al5  1  0.62570474  0.37429526  0.54728119  1
  Al  Al6  1  0.77272875  0.77272875  -0.00000000  1
  Al  Al7  1  0.22727125  0.22727125  -0.00000000  1
  Al  Al8  1  0.22727125  0.22727125  0.50000000  1
  Al  Al9  1  0.77272875  0.77272875  0.50000000  1
  Al  Al10  1  0.84286498  0.15713502  0.40347505  1
  Al  Al11  1  0.15713502  0.84286498  0.59652495  1
  Al  Al12  1  0.15713502  0.84286498  0.90347505  1
  Al  Al13  1  0.84286498  0.15713502  0.09652495  1
  Al  Al14  1  0.41509018  0.13392186  0.75000000  1
  Al  Al15  1  0.58490982  0.86607814  0.25000000  1
  Al  Al16  1  0.86607814  0.58490982  0.75000000  1
  Al  Al17  1  0.13392186  0.41509018  0.25000000  1
  Al  Al18  1  0.52291285  0.77964619  0.75000000  1
  Al  Al19  1  0.47708715  0.22035381  0.25000000  1
  Al  Al20  1  0.22035381  0.47708715  0.75000000  1
  Al  Al21  1  0.77964619  0.52291285  0.25000000  1
  Fe  Fe22  1  0.50000000  0.00000000  -0.00000000  1
  Fe  Fe23  1  0.50000000  0.00000000  0.50000000  1
  Fe  Fe24  1  0.00000000  0.50000000  0.50000000  1
  Fe  Fe25  1  0.00000000  0.50000000  -0.00000000  1
