# generated using pymatgen
data_ErTl(MoO4)2
_symmetry_space_group_name_H-M   'P 1'
_cell_length_a   5.11248155
_cell_length_b   8.09790876
_cell_length_c   18.75491502
_cell_angle_alpha   90.00000000
_cell_angle_beta   90.00000000
_cell_angle_gamma   90.00000000
_symmetry_Int_Tables_number   1
_chemical_formula_structural   ErTl(MoO4)2
_chemical_formula_sum   'Er4 Tl4 Mo8 O32'
_cell_volume   776.46115501
_cell_formula_units_Z   4
loop_
 _symmetry_equiv_pos_site_id
 _symmetry_equiv_pos_as_xyz
  1  'x, y, z'
loop_
 _atom_site_type_symbol
 _atom_site_label
 _atom_site_symmetry_multiplicity
 _atom_site_fract_x
 _atom_site_fract_y
 _atom_site_fract_z
 _atom_site_occupancy
  Er  Er0  1  -0.00000000  0.75000000  0.99386621  1
  Er  Er1  1  -0.00000000  0.25000000  0.00613379  1
  Er  Er2  1  0.50000000  0.25000000  0.50613379  1
  Er  Er3  1  0.50000000  0.75000000  0.49386621  1
  Tl  Tl4  1  -0.00000000  0.75000000  0.23019085  1
  Tl  Tl5  1  -0.00000000  0.25000000  0.76980915  1
  Tl  Tl6  1  0.50000000  0.25000000  0.26980915  1
  Tl  Tl7  1  0.50000000  0.75000000  0.73019085  1
  Mo  Mo8  1  0.97753546  0.98412017  0.59955488  1
  Mo  Mo9  1  0.02246454  0.01587983  0.40044512  1
  Mo  Mo10  1  0.52246454  0.48412017  0.90044512  1
  Mo  Mo11  1  0.02246454  0.51587983  0.59955488  1
  Mo  Mo12  1  0.47753546  0.51587983  0.09955488  1
  Mo  Mo13  1  0.97753546  0.48412017  0.40044512  1
  Mo  Mo14  1  0.47753546  0.01587983  0.90044512  1
  Mo  Mo15  1  0.52246454  0.98412017  0.09955488  1
  O  O16  1  0.90033621  0.52469332  0.68703667  1
  O  O17  1  0.09966379  0.47530668  0.31296333  1
  O  O18  1  0.59966379  0.02469332  0.81296333  1
  O  O19  1  0.09966379  0.97530668  0.68703667  1
  O  O20  1  0.40033621  0.97530668  0.18703667  1
  O  O21  1  0.90033621  0.02469332  0.31296333  1
  O  O22  1  0.40033621  0.47530668  0.81296333  1
  O  O23  1  0.59966379  0.52469332  0.18703667  1
  O  O24  1  0.73281935  0.66166530  0.90288024  1
  O  O25  1  0.26718065  0.33833470  0.09711976  1
  O  O26  1  0.76718065  0.16166530  0.59711976  1
  O  O27  1  0.26718065  0.83833470  0.90288024  1
  O  O28  1  0.23281935  0.83833470  0.40288024  1
  O  O29  1  0.73281935  0.16166530  0.09711976  1
  O  O30  1  0.23281935  0.33833470  0.59711976  1
  O  O31  1  0.76718065  0.66166530  0.40288024  1
  O  O32  1  0.75440864  0.99437304  0.96492763  1
  O  O33  1  0.24559136  0.00562696  0.03507237  1
  O  O34  1  0.74559136  0.49437304  0.53507237  1
  O  O35  1  0.24559136  0.50562696  0.96492763  1
  O  O36  1  0.25440864  0.50562696  0.46492763  1
  O  O37  1  0.75440864  0.49437304  0.03507237  1
  O  O38  1  0.25440864  0.00562696  0.53507237  1
  O  O39  1  0.74559136  0.99437304  0.46492763  1
  O  O40  1  0.75643995  0.80932555  0.58991870  1
  O  O41  1  0.24356005  0.19067445  0.41008130  1
  O  O42  1  0.74356005  0.30932555  0.91008130  1
  O  O43  1  0.24356005  0.69067445  0.58991870  1
  O  O44  1  0.25643995  0.69067445  0.08991870  1
  O  O45  1  0.75643995  0.30932555  0.41008130  1
  O  O46  1  0.25643995  0.19067445  0.91008130  1
  O  O47  1  0.74356005  0.80932555  0.08991870  1
