# generated using pymatgen
data_Dy2Mo4O15
_symmetry_space_group_name_H-M   'P 1'
_cell_length_a   6.92029702
_cell_length_b   9.74017363
_cell_length_c   10.71621363
_cell_angle_alpha   90.00000000
_cell_angle_beta   105.31326610
_cell_angle_gamma   90.00000000
_symmetry_Int_Tables_number   1
_chemical_formula_structural   Dy2Mo4O15
_chemical_formula_sum   'Dy4 Mo8 O30'
_cell_volume   696.68002798
_cell_formula_units_Z   2
loop_
 _symmetry_equiv_pos_site_id
 _symmetry_equiv_pos_as_xyz
  1  'x, y, z'
loop_
 _atom_site_type_symbol
 _atom_site_label
 _atom_site_symmetry_multiplicity
 _atom_site_fract_x
 _atom_site_fract_y
 _atom_site_fract_z
 _atom_site_occupancy
  Dy  Dy0  1  0.28903393  0.47683841  0.22378574  1
  Dy  Dy1  1  0.71096607  0.52316159  0.77621426  1
  Dy  Dy2  1  0.71096607  0.97683841  0.27621426  1
  Dy  Dy3  1  0.28903393  0.02316159  0.72378574  1
  Mo  Mo4  1  0.58179915  0.25689464  0.01106102  1
  Mo  Mo5  1  0.41820085  0.74310536  0.98893898  1
  Mo  Mo6  1  0.41820085  0.75689464  0.48893898  1
  Mo  Mo7  1  0.58179915  0.24310536  0.51106102  1
  Mo  Mo8  1  0.12092998  0.09547360  0.15604470  1
  Mo  Mo9  1  0.87907002  0.90452640  0.84395530  1
  Mo  Mo10  1  0.87907002  0.59547360  0.34395530  1
  Mo  Mo11  1  0.12092998  0.40452640  0.65604470  1
  O  O12  1  0.11352264  0.27745306  0.14770172  1
  O  O13  1  0.88647736  0.72254694  0.85229828  1
  O  O14  1  0.88647736  0.77745306  0.35229828  1
  O  O15  1  0.11352264  0.22254694  0.64770172  1
  O  O16  1  0.47655919  0.37357866  0.10331201  1
  O  O17  1  0.52344081  0.62642134  0.89668799  1
  O  O18  1  0.52344081  0.87357866  0.39668799  1
  O  O19  1  0.47655919  0.12642134  0.60331201  1
  O  O20  1  0.27897094  0.65117538  0.08116504  1
  O  O21  1  0.72102906  0.34882462  0.91883496  1
  O  O22  1  0.72102906  0.15117538  0.41883496  1
  O  O23  1  0.27897094  0.84882462  0.58116504  1
  O  O24  1  -0.00000000  0.00000000  -0.00000000  1
  O  O25  1  -0.00000000  0.50000000  0.50000000  1
  O  O26  1  0.38405890  0.33326701  0.39900076  1
  O  O27  1  0.61594110  0.66673299  0.60099924  1
  O  O28  1  0.61594110  0.83326701  0.10099924  1
  O  O29  1  0.38405890  0.16673299  0.89900076  1
  O  O30  1  0.05218938  0.02799584  0.29254051  1
  O  O31  1  0.94781062  0.97200416  0.70745949  1
  O  O32  1  0.94781062  0.52799584  0.20745949  1
  O  O33  1  0.05218938  0.47200416  0.79254051  1
  O  O34  1  0.37927176  0.05600319  0.18368943  1
  O  O35  1  0.62072824  0.94399681  0.81631057  1
  O  O36  1  0.62072824  0.55600319  0.31631057  1
  O  O37  1  0.37927176  0.44399681  0.68368943  1
  O  O38  1  0.74418233  0.13516871  0.11818799  1
  O  O39  1  0.25581767  0.86483129  0.88181201  1
  O  O40  1  0.25581767  0.63516871  0.38181201  1
  O  O41  1  0.74418233  0.36483129  0.61818799  1
