# generated using pymatgen
data_Er7(AgTe)2
_symmetry_space_group_name_H-M   'P 1'
_cell_length_a   4.06799124
_cell_length_b   9.33978676
_cell_length_c   9.33978676
_cell_angle_alpha   62.25162132
_cell_angle_beta   77.42146789
_cell_angle_gamma   77.42146789
_symmetry_Int_Tables_number   1
_chemical_formula_structural   Er7(AgTe)2
_chemical_formula_sum   'Er7 Ag2 Te2'
_cell_volume   303.71639483
_cell_formula_units_Z   1
loop_
 _symmetry_equiv_pos_site_id
 _symmetry_equiv_pos_as_xyz
  1  'x, y, z'
loop_
 _atom_site_type_symbol
 _atom_site_label
 _atom_site_symmetry_multiplicity
 _atom_site_fract_x
 _atom_site_fract_y
 _atom_site_fract_z
 _atom_site_occupancy
  Er  Er0  1  0.36052536  0.38072091  0.89822838  1
  Er  Er1  1  0.63947464  0.10177162  0.61927909  1
  Er  Er2  1  -0.00000000  0.99608972  0.00391028  1
  Er  Er3  1  0.12426337  0.46135301  0.29012025  1
  Er  Er4  1  0.87573663  0.70987975  0.53864699  1
  Er  Er5  1  0.31724165  0.05625669  0.30926002  1
  Er  Er6  1  0.68275835  0.69073998  0.94374331  1
  Ag  Ag7  1  0.23635341  0.83461781  0.69267538  1
  Ag  Ag8  1  0.76364659  0.30732462  0.16538219  1
  Te  Te9  1  0.50000000  0.73451122  0.26548878  1
  Te  Te10  1  0.00000000  0.33587469  0.66412531  1
