# generated using pymatgen
data_Dy2(Al3Rh)3
_symmetry_space_group_name_H-M   'P 1'
_cell_length_a   7.54839387
_cell_length_b   7.60093027
_cell_length_c   9.48769228
_cell_angle_alpha   90.00000000
_cell_angle_beta   90.00000000
_cell_angle_gamma   120.23050146
_symmetry_Int_Tables_number   1
_chemical_formula_structural   Dy2(Al3Rh)3
_chemical_formula_sum   'Dy4 Al18 Rh6'
_cell_volume   470.32612299
_cell_formula_units_Z   2
loop_
 _symmetry_equiv_pos_site_id
 _symmetry_equiv_pos_as_xyz
  1  'x, y, z'
loop_
 _atom_site_type_symbol
 _atom_site_label
 _atom_site_symmetry_multiplicity
 _atom_site_fract_x
 _atom_site_fract_y
 _atom_site_fract_z
 _atom_site_occupancy
  Dy  Dy0  1  0.67292153  0.66853997  0.25000000  1
  Dy  Dy1  1  0.32707847  0.33146003  0.75000000  1
  Dy  Dy2  1  0.32707847  0.99561844  0.25000000  1
  Dy  Dy3  1  0.67292153  0.00438156  0.75000000  1
  Al  Al4  1  0.00000000  0.12491403  0.25000000  1
  Al  Al5  1  -0.00000000  0.87508597  0.75000000  1
  Al  Al6  1  0.33287041  0.33425528  0.07324583  1
  Al  Al7  1  0.66712959  0.66574472  0.92675417  1
  Al  Al8  1  0.66712959  0.66574472  0.57324583  1
  Al  Al9  1  0.66712959  0.00138487  0.42675417  1
  Al  Al10  1  0.33287041  0.33425528  0.42675417  1
  Al  Al11  1  0.33287041  0.99861513  0.57324583  1
  Al  Al12  1  0.33287041  0.99861513  0.92675417  1
  Al  Al13  1  0.66712959  0.00138487  0.07324583  1
  Al  Al14  1  -0.00000000  0.33389914  0.55456713  1
  Al  Al15  1  -0.00000000  0.66610086  0.44543287  1
  Al  Al16  1  0.00000000  0.66610086  0.05456713  1
  Al  Al17  1  0.00000000  0.33389914  0.94543287  1
  Al  Al18  1  0.21026206  0.54725597  0.25000000  1
  Al  Al19  1  0.78973794  0.45274403  0.75000000  1
  Al  Al20  1  0.78973794  0.33699391  0.25000000  1
  Al  Al21  1  0.21026206  0.66300609  0.75000000  1
  Rh  Rh22  1  0.65607825  0.32803913  0.00000000  1
  Rh  Rh23  1  0.34392175  0.67196087  0.00000000  1
  Rh  Rh24  1  0.34392175  0.67196087  0.50000000  1
  Rh  Rh25  1  0.65607825  0.32803913  0.50000000  1
  Rh  Rh26  1  -0.00000000  -0.00000000  0.00000000  1
  Rh  Rh27  1  -0.00000000  -0.00000000  0.50000000  1
