# generated using pymatgen
data_Dy6Nb4Al43
_symmetry_space_group_name_H-M   'P 1'
_cell_length_a   11.15210839
_cell_length_b   11.15210839
_cell_length_c   17.76054690
_cell_angle_alpha   90.00000000
_cell_angle_beta   90.00000000
_cell_angle_gamma   120.00000146
_symmetry_Int_Tables_number   1
_chemical_formula_structural   Dy6Nb4Al43
_chemical_formula_sum   'Dy12 Nb8 Al86'
_cell_volume   1912.93812813
_cell_formula_units_Z   2
loop_
 _symmetry_equiv_pos_site_id
 _symmetry_equiv_pos_as_xyz
  1  'x, y, z'
loop_
 _atom_site_type_symbol
 _atom_site_label
 _atom_site_symmetry_multiplicity
 _atom_site_fract_x
 _atom_site_fract_y
 _atom_site_fract_z
 _atom_site_occupancy
  Dy  Dy0  1  0.47040215  0.47040215  0.90411326  1
  Dy  Dy1  1  0.52959785  0.52959785  0.09588674  1
  Dy  Dy2  1  1.00000000  0.52959785  0.90411326  1
  Dy  Dy3  1  0.52959785  0.52959785  0.40411326  1
  Dy  Dy4  1  1.00000000  0.52959785  0.59588674  1
  Dy  Dy5  1  0.00000000  0.47040215  0.09588674  1
  Dy  Dy6  1  0.47040215  0.47040215  0.59588674  1
  Dy  Dy7  1  0.00000000  0.47040215  0.40411326  1
  Dy  Dy8  1  0.52959785  1.00000000  0.90411326  1
  Dy  Dy9  1  0.47040215  0.00000000  0.09588674  1
  Dy  Dy10  1  0.47040215  0.00000000  0.40411326  1
  Dy  Dy11  1  0.52959785  1.00000000  0.59588674  1
  Nb  Nb12  1  -0.00000000  -0.00000000  -0.00000000  1
  Nb  Nb13  1  -0.00000000  -0.00000000  0.50000000  1
  Nb  Nb14  1  0.27308615  0.27308615  0.75000000  1
  Nb  Nb15  1  0.72691385  0.72691385  0.25000000  1
  Nb  Nb16  1  1.00000000  0.72691385  0.75000000  1
  Nb  Nb17  1  0.00000000  0.27308615  0.25000000  1
  Nb  Nb18  1  0.72691385  1.00000000  0.75000000  1
  Nb  Nb19  1  0.27308615  0.00000000  0.25000000  1
  Al  Al20  1  0.85113338  0.44628272  0.75000000  1
  Al  Al21  1  0.14886662  0.55371728  0.25000000  1
  Al  Al22  1  0.59514934  0.14886662  0.75000000  1
  Al  Al23  1  0.40485066  0.55371728  0.75000000  1
  Al  Al24  1  0.40485066  0.85113338  0.25000000  1
  Al  Al25  1  0.59514934  0.44628272  0.25000000  1
  Al  Al26  1  0.55371728  0.40485066  0.75000000  1
  Al  Al27  1  0.44628272  0.85113338  0.75000000  1
  Al  Al28  1  0.44628272  0.59514934  0.25000000  1
  Al  Al29  1  0.55371728  0.14886662  0.25000000  1
  Al  Al30  1  0.14886662  0.59514934  0.75000000  1
  Al  Al31  1  0.85113338  0.40485066  0.25000000  1
  Al  Al32  1  0.84085031  0.84085031  0.38484158  1
  Al  Al33  1  0.15914969  0.15914969  0.61515842  1
  Al  Al34  1  1.00000000  0.15914969  0.38484158  1
  Al  Al35  1  0.15914969  0.15914969  0.88484158  1
  Al  Al36  1  1.00000000  0.15914969  0.11515842  1
  Al  Al37  1  0.00000000  0.84085031  0.61515842  1
  Al  Al38  1  0.84085031  0.84085031  0.11515842  1
  Al  Al39  1  0.00000000  0.84085031  0.88484158  1
  Al  Al40  1  0.15914969  1.00000000  0.38484158  1
  Al  Al41  1  0.84085031  0.00000000  0.61515842  1
  Al  Al42  1  0.84085031  0.00000000  0.88484158  1
  Al  Al43  1  0.15914969  1.00000000  0.11515842  1
  Al  Al44  1  0.75282197  0.24717803  -0.00000000  1
  Al  Al45  1  0.24717803  0.75282197  -0.00000000  1
  Al  Al46  1  0.49435606  0.24717803  -0.00000000  1
  Al  Al47  1  0.24717803  0.75282197  0.50000000  1
  Al  Al48  1  0.50564394  0.75282197  0.50000000  1
  Al  Al49  1  0.50564394  0.75282197  -0.00000000  1
  Al  Al50  1  0.75282197  0.24717803  0.50000000  1
  Al  Al51  1  0.49435606  0.24717803  0.50000000  1
  Al  Al52  1  0.75282197  0.50564394  -0.00000000  1
  Al  Al53  1  0.24717803  0.49435606  -0.00000000  1
  Al  Al54  1  0.24717803  0.49435606  0.50000000  1
  Al  Al55  1  0.75282197  0.50564394  0.50000000  1
  Al  Al56  1  0.85302485  0.85302485  0.75000000  1
  Al  Al57  1  0.14697515  0.14697515  0.25000000  1
  Al  Al58  1  1.00000000  0.14697515  0.75000000  1
  Al  Al59  1  0.00000000  0.85302485  0.25000000  1
  Al  Al60  1  0.14697515  1.00000000  0.75000000  1
  Al  Al61  1  0.85302485  0.00000000  0.25000000  1
  Al  Al62  1  0.66666700  0.33333300  0.87344266  1
  Al  Al63  1  0.33333300  0.66666700  0.12655734  1
  Al  Al64  1  0.33333300  0.66666700  0.37344266  1
  Al  Al65  1  0.33333300  0.66666700  0.62655734  1
  Al  Al66  1  0.66666700  0.33333300  0.62655734  1
  Al  Al67  1  0.66666700  0.33333300  0.37344266  1
  Al  Al68  1  0.66666700  0.33333300  0.12655734  1
  Al  Al69  1  0.33333300  0.66666700  0.87344266  1
  Al  Al70  1  0.74375082  0.74375082  0.96973745  1
  Al  Al71  1  0.25624918  0.25624918  0.03026255  1
  Al  Al72  1  0.00000000  0.25624918  0.96973745  1
  Al  Al73  1  0.25624918  0.25624918  0.46973745  1
  Al  Al74  1  0.00000000  0.25624918  0.53026255  1
  Al  Al75  1  1.00000000  0.74375082  0.03026255  1
  Al  Al76  1  0.74375082  0.74375082  0.53026255  1
  Al  Al77  1  1.00000000  0.74375082  0.46973745  1
  Al  Al78  1  0.25624918  0.00000000  0.96973745  1
  Al  Al79  1  0.74375082  1.00000000  0.03026255  1
  Al  Al80  1  0.74375082  1.00000000  0.46973745  1
  Al  Al81  1  0.25624918  0.00000000  0.53026255  1
  Al  Al82  1  0.84284001  0.23751376  0.83631034  1
  Al  Al83  1  0.15715999  0.76248624  0.16368966  1
  Al  Al84  1  0.39467375  0.15715999  0.83631034  1
  Al  Al85  1  0.15715999  0.76248624  0.33631034  1
  Al  Al86  1  0.60532625  0.76248624  0.66368966  1
  Al  Al87  1  0.60532625  0.84284001  0.16368966  1
  Al  Al88  1  0.84284001  0.23751376  0.66368966  1
  Al  Al89  1  0.39467375  0.23751376  0.33631034  1
  Al  Al90  1  0.76248624  0.60532625  0.83631034  1
  Al  Al91  1  0.60532625  0.84284001  0.33631034  1
  Al  Al92  1  0.23751376  0.84284001  0.66368966  1
  Al  Al93  1  0.23751376  0.39467375  0.16368966  1
  Al  Al94  1  0.39467375  0.15715999  0.66368966  1
  Al  Al95  1  0.76248624  0.15715999  0.33631034  1
  Al  Al96  1  0.39467375  0.23751376  0.16368966  1
  Al  Al97  1  0.60532625  0.76248624  0.83631034  1
  Al  Al98  1  0.23751376  0.39467375  0.33631034  1
  Al  Al99  1  0.76248624  0.15715999  0.16368966  1
  Al  Al100  1  0.76248624  0.60532625  0.66368966  1
  Al  Al101  1  0.23751376  0.84284001  0.83631034  1
  Al  Al102  1  0.15715999  0.39467375  0.66368966  1
  Al  Al103  1  0.84284001  0.60532625  0.33631034  1
  Al  Al104  1  0.84284001  0.60532625  0.16368966  1
  Al  Al105  1  0.15715999  0.39467375  0.83631034  1
