# generated using pymatgen
data_Er6Ta4Al43
_symmetry_space_group_name_H-M   'P 1'
_cell_length_a   11.12892953
_cell_length_b   11.12892953
_cell_length_c   17.67463557
_cell_angle_alpha   90.00000000
_cell_angle_beta   90.00000000
_cell_angle_gamma   120.00000079
_symmetry_Int_Tables_number   1
_chemical_formula_structural   Er6Ta4Al43
_chemical_formula_sum   'Er12 Ta8 Al86'
_cell_volume   1895.77975514
_cell_formula_units_Z   2
loop_
 _symmetry_equiv_pos_site_id
 _symmetry_equiv_pos_as_xyz
  1  'x, y, z'
loop_
 _atom_site_type_symbol
 _atom_site_label
 _atom_site_symmetry_multiplicity
 _atom_site_fract_x
 _atom_site_fract_y
 _atom_site_fract_z
 _atom_site_occupancy
  Er  Er0  1  0.46989504  0.46989504  0.90371844  1
  Er  Er1  1  0.53010496  0.53010496  0.09628156  1
  Er  Er2  1  1.00000000  0.53010496  0.90371844  1
  Er  Er3  1  0.53010496  0.53010496  0.40371844  1
  Er  Er4  1  1.00000000  0.53010496  0.59628156  1
  Er  Er5  1  0.00000000  0.46989504  0.09628156  1
  Er  Er6  1  0.46989504  0.46989504  0.59628156  1
  Er  Er7  1  0.00000000  0.46989504  0.40371844  1
  Er  Er8  1  0.53010496  1.00000000  0.90371844  1
  Er  Er9  1  0.46989504  0.00000000  0.09628156  1
  Er  Er10  1  0.46989504  0.00000000  0.40371844  1
  Er  Er11  1  0.53010496  1.00000000  0.59628156  1
  Ta  Ta12  1  -0.00000000  -0.00000000  -0.00000000  1
  Ta  Ta13  1  -0.00000000  -0.00000000  0.50000000  1
  Ta  Ta14  1  0.27425353  0.27425353  0.75000000  1
  Ta  Ta15  1  0.72574647  0.72574647  0.25000000  1
  Ta  Ta16  1  1.00000000  0.72574647  0.75000000  1
  Ta  Ta17  1  0.00000000  0.27425353  0.25000000  1
  Ta  Ta18  1  0.72574647  1.00000000  0.75000000  1
  Ta  Ta19  1  0.27425353  0.00000000  0.25000000  1
  Al  Al20  1  0.85085892  0.44604382  0.75000000  1
  Al  Al21  1  0.14914108  0.55395618  0.25000000  1
  Al  Al22  1  0.59518490  0.14914108  0.75000000  1
  Al  Al23  1  0.40481510  0.55395618  0.75000000  1
  Al  Al24  1  0.40481510  0.85085892  0.25000000  1
  Al  Al25  1  0.59518490  0.44604382  0.25000000  1
  Al  Al26  1  0.55395618  0.40481510  0.75000000  1
  Al  Al27  1  0.44604382  0.85085892  0.75000000  1
  Al  Al28  1  0.44604382  0.59518490  0.25000000  1
  Al  Al29  1  0.55395618  0.14914108  0.25000000  1
  Al  Al30  1  0.14914108  0.59518490  0.75000000  1
  Al  Al31  1  0.85085892  0.40481510  0.25000000  1
  Al  Al32  1  0.84068378  0.84068378  0.38500897  1
  Al  Al33  1  0.15931622  0.15931622  0.61499103  1
  Al  Al34  1  1.00000000  0.15931622  0.38500897  1
  Al  Al35  1  0.15931622  0.15931622  0.88500897  1
  Al  Al36  1  1.00000000  0.15931622  0.11499103  1
  Al  Al37  1  0.00000000  0.84068378  0.61499103  1
  Al  Al38  1  0.84068378  0.84068378  0.11499103  1
  Al  Al39  1  0.00000000  0.84068378  0.88500897  1
  Al  Al40  1  0.15931622  1.00000000  0.38500897  1
  Al  Al41  1  0.84068378  0.00000000  0.61499103  1
  Al  Al42  1  0.84068378  0.00000000  0.88500897  1
  Al  Al43  1  0.15931622  1.00000000  0.11499103  1
  Al  Al44  1  0.75292899  0.24707101  -0.00000000  1
  Al  Al45  1  0.24707101  0.75292899  -0.00000000  1
  Al  Al46  1  0.49414203  0.24707101  -0.00000000  1
  Al  Al47  1  0.24707101  0.75292899  0.50000000  1
  Al  Al48  1  0.50585797  0.75292899  0.50000000  1
  Al  Al49  1  0.50585797  0.75292899  -0.00000000  1
  Al  Al50  1  0.75292899  0.24707101  0.50000000  1
  Al  Al51  1  0.49414203  0.24707101  0.50000000  1
  Al  Al52  1  0.75292899  0.50585797  -0.00000000  1
  Al  Al53  1  0.24707101  0.49414203  -0.00000000  1
  Al  Al54  1  0.24707101  0.49414203  0.50000000  1
  Al  Al55  1  0.75292899  0.50585797  0.50000000  1
  Al  Al56  1  0.85286417  0.85286417  0.75000000  1
  Al  Al57  1  0.14713583  0.14713583  0.25000000  1
  Al  Al58  1  1.00000000  0.14713583  0.75000000  1
  Al  Al59  1  0.00000000  0.85286417  0.25000000  1
  Al  Al60  1  0.14713583  1.00000000  0.75000000  1
  Al  Al61  1  0.85286417  0.00000000  0.25000000  1
  Al  Al62  1  0.66666700  0.33333300  0.87363310  1
  Al  Al63  1  0.33333300  0.66666700  0.12636690  1
  Al  Al64  1  0.33333300  0.66666700  0.37363310  1
  Al  Al65  1  0.33333300  0.66666700  0.62636690  1
  Al  Al66  1  0.66666700  0.33333300  0.62636690  1
  Al  Al67  1  0.66666700  0.33333300  0.37363310  1
  Al  Al68  1  0.66666700  0.33333300  0.12636690  1
  Al  Al69  1  0.33333300  0.66666700  0.87363310  1
  Al  Al70  1  0.74354197  0.74354197  0.96969004  1
  Al  Al71  1  0.25645803  0.25645803  0.03030996  1
  Al  Al72  1  0.00000000  0.25645803  0.96969004  1
  Al  Al73  1  0.25645803  0.25645803  0.46969004  1
  Al  Al74  1  0.00000000  0.25645803  0.53030996  1
  Al  Al75  1  1.00000000  0.74354197  0.03030996  1
  Al  Al76  1  0.74354197  0.74354197  0.53030996  1
  Al  Al77  1  1.00000000  0.74354197  0.46969004  1
  Al  Al78  1  0.25645803  0.00000000  0.96969004  1
  Al  Al79  1  0.74354197  1.00000000  0.03030996  1
  Al  Al80  1  0.74354197  1.00000000  0.46969004  1
  Al  Al81  1  0.25645803  0.00000000  0.53030996  1
  Al  Al82  1  0.84272312  0.23769716  0.83675363  1
  Al  Al83  1  0.15727688  0.76230284  0.16324637  1
  Al  Al84  1  0.39497404  0.15727688  0.83675363  1
  Al  Al85  1  0.15727688  0.76230284  0.33675363  1
  Al  Al86  1  0.60502596  0.76230284  0.66324637  1
  Al  Al87  1  0.60502596  0.84272312  0.16324637  1
  Al  Al88  1  0.84272312  0.23769716  0.66324637  1
  Al  Al89  1  0.39497404  0.23769716  0.33675363  1
  Al  Al90  1  0.76230284  0.60502596  0.83675363  1
  Al  Al91  1  0.60502596  0.84272312  0.33675363  1
  Al  Al92  1  0.23769716  0.84272312  0.66324637  1
  Al  Al93  1  0.23769716  0.39497404  0.16324637  1
  Al  Al94  1  0.39497404  0.15727688  0.66324637  1
  Al  Al95  1  0.76230284  0.15727688  0.33675363  1
  Al  Al96  1  0.39497404  0.23769716  0.16324637  1
  Al  Al97  1  0.60502596  0.76230284  0.83675363  1
  Al  Al98  1  0.23769716  0.39497404  0.33675363  1
  Al  Al99  1  0.76230284  0.15727688  0.16324637  1
  Al  Al100  1  0.76230284  0.60502596  0.66324637  1
  Al  Al101  1  0.23769716  0.84272312  0.83675363  1
  Al  Al102  1  0.15727688  0.39497404  0.66324637  1
  Al  Al103  1  0.84272312  0.60502596  0.33675363  1
  Al  Al104  1  0.84272312  0.60502596  0.16324637  1
  Al  Al105  1  0.15727688  0.39497404  0.83675363  1
