# generated using pymatgen
data_Er6Co2Sn
_symmetry_space_group_name_H-M   'P 1'
_cell_length_a   8.29692229
_cell_length_b   8.29692229
_cell_length_c   8.29692229
_cell_angle_alpha   106.83523740
_cell_angle_beta   110.61003193
_cell_angle_gamma   111.00036888
_symmetry_Int_Tables_number   1
_chemical_formula_structural   Er6Co2Sn
_chemical_formula_sum   'Er12 Co4 Sn2'
_cell_volume   438.97310441
_cell_formula_units_Z   2
loop_
 _symmetry_equiv_pos_site_id
 _symmetry_equiv_pos_as_xyz
  1  'x, y, z'
loop_
 _atom_site_type_symbol
 _atom_site_label
 _atom_site_symmetry_multiplicity
 _atom_site_fract_x
 _atom_site_fract_y
 _atom_site_fract_z
 _atom_site_occupancy
  Er  Er0  1  0.69624491  0.38063833  0.68439341  1
  Er  Er1  1  0.30375509  0.61936167  0.31560659  1
  Er  Er2  1  0.30375509  0.98814850  0.68439341  1
  Er  Er3  1  0.69624491  0.01185150  0.31560659  1
  Er  Er4  1  0.78548519  0.76776904  0.55325422  1
  Er  Er5  1  0.21451481  0.23223096  0.44674578  1
  Er  Er6  1  0.21451481  0.76776904  0.98228385  1
  Er  Er7  1  0.78548519  0.23223096  0.01771615  1
  Er  Er8  1  0.52792928  0.71373518  0.81419409  1
  Er  Er9  1  0.47207072  0.28626482  0.18580591  1
  Er  Er10  1  0.10045891  0.28626482  0.81419409  1
  Er  Er11  1  0.89954109  0.71373518  0.18580591  1
  Co  Co12  1  0.50000000  0.38804997  0.88804997  1
  Co  Co13  1  0.50000000  0.61195003  0.11195003  1
  Co  Co14  1  0.61929233  -0.00000000  0.61929233  1
  Co  Co15  1  0.38070767  -0.00000000  0.38070767  1
  Sn  Sn16  1  -0.00000000  0.50000000  0.50000000  1
  Sn  Sn17  1  -0.00000000  -0.00000000  0.00000000  1
