# generated using pymatgen
data_CsEu(MoO4)2
_symmetry_space_group_name_H-M   'P 1'
_cell_length_a   5.17213124
_cell_length_b   8.30104265
_cell_length_c   9.68670229
_cell_angle_alpha   90.00000000
_cell_angle_beta   90.00000000
_cell_angle_gamma   90.00000000
_symmetry_Int_Tables_number   1
_chemical_formula_structural   CsEu(MoO4)2
_chemical_formula_sum   'Cs2 Eu2 Mo4 O16'
_cell_volume   415.88967057
_cell_formula_units_Z   2
loop_
 _symmetry_equiv_pos_site_id
 _symmetry_equiv_pos_as_xyz
  1  'x, y, z'
loop_
 _atom_site_type_symbol
 _atom_site_label
 _atom_site_symmetry_multiplicity
 _atom_site_fract_x
 _atom_site_fract_y
 _atom_site_fract_z
 _atom_site_occupancy
  Cs  Cs0  1  0.00000000  0.75000000  0.50000000  1
  Cs  Cs1  1  0.00000000  0.25000000  0.50000000  1
  Eu  Eu2  1  0.00000000  0.75000000  0.00000000  1
  Eu  Eu3  1  0.00000000  0.25000000  0.00000000  1
  Mo  Mo4  1  0.48237511  0.00000000  0.79912597  1
  Mo  Mo5  1  0.51762489  0.00000000  0.20087403  1
  Mo  Mo6  1  0.51762489  0.50000000  0.79912597  1
  Mo  Mo7  1  0.48237511  0.50000000  0.20087403  1
  O  O8  1  0.74355588  0.00000000  0.93096991  1
  O  O9  1  0.25644412  0.00000000  0.06903009  1
  O  O10  1  0.25644412  0.50000000  0.93096991  1
  O  O11  1  0.74355588  0.50000000  0.06903009  1
  O  O12  1  0.73312759  0.67156473  0.80620933  1
  O  O13  1  0.26687241  0.32843527  0.19379067  1
  O  O14  1  0.26687241  0.67156473  0.19379067  1
  O  O15  1  0.26687241  0.82843527  0.80620933  1
  O  O16  1  0.73312759  0.32843527  0.80620933  1
  O  O17  1  0.73312759  0.17156473  0.19379067  1
  O  O18  1  0.73312759  0.82843527  0.19379067  1
  O  O19  1  0.26687241  0.17156473  0.80620933  1
  O  O20  1  0.62735242  0.00000000  0.63587748  1
  O  O21  1  0.37264758  0.00000000  0.36412252  1
  O  O22  1  0.37264758  0.50000000  0.63587748  1
  O  O23  1  0.62735242  0.50000000  0.36412252  1
