# generated using pymatgen
data_La15Ge9Ru
_symmetry_space_group_name_H-M   'P 1'
_cell_length_a   7.07672843
_cell_length_b   15.66980213
_cell_length_c   15.66969002
_cell_angle_alpha   119.99935915
_cell_angle_beta   90.00039212
_cell_angle_gamma   89.99967204
_symmetry_Int_Tables_number   1
_chemical_formula_structural   La15Ge9Ru
_chemical_formula_sum   'La30 Ge18 Ru2'
_cell_volume   1504.83846546
_cell_formula_units_Z   2
loop_
 _symmetry_equiv_pos_site_id
 _symmetry_equiv_pos_as_xyz
  1  'x, y, z'
loop_
 _atom_site_type_symbol
 _atom_site_label
 _atom_site_symmetry_multiplicity
 _atom_site_fract_x
 _atom_site_fract_y
 _atom_site_fract_z
 _atom_site_occupancy
  La  La0  1  0.98275670  0.65697225  0.67532624  1
  La  La1  1  0.98275549  0.01835084  0.34302290  1
  La  La2  1  0.48275636  0.34304345  0.32468457  1
  La  La3  1  0.98274837  0.01839234  0.67534325  1
  La  La4  1  0.98275561  0.32468025  0.98164032  1
  La  La5  1  0.48276133  0.98164202  0.65696248  1
  La  La6  1  0.98274650  0.32465851  0.34304404  1
  La  La7  1  0.48274784  0.98161656  0.32466096  1
  La  La8  1  0.48274541  0.67532275  0.01834880  1
  La  La9  1  0.48274362  0.67534205  0.65694179  1
  La  La10  1  0.98275793  0.65694994  0.98160846  1
  La  La11  1  0.48274130  0.34304732  0.01837985  1
  La  La12  1  0.72910773  0.41659820  0.83319847  1
  La  La13  1  0.72909200  0.41660198  0.58340327  1
  La  La14  1  0.22911636  0.58340501  0.16679852  1
  La  La15  1  0.72908911  0.16680747  0.58340660  1
  La  La16  1  0.22909871  0.58339776  0.41660162  1
  La  La17  1  0.22909355  0.83318674  0.41659306  1
  La  La18  1  0.70423737  0.08224892  0.16456000  1
  La  La19  1  0.70423177  0.08229406  0.91774535  1
  La  La20  1  0.20420534  0.91775502  0.83544105  1
  La  La21  1  0.70424185  0.83544364  0.91769016  1
  La  La22  1  0.20421290  0.91768211  0.08224844  1
  La  La23  1  0.20420071  0.16455400  0.08230768  1
  La  La24  1  0.76201849  0.74934363  0.49868619  1
  La  La25  1  0.76199699  0.74934535  0.25065862  1
  La  La26  1  0.26200683  0.25064282  0.50130464  1
  La  La27  1  0.76199640  0.50131040  0.25065714  1
  La  La28  1  0.26201675  0.25064220  0.74934263  1
  La  La29  1  0.26200903  0.49870199  0.74934124  1
  Ge  Ge30  1  0.76013850  0.86881556  0.73751514  1
  Ge  Ge31  1  0.76008519  0.86869379  0.13118883  1
  Ge  Ge32  1  0.26008398  0.13118289  0.26249019  1
  Ge  Ge33  1  0.76011173  0.26249618  0.13130628  1
  Ge  Ge34  1  0.26009613  0.13129694  0.86881657  1
  Ge  Ge35  1  0.26016063  0.73752832  0.86870591  1
  Ge  Ge36  1  0.69628601  0.19807482  0.39616587  1
  Ge  Ge37  1  0.69629984  0.19807951  0.80192675  1
  Ge  Ge38  1  0.19627910  0.80191984  0.60382284  1
  Ge  Ge39  1  0.69630024  0.60384788  0.80191632  1
  Ge  Ge40  1  0.19629222  0.80190325  0.19807847  1
  Ge  Ge41  1  0.19630283  0.39618022  0.19809595  1
  Ge  Ge42  1  0.74244276  0.53273975  0.06547236  1
  Ge  Ge43  1  0.74245002  0.53272676  0.46726326  1
  Ge  Ge44  1  0.24244623  0.46726542  0.93453211  1
  Ge  Ge45  1  0.74243553  0.93453418  0.46726420  1
  Ge  Ge46  1  0.24246523  0.46726525  0.53273414  1
  Ge  Ge47  1  0.24242194  0.06545401  0.53272095  1
  Ru  Ru48  1  0.99675523  0.66670619  0.33336018  1
  Ru  Ru49  1  0.49675831  0.33330969  0.66667534  1
