# generated using pymatgen
data_Na6CuO4
_symmetry_space_group_name_H-M   'P 1'
_cell_length_a   7.53226468
_cell_length_b   7.53224626
_cell_length_c   5.34606148
_cell_angle_alpha   89.99880823
_cell_angle_beta   89.99984690
_cell_angle_gamma   89.99877387
_symmetry_Int_Tables_number   1
_chemical_formula_structural   Na6CuO4
_chemical_formula_sum   'Na12 Cu2 O8'
_cell_volume   303.30811619
_cell_formula_units_Z   2
loop_
 _symmetry_equiv_pos_site_id
 _symmetry_equiv_pos_as_xyz
  1  'x, y, z'
loop_
 _atom_site_type_symbol
 _atom_site_label
 _atom_site_symmetry_multiplicity
 _atom_site_fract_x
 _atom_site_fract_y
 _atom_site_fract_z
 _atom_site_occupancy
  Na  Na0  1  0.03931083  0.53930809  0.74999254  1
  Na  Na1  1  0.03930291  0.96069483  0.75000849  1
  Na  Na2  1  0.24999965  0.24999841  0.64999476  1
  Na  Na3  1  0.25000961  0.25000284  0.14998791  1
  Na  Na4  1  0.46070094  0.53931600  0.74999239  1
  Na  Na5  1  0.46071861  0.96072056  0.74999207  1
  Na  Na6  1  0.53931214  0.03930935  0.24999428  1
  Na  Na7  1  0.53931171  0.46070280  0.24999610  1
  Na  Na8  1  0.75000581  0.75001263  0.35000995  1
  Na  Na9  1  0.75000726  0.75000659  0.85001724  1
  Na  Na10  1  0.96071690  0.03931473  0.25001326  1
  Na  Na11  1  0.96070668  0.46071328  0.24999376  1
  Cu  Cu12  1  0.25000499  0.75001475  0.25000274  1
  Cu  Cu13  1  0.75001116  0.25001333  0.74999579  1
  O  O14  1  0.99896056  0.25000731  0.91479877  1
  O  O15  1  0.25001156  0.99896324  0.41480431  1
  O  O16  1  0.25000633  0.50104399  0.41479552  1
  O  O17  1  0.50104901  0.25000697  0.91478780  1
  O  O18  1  0.49896378  0.75000621  0.08519897  1
  O  O19  1  0.75000928  0.00105250  0.58521099  1
  O  O20  1  0.75000717  0.49896095  0.58520360  1
  O  O21  1  0.00105310  0.75001165  0.08520776  1
