# generated using pymatgen
data_GdIn2Cu9
_symmetry_space_group_name_H-M   'P 1'
_cell_length_a   5.03915623
_cell_length_b   8.44755983
_cell_length_c   8.44755983
_cell_angle_alpha   90.00000000
_cell_angle_beta   90.00000000
_cell_angle_gamma   90.00000000
_symmetry_Int_Tables_number   1
_chemical_formula_structural   GdIn2Cu9
_chemical_formula_sum   'Gd2 In4 Cu18'
_cell_volume   359.60057359
_cell_formula_units_Z   2
loop_
 _symmetry_equiv_pos_site_id
 _symmetry_equiv_pos_as_xyz
  1  'x, y, z'
loop_
 _atom_site_type_symbol
 _atom_site_label
 _atom_site_symmetry_multiplicity
 _atom_site_fract_x
 _atom_site_fract_y
 _atom_site_fract_z
 _atom_site_occupancy
  Gd  Gd0  1  0.00000000  -0.00000000  0.00000000  1
  Gd  Gd1  1  0.00000000  0.50000000  0.50000000  1
  In  In2  1  0.00000000  0.62439561  0.12439561  1
  In  In3  1  0.00000000  0.37560439  0.87560439  1
  In  In4  1  0.00000000  0.87560439  0.62439561  1
  In  In5  1  0.00000000  0.12439561  0.37560439  1
  Cu  Cu6  1  0.50000000  -0.00000000  0.50000000  1
  Cu  Cu7  1  0.50000000  0.50000000  0.00000000  1
  Cu  Cu8  1  0.50000000  0.06307578  0.20328270  1
  Cu  Cu9  1  0.50000000  0.93692422  0.79671730  1
  Cu  Cu10  1  0.50000000  0.79671730  0.06307578  1
  Cu  Cu11  1  0.50000000  0.43692422  0.70328270  1
  Cu  Cu12  1  0.50000000  0.20328270  0.93692422  1
  Cu  Cu13  1  0.50000000  0.56307578  0.29671730  1
  Cu  Cu14  1  0.50000000  0.70328270  0.56307578  1
  Cu  Cu15  1  0.50000000  0.29671730  0.43692422  1
  Cu  Cu16  1  0.24589247  0.17732925  0.67732925  1
  Cu  Cu17  1  0.75410753  0.82267075  0.32267075  1
  Cu  Cu18  1  0.24589247  0.82267075  0.32267075  1
  Cu  Cu19  1  0.24589247  0.32267075  0.17732925  1
  Cu  Cu20  1  0.75410753  0.32267075  0.17732925  1
  Cu  Cu21  1  0.75410753  0.17732925  0.67732925  1
  Cu  Cu22  1  0.75410753  0.67732925  0.82267075  1
  Cu  Cu23  1  0.24589247  0.67732925  0.82267075  1
