# generated using pymatgen
data_Cs2Ca2(SO4)3
_symmetry_space_group_name_H-M   'P 1'
_cell_length_a   10.85273879
_cell_length_b   10.85273879
_cell_length_c   10.85273879
_cell_angle_alpha   90.00000000
_cell_angle_beta   90.00000000
_cell_angle_gamma   90.00000000
_symmetry_Int_Tables_number   1
_chemical_formula_structural   Cs2Ca2(SO4)3
_chemical_formula_sum   'Cs8 Ca8 S12 O48'
_cell_volume   1278.25662079
_cell_formula_units_Z   4
loop_
 _symmetry_equiv_pos_site_id
 _symmetry_equiv_pos_as_xyz
  1  'x, y, z'
loop_
 _atom_site_type_symbol
 _atom_site_label
 _atom_site_symmetry_multiplicity
 _atom_site_fract_x
 _atom_site_fract_y
 _atom_site_fract_z
 _atom_site_occupancy
  Cs  Cs0  1  0.04745358  0.04745358  0.04745358  1
  Cs  Cs1  1  0.45254642  0.95254642  0.54745358  1
  Cs  Cs2  1  0.95254642  0.54745358  0.45254642  1
  Cs  Cs3  1  0.54745358  0.45254642  0.95254642  1
  Cs  Cs4  1  0.81675531  0.81675531  0.81675531  1
  Cs  Cs5  1  0.68324469  0.18324469  0.31675531  1
  Cs  Cs6  1  0.18324469  0.31675531  0.68324469  1
  Cs  Cs7  1  0.31675531  0.68324469  0.18324469  1
  Ca  Ca8  1  0.33480657  0.33480657  0.33480657  1
  Ca  Ca9  1  0.16519343  0.66519343  0.83480657  1
  Ca  Ca10  1  0.66519343  0.83480657  0.16519343  1
  Ca  Ca11  1  0.83480657  0.16519343  0.66519343  1
  Ca  Ca12  1  0.59889347  0.59889347  0.59889347  1
  Ca  Ca13  1  0.90110653  0.40110653  0.09889347  1
  Ca  Ca14  1  0.40110653  0.09889347  0.90110653  1
  Ca  Ca15  1  0.09889347  0.90110653  0.40110653  1
  S  S16  1  0.01731836  0.21644292  0.37579449  1
  S  S17  1  0.48268164  0.78355708  0.87579449  1
  S  S18  1  0.98268164  0.71644292  0.12420551  1
  S  S19  1  0.37579449  0.01731836  0.21644292  1
  S  S20  1  0.51731836  0.28355708  0.62420551  1
  S  S21  1  0.87579449  0.48268164  0.78355708  1
  S  S22  1  0.12420551  0.98268164  0.71644292  1
  S  S23  1  0.62420551  0.51731836  0.28355708  1
  S  S24  1  0.21644292  0.37579449  0.01731836  1
  S  S25  1  0.71644292  0.12420551  0.98268164  1
  S  S26  1  0.28355708  0.62420551  0.51731836  1
  S  S27  1  0.78355708  0.87579449  0.48268164  1
  O  O28  1  0.00792681  0.08678986  0.33239321  1
  O  O29  1  0.49207319  0.91321014  0.83239321  1
  O  O30  1  0.99207319  0.58678986  0.16760679  1
  O  O31  1  0.33239321  0.00792681  0.08678986  1
  O  O32  1  0.50792681  0.41321014  0.66760679  1
  O  O33  1  0.83239321  0.49207319  0.91321014  1
  O  O34  1  0.16760679  0.99207319  0.58678986  1
  O  O35  1  0.66760679  0.50792681  0.41321014  1
  O  O36  1  0.08678986  0.33239321  0.00792681  1
  O  O37  1  0.58678986  0.16760679  0.99207319  1
  O  O38  1  0.41321014  0.66760679  0.50792681  1
  O  O39  1  0.91321014  0.83239321  0.49207319  1
  O  O40  1  0.26619461  0.50779329  0.44575732  1
  O  O41  1  0.23380539  0.49220671  0.94575732  1
  O  O42  1  0.73380539  0.00779329  0.05424268  1
  O  O43  1  0.44575732  0.26619461  0.50779329  1
  O  O44  1  0.76619461  0.99220671  0.55424268  1
  O  O45  1  0.94575732  0.23380539  0.49220671  1
  O  O46  1  0.05424268  0.73380539  0.00779329  1
  O  O47  1  0.55424268  0.76619461  0.99220671  1
  O  O48  1  0.50779329  0.44575732  0.26619461  1
  O  O49  1  0.00779329  0.05424268  0.73380539  1
  O  O50  1  0.99220671  0.55424268  0.76619461  1
  O  O51  1  0.49220671  0.94575732  0.23380539  1
  O  O52  1  0.03700475  0.79854766  0.21980236  1
  O  O53  1  0.46299525  0.20145234  0.71980236  1
  O  O54  1  0.96299525  0.29854766  0.28019764  1
  O  O55  1  0.21980236  0.03700475  0.79854766  1
  O  O56  1  0.53700475  0.70145234  0.78019764  1
  O  O57  1  0.71980236  0.46299525  0.20145234  1
  O  O58  1  0.28019764  0.96299525  0.29854766  1
  O  O59  1  0.78019764  0.53700475  0.70145234  1
  O  O60  1  0.79854766  0.21980236  0.03700475  1
  O  O61  1  0.29854766  0.28019764  0.96299525  1
  O  O62  1  0.70145234  0.78019764  0.53700475  1
  O  O63  1  0.20145234  0.71980236  0.46299525  1
  O  O64  1  0.14767224  0.24972011  0.40024467  1
  O  O65  1  0.35232776  0.75027989  0.90024467  1
  O  O66  1  0.85232776  0.74972011  0.09975533  1
  O  O67  1  0.40024467  0.14767224  0.24972011  1
  O  O68  1  0.64767224  0.25027989  0.59975533  1
  O  O69  1  0.90024467  0.35232776  0.75027989  1
  O  O70  1  0.09975533  0.85232776  0.74972011  1
  O  O71  1  0.59975533  0.64767224  0.25027989  1
  O  O72  1  0.24972011  0.40024467  0.14767224  1
  O  O73  1  0.74972011  0.09975533  0.85232776  1
  O  O74  1  0.25027989  0.59975533  0.64767224  1
  O  O75  1  0.75027989  0.90024467  0.35232776  1
