# generated using pymatgen
data_Ce3Ge5
_symmetry_space_group_name_H-M   'P 1'
_cell_length_a   5.89626465
_cell_length_b   7.66884624
_cell_length_c   9.34531470
_cell_angle_alpha   83.03432621
_cell_angle_beta   71.61102725
_cell_angle_gamma   67.39165504
_symmetry_Int_Tables_number   1
_chemical_formula_structural   Ce3Ge5
_chemical_formula_sum   'Ce6 Ge10'
_cell_volume   370.17958095
_cell_formula_units_Z   2
loop_
 _symmetry_equiv_pos_site_id
 _symmetry_equiv_pos_as_xyz
  1  'x, y, z'
loop_
 _atom_site_type_symbol
 _atom_site_label
 _atom_site_symmetry_multiplicity
 _atom_site_fract_x
 _atom_site_fract_y
 _atom_site_fract_z
 _atom_site_occupancy
  Ce  Ce0  1  0.03572697  0.61755878  0.83597324  1
  Ce  Ce1  1  0.34671425  0.61755878  0.16402676  1
  Ce  Ce2  1  0.12170021  0.11755878  0.66402676  1
  Ce  Ce3  1  0.76074101  0.11755878  0.33597324  1
  Ce  Ce4  1  0.44900206  0.10199589  -0.00000000  1
  Ce  Ce5  1  0.69900206  0.60199589  0.50000000  1
  Ge  Ge6  1  0.52570887  0.27775057  0.67402837  1
  Ge  Ge7  1  0.19654055  0.27775057  0.32597163  1
  Ge  Ge8  1  0.44973724  0.77775057  0.82597163  1
  Ge  Ge9  1  0.77251219  0.77775057  0.17402837  1
  Ge  Ge10  1  0.30282945  0.91346530  0.36759811  1
  Ge  Ge11  1  0.78370525  0.91346530  0.63240189  1
  Ge  Ge12  1  0.92042756  0.41346530  0.13240189  1
  Ge  Ge13  1  0.66610714  0.41346530  0.86759811  1
  Ge  Ge14  1  0.00127259  0.99745481  0.00000000  1
  Ge  Ge15  1  0.25127259  0.49745481  0.50000000  1
