# generated using pymatgen
data_CrNi2BO5
_symmetry_space_group_name_H-M   'P 1'
_cell_length_a   3.03186705
_cell_length_b   9.31168363
_cell_length_c   12.24052571
_cell_angle_alpha   90.00000000
_cell_angle_beta   90.00000000
_cell_angle_gamma   90.00000000
_symmetry_Int_Tables_number   1
_chemical_formula_structural   CrNi2BO5
_chemical_formula_sum   'Cr4 Ni8 B4 O20'
_cell_volume   345.57191189
_cell_formula_units_Z   4
loop_
 _symmetry_equiv_pos_site_id
 _symmetry_equiv_pos_as_xyz
  1  'x, y, z'
loop_
 _atom_site_type_symbol
 _atom_site_label
 _atom_site_symmetry_multiplicity
 _atom_site_fract_x
 _atom_site_fract_y
 _atom_site_fract_z
 _atom_site_occupancy
  Cr  Cr0  1  -0.00000000  0.24098085  0.38682830  1
  Cr  Cr1  1  -0.00000000  0.75901915  0.61317170  1
  Cr  Cr2  1  -0.00000000  0.25901915  0.88682830  1
  Cr  Cr3  1  -0.00000000  0.74098085  0.11317170  1
  Ni  Ni4  1  0.50000000  0.00000000  0.50000000  1
  Ni  Ni5  1  0.50000000  0.50000000  -0.00000000  1
  Ni  Ni6  1  0.50000000  0.00083958  0.21802645  1
  Ni  Ni7  1  0.50000000  0.99916042  0.78197355  1
  Ni  Ni8  1  0.50000000  0.49916042  0.71802645  1
  Ni  Ni9  1  0.50000000  0.50083958  0.28197355  1
  Ni  Ni10  1  -0.00000000  0.00000000  -0.00000000  1
  Ni  Ni11  1  -0.00000000  0.50000000  0.50000000  1
  B  B12  1  -0.00000000  0.27264961  0.13984281  1
  B  B13  1  -0.00000000  0.72735039  0.86015719  1
  B  B14  1  -0.00000000  0.22735039  0.63984281  1
  B  B15  1  -0.00000000  0.77264961  0.36015719  1
  O  O16  1  0.50000000  0.10844400  0.35686918  1
  O  O17  1  0.50000000  0.89155600  0.64313082  1
  O  O18  1  0.50000000  0.39155600  0.85686918  1
  O  O19  1  0.50000000  0.60844400  0.14313082  1
  O  O20  1  0.00000000  0.12465773  0.14126334  1
  O  O21  1  -0.00000000  0.87534227  0.85873666  1
  O  O22  1  0.00000000  0.37534227  0.64126334  1
  O  O23  1  -0.00000000  0.62465773  0.35873666  1
  O  O24  1  0.50000000  0.38240144  0.42297358  1
  O  O25  1  0.50000000  0.61759856  0.57702642  1
  O  O26  1  0.50000000  0.11759856  0.92297358  1
  O  O27  1  0.50000000  0.88240144  0.07702642  1
  O  O28  1  -0.00000000  0.34772586  0.23799151  1
  O  O29  1  0.00000000  0.65227414  0.76200849  1
  O  O30  1  0.00000000  0.15227414  0.73799151  1
  O  O31  1  0.00000000  0.84772586  0.26200849  1
  O  O32  1  0.00000000  0.34874681  0.04155185  1
  O  O33  1  -0.00000000  0.65125319  0.95844815  1
  O  O34  1  -0.00000000  0.15125319  0.54155185  1
  O  O35  1  -0.00000000  0.84874681  0.45844815  1
