# generated using pymatgen
data_Cs2CeTa6(Br5O)3
_symmetry_space_group_name_H-M   'P 1'
_cell_length_a   9.65340620
_cell_length_b   9.65340620
_cell_length_c   18.41268590
_cell_angle_alpha   90.00000000
_cell_angle_beta   90.00000000
_cell_angle_gamma   120.00000627
_symmetry_Int_Tables_number   1
_chemical_formula_structural   Cs2CeTa6(Br5O)3
_chemical_formula_sum   'Cs4 Ce2 Ta12 Br30 O6'
_cell_volume   1485.96613255
_cell_formula_units_Z   2
loop_
 _symmetry_equiv_pos_site_id
 _symmetry_equiv_pos_as_xyz
  1  'x, y, z'
loop_
 _atom_site_type_symbol
 _atom_site_label
 _atom_site_symmetry_multiplicity
 _atom_site_fract_x
 _atom_site_fract_y
 _atom_site_fract_z
 _atom_site_occupancy
  Cs  Cs0  1  0.66666700  0.33333300  0.95302287  1
  Cs  Cs1  1  0.33333300  0.66666700  0.04697713  1
  Cs  Cs2  1  0.66666700  0.33333300  0.54697709  1
  Cs  Cs3  1  0.33333300  0.66666700  0.45302291  1
  Ce  Ce4  1  0.33333300  0.66666700  0.74999997  1
  Ce  Ce5  1  0.66666700  0.33333300  0.25000003  1
  Ta  Ta6  1  0.81124885  0.82821332  0.81313022  1
  Ta  Ta7  1  0.18875115  0.17178668  0.18686978  1
  Ta  Ta8  1  0.01696447  0.18875115  0.81313022  1
  Ta  Ta9  1  0.01696389  0.82821330  0.68686976  1
  Ta  Ta10  1  0.98303553  0.81124885  0.18686978  1
  Ta  Ta11  1  0.98303611  0.17178670  0.31313024  1
  Ta  Ta12  1  0.17178668  0.98303553  0.81313022  1
  Ta  Ta13  1  0.17178670  0.18875058  0.68686976  1
  Ta  Ta14  1  0.82821332  0.01696447  0.18686978  1
  Ta  Ta15  1  0.82821330  0.81124942  0.31313024  1
  Ta  Ta16  1  0.81124942  0.98303611  0.68686976  1
  Ta  Ta17  1  0.18875058  0.01696389  0.31313024  1
  Br  Br18  1  0.78723384  0.57446745  0.74999987  1
  Br  Br19  1  0.21276616  0.42553255  0.25000013  1
  Br  Br20  1  0.78723361  0.21276616  0.74999987  1
  Br  Br21  1  0.21276639  0.78723384  0.25000013  1
  Br  Br22  1  0.42553255  0.21276639  0.74999987  1
  Br  Br23  1  0.57446745  0.78723361  0.25000013  1
  Br  Br24  1  0.79761697  0.01849875  0.91216825  1
  Br  Br25  1  0.20238303  0.98150125  0.08783175  1
  Br  Br26  1  0.22088178  0.20238303  0.91216825  1
  Br  Br27  1  0.22088101  0.01849768  0.58783180  1
  Br  Br28  1  0.77911822  0.79761697  0.08783175  1
  Br  Br29  1  0.77911899  0.98150232  0.41216820  1
  Br  Br30  1  0.98150125  0.77911822  0.91216825  1
  Br  Br31  1  0.98150232  0.20238333  0.58783180  1
  Br  Br32  1  0.01849875  0.22088178  0.08783175  1
  Br  Br33  1  0.01849768  0.79761667  0.41216820  1
  Br  Br34  1  0.79761667  0.77911899  0.58783180  1
  Br  Br35  1  0.20238333  0.22088101  0.41216820  1
  Br  Br36  1  0.52971904  0.60570201  0.88176356  1
  Br  Br37  1  0.47028096  0.39429799  0.11823644  1
  Br  Br38  1  0.07598298  0.47028096  0.88176356  1
  Br  Br39  1  0.07598229  0.60570162  0.61823646  1
  Br  Br40  1  0.92401702  0.52971904  0.11823644  1
  Br  Br41  1  0.92401771  0.39429838  0.38176354  1
  Br  Br42  1  0.39429799  0.92401702  0.88176356  1
  Br  Br43  1  0.39429838  0.47028067  0.61823646  1
  Br  Br44  1  0.60570201  0.07598298  0.11823644  1
  Br  Br45  1  0.60570162  0.52971933  0.38176354  1
  Br  Br46  1  0.52971933  0.92401771  0.61823646  1
  Br  Br47  1  0.47028067  0.07598229  0.38176354  1
  O  O48  1  0.18043101  0.36086016  0.75000016  1
  O  O49  1  0.81956899  0.63913984  0.24999984  1
  O  O50  1  0.18042916  0.81956899  0.75000016  1
  O  O51  1  0.81957084  0.18043101  0.24999984  1
  O  O52  1  0.63913984  0.81957084  0.75000016  1
  O  O53  1  0.36086016  0.18042916  0.24999984  1
