# generated using pymatgen
data_CdCo(PO3)4
_symmetry_space_group_name_H-M   'P 1'
_cell_length_a   7.49244673
_cell_length_b   7.49244673
_cell_length_c   9.99574864
_cell_angle_alpha   98.33331027
_cell_angle_beta   110.96143542
_cell_angle_gamma   109.23124632
_symmetry_Int_Tables_number   1
_chemical_formula_structural   CdCo(PO3)4
_chemical_formula_sum   'Cd2 Co2 P8 O24'
_cell_volume   472.27248737
_cell_formula_units_Z   2
loop_
 _symmetry_equiv_pos_site_id
 _symmetry_equiv_pos_as_xyz
  1  'x, y, z'
loop_
 _atom_site_type_symbol
 _atom_site_label
 _atom_site_symmetry_multiplicity
 _atom_site_fract_x
 _atom_site_fract_y
 _atom_site_fract_z
 _atom_site_occupancy
  Cd  Cd0  1  0.70153335  0.45153335  0.25000000  1
  Cd  Cd1  1  0.29846665  0.54846665  0.75000000  1
  Co  Co2  1  0.50000000  -0.00000000  -0.00000000  1
  Co  Co3  1  0.50000000  0.50000000  0.50000000  1
  P  P4  1  0.00850470  0.19339566  0.19656764  1
  P  P5  1  0.99149530  0.80660434  0.80343236  1
  P  P6  1  0.49682802  0.81193706  0.30343236  1
  P  P7  1  0.50317198  0.18806294  0.69656764  1
  P  P8  1  0.24066573  0.78072963  0.47504136  1
  P  P9  1  0.75933427  0.21927037  0.52495864  1
  P  P10  1  0.80568826  0.76562436  0.02495864  1
  P  P11  1  0.19431174  0.23437564  0.97504136  1
  O  O12  1  0.01049518  0.67991276  0.41961660  1
  O  O13  1  0.98950482  0.32008724  0.58038340  1
  O  O14  1  0.76029616  0.59087857  0.08038340  1
  O  O15  1  0.23970384  0.40912143  0.91961660  1
  O  O16  1  0.46402018  0.85012998  0.15685564  1
  O  O17  1  0.53597982  0.14987002  0.84314436  1
  O  O18  1  0.19327434  0.30716454  0.34314436  1
  O  O19  1  0.80672566  0.69283546  0.65685564  1
  O  O20  1  0.37661030  0.19366529  0.07372100  1
  O  O21  1  0.62338970  0.80633471  0.92627900  1
  O  O22  1  0.61994428  0.30288929  0.42627900  1
  O  O23  1  0.38005572  0.69711071  0.57372100  1
  O  O24  1  0.79978105  0.20331961  0.17276139  1
  O  O25  1  0.20021895  0.79668039  0.82723861  1
  O  O26  1  0.53055823  0.62701967  0.32723861  1
  O  O27  1  0.46944177  0.37298033  0.67276139  1
  O  O28  1  0.30523815  0.00706774  0.56036066  1
  O  O29  1  0.69476185  0.99293226  0.43963934  1
  O  O30  1  0.94670708  0.74487749  0.93963934  1
  O  O31  1  0.05329292  0.25512251  0.06036066  1
  O  O32  1  0.96795144  0.96279825  0.16437736  1
  O  O33  1  0.03204856  0.03720175  0.83562264  1
  O  O34  1  0.29842089  0.80357408  0.33562264  1
  O  O35  1  0.70157911  0.19642592  0.66437736  1
