# generated using pymatgen
data_CeMgRh
_symmetry_space_group_name_H-M   'P 1'
_cell_length_a   4.08123438
_cell_length_b   7.41029980
_cell_length_c   7.41029980
_cell_angle_alpha   120.00000162
_cell_angle_beta   90.00000000
_cell_angle_gamma   90.00000000
_symmetry_Int_Tables_number   1
_chemical_formula_structural   CeMgRh
_chemical_formula_sum   'Ce3 Mg3 Rh3'
_cell_volume   194.08578058
_cell_formula_units_Z   3
loop_
 _symmetry_equiv_pos_site_id
 _symmetry_equiv_pos_as_xyz
  1  'x, y, z'
loop_
 _atom_site_type_symbol
 _atom_site_label
 _atom_site_symmetry_multiplicity
 _atom_site_fract_x
 _atom_site_fract_y
 _atom_site_fract_z
 _atom_site_occupancy
  Ce  Ce0  1  -0.00000000  0.41661061  0.41661061  1
  Ce  Ce1  1  -0.00000000  1.00000000  0.58338939  1
  Ce  Ce2  1  0.00000000  0.58338939  1.00000000  1
  Mg  Mg3  1  0.50000000  0.76003189  0.76003189  1
  Mg  Mg4  1  0.50000000  0.00000000  0.23996811  1
  Mg  Mg5  1  0.50000000  0.23996811  0.00000000  1
  Rh  Rh6  1  0.50000000  0.66666700  0.33333300  1
  Rh  Rh7  1  0.50000000  0.33333300  0.66666700  1
  Rh  Rh8  1  -0.00000000  -0.00000000  -0.00000000  1
