# generated using pymatgen
data_Ce2Ni3Ge5
_symmetry_space_group_name_H-M   'P 1'
_cell_length_a   5.94052837
_cell_length_b   8.18416548
_cell_length_c   8.18416548
_cell_angle_alpha   73.06096389
_cell_angle_beta   68.71986914
_cell_angle_gamma   68.71986914
_symmetry_Int_Tables_number   1
_chemical_formula_structural   Ce2Ni3Ge5
_chemical_formula_sum   'Ce4 Ni6 Ge10'
_cell_volume   339.60047012
_cell_formula_units_Z   2
loop_
 _symmetry_equiv_pos_site_id
 _symmetry_equiv_pos_as_xyz
  1  'x, y, z'
loop_
 _atom_site_type_symbol
 _atom_site_label
 _atom_site_symmetry_multiplicity
 _atom_site_fract_x
 _atom_site_fract_y
 _atom_site_fract_z
 _atom_site_occupancy
  Ce  Ce0  1  0.63168378  0.10149032  0.63514213  1
  Ce  Ce1  1  0.36831622  0.89850968  0.36485787  1
  Ce  Ce2  1  0.13168378  0.63514213  0.10149032  1
  Ce  Ce3  1  0.86831622  0.36485787  0.89850968  1
  Ni  Ni4  1  0.86190243  0.02835713  0.24783801  1
  Ni  Ni5  1  0.13809757  0.97164287  0.75216199  1
  Ni  Ni6  1  0.36190243  0.24783801  0.02835713  1
  Ni  Ni7  1  0.63809757  0.75216199  0.97164287  1
  Ni  Ni8  1  0.75000000  0.50000000  0.50000000  1
  Ni  Ni9  1  0.25000000  0.50000000  0.50000000  1
  Ge  Ge10  1  0.48099336  0.26900664  0.26900664  1
  Ge  Ge11  1  0.51900664  0.73099336  0.73099336  1
  Ge  Ge12  1  0.01900664  0.73099336  0.73099336  1
  Ge  Ge13  1  0.98099336  0.26900664  0.26900664  1
  Ge  Ge14  1  0.89912857  0.75683501  0.44490786  1
  Ge  Ge15  1  0.10087143  0.24316499  0.55509214  1
  Ge  Ge16  1  0.39912857  0.44490786  0.75683501  1
  Ge  Ge17  1  0.60087143  0.55509214  0.24316499  1
  Ge  Ge18  1  0.75000000  -0.00000000  0.00000000  1
  Ge  Ge19  1  0.25000000  -0.00000000  0.00000000  1
