# generated using pymatgen
data_CeInCu5
_symmetry_space_group_name_H-M   'P 1'
_cell_length_a   5.05224487
_cell_length_b   8.32259596
_cell_length_c   10.55959461
_cell_angle_alpha   90.00000000
_cell_angle_beta   90.00000000
_cell_angle_gamma   90.00000000
_symmetry_Int_Tables_number   1
_chemical_formula_structural   CeInCu5
_chemical_formula_sum   'Ce4 In4 Cu20'
_cell_volume   444.00764562
_cell_formula_units_Z   4
loop_
 _symmetry_equiv_pos_site_id
 _symmetry_equiv_pos_as_xyz
  1  'x, y, z'
loop_
 _atom_site_type_symbol
 _atom_site_label
 _atom_site_symmetry_multiplicity
 _atom_site_fract_x
 _atom_site_fract_y
 _atom_site_fract_z
 _atom_site_occupancy
  Ce  Ce0  1  0.75000000  0.74399402  0.44064861  1
  Ce  Ce1  1  0.25000000  0.25600598  0.55935139  1
  Ce  Ce2  1  0.25000000  0.75600598  0.94064861  1
  Ce  Ce3  1  0.75000000  0.24399402  0.05935139  1
  In  In4  1  0.75000000  0.86075975  0.13735802  1
  In  In5  1  0.25000000  0.13924025  0.86264198  1
  In  In6  1  0.25000000  0.63924025  0.63735802  1
  In  In7  1  0.75000000  0.36075975  0.36264198  1
  Cu  Cu8  1  0.49993624  0.93309936  0.68824503  1
  Cu  Cu9  1  0.50006376  0.06690064  0.31175497  1
  Cu  Cu10  1  0.50006376  0.56690064  0.18824503  1
  Cu  Cu11  1  0.99993624  0.06690064  0.31175497  1
  Cu  Cu12  1  0.49993624  0.43309936  0.81175497  1
  Cu  Cu13  1  0.00006376  0.93309936  0.68824503  1
  Cu  Cu14  1  0.00006376  0.43309936  0.81175497  1
  Cu  Cu15  1  0.99993624  0.56690064  0.18824503  1
  Cu  Cu16  1  0.75000000  0.58387349  0.98454634  1
  Cu  Cu17  1  0.25000000  0.41612651  0.01545366  1
  Cu  Cu18  1  0.25000000  0.91612651  0.48454634  1
  Cu  Cu19  1  0.75000000  0.08387349  0.51545366  1
  Cu  Cu20  1  0.75000000  0.94103272  0.89428722  1
  Cu  Cu21  1  0.25000000  0.05896728  0.10571278  1
  Cu  Cu22  1  0.25000000  0.55896728  0.39428722  1
  Cu  Cu23  1  0.75000000  0.44103272  0.60571278  1
  Cu  Cu24  1  0.75000000  0.68306518  0.75594785  1
  Cu  Cu25  1  0.25000000  0.31693482  0.24405215  1
  Cu  Cu26  1  0.25000000  0.81693482  0.25594785  1
  Cu  Cu27  1  0.75000000  0.18306518  0.74405215  1
