# generated using pymatgen
data_Ce6Ni20P13
_symmetry_space_group_name_H-M   'P 1'
_cell_length_a   3.81417099
_cell_length_b   12.75372251
_cell_length_c   12.75372252
_cell_angle_alpha   119.99999913
_cell_angle_beta   90.00000000
_cell_angle_gamma   90.00000000
_symmetry_Int_Tables_number   1
_chemical_formula_structural   Ce6Ni20P13
_chemical_formula_sum   'Ce6 Ni20 P13'
_cell_volume   537.28500667
_cell_formula_units_Z   1
loop_
 _symmetry_equiv_pos_site_id
 _symmetry_equiv_pos_as_xyz
  1  'x, y, z'
loop_
 _atom_site_type_symbol
 _atom_site_label
 _atom_site_symmetry_multiplicity
 _atom_site_fract_x
 _atom_site_fract_y
 _atom_site_fract_z
 _atom_site_occupancy
  Ce  Ce0  1  -0.00000000  0.53067708  0.81278144  1
  Ce  Ce1  1  0.00000000  0.28210436  0.46932292  1
  Ce  Ce2  1  -0.00000000  0.18721856  0.71789564  1
  Ce  Ce3  1  0.50000000  0.81328426  0.28087525  1
  Ce  Ce4  1  0.50000000  0.46759099  0.18671574  1
  Ce  Ce5  1  0.50000000  0.71912475  0.53240901  1
  Ni  Ni6  1  -0.00000000  0.80597816  0.91153701  1
  Ni  Ni7  1  0.00000000  0.10555886  0.19402184  1
  Ni  Ni8  1  0.00000000  0.08846299  0.89444114  1
  Ni  Ni9  1  0.50000000  0.33333300  0.66666700  1
  Ni  Ni10  1  0.50000000  0.92848560  0.08216673  1
  Ni  Ni11  1  0.50000000  0.15368113  0.07151440  1
  Ni  Ni12  1  0.50000000  0.91783327  0.84631887  1
  Ni  Ni13  1  0.00000000  0.66666700  0.33333300  1
  Ni  Ni14  1  0.00000000  0.56360049  0.58601880  1
  Ni  Ni15  1  0.00000000  0.02241831  0.43639951  1
  Ni  Ni16  1  -0.00000000  0.41398120  0.97758169  1
  Ni  Ni17  1  0.50000000  0.68418085  0.75456461  1
  Ni  Ni18  1  0.50000000  0.07038376  0.31581915  1
  Ni  Ni19  1  0.50000000  0.24543539  0.92961624  1
  Ni  Ni20  1  0.50000000  0.97735819  0.56621687  1
  Ni  Ni21  1  0.50000000  0.58885868  0.02264181  1
  Ni  Ni22  1  0.50000000  0.43378313  0.41114132  1
  Ni  Ni23  1  -0.00000000  0.75788657  0.07721785  1
  Ni  Ni24  1  0.00000000  0.31933128  0.24211343  1
  Ni  Ni25  1  -0.00000000  0.92278215  0.68066872  1
  P  P26  1  0.50000000  0.47980054  0.61247154  1
  P  P27  1  0.50000000  0.13267100  0.52019946  1
  P  P28  1  0.50000000  0.38752846  0.86732900  1
  P  P29  1  0.50000000  0.72492411  0.95573493  1
  P  P30  1  0.50000000  0.23081082  0.27507589  1
  P  P31  1  0.50000000  0.04426507  0.76918918  1
  P  P32  1  0.00000000  0.86703828  0.47976313  1
  P  P33  1  -0.00000000  0.61272485  0.13296172  1
  P  P34  1  0.00000000  0.52023687  0.38727515  1
  P  P35  1  0.00000000  0.95440555  0.23219414  1
  P  P36  1  -0.00000000  0.27778858  0.04559445  1
  P  P37  1  -0.00000000  0.76780586  0.72221142  1
  P  P38  1  -0.00000000  0.00000000  0.00000000  1
