# generated using pymatgen
data_CeMg(BO2)5
_symmetry_space_group_name_H-M   'P 1'
_cell_length_a   7.67828430
_cell_length_b   8.82440569
_cell_length_c   9.56299750
_cell_angle_alpha   92.52857403
_cell_angle_beta   90.00000000
_cell_angle_gamma   90.00000000
_symmetry_Int_Tables_number   1
_chemical_formula_structural   CeMg(BO2)5
_chemical_formula_sum   'Ce4 Mg4 B20 O40'
_cell_volume   647.32240238
_cell_formula_units_Z   4
loop_
 _symmetry_equiv_pos_site_id
 _symmetry_equiv_pos_as_xyz
  1  'x, y, z'
loop_
 _atom_site_type_symbol
 _atom_site_label
 _atom_site_symmetry_multiplicity
 _atom_site_fract_x
 _atom_site_fract_y
 _atom_site_fract_z
 _atom_site_occupancy
  Ce  Ce0  1  0.81841578  0.81507675  0.76313915  1
  Ce  Ce1  1  0.18158422  0.18492325  0.23686085  1
  Ce  Ce2  1  0.31841578  0.68492325  0.73686085  1
  Ce  Ce3  1  0.68158422  0.31507675  0.26313915  1
  Mg  Mg4  1  0.08985595  0.10644132  0.62436157  1
  Mg  Mg5  1  0.91014405  0.89355868  0.37563843  1
  Mg  Mg6  1  0.58985595  0.39355868  0.87563843  1
  Mg  Mg7  1  0.41014405  0.60644132  0.12436157  1
  B  B8  1  0.17326105  0.98581304  0.89328046  1
  B  B9  1  0.82673895  0.01418696  0.10671954  1
  B  B10  1  0.67326105  0.51418696  0.60671954  1
  B  B11  1  0.32673895  0.48581304  0.39328046  1
  B  B12  1  0.42022038  0.08780360  0.73853524  1
  B  B13  1  0.57977962  0.91219640  0.26146476  1
  B  B14  1  0.92022038  0.41219640  0.76146476  1
  B  B15  1  0.07977962  0.58780360  0.23853524  1
  B  B16  1  0.18491020  0.42985410  0.91320169  1
  B  B17  1  0.81508980  0.57014590  0.08679831  1
  B  B18  1  0.68491020  0.07014590  0.58679831  1
  B  B19  1  0.31508980  0.92985410  0.41320169  1
  B  B20  1  0.53375917  0.71856932  0.44433880  1
  B  B21  1  0.46624083  0.28143068  0.55566120  1
  B  B22  1  0.03375917  0.78143068  0.05566120  1
  B  B23  1  0.96624083  0.21856932  0.94433880  1
  B  B24  1  0.40120748  0.15482242  0.99771026  1
  B  B25  1  0.59879252  0.84517758  0.00228974  1
  B  B26  1  0.90120748  0.34517758  0.50228974  1
  B  B27  1  0.09879252  0.65482242  0.49771026  1
  O  O28  1  0.08372012  0.48672783  0.80771535  1
  O  O29  1  0.91627988  0.51327217  0.19228465  1
  O  O30  1  0.58372012  0.01327217  0.69228465  1
  O  O31  1  0.41627988  0.98672783  0.30771535  1
  O  O32  1  0.12309324  0.31284945  0.98984011  1
  O  O33  1  0.87690676  0.68715055  0.01015989  1
  O  O34  1  0.62309324  0.18715055  0.51015989  1
  O  O35  1  0.37690676  0.81284945  0.48984011  1
  O  O36  1  0.60751072  0.66910869  0.58085479  1
  O  O37  1  0.39248928  0.33089131  0.41914521  1
  O  O38  1  0.10751072  0.83089131  0.91914521  1
  O  O39  1  0.89248928  0.16910869  0.08085479  1
  O  O40  1  0.28537364  0.97198088  0.76596789  1
  O  O41  1  0.71462636  0.02801912  0.23403211  1
  O  O42  1  0.78537364  0.52801912  0.73403211  1
  O  O43  1  0.21462636  0.47198088  0.26596789  1
  O  O44  1  0.34611988  0.49708080  0.93154819  1
  O  O45  1  0.65388012  0.50291920  0.06845181  1
  O  O46  1  0.84611988  0.00291920  0.56845181  1
  O  O47  1  0.15388012  0.99708080  0.43154819  1
  O  O48  1  0.22496927  0.54362452  0.51402377  1
  O  O49  1  0.77503073  0.45637548  0.48597623  1
  O  O50  1  0.72496927  0.95637548  0.98597623  1
  O  O51  1  0.27503073  0.04362452  0.01402377  1
  O  O52  1  0.34661174  0.18664443  0.63296694  1
  O  O53  1  0.65338826  0.81335557  0.36703306  1
  O  O54  1  0.84661174  0.31335557  0.86703306  1
  O  O55  1  0.15338826  0.68664443  0.13296694  1
  O  O56  1  0.46529144  0.18385516  0.86712527  1
  O  O57  1  0.53470856  0.81614484  0.13287473  1
  O  O58  1  0.96529144  0.31614484  0.63287473  1
  O  O59  1  0.03470856  0.68385516  0.36712527  1
  O  O60  1  0.04578288  0.73604342  0.61360267  1
  O  O61  1  0.95421712  0.26395658  0.38639733  1
  O  O62  1  0.54578288  0.76395658  0.88639733  1
  O  O63  1  0.45421712  0.23604342  0.11360267  1
  O  O64  1  0.02698261  0.08707289  0.85245314  1
  O  O65  1  0.97301739  0.91292711  0.14754686  1
  O  O66  1  0.52698261  0.41292711  0.64754686  1
  O  O67  1  0.47301739  0.58707289  0.35245314  1
