# generated using pymatgen
data_Cd4As2Cl3
_symmetry_space_group_name_H-M   'P 1'
_cell_length_a   12.72310551
_cell_length_b   12.72310551
_cell_length_c   12.72310551
_cell_angle_alpha   90.00000000
_cell_angle_beta   90.00000000
_cell_angle_gamma   90.00000000
_symmetry_Int_Tables_number   1
_chemical_formula_structural   Cd4As2Cl3
_chemical_formula_sum   'Cd32 As16 Cl24'
_cell_volume   2059.58341570
_cell_formula_units_Z   8
loop_
 _symmetry_equiv_pos_site_id
 _symmetry_equiv_pos_as_xyz
  1  'x, y, z'
loop_
 _atom_site_type_symbol
 _atom_site_label
 _atom_site_symmetry_multiplicity
 _atom_site_fract_x
 _atom_site_fract_y
 _atom_site_fract_z
 _atom_site_occupancy
  Cd  Cd0  1  0.98707943  0.24738878  0.01969088  1
  Cd  Cd1  1  0.01292057  0.75261122  0.98030912  1
  Cd  Cd2  1  0.51292057  0.75261122  0.51969088  1
  Cd  Cd3  1  0.01292057  0.74738878  0.48030912  1
  Cd  Cd4  1  0.01969088  0.98707943  0.24738878  1
  Cd  Cd5  1  0.48707943  0.24738878  0.48030912  1
  Cd  Cd6  1  0.98707943  0.25261122  0.51969088  1
  Cd  Cd7  1  0.98030912  0.01292057  0.75261122  1
  Cd  Cd8  1  0.48707943  0.25261122  0.98030912  1
  Cd  Cd9  1  0.51969088  0.51292057  0.75261122  1
  Cd  Cd10  1  0.51292057  0.74738878  0.01969088  1
  Cd  Cd11  1  0.48030912  0.48707943  0.24738878  1
  Cd  Cd12  1  0.48030912  0.01292057  0.74738878  1
  Cd  Cd13  1  0.51969088  0.98707943  0.25261122  1
  Cd  Cd14  1  0.98030912  0.48707943  0.25261122  1
  Cd  Cd15  1  0.01969088  0.51292057  0.74738878  1
  Cd  Cd16  1  0.24738878  0.01969088  0.98707943  1
  Cd  Cd17  1  0.75261122  0.98030912  0.01292057  1
  Cd  Cd18  1  0.74738878  0.48030912  0.01292057  1
  Cd  Cd19  1  0.25261122  0.51969088  0.98707943  1
  Cd  Cd20  1  0.25261122  0.98030912  0.48707943  1
  Cd  Cd21  1  0.74738878  0.01969088  0.51292057  1
  Cd  Cd22  1  0.75261122  0.51969088  0.51292057  1
  Cd  Cd23  1  0.24738878  0.48030912  0.48707943  1
  Cd  Cd24  1  0.22473345  0.22473345  0.22473345  1
  Cd  Cd25  1  0.77526655  0.77526655  0.77526655  1
  Cd  Cd26  1  0.27526655  0.77526655  0.72473345  1
  Cd  Cd27  1  0.77526655  0.72473345  0.27526655  1
  Cd  Cd28  1  0.72473345  0.22473345  0.27526655  1
  Cd  Cd29  1  0.22473345  0.27526655  0.72473345  1
  Cd  Cd30  1  0.72473345  0.27526655  0.77526655  1
  Cd  Cd31  1  0.27526655  0.72473345  0.22473345  1
  As  As32  1  0.44497286  0.44497286  0.44497286  1
  As  As33  1  0.55502714  0.55502714  0.55502714  1
  As  As34  1  0.05502714  0.55502714  0.94497286  1
  As  As35  1  0.55502714  0.94497286  0.05502714  1
  As  As36  1  0.94497286  0.44497286  0.05502714  1
  As  As37  1  0.44497286  0.05502714  0.94497286  1
  As  As38  1  0.94497286  0.05502714  0.55502714  1
  As  As39  1  0.05502714  0.94497286  0.44497286  1
  As  As40  1  0.10643904  0.10643904  0.10643904  1
  As  As41  1  0.89356096  0.89356096  0.89356096  1
  As  As42  1  0.39356096  0.89356096  0.60643904  1
  As  As43  1  0.89356096  0.60643904  0.39356096  1
  As  As44  1  0.60643904  0.10643904  0.39356096  1
  As  As45  1  0.10643904  0.39356096  0.60643904  1
  As  As46  1  0.60643904  0.39356096  0.89356096  1
  As  As47  1  0.39356096  0.60643904  0.10643904  1
  Cl  Cl48  1  0.18351378  0.42556047  0.27120444  1
  Cl  Cl49  1  0.81648622  0.57443953  0.72879556  1
  Cl  Cl50  1  0.31648622  0.57443953  0.77120444  1
  Cl  Cl51  1  0.81648622  0.92556047  0.22879556  1
  Cl  Cl52  1  0.27120444  0.18351378  0.42556047  1
  Cl  Cl53  1  0.68351378  0.42556047  0.22879556  1
  Cl  Cl54  1  0.18351378  0.07443953  0.77120444  1
  Cl  Cl55  1  0.72879556  0.81648622  0.57443953  1
  Cl  Cl56  1  0.68351378  0.07443953  0.72879556  1
  Cl  Cl57  1  0.77120444  0.31648622  0.57443953  1
  Cl  Cl58  1  0.31648622  0.92556047  0.27120444  1
  Cl  Cl59  1  0.22879556  0.68351378  0.42556047  1
  Cl  Cl60  1  0.22879556  0.81648622  0.92556047  1
  Cl  Cl61  1  0.77120444  0.18351378  0.07443953  1
  Cl  Cl62  1  0.72879556  0.68351378  0.07443953  1
  Cl  Cl63  1  0.27120444  0.31648622  0.92556047  1
  Cl  Cl64  1  0.42556047  0.27120444  0.18351378  1
  Cl  Cl65  1  0.57443953  0.72879556  0.81648622  1
  Cl  Cl66  1  0.92556047  0.22879556  0.81648622  1
  Cl  Cl67  1  0.07443953  0.77120444  0.18351378  1
  Cl  Cl68  1  0.07443953  0.72879556  0.68351378  1
  Cl  Cl69  1  0.92556047  0.27120444  0.31648622  1
  Cl  Cl70  1  0.57443953  0.77120444  0.31648622  1
  Cl  Cl71  1  0.42556047  0.22879556  0.68351378  1
