# generated using pymatgen
data_Dy2TiO5
_symmetry_space_group_name_H-M   'P 1'
_cell_length_a   6.46708268
_cell_length_b   6.46708268
_cell_length_c   7.55119781
_cell_angle_alpha   68.15337459
_cell_angle_beta   111.84662541
_cell_angle_gamma   131.77511337
_symmetry_Int_Tables_number   1
_chemical_formula_structural   Dy2TiO5
_chemical_formula_sum   'Dy4 Ti2 O10'
_cell_volume   215.06094877
_cell_formula_units_Z   2
loop_
 _symmetry_equiv_pos_site_id
 _symmetry_equiv_pos_as_xyz
  1  'x, y, z'
loop_
 _atom_site_type_symbol
 _atom_site_label
 _atom_site_symmetry_multiplicity
 _atom_site_fract_x
 _atom_site_fract_y
 _atom_site_fract_z
 _atom_site_occupancy
  Dy  Dy0  1  0.34802143  0.62761160  0.74186291  1
  Dy  Dy1  1  0.37238840  0.65197857  0.24186291  1
  Dy  Dy2  1  0.62761160  0.34802143  0.75813709  1
  Dy  Dy3  1  0.65197857  0.37238840  0.25813709  1
  Ti  Ti4  1  0.00000000  0.00000000  0.50000000  1
  Ti  Ti5  1  0.00000000  0.00000000  0.00000000  1
  O  O6  1  0.02124446  0.68499454  0.63980604  1
  O  O7  1  0.31500546  0.97875554  0.13980604  1
  O  O8  1  0.61126780  0.75451122  0.54114674  1
  O  O9  1  0.16485211  0.16485211  0.75000000  1
  O  O10  1  0.75451122  0.61126780  0.95885326  1
  O  O11  1  0.24548878  0.38873220  0.04114674  1
  O  O12  1  0.83514789  0.83514789  0.25000000  1
  O  O13  1  0.38873220  0.24548878  0.45885326  1
  O  O14  1  0.68499454  0.02124446  0.86019396  1
  O  O15  1  0.97875554  0.31500546  0.36019396  1
