# generated using pymatgen
data_BaPrCuTe3
_symmetry_space_group_name_H-M   'P 1'
_cell_length_a   4.52688762
_cell_length_b   7.89252458
_cell_length_c   11.81531588
_cell_angle_alpha   90.00000000
_cell_angle_beta   90.00000000
_cell_angle_gamma   106.66547451
_symmetry_Int_Tables_number   1
_chemical_formula_structural   BaPrCuTe3
_chemical_formula_sum   'Ba2 Pr2 Cu2 Te6'
_cell_volume   404.41239069
_cell_formula_units_Z   2
loop_
 _symmetry_equiv_pos_site_id
 _symmetry_equiv_pos_as_xyz
  1  'x, y, z'
loop_
 _atom_site_type_symbol
 _atom_site_label
 _atom_site_symmetry_multiplicity
 _atom_site_fract_x
 _atom_site_fract_y
 _atom_site_fract_z
 _atom_site_occupancy
  Ba  Ba0  1  0.74738437  0.49476874  0.25000000  1
  Ba  Ba1  1  0.25261563  0.50523126  0.75000000  1
  Pr  Pr2  1  0.00000000  0.00000000  0.00000000  1
  Pr  Pr3  1  0.00000000  0.00000000  0.50000000  1
  Cu  Cu4  1  0.46475748  0.92951497  0.25000000  1
  Cu  Cu5  1  0.53524252  0.07048503  0.75000000  1
  Te  Te6  1  0.35989880  0.71979761  0.06794765  1
  Te  Te7  1  0.64010120  0.28020239  0.93205235  1
  Te  Te8  1  0.64010120  0.28020239  0.56794765  1
  Te  Te9  1  0.35989880  0.71979761  0.43205235  1
  Te  Te10  1  0.07042206  0.14084413  0.25000000  1
  Te  Te11  1  0.92957794  0.85915587  0.75000000  1
