# generated using pymatgen
data_BaPb3O4
_symmetry_space_group_name_H-M   'P 1'
_cell_length_a   6.34477122
_cell_length_b   8.00435743
_cell_length_c   8.00435743
_cell_angle_alpha   119.99999791
_cell_angle_beta   90.00000000
_cell_angle_gamma   90.00000000
_symmetry_Int_Tables_number   1
_chemical_formula_structural   BaPb3O4
_chemical_formula_sum   'Ba2 Pb6 O8'
_cell_volume   352.04611383
_cell_formula_units_Z   2
loop_
 _symmetry_equiv_pos_site_id
 _symmetry_equiv_pos_as_xyz
  1  'x, y, z'
loop_
 _atom_site_type_symbol
 _atom_site_label
 _atom_site_symmetry_multiplicity
 _atom_site_fract_x
 _atom_site_fract_y
 _atom_site_fract_z
 _atom_site_occupancy
  Ba  Ba0  1  0.75000000  0.33333300  0.66666700  1
  Ba  Ba1  1  0.25000000  0.66666700  0.33333300  1
  Pb  Pb2  1  0.75000000  0.83380619  0.17880530  1
  Pb  Pb3  1  0.75000000  0.34499911  0.16619381  1
  Pb  Pb4  1  0.25000000  0.65500089  0.82119470  1
  Pb  Pb5  1  0.75000000  0.82119470  0.65500089  1
  Pb  Pb6  1  0.25000000  0.17880530  0.83380619  1
  Pb  Pb7  1  0.25000000  0.16619381  0.34499911  1
  O  O8  1  0.75000000  0.66666700  0.33333300  1
  O  O9  1  0.25000000  0.33333300  0.66666700  1
  O  O10  1  -0.00000000  0.60792996  0.60792996  1
  O  O11  1  0.00000000  0.00000000  0.39207004  1
  O  O12  1  0.50000000  0.60792996  0.60792996  1
  O  O13  1  0.00000000  0.39207004  0.00000000  1
  O  O14  1  0.50000000  0.00000000  0.39207004  1
  O  O15  1  0.50000000  0.39207004  0.00000000  1
