# generated using pymatgen
data_Al12Fe7
_symmetry_space_group_name_H-M   'P 1'
_cell_length_a   4.79494758
_cell_length_b   6.38964689
_cell_length_c   8.70895699
_cell_angle_alpha   87.82359173
_cell_angle_beta   74.76322250
_cell_angle_gamma   82.87878673
_symmetry_Int_Tables_number   1
_chemical_formula_structural   Al12Fe7
_chemical_formula_sum   'Al12 Fe7'
_cell_volume   255.45580792
_cell_formula_units_Z   1
loop_
 _symmetry_equiv_pos_site_id
 _symmetry_equiv_pos_as_xyz
  1  'x, y, z'
loop_
 _atom_site_type_symbol
 _atom_site_label
 _atom_site_symmetry_multiplicity
 _atom_site_fract_x
 _atom_site_fract_y
 _atom_site_fract_z
 _atom_site_occupancy
  Al  Al0  1  0.41381661  0.45309852  0.30067955  1
  Al  Al1  1  0.58618339  0.54690148  0.69932045  1
  Al  Al2  1  0.04135706  0.12573697  0.70942674  1
  Al  Al3  1  0.95864294  0.87426303  0.29057326  1
  Al  Al4  1  0.59838988  0.18726138  0.52315112  1
  Al  Al5  1  0.40161012  0.81273862  0.47684888  1
  Al  Al6  1  0.31017123  0.66305185  0.03253224  1
  Al  Al7  1  0.68982877  0.33694815  0.96746776  1
  Al  Al8  1  0.00994473  0.29366581  0.17262641  1
  Al  Al9  1  0.99005527  0.70633419  0.82737359  1
  Al  Al10  1  0.49157844  0.00795111  0.16548052  1
  Al  Al11  1  0.50842156  0.99204889  0.83451948  1
  Fe  Fe12  1  0.22684161  0.35249657  0.88002967  1
  Fe  Fe13  1  0.77315839  0.64750343  0.11997033  1
  Fe  Fe14  1  0.13950822  0.15616239  0.41737489  1
  Fe  Fe15  1  0.86049178  0.84383761  0.58262511  1
  Fe  Fe16  1  -0.00000000  0.00000000  0.00000000  1
  Fe  Fe17  1  0.16546530  0.48089453  0.58596136  1
  Fe  Fe18  1  0.83453470  0.51910547  0.41403864  1
