# generated using pymatgen
data_AlNiAg2F7
_symmetry_space_group_name_H-M   'P 1'
_cell_length_a   7.28477664
_cell_length_b   7.34834621
_cell_length_c   7.34834621
_cell_angle_alpha   63.08057869
_cell_angle_beta   60.28576305
_cell_angle_gamma   60.28576305
_symmetry_Int_Tables_number   1
_chemical_formula_structural   AlNiAg2F7
_chemical_formula_sum   'Al2 Ni2 Ag4 F14'
_cell_volume   285.32144006
_cell_formula_units_Z   2
loop_
 _symmetry_equiv_pos_site_id
 _symmetry_equiv_pos_as_xyz
  1  'x, y, z'
loop_
 _atom_site_type_symbol
 _atom_site_label
 _atom_site_symmetry_multiplicity
 _atom_site_fract_x
 _atom_site_fract_y
 _atom_site_fract_z
 _atom_site_occupancy
  Al  Al0  1  0.24949214  0.11248670  0.38852902  1
  Al  Al1  1  0.75050786  0.61147098  0.88751330  1
  Ni  Ni2  1  0.25078438  0.11255228  0.88744772  1
  Ni  Ni3  1  0.74921562  0.11255228  0.88744772  1
  Ag  Ag4  1  0.24782920  0.61454818  0.88979342  1
  Ag  Ag5  1  0.75217080  0.11020658  0.38545182  1
  Ag  Ag6  1  0.25112634  0.61274037  0.38725963  1
  Ag  Ag7  1  0.74887366  0.61274037  0.38725963  1
  F  F8  1  0.33416714  0.81716545  0.51450027  1
  F  F9  1  0.66583286  0.48549973  0.18283455  1
  F  F10  1  0.54120738  0.07224606  0.20347133  1
  F  F11  1  0.45879262  0.79652867  0.92775394  1
  F  F12  1  0.81692477  0.79652867  0.92775394  1
  F  F13  1  0.18307523  0.07224606  0.20347133  1
  F  F14  1  0.31769992  0.15230063  0.57222182  1
  F  F15  1  0.68230008  0.42777818  0.84769937  1
  F  F16  1  0.04222237  0.42777818  0.84769937  1
  F  F17  1  0.95777763  0.15230063  0.57222182  1
  F  F18  1  -0.00000000  0.00241953  0.99758047  1
  F  F19  1  0.16439819  0.40785451  0.26334912  1
  F  F20  1  0.83560181  0.73665088  0.59214549  1
  F  F21  1  0.50000000  0.22290513  0.77709487  1
