# generated using pymatgen
data_Ba2PrBiO6
_symmetry_space_group_name_H-M   'P 1'
_cell_length_a   6.27123049
_cell_length_b   6.25906976
_cell_length_c   6.28872321
_cell_angle_alpha   60.38817002
_cell_angle_beta   60.09197201
_cell_angle_gamma   59.93570860
_symmetry_Int_Tables_number   1
_chemical_formula_structural   Ba2PrBiO6
_chemical_formula_sum   'Ba2 Pr1 Bi1 O6'
_cell_volume   175.08851783
_cell_formula_units_Z   1
loop_
 _symmetry_equiv_pos_site_id
 _symmetry_equiv_pos_as_xyz
  1  'x, y, z'
loop_
 _atom_site_type_symbol
 _atom_site_label
 _atom_site_symmetry_multiplicity
 _atom_site_fract_x
 _atom_site_fract_y
 _atom_site_fract_z
 _atom_site_occupancy
  Ba  Ba0  1  0.75157555  0.75511197  0.74173693  1
  Ba  Ba1  1  0.24842445  0.24488803  0.25826307  1
  Pr  Pr2  1  0.00000000  -0.00000000  -0.00000000  1
  Bi  Bi3  1  0.50000000  0.50000000  0.50000000  1
  O  O4  1  0.73735600  0.33213037  0.19315762  1
  O  O5  1  0.26264400  0.66786963  0.80684238  1
  O  O6  1  0.70189329  0.77454925  0.30137144  1
  O  O7  1  0.29810671  0.22545075  0.69862856  1
  O  O8  1  0.77781398  0.22545075  0.69862856  1
  O  O9  1  0.22218602  0.77454925  0.30137144  1
