# generated using pymatgen
data_Ba3Tb(BO2)9
_symmetry_space_group_name_H-M   'P 1'
_cell_length_a   7.27921138
_cell_length_b   7.27921138
_cell_length_c   17.55495252
_cell_angle_alpha   90.00000000
_cell_angle_beta   90.00000000
_cell_angle_gamma   120.00000589
_symmetry_Int_Tables_number   1
_chemical_formula_structural   Ba3Tb(BO2)9
_chemical_formula_sum   'Ba6 Tb2 B18 O36'
_cell_volume   805.56191720
_cell_formula_units_Z   2
loop_
 _symmetry_equiv_pos_site_id
 _symmetry_equiv_pos_as_xyz
  1  'x, y, z'
loop_
 _atom_site_type_symbol
 _atom_site_label
 _atom_site_symmetry_multiplicity
 _atom_site_fract_x
 _atom_site_fract_y
 _atom_site_fract_z
 _atom_site_occupancy
  Ba  Ba0  1  0.66666700  0.33333300  0.86748473  1
  Ba  Ba1  1  0.33333300  0.66666700  0.13251527  1
  Ba  Ba2  1  0.33333300  0.66666700  0.36748473  1
  Ba  Ba3  1  0.66666700  0.33333300  0.63251527  1
  Ba  Ba4  1  -0.00000000  -0.00000000  0.75000000  1
  Ba  Ba5  1  -0.00000000  -0.00000000  0.25000000  1
  Tb  Tb6  1  -0.00000000  -0.00000000  0.00000000  1
  Tb  Tb7  1  -0.00000000  -0.00000000  0.50000000  1
  B  B8  1  0.54990656  0.83494479  0.91816427  1
  B  B9  1  0.45009344  0.16505521  0.08183573  1
  B  B10  1  0.28503823  0.45009344  0.91816427  1
  B  B11  1  0.45009344  0.16505521  0.41816427  1
  B  B12  1  0.71496177  0.54990656  0.08183573  1
  B  B13  1  0.54990656  0.83494479  0.58183573  1
  B  B14  1  0.16505521  0.71496177  0.91816427  1
  B  B15  1  0.71496177  0.54990656  0.41816427  1
  B  B16  1  0.83494479  0.28503823  0.08183573  1
  B  B17  1  0.28503823  0.45009344  0.58183573  1
  B  B18  1  0.83494479  0.28503823  0.41816427  1
  B  B19  1  0.16505521  0.71496177  0.58183573  1
  B  B20  1  0.50481332  0.62215078  0.75000000  1
  B  B21  1  0.49518668  0.37784922  0.25000000  1
  B  B22  1  0.11733746  0.49518668  0.75000000  1
  B  B23  1  0.88266254  0.50481332  0.25000000  1
  B  B24  1  0.37784922  0.88266254  0.75000000  1
  B  B25  1  0.62215078  0.11733746  0.25000000  1
  O  O26  1  0.54193705  0.83297344  0.75000000  1
  O  O27  1  0.45806295  0.16702656  0.25000000  1
  O  O28  1  0.29103639  0.45806295  0.75000000  1
  O  O29  1  0.70896361  0.54193705  0.25000000  1
  O  O30  1  0.16702656  0.70896361  0.75000000  1
  O  O31  1  0.83297344  0.29103639  0.25000000  1
  O  O32  1  0.92012384  0.33297485  0.75000000  1
  O  O33  1  0.07987616  0.66702515  0.25000000  1
  O  O34  1  0.41285100  0.07987616  0.75000000  1
  O  O35  1  0.58714900  0.92012384  0.25000000  1
  O  O36  1  0.66702515  0.58714900  0.75000000  1
  O  O37  1  0.33297485  0.41285100  0.25000000  1
  O  O38  1  0.74918581  0.99519556  0.91882305  1
  O  O39  1  0.25081419  0.00480444  0.08117695  1
  O  O40  1  0.24600975  0.25081419  0.91882305  1
  O  O41  1  0.25081419  0.00480444  0.41882305  1
  O  O42  1  0.75399025  0.74918581  0.08117695  1
  O  O43  1  0.74918581  0.99519556  0.58117695  1
  O  O44  1  0.00480444  0.75399025  0.91882305  1
  O  O45  1  0.75399025  0.74918581  0.41882305  1
  O  O46  1  0.99519556  0.24600975  0.08117695  1
  O  O47  1  0.24600975  0.25081419  0.58117695  1
  O  O48  1  0.99519556  0.24600975  0.41882305  1
  O  O49  1  0.00480444  0.75399025  0.58117695  1
  O  O50  1  0.49681268  0.62009286  0.91804595  1
  O  O51  1  0.50318732  0.37990714  0.08195405  1
  O  O52  1  0.12328018  0.50318732  0.91804595  1
  O  O53  1  0.50318732  0.37990714  0.41804595  1
  O  O54  1  0.87671982  0.49681268  0.08195405  1
  O  O55  1  0.49681268  0.62009286  0.58195405  1
  O  O56  1  0.37990714  0.87671982  0.91804595  1
  O  O57  1  0.87671982  0.49681268  0.41804595  1
  O  O58  1  0.62009286  0.12328018  0.08195405  1
  O  O59  1  0.12328018  0.50318732  0.58195405  1
  O  O60  1  0.62009286  0.12328018  0.41804595  1
  O  O61  1  0.37990714  0.87671982  0.58195405  1
