# generated using pymatgen
data_AgRh(SO4)2
_symmetry_space_group_name_H-M   'P 1'
_cell_length_a   4.80481148
_cell_length_b   4.80481148
_cell_length_c   7.51359621
_cell_angle_alpha   87.04418687
_cell_angle_beta   87.04418687
_cell_angle_gamma   65.49036226
_symmetry_Int_Tables_number   1
_chemical_formula_structural   AgRh(SO4)2
_chemical_formula_sum   'Ag1 Rh1 S2 O8'
_cell_volume   157.53331964
_cell_formula_units_Z   1
loop_
 _symmetry_equiv_pos_site_id
 _symmetry_equiv_pos_as_xyz
  1  'x, y, z'
loop_
 _atom_site_type_symbol
 _atom_site_label
 _atom_site_symmetry_multiplicity
 _atom_site_fract_x
 _atom_site_fract_y
 _atom_site_fract_z
 _atom_site_occupancy
  Ag  Ag0  1  0.00000000  0.00000000  0.50000000  1
  Rh  Rh1  1  0.00000000  0.00000000  -0.00000000  1
  S  S2  1  0.36634559  0.36634559  0.78847259  1
  S  S3  1  0.63365441  0.63365441  0.21152741  1
  O  O4  1  0.29232238  0.29232238  0.61732395  1
  O  O5  1  0.70767762  0.70767762  0.38267605  1
  O  O6  1  0.71433935  0.24083497  0.79621751  1
  O  O7  1  0.28566065  0.75916503  0.20378249  1
  O  O8  1  0.75916503  0.28566065  0.20378249  1
  O  O9  1  0.24083497  0.71433935  0.79621751  1
  O  O10  1  0.25208405  0.25208405  0.95181994  1
  O  O11  1  0.74791595  0.74791595  0.04818006  1
