# generated using pymatgen
data_AsOsSe
_symmetry_space_group_name_H-M   'P 1'
_cell_length_a   6.13950364
_cell_length_b   6.17321038
_cell_length_c   6.25491367
_cell_angle_alpha   112.60538824
_cell_angle_beta   90.00000000
_cell_angle_gamma   90.00000000
_symmetry_Int_Tables_number   1
_chemical_formula_structural   AsOsSe
_chemical_formula_sum   'As4 Os4 Se4'
_cell_volume   218.85136424
_cell_formula_units_Z   4
loop_
 _symmetry_equiv_pos_site_id
 _symmetry_equiv_pos_as_xyz
  1  'x, y, z'
loop_
 _atom_site_type_symbol
 _atom_site_label
 _atom_site_symmetry_multiplicity
 _atom_site_fract_x
 _atom_site_fract_y
 _atom_site_fract_z
 _atom_site_occupancy
  As  As0  1  0.36662893  0.64313925  0.88256226  1
  As  As1  1  0.63337107  0.35686075  0.11743774  1
  As  As2  1  0.86662893  0.35686075  0.61743774  1
  As  As3  1  0.13337107  0.64313925  0.38256226  1
  Os  Os4  1  0.00311940  0.77409134  0.79441844  1
  Os  Os5  1  0.99688060  0.22590866  0.20558156  1
  Os  Os6  1  0.50311940  0.22590866  0.70558156  1
  Os  Os7  1  0.49688060  0.77409134  0.29441844  1
  Se  Se8  1  0.62886293  0.84134544  0.68832699  1
  Se  Se9  1  0.37113707  0.15865456  0.31167301  1
  Se  Se10  1  0.12886293  0.15865456  0.81167301  1
  Se  Se11  1  0.87113707  0.84134544  0.18832699  1
