# generated using pymatgen
data_Ba2LuReO6
_symmetry_space_group_name_H-M   'P 1'
_cell_length_a   5.92515696
_cell_length_b   5.92361838
_cell_length_c   8.37800040
_cell_angle_alpha   90.00000000
_cell_angle_beta   89.97187127
_cell_angle_gamma   90.00000000
_symmetry_Int_Tables_number   1
_chemical_formula_structural   Ba2LuReO6
_chemical_formula_sum   'Ba4 Lu2 Re2 O12'
_cell_volume   294.05411150
_cell_formula_units_Z   2
loop_
 _symmetry_equiv_pos_site_id
 _symmetry_equiv_pos_as_xyz
  1  'x, y, z'
loop_
 _atom_site_type_symbol
 _atom_site_label
 _atom_site_symmetry_multiplicity
 _atom_site_fract_x
 _atom_site_fract_y
 _atom_site_fract_z
 _atom_site_occupancy
  Ba  Ba0  1  0.00049124  0.49895810  0.24978724  1
  Ba  Ba1  1  0.99950876  0.50104190  0.75021276  1
  Ba  Ba2  1  0.49950876  0.99895810  0.25021276  1
  Ba  Ba3  1  0.50049124  0.00104190  0.74978724  1
  Lu  Lu4  1  0.00000000  0.00000000  0.00000000  1
  Lu  Lu5  1  0.50000000  0.50000000  0.50000000  1
  Re  Re6  1  0.00000000  -0.00000000  0.50000000  1
  Re  Re7  1  0.50000000  0.50000000  0.00000000  1
  O  O8  1  0.98832454  0.00037072  0.26200893  1
  O  O9  1  0.01167546  0.99962928  0.73799107  1
  O  O10  1  0.51167546  0.50037072  0.23799107  1
  O  O11  1  0.48832454  0.49962928  0.76200893  1
  O  O12  1  0.25842593  0.73408419  0.00549518  1
  O  O13  1  0.74157407  0.26591581  0.99450482  1
  O  O14  1  0.24157407  0.23408419  0.49450482  1
  O  O15  1  0.75842593  0.76591581  0.50549518  1
  O  O16  1  0.26623989  0.25765277  0.00617746  1
  O  O17  1  0.73376011  0.74234723  0.99382254  1
  O  O18  1  0.23376011  0.75765277  0.49382254  1
  O  O19  1  0.76623989  0.24234723  0.50617746  1
