# generated using pymatgen
data_Ba2CaMoN4
_symmetry_space_group_name_H-M   'P 1'
_cell_length_a   9.97644825
_cell_length_b   10.48523826
_cell_length_c   12.04876031
_cell_angle_alpha   90.00000000
_cell_angle_beta   90.00000000
_cell_angle_gamma   90.00000000
_symmetry_Int_Tables_number   1
_chemical_formula_structural   Ba2CaMoN4
_chemical_formula_sum   'Ba16 Ca8 Mo8 N32'
_cell_volume   1260.36583621
_cell_formula_units_Z   8
loop_
 _symmetry_equiv_pos_site_id
 _symmetry_equiv_pos_as_xyz
  1  'x, y, z'
loop_
 _atom_site_type_symbol
 _atom_site_label
 _atom_site_symmetry_multiplicity
 _atom_site_fract_x
 _atom_site_fract_y
 _atom_site_fract_z
 _atom_site_occupancy
  Ba  Ba0  1  0.62309178  0.96680875  0.85484329  1
  Ba  Ba1  1  0.37690822  0.03319125  0.14515671  1
  Ba  Ba2  1  0.87690822  0.46680875  0.14515671  1
  Ba  Ba3  1  0.37690822  0.53319125  0.35484329  1
  Ba  Ba4  1  0.12309178  0.53319125  0.85484329  1
  Ba  Ba5  1  0.62309178  0.46680875  0.64515671  1
  Ba  Ba6  1  0.12309178  0.03319125  0.64515671  1
  Ba  Ba7  1  0.87690822  0.96680875  0.35484329  1
  Ba  Ba8  1  0.80683358  0.76577049  0.61672120  1
  Ba  Ba9  1  0.19316642  0.23422951  0.38327880  1
  Ba  Ba10  1  0.69316642  0.26577049  0.38327880  1
  Ba  Ba11  1  0.19316642  0.73422951  0.11672120  1
  Ba  Ba12  1  0.30683358  0.73422951  0.61672120  1
  Ba  Ba13  1  0.80683358  0.26577049  0.88327880  1
  Ba  Ba14  1  0.30683358  0.23422951  0.88327880  1
  Ba  Ba15  1  0.69316642  0.76577049  0.11672120  1
  Ca  Ca16  1  0.96818150  0.88157903  0.89761177  1
  Ca  Ca17  1  0.03181850  0.11842097  0.10238823  1
  Ca  Ca18  1  0.53181850  0.38157903  0.10238823  1
  Ca  Ca19  1  0.03181850  0.61842097  0.39761177  1
  Ca  Ca20  1  0.46818150  0.61842097  0.89761177  1
  Ca  Ca21  1  0.96818150  0.38157903  0.60238823  1
  Ca  Ca22  1  0.46818150  0.11842097  0.60238823  1
  Ca  Ca23  1  0.53181850  0.88157903  0.39761177  1
  Mo  Mo24  1  0.78711069  0.59456827  0.88032175  1
  Mo  Mo25  1  0.21288931  0.40543173  0.11967825  1
  Mo  Mo26  1  0.71288931  0.09456827  0.11967825  1
  Mo  Mo27  1  0.21288931  0.90543173  0.38032175  1
  Mo  Mo28  1  0.28711069  0.90543173  0.88032175  1
  Mo  Mo29  1  0.78711069  0.09456827  0.61967825  1
  Mo  Mo30  1  0.28711069  0.40543173  0.61967825  1
  Mo  Mo31  1  0.71288931  0.59456827  0.38032175  1
  N  N32  1  0.91895997  0.67003015  0.97284351  1
  N  N33  1  0.08104003  0.32996985  0.02715649  1
  N  N34  1  0.58104003  0.17003015  0.02715649  1
  N  N35  1  0.08104003  0.82996985  0.47284351  1
  N  N36  1  0.41895997  0.82996985  0.97284351  1
  N  N37  1  0.91895997  0.17003015  0.52715649  1
  N  N38  1  0.41895997  0.32996985  0.52715649  1
  N  N39  1  0.58104003  0.67003015  0.47284351  1
  N  N40  1  0.67612617  0.71318150  0.80905660  1
  N  N41  1  0.32387383  0.28681850  0.19094340  1
  N  N42  1  0.82387383  0.21318150  0.19094340  1
  N  N43  1  0.32387383  0.78681850  0.30905660  1
  N  N44  1  0.17612617  0.78681850  0.80905660  1
  N  N45  1  0.67612617  0.21318150  0.69094340  1
  N  N46  1  0.17612617  0.28681850  0.69094340  1
  N  N47  1  0.82387383  0.71318150  0.30905660  1
  N  N48  1  0.67266361  0.99282227  0.53153480  1
  N  N49  1  0.32733639  0.00717773  0.46846520  1
  N  N50  1  0.82733639  0.49282227  0.46846520  1
  N  N51  1  0.32733639  0.50717773  0.03153480  1
  N  N52  1  0.17266361  0.50717773  0.53153480  1
  N  N53  1  0.67266361  0.49282227  0.96846520  1
  N  N54  1  0.17266361  0.00717773  0.96846520  1
  N  N55  1  0.82733639  0.99282227  0.03153480  1
  N  N56  1  0.87210424  0.98901812  0.72610519  1
  N  N57  1  0.12789576  0.01098188  0.27389481  1
  N  N58  1  0.62789576  0.48901812  0.27389481  1
  N  N59  1  0.12789576  0.51098188  0.22610519  1
  N  N60  1  0.37210424  0.51098188  0.72610519  1
  N  N61  1  0.87210424  0.48901812  0.77389481  1
  N  N62  1  0.37210424  0.01098188  0.77389481  1
  N  N63  1  0.62789576  0.98901812  0.22610519  1
