# generated using pymatgen
data_YZnCuP2
_symmetry_space_group_name_H-M   'P 1'
_cell_length_a   3.98530149
_cell_length_b   3.98536122
_cell_length_c   6.55162474
_cell_angle_alpha   90.00000000
_cell_angle_beta   89.99875005
_cell_angle_gamma   120.00051341
_symmetry_Int_Tables_number   1
_chemical_formula_structural   YZnCuP2
_chemical_formula_sum   'Y1 Zn1 Cu1 P2'
_cell_volume   90.11690577
_cell_formula_units_Z   1
loop_
 _symmetry_equiv_pos_site_id
 _symmetry_equiv_pos_as_xyz
  1  'x, y, z'
loop_
 _atom_site_type_symbol
 _atom_site_label
 _atom_site_symmetry_multiplicity
 _atom_site_fract_x
 _atom_site_fract_y
 _atom_site_fract_z
 _atom_site_occupancy
  Y  Y0  1  0.99998626  0.99999313  0.98467273  1
  Zn  Zn1  1  0.66664919  0.33332460  0.37557108  1
  Cu  Cu2  1  0.33336818  0.66668409  0.63900533  1
  P  P3  1  0.33331940  0.66665970  0.25570532  1
  P  P4  1  0.66667696  0.33333848  0.74504555  1
