# generated using pymatgen
data_AlH5(SeO4)2
_symmetry_space_group_name_H-M   'P 1'
_cell_length_a   6.75612070
_cell_length_b   7.44931426
_cell_length_c   7.53184635
_cell_angle_alpha   107.38446872
_cell_angle_beta   90.00000000
_cell_angle_gamma   90.00000000
_symmetry_Int_Tables_number   1
_chemical_formula_structural   AlH5(SeO4)2
_chemical_formula_sum   'Al2 H10 Se4 O16'
_cell_volume   361.75104087
_cell_formula_units_Z   2
loop_
 _symmetry_equiv_pos_site_id
 _symmetry_equiv_pos_as_xyz
  1  'x, y, z'
loop_
 _atom_site_type_symbol
 _atom_site_label
 _atom_site_symmetry_multiplicity
 _atom_site_fract_x
 _atom_site_fract_y
 _atom_site_fract_z
 _atom_site_occupancy
  Al  Al0  1  -0.00000000  0.00000000  -0.00000000  1
  Al  Al1  1  0.50000000  0.50000000  0.50000000  1
  H  H2  1  0.74700441  0.22971319  0.91299842  1
  H  H3  1  0.25299559  0.77028681  0.08700158  1
  H  H4  1  0.24700441  0.27028681  0.58700158  1
  H  H5  1  0.75299559  0.72971319  0.41299842  1
  H  H6  1  0.00000000  0.00000000  0.50000000  1
  H  H7  1  0.50000000  0.50000000  -0.00000000  1
  H  H8  1  0.28716202  0.44881320  0.76506281  1
  H  H9  1  0.71283798  0.55118680  0.23493719  1
  H  H10  1  0.78716202  0.05118680  0.73493719  1
  H  H11  1  0.21283798  0.94881320  0.26506281  1
  Se  Se12  1  0.29453182  0.90858303  0.65738439  1
  Se  Se13  1  0.70546818  0.09141697  0.34261561  1
  Se  Se14  1  0.79453182  0.59141697  0.84261561  1
  Se  Se15  1  0.20546818  0.40858303  0.15738439  1
  O  O16  1  0.78525642  0.09380965  0.87267169  1
  O  O17  1  0.21474358  0.90619035  0.12732831  1
  O  O18  1  0.28525642  0.40619035  0.62732831  1
  O  O19  1  0.71474358  0.59380965  0.37267169  1
  O  O20  1  0.16481277  0.20258531  0.98380765  1
  O  O21  1  0.83518723  0.79741469  0.01619235  1
  O  O22  1  0.66481277  0.29741469  0.51619235  1
  O  O23  1  0.33518723  0.70258531  0.48380765  1
  O  O24  1  0.17690492  0.03407451  0.51954576  1
  O  O25  1  0.82309508  0.96592549  0.48045424  1
  O  O26  1  0.67690492  0.46592549  0.98045424  1
  O  O27  1  0.32309508  0.53407451  0.01954576  1
  O  O28  1  0.09271754  0.84911113  0.76836100  1
  O  O29  1  0.90728246  0.15088887  0.23163900  1
  O  O30  1  0.59271754  0.65088887  0.73163900  1
  O  O31  1  0.40728246  0.34911113  0.26836100  1
