# generated using pymatgen
data_ZnAg2GeS4
_symmetry_space_group_name_H-M   'P 1'
_cell_length_a   5.79870486
_cell_length_b   5.79870486
_cell_length_c   6.67128832
_cell_angle_alpha   64.24005563
_cell_angle_beta   64.24005563
_cell_angle_gamma   90.00000000
_symmetry_Int_Tables_number   1
_chemical_formula_structural   ZnAg2GeS4
_chemical_formula_sum   'Zn1 Ag2 Ge1 S4'
_cell_volume   176.95046482
_cell_formula_units_Z   1
loop_
 _symmetry_equiv_pos_site_id
 _symmetry_equiv_pos_as_xyz
  1  'x, y, z'
loop_
 _atom_site_type_symbol
 _atom_site_label
 _atom_site_symmetry_multiplicity
 _atom_site_fract_x
 _atom_site_fract_y
 _atom_site_fract_z
 _atom_site_occupancy
  Zn  Zn0  1  0.25000000  0.75000000  0.50000000  1
  Ag  Ag1  1  0.50000000  0.50000000  -0.00000000  1
  Ag  Ag2  1  0.75000000  0.25000000  0.50000000  1
  Ge  Ge3  1  -0.00000000  -0.00000000  0.00000000  1
  S  S4  1  0.33369864  0.88368212  0.75477891  1
  S  S5  1  0.91152245  0.36153897  0.75477891  1
  S  S6  1  0.63846103  0.66630136  0.24522109  1
  S  S7  1  0.11631788  0.08847755  0.24522109  1
