# generated using pymatgen
data_Y4Cu2O7
_symmetry_space_group_name_H-M   'P 1'
_cell_length_a   8.34083352
_cell_length_b   6.38584012
_cell_length_c   6.38584012
_cell_angle_alpha   33.48797748
_cell_angle_beta   108.62300829
_cell_angle_gamma   108.62300829
_symmetry_Int_Tables_number   1
_chemical_formula_structural   Y4Cu2O7
_chemical_formula_sum   'Y4 Cu2 O7'
_cell_volume   176.92831991
_cell_formula_units_Z   1
loop_
 _symmetry_equiv_pos_site_id
 _symmetry_equiv_pos_as_xyz
  1  'x, y, z'
loop_
 _atom_site_type_symbol
 _atom_site_label
 _atom_site_symmetry_multiplicity
 _atom_site_fract_x
 _atom_site_fract_y
 _atom_site_fract_z
 _atom_site_occupancy
  Y  Y0  1  0.16318213  0.35586050  0.35586050  1
  Y  Y1  1  0.32103296  0.66252518  0.66252518  1
  Y  Y2  1  0.67896704  0.33747482  0.33747482  1
  Y  Y3  1  0.83681787  0.64413950  0.64413950  1
  Cu  Cu4  1  0.00000000  0.00000000  0.00000000  1
  Cu  Cu5  1  0.50000000  0.00000000  0.00000000  1
  O  O6  1  0.12040615  0.74838481  0.74838481  1
  O  O7  1  0.00000000  0.50000000  0.50000000  1
  O  O8  1  0.71245608  0.98854049  0.98854049  1
  O  O9  1  0.38598725  0.27741447  0.27741447  1
  O  O10  1  0.61401275  0.72258553  0.72258553  1
  O  O11  1  0.28754392  0.01145951  0.01145951  1
  O  O12  1  0.87959385  0.25161519  0.25161519  1
