# generated using pymatgen
data_Zr2Ga3Cu
_symmetry_space_group_name_H-M   'P 1'
_cell_length_a   4.16763743
_cell_length_b   5.39342206
_cell_length_c   5.42379818
_cell_angle_alpha   92.22444925
_cell_angle_beta   112.59403218
_cell_angle_gamma   67.27161714
_symmetry_Int_Tables_number   1
_chemical_formula_structural   Zr2Ga3Cu
_chemical_formula_sum   'Zr2 Ga3 Cu1'
_cell_volume   102.95385269
_cell_formula_units_Z   1
loop_
 _symmetry_equiv_pos_site_id
 _symmetry_equiv_pos_as_xyz
  1  'x, y, z'
loop_
 _atom_site_type_symbol
 _atom_site_label
 _atom_site_symmetry_multiplicity
 _atom_site_fract_x
 _atom_site_fract_y
 _atom_site_fract_z
 _atom_site_occupancy
  Zr  Zr0  1  0.74305600  0.71717064  0.20328265  1
  Zr  Zr1  1  0.24718146  0.29539918  0.78976210  1
  Ga  Ga2  1  0.46577087  0.68435976  0.61590150  1
  Ga  Ga3  1  0.03514330  0.13895702  0.20924361  1
  Ga  Ga4  1  0.95501301  0.88484803  0.79487406  1
  Cu  Cu5  1  0.55383536  0.27926536  0.38693609  1
