# generated using pymatgen
data_YbSn2BiO7
_symmetry_space_group_name_H-M   'P 1'
_cell_length_a   7.47523793
_cell_length_b   7.51309896
_cell_length_c   7.45534788
_cell_angle_alpha   90.00000000
_cell_angle_beta   60.08797932
_cell_angle_gamma   120.16768611
_symmetry_Int_Tables_number   1
_chemical_formula_structural   YbSn2BiO7
_chemical_formula_sum   'Yb2 Sn4 Bi2 O14'
_cell_volume   295.71327219
_cell_formula_units_Z   2
loop_
 _symmetry_equiv_pos_site_id
 _symmetry_equiv_pos_as_xyz
  1  'x, y, z'
loop_
 _atom_site_type_symbol
 _atom_site_label
 _atom_site_symmetry_multiplicity
 _atom_site_fract_x
 _atom_site_fract_y
 _atom_site_fract_z
 _atom_site_occupancy
  Yb  Yb0  1  -0.00000000  0.50000000  0.00000000  1
  Yb  Yb1  1  -0.00000000  0.50000000  0.50000000  1
  Sn  Sn2  1  0.50000000  0.50000000  0.00000000  1
  Sn  Sn3  1  0.50000000  -0.00000000  0.00000000  1
  Sn  Sn4  1  -0.00000000  -0.00000000  0.50000000  1
  Sn  Sn5  1  -0.00000000  -0.00000000  0.00000000  1
  Bi  Bi6  1  0.50000000  -0.00000000  0.50000000  1
  Bi  Bi7  1  0.50000000  0.50000000  0.50000000  1
  O  O8  1  0.72290060  0.36145030  0.38854970  1
  O  O9  1  0.27709940  0.63854970  0.61145030  1
  O  O10  1  0.82614454  0.91307227  0.33692773  1
  O  O11  1  0.67119251  0.33559625  0.91440375  1
  O  O12  1  0.25221777  0.91625266  0.90842146  1
  O  O13  1  0.25221777  0.33596510  0.33936077  1
  O  O14  1  0.25221777  0.33596510  0.90842146  1
  O  O15  1  0.25221777  0.91625266  0.33936077  1
  O  O16  1  0.17385546  0.08692773  0.66307227  1
  O  O17  1  0.32880749  0.66440375  0.08559625  1
  O  O18  1  0.74778223  0.08374734  0.09157854  1
  O  O19  1  0.74778223  0.66403490  0.66063923  1
  O  O20  1  0.74778223  0.66403490  0.09157854  1
  O  O21  1  0.74778223  0.08374734  0.66063923  1
