# generated using pymatgen
data_Cs2MgCr2(H6O7)2
_symmetry_space_group_name_H-M   'P 1'
_cell_length_a   6.57245115
_cell_length_b   9.73560675
_cell_length_c   12.90548049
_cell_angle_alpha   90.00000000
_cell_angle_beta   90.00000000
_cell_angle_gamma   106.84323452
_symmetry_Int_Tables_number   1
_chemical_formula_structural   Cs2MgCr2(H6O7)2
_chemical_formula_sum   'Cs4 Mg2 Cr4 H24 O28'
_cell_volume   790.35534727
_cell_formula_units_Z   2
loop_
 _symmetry_equiv_pos_site_id
 _symmetry_equiv_pos_as_xyz
  1  'x, y, z'
loop_
 _atom_site_type_symbol
 _atom_site_label
 _atom_site_symmetry_multiplicity
 _atom_site_fract_x
 _atom_site_fract_y
 _atom_site_fract_z
 _atom_site_occupancy
  Cs  Cs0  1  0.84409154  0.60743501  0.14718003  1
  Cs  Cs1  1  0.15590846  0.39256499  0.85281997  1
  Cs  Cs2  1  0.15590846  0.89256499  0.64718003  1
  Cs  Cs3  1  0.84409154  0.10743501  0.35281997  1
  Mg  Mg4  1  0.50000000  0.00000000  0.00000000  1
  Mg  Mg5  1  0.50000000  0.50000000  0.50000000  1
  Cr  Cr6  1  0.76190953  0.60733461  0.84924178  1
  Cr  Cr7  1  0.23809047  0.39266539  0.15075822  1
  Cr  Cr8  1  0.23809047  0.89266539  0.34924178  1
  Cr  Cr9  1  0.76190953  0.10733461  0.65075822  1
  H  H10  1  0.56956736  0.76715355  0.59266989  1
  H  H11  1  0.43043264  0.23284645  0.40733011  1
  H  H12  1  0.43043264  0.73284645  0.09266989  1
  H  H13  1  0.56956736  0.26715355  0.90733011  1
  H  H14  1  0.80153419  0.70560285  0.40345028  1
  H  H15  1  0.19846581  0.29439715  0.59654972  1
  H  H16  1  0.19846581  0.79439715  0.90345028  1
  H  H17  1  0.80153419  0.20560285  0.09654972  1
  H  H18  1  0.51130397  0.65420416  0.68329677  1
  H  H19  1  0.48869603  0.34579584  0.31670323  1
  H  H20  1  0.48869603  0.84579584  0.18329677  1
  H  H21  1  0.51130397  0.15420416  0.81670323  1
  H  H22  1  0.83594526  0.52191120  0.62487792  1
  H  H23  1  0.16405474  0.47808880  0.37512208  1
  H  H24  1  0.16405474  0.97808880  0.12487792  1
  H  H25  1  0.83594526  0.02191120  0.87512208  1
  H  H26  1  0.42156496  0.77250897  0.86494300  1
  H  H27  1  0.57843504  0.22749103  0.13505700  1
  H  H28  1  0.57843504  0.72749103  0.36494300  1
  H  H29  1  0.42156496  0.27250897  0.63505700  1
  H  H30  1  0.84908091  0.91023189  0.96174037  1
  H  H31  1  0.15091909  0.08976811  0.03825963  1
  H  H32  1  0.15091909  0.58976811  0.46174037  1
  H  H33  1  0.84908091  0.41023189  0.53825963  1
  O  O34  1  0.92020822  0.73248227  0.92496087  1
  O  O35  1  0.07979178  0.26751773  0.07503913  1
  O  O36  1  0.07979178  0.76751773  0.42496087  1
  O  O37  1  0.92020822  0.23248227  0.57503913  1
  O  O38  1  0.68687022  0.95309066  0.58638371  1
  O  O39  1  0.31312978  0.04690934  0.41361629  1
  O  O40  1  0.31312978  0.54690934  0.08638371  1
  O  O41  1  0.68687022  0.45309066  0.91361629  1
  O  O42  1  0.35026180  0.84482714  0.88780557  1
  O  O43  1  0.64973820  0.15517286  0.11219443  1
  O  O44  1  0.64973820  0.65517286  0.38780557  1
  O  O45  1  0.35026180  0.34482714  0.61219443  1
  O  O46  1  0.54538328  0.65497662  0.81371434  1
  O  O47  1  0.45461672  0.34502338  0.18628566  1
  O  O48  1  0.45461672  0.84502338  0.31371434  1
  O  O49  1  0.54538328  0.15497662  0.68628566  1
  O  O50  1  0.49441313  0.66458006  0.60699125  1
  O  O51  1  0.50558687  0.33541994  0.39300875  1
  O  O52  1  0.50558687  0.83541994  0.10699125  1
  O  O53  1  0.49441313  0.16458006  0.89300875  1
  O  O54  1  0.79582120  0.99306943  0.94834357  1
  O  O55  1  0.20417880  0.00693057  0.05165643  1
  O  O56  1  0.20417880  0.50693057  0.44834357  1
  O  O57  1  0.79582120  0.49306943  0.55165643  1
  O  O58  1  0.89842067  0.58873944  0.74458968  1
  O  O59  1  0.10157933  0.41126056  0.25541032  1
  O  O60  1  0.10157933  0.91126056  0.24458968  1
  O  O61  1  0.89842067  0.08873944  0.75541032  1
