# generated using pymatgen
data_YGaAu
_symmetry_space_group_name_H-M   'P 1'
_cell_length_a   4.52191219
_cell_length_b   5.80809924
_cell_length_c   5.73327700
_cell_angle_alpha   94.40377262
_cell_angle_beta   113.22585304
_cell_angle_gamma   67.09052121
_symmetry_Int_Tables_number   1
_chemical_formula_structural   YGaAu
_chemical_formula_sum   'Y2 Ga2 Au2'
_cell_volume   126.93447701
_cell_formula_units_Z   2
loop_
 _symmetry_equiv_pos_site_id
 _symmetry_equiv_pos_as_xyz
  1  'x, y, z'
loop_
 _atom_site_type_symbol
 _atom_site_label
 _atom_site_symmetry_multiplicity
 _atom_site_fract_x
 _atom_site_fract_y
 _atom_site_fract_z
 _atom_site_occupancy
  Y  Y0  1  0.76048014  0.70252824  0.22348853  1
  Y  Y1  1  0.23951986  0.29747176  0.77651147  1
  Ga  Ga2  1  0.05110830  0.10658236  0.20879897  1
  Ga  Ga3  1  0.94889170  0.89341764  0.79120103  1
  Au  Au4  1  0.53950332  0.28237366  0.36138029  1
  Au  Au5  1  0.46049668  0.71762634  0.63861971  1
