# generated using pymatgen
data_Zr3NbCr4F24
_symmetry_space_group_name_H-M   'P 1'
_cell_length_a   5.94928003
_cell_length_b   8.21142622
_cell_length_c   11.86737911
_cell_angle_alpha   90.00000000
_cell_angle_beta   90.23054393
_cell_angle_gamma   90.00000000
_symmetry_Int_Tables_number   1
_chemical_formula_structural   Zr3NbCr4F24
_chemical_formula_sum   'Zr3 Nb1 Cr4 F24'
_cell_volume   579.74138950
_cell_formula_units_Z   1
loop_
 _symmetry_equiv_pos_site_id
 _symmetry_equiv_pos_as_xyz
  1  'x, y, z'
loop_
 _atom_site_type_symbol
 _atom_site_label
 _atom_site_symmetry_multiplicity
 _atom_site_fract_x
 _atom_site_fract_y
 _atom_site_fract_z
 _atom_site_occupancy
  Zr  Zr0  1  0.23173616  0.75000000  0.62576095  1
  Zr  Zr1  1  0.73234249  0.25000000  0.87512184  1
  Zr  Zr2  1  0.76732674  0.25000000  0.37377136  1
  Nb  Nb3  1  0.26886707  0.75000000  0.12507181  1
  Cr  Cr4  1  0.74902219  0.75000000  0.37548040  1
  Cr  Cr5  1  0.74866057  0.75000000  0.87738553  1
  Cr  Cr6  1  0.24841057  0.25000000  0.62465185  1
  Cr  Cr7  1  0.25233290  0.25000000  0.12467787  1
  F  F8  1  0.46875756  0.75000000  0.74686164  1
  F  F9  1  0.04076228  0.75000000  0.24108609  1
  F  F10  1  0.53166079  0.25000000  0.25358752  1
  F  F11  1  0.96745110  0.25000000  0.75453083  1
  F  F12  1  0.46646820  0.75000000  0.50439535  1
  F  F13  1  0.03064806  0.75000000  0.00439664  1
  F  F14  1  0.53296981  0.25000000  0.49548214  1
  F  F15  1  0.96688626  0.25000000  0.99623078  1
  F  F16  1  0.76550557  0.50045108  0.37411862  1
  F  F17  1  0.73468979  -0.00140855  0.87528661  1
  F  F18  1  0.23483753  0.00006818  0.62527280  1
  F  F19  1  0.26528409  0.50028182  0.12489288  1
  F  F20  1  0.23483753  0.49993182  0.62527280  1
  F  F21  1  0.26528409  0.99971818  0.12489288  1
  F  F22  1  0.76550557  -0.00045108  0.37411862  1
  F  F23  1  0.73468979  0.50140855  0.87528661  1
  F  F24  1  0.98251390  0.75000000  0.50292025  1
  F  F25  1  0.50921806  0.75000000  0.00863272  1
  F  F26  1  0.01721582  0.25000000  0.49615724  1
  F  F27  1  0.48356442  0.25000000  0.99554176  1
  F  F28  1  0.98427405  0.75000000  0.74742763  1
  F  F29  1  0.51919370  0.75000000  0.24751036  1
  F  F30  1  0.01589333  0.25000000  0.25224250  1
  F  F31  1  0.48319001  0.25000000  0.75193313  1
