# generated using pymatgen
data_Y7(O2F3)3
_symmetry_space_group_name_H-M   'P 1'
_cell_length_a   5.50222141
_cell_length_b   5.61251937
_cell_length_c   19.72147953
_cell_angle_alpha   81.81935293
_cell_angle_beta   89.92819248
_cell_angle_gamma   90.00000000
_symmetry_Int_Tables_number   1
_chemical_formula_structural   Y7(O2F3)3
_chemical_formula_sum   'Y14 O12 F18'
_cell_volume   602.82769146
_cell_formula_units_Z   2
loop_
 _symmetry_equiv_pos_site_id
 _symmetry_equiv_pos_as_xyz
  1  'x, y, z'
loop_
 _atom_site_type_symbol
 _atom_site_label
 _atom_site_symmetry_multiplicity
 _atom_site_fract_x
 _atom_site_fract_y
 _atom_site_fract_z
 _atom_site_occupancy
  Y  Y0  1  0.70113939  0.11361894  0.21240493  1
  Y  Y1  1  0.29886061  0.32602387  0.78759507  1
  Y  Y2  1  0.29820177  0.61861268  0.21195807  1
  Y  Y3  1  0.70179823  0.83057075  0.78804193  1
  Y  Y4  1  0.29223300  0.10365706  0.35299691  1
  Y  Y5  1  0.70776700  0.45665398  0.64700309  1
  Y  Y6  1  0.71141862  0.57835939  0.35284214  1
  Y  Y7  1  0.28858138  0.93120153  0.64715786  1
  Y  Y8  1  0.72304079  0.95594422  0.49879135  1
  Y  Y9  1  0.27695921  0.45473557  0.50120865  1
  Y  Y10  1  0.29287258  0.22342584  0.07062163  1
  Y  Y11  1  0.70712742  0.29404747  0.92937837  1
  Y  Y12  1  0.70751201  0.72239748  0.07056283  1
  Y  Y13  1  0.29248799  0.79296031  0.92943717  1
  O  O14  1  0.52115193  0.40763280  0.14359923  1
  O  O15  1  0.47884807  0.55123204  0.85640077  1
  O  O16  1  0.47908243  0.90807809  0.14395862  1
  O  O17  1  0.52091757  0.05203671  0.85604138  1
  O  O18  1  0.50000000  0.02073764  0.00000000  1
  O  O19  1  0.50000000  0.52093270  0.00000000  1
  O  O20  1  0.53022672  0.35769179  0.28638080  1
  O  O21  1  0.46977328  0.64407258  0.71361920  1
  O  O22  1  0.47077676  0.85593766  0.29031329  1
  O  O23  1  0.52922324  0.14625094  0.70968671  1
  O  O24  1  0.53587042  0.26830883  0.43221727  1
  O  O25  1  0.46412958  0.70052610  0.56778273  1
  F  F26  1  0.96535372  0.02075886  0.12945431  1
  F  F27  1  0.03464628  0.15021317  0.87054569  1
  F  F28  1  0.03571914  0.52142366  0.12925820  1
  F  F29  1  0.96428086  0.65068186  0.87074180  1
  F  F30  1  0.05399413  0.25209369  0.26121482  1
  F  F31  1  0.94600587  0.51330851  0.73878518  1
  F  F32  1  0.94300733  0.74738537  0.25988877  1
  F  F33  1  0.05699267  0.00727415  0.74011123  1
  F  F34  1  0.91002822  0.92864095  0.38881957  1
  F  F35  1  0.08997178  0.31746052  0.61118043  1
  F  F36  1  0.09017406  0.43971760  0.38689198  1
  F  F37  1  0.90982594  0.82660958  0.61310802  1
  F  F38  1  0.10736574  0.08515376  0.50208865  1
  F  F39  1  0.89263426  0.58724240  0.49791135  1
  F  F40  1  0.45183457  0.76970975  0.42853189  1
  F  F41  1  0.54816543  0.19824164  0.57146811  1
  F  F42  1  0.00000000  0.41764718  0.00000000  1
  F  F43  1  0.00000000  0.91679036  0.00000000  1
