# generated using pymatgen
data_Zn3P6N12Cl
_symmetry_space_group_name_H-M   'P 1'
_cell_length_a   7.17266031
_cell_length_b   7.17266031
_cell_length_c   7.17266031
_cell_angle_alpha   70.63220970
_cell_angle_beta   70.63220970
_cell_angle_gamma   109.36779030
_symmetry_Int_Tables_number   1
_chemical_formula_structural   Zn3P6N12Cl
_chemical_formula_sum   'Zn3 P6 N12 Cl1'
_cell_volume   285.14838255
_cell_formula_units_Z   1
loop_
 _symmetry_equiv_pos_site_id
 _symmetry_equiv_pos_as_xyz
  1  'x, y, z'
loop_
 _atom_site_type_symbol
 _atom_site_label
 _atom_site_symmetry_multiplicity
 _atom_site_fract_x
 _atom_site_fract_y
 _atom_site_fract_z
 _atom_site_occupancy
  Zn  Zn0  1  0.35735250  0.00100515  0.99899485  1
  Zn  Zn1  1  0.00100515  0.35735250  0.99899485  1
  Zn  Zn2  1  0.00100515  0.00100515  0.64264750  1
  P  P3  1  0.25263180  0.74763840  0.50186487  1
  P  P4  1  0.74763840  0.49813513  0.74736820  1
  P  P5  1  0.49813513  0.25263180  0.25236160  1
  P  P6  1  0.25263180  0.49813513  0.25236160  1
  P  P7  1  0.74763840  0.25263180  0.50186487  1
  P  P8  1  0.49813513  0.74763840  0.74736820  1
  N  N9  1  0.71736027  0.44114517  0.55885483  1
  N  N10  1  0.44114517  0.44114517  0.28263973  1
  N  N11  1  0.44114517  0.71736027  0.55885483  1
  N  N12  1  0.27549335  0.72541242  0.27458758  1
  N  N13  1  0.55348466  0.27372612  0.00113582  1
  N  N14  1  0.55348466  0.99886418  0.72627388  1
  N  N15  1  0.99886418  0.55348466  0.72627388  1
  N  N16  1  0.27372612  0.55348466  0.00113582  1
  N  N17  1  0.72541242  0.27549335  0.27458758  1
  N  N18  1  0.99886418  0.27372612  0.44651534  1
  N  N19  1  0.72541242  0.72541242  0.72450665  1
  N  N20  1  0.27372612  0.99886418  0.44651534  1
  Cl  Cl21  1  0.02570783  0.02570783  0.97429217  1
