# generated using pymatgen
data_Yb5P12Ir19
_symmetry_space_group_name_H-M   'P 1'
_cell_length_a   3.98458430
_cell_length_b   12.66523485
_cell_length_c   12.66523465
_cell_angle_alpha   59.98974151
_cell_angle_beta   89.99978032
_cell_angle_gamma   90.00021965
_symmetry_Int_Tables_number   1
_chemical_formula_structural   Yb5P12Ir19
_chemical_formula_sum   'Yb5 P12 Ir19'
_cell_volume   553.47146614
_cell_formula_units_Z   1
loop_
 _symmetry_equiv_pos_site_id
 _symmetry_equiv_pos_as_xyz
  1  'x, y, z'
loop_
 _atom_site_type_symbol
 _atom_site_label
 _atom_site_symmetry_multiplicity
 _atom_site_fract_x
 _atom_site_fract_y
 _atom_site_fract_z
 _atom_site_occupancy
  Yb  Yb0  1  0.00005619  0.66669967  0.66667183  1
  Yb  Yb1  1  0.00005619  0.33332817  0.33330033  1
  Yb  Yb2  1  0.49406513  0.81696400  0.18303600  1
  Yb  Yb3  1  0.49408027  0.18306740  0.00003182  1
  Yb  Yb4  1  0.49408027  0.99996818  0.81693260  1
  P  P5  1  0.99421200  0.17975728  0.82024272  1
  P  P6  1  0.99419911  0.82026267  0.00000517  1
  P  P7  1  0.99419911  0.99999483  0.17973733  1
  P  P8  1  0.49974344  0.68908103  0.82699241  1
  P  P9  1  0.49974145  0.82696375  0.48394861  1
  P  P10  1  0.49974253  0.48401877  0.68908073  1
  P  P11  1  0.49974344  0.17300759  0.31091897  1
  P  P12  1  0.49974145  0.51605139  0.17303625  1
  P  P13  1  0.49974253  0.31091927  0.51598123  1
  P  P14  1  0.99928740  0.64185276  0.35814724  1
  P  P15  1  0.99930834  0.35807680  0.00000626  1
  P  P16  1  0.99930834  -0.00000626  0.64192320  1
  Ir  Ir17  1  0.99853381  0.80338603  0.81888747  1
  Ir  Ir18  1  0.99853466  0.81885963  0.37771517  1
  Ir  Ir19  1  0.99855106  0.37767037  0.80343489  1
  Ir  Ir20  1  0.99853381  0.18111253  0.19661397  1
  Ir  Ir21  1  0.99853466  0.62228483  0.18114037  1
  Ir  Ir22  1  0.99855106  0.19656511  0.62232963  1
  Ir  Ir23  1  0.49643597  0.28554956  0.71445044  1
  Ir  Ir24  1  0.49639603  0.71464925  0.00000399  1
  Ir  Ir25  1  0.49639603  -0.00000399  0.28535075  1
  Ir  Ir26  1  0.49957086  0.86937418  0.63825960  1
  Ir  Ir27  1  0.49955838  0.63828089  0.49236331  1
  Ir  Ir28  1  0.49956708  0.49236172  0.86932493  1
  Ir  Ir29  1  0.49957086  0.36174040  0.13062582  1
  Ir  Ir30  1  0.49955838  0.50763669  0.36171911  1
  Ir  Ir31  1  0.49956708  0.13067507  0.50763828  1
  Ir  Ir32  1  0.99987229  0.46071128  0.53928872  1
  Ir  Ir33  1  0.99990168  0.53922721  0.99997837  1
  Ir  Ir34  1  0.99990168  0.00002163  0.46077279  1
  Ir  Ir35  1  -0.00044260  0.99999032  0.00000968  1
