# generated using pymatgen
data_YFe6Bi(BO3)8
_symmetry_space_group_name_H-M   'P 1'
_cell_length_a   6.13398361
_cell_length_b   7.56771302
_cell_length_c   9.66415371
_cell_angle_alpha   90.00000067
_cell_angle_beta   89.99999911
_cell_angle_gamma   112.73979027
_symmetry_Int_Tables_number   1
_chemical_formula_structural   YFe6Bi(BO3)8
_chemical_formula_sum   'Y1 Fe6 Bi1 B8 O24'
_cell_volume   413.74152789
_cell_formula_units_Z   1
loop_
 _symmetry_equiv_pos_site_id
 _symmetry_equiv_pos_as_xyz
  1  'x, y, z'
loop_
 _atom_site_type_symbol
 _atom_site_label
 _atom_site_symmetry_multiplicity
 _atom_site_fract_x
 _atom_site_fract_y
 _atom_site_fract_z
 _atom_site_occupancy
  Y  Y0  1  0.00000000  1.00000000  0.99894647  1
  Fe  Fe1  1  0.44618211  0.27539811  0.27522752  1
  Fe  Fe2  1  0.45002878  0.77810028  0.77667770  1
  Fe  Fe3  1  0.55381789  0.72460189  0.27522752  1
  Fe  Fe4  1  0.54997122  0.22189972  0.77667770  1
  Fe  Fe5  1  0.00000000  0.50000000  0.94791490  1
  Fe  Fe6  1  0.00000000  1.00000000  0.44723335  1
  Bi  Bi7  1  1.00000000  0.50000000  0.49934669  1
  B  B8  1  0.50000000  0.50000000  0.00022380  1
  B  B9  1  0.50000000  0.00000000  0.49950488  1
  B  B10  1  0.05394164  0.72548997  0.22075488  1
  B  B11  1  0.05261807  0.22027637  0.72502729  1
  B  B12  1  0.94605836  0.27451003  0.22075488  1
  B  B13  1  0.94738193  0.77972363  0.72502729  1
  B  B14  1  0.50000000  0.50000000  0.55400733  1
  B  B15  1  0.50000000  1.00000000  0.05449900  1
  O  O16  1  0.64249720  0.42626703  0.92925698  1
  O  O17  1  0.64336350  0.92783672  0.42774490  1
  O  O18  1  0.35750280  0.57373297  0.92925698  1
  O  O19  1  0.35663650  0.07216328  0.42774490  1
  O  O20  1  0.50000000  0.50000000  0.14376727  1
  O  O21  1  0.50000000  0.00000000  0.64311605  1
  O  O22  1  0.02628397  0.71400626  0.07889460  1
  O  O23  1  0.03482479  0.20762141  0.58245372  1
  O  O24  1  0.78797993  0.32753182  0.29421363  1
  O  O25  1  0.79460678  0.83385392  0.80270287  1
  O  O26  1  0.62672941  0.40995584  0.62173569  1
  O  O27  1  0.63475293  0.91404012  0.11915038  1
  O  O28  1  0.21202007  0.67246818  0.29421363  1
  O  O29  1  0.20539322  0.16614608  0.80270287  1
  O  O30  1  0.37327059  0.59004416  0.62173569  1
  O  O31  1  0.36524707  0.08595988  0.11915038  1
  O  O32  1  0.97371603  0.28599374  0.07889460  1
  O  O33  1  0.96517521  0.79237859  0.58245372  1
  O  O34  1  0.90836114  0.29231064  0.79516520  1
  O  O35  1  0.91110865  0.79433951  0.29572011  1
  O  O36  1  0.09163886  0.70768936  0.79516520  1
  O  O37  1  0.08889135  0.20566049  0.29572011  1
  O  O38  1  0.50000000  0.50000000  0.41093028  1
  O  O39  1  0.50000000  0.00000000  0.91105906  1
