# generated using pymatgen
data_Zr4Ni(PO4)6
_symmetry_space_group_name_H-M   'P 1'
_cell_length_a   8.97233458
_cell_length_b   9.11851879
_cell_length_c   12.61882094
_cell_angle_alpha   90.00000000
_cell_angle_beta   90.58749588
_cell_angle_gamma   90.00000000
_symmetry_Int_Tables_number   1
_chemical_formula_structural   Zr4Ni(PO4)6
_chemical_formula_sum   'Zr8 Ni2 P12 O48'
_cell_volume   1032.34700987
_cell_formula_units_Z   2
loop_
 _symmetry_equiv_pos_site_id
 _symmetry_equiv_pos_as_xyz
  1  'x, y, z'
loop_
 _atom_site_type_symbol
 _atom_site_label
 _atom_site_symmetry_multiplicity
 _atom_site_fract_x
 _atom_site_fract_y
 _atom_site_fract_z
 _atom_site_occupancy
  Zr  Zr0  1  0.24876519  0.47134336  0.89506611  1
  Zr  Zr1  1  0.74876519  0.02865664  0.39506611  1
  Zr  Zr2  1  0.75441951  0.55606960  0.11499041  1
  Zr  Zr3  1  0.25441951  0.94393040  0.61499041  1
  Zr  Zr4  1  0.74602718  0.47239116  0.61853930  1
  Zr  Zr5  1  0.24602718  0.02760884  0.11853930  1
  Zr  Zr6  1  0.24738223  0.52776142  0.37698661  1
  Zr  Zr7  1  0.74738223  0.97223858  0.87698661  1
  Ni  Ni8  1  0.21851746  0.28126554  0.67567359  1
  Ni  Ni9  1  0.71851746  0.21873446  0.17567359  1
  P  P10  1  0.90259243  0.12444020  0.64753876  1
  P  P11  1  0.40259243  0.37555980  0.14753876  1
  P  P12  1  0.10432942  0.88432702  0.35437605  1
  P  P13  1  0.60432942  0.61567298  0.85437605  1
  P  P14  1  0.96422084  0.25000177  0.00576570  1
  P  P15  1  0.46422084  0.24999823  0.50576570  1
  P  P16  1  0.03288018  0.75173384  0.99264083  1
  P  P17  1  0.53288018  0.74826616  0.49264083  1
  P  P18  1  0.38327568  0.10329604  0.85317360  1
  P  P19  1  0.88327568  0.39670396  0.35317360  1
  P  P20  1  0.61134115  0.90367712  0.14163983  1
  P  P21  1  0.11134115  0.59632288  0.64163983  1
  O  O22  1  0.86756237  0.28578995  0.66846309  1
  O  O23  1  0.36756237  0.21421005  0.16846309  1
  O  O24  1  0.13174994  0.71932628  0.33557216  1
  O  O25  1  0.63174994  0.78067372  0.83557216  1
  O  O26  1  0.05335631  0.36355688  0.94281361  1
  O  O27  1  0.55335631  0.13644312  0.44281361  1
  O  O28  1  0.94610562  0.64262340  0.06366391  1
  O  O29  1  0.44610562  0.85737660  0.56366391  1
  O  O30  1  0.82811897  0.02089034  0.72632215  1
  O  O31  1  0.32811897  0.47910966  0.22632215  1
  O  O32  1  0.18853932  0.97873052  0.27367987  1
  O  O33  1  0.68853932  0.52126948  0.77367987  1
  O  O34  1  0.31615029  0.06563735  0.96029775  1
  O  O35  1  0.81615029  0.43436265  0.46029775  1
  O  O36  1  0.67907432  0.95634740  0.03756542  1
  O  O37  1  0.17907432  0.54365260  0.53756542  1
  O  O38  1  0.84197639  0.33185031  0.07395681  1
  O  O39  1  0.34197639  0.16814969  0.57395681  1
  O  O40  1  0.14808718  0.66329027  0.92854371  1
  O  O41  1  0.64808718  0.83670973  0.42854371  1
  O  O42  1  0.33125886  0.99622166  0.76555042  1
  O  O43  1  0.83125886  0.50377834  0.26555042  1
  O  O44  1  0.66794718  0.01921320  0.22788324  1
  O  O45  1  0.16794718  0.48078680  0.72788324  1
  O  O46  1  0.85500470  0.07947591  0.53395600  1
  O  O47  1  0.35500470  0.42052409  0.03395600  1
  O  O48  1  0.15694016  0.92383271  0.46849391  1
  O  O49  1  0.65694016  0.57616729  0.96849391  1
  O  O50  1  0.32070475  0.26016297  0.81815127  1
  O  O51  1  0.82070475  0.23983703  0.31815127  1
  O  O52  1  0.66798614  0.74952595  0.17213948  1
  O  O53  1  0.16798614  0.75047405  0.67213948  1
  O  O54  1  0.55471407  0.10584685  0.85766215  1
  O  O55  1  0.05471407  0.39415315  0.35766215  1
  O  O56  1  0.44150722  0.90355751  0.13912961  1
  O  O57  1  0.94150722  0.59644249  0.63912961  1
  O  O58  1  0.06503416  0.16726370  0.08475438  1
  O  O59  1  0.56503416  0.33273630  0.58475438  1
  O  O60  1  0.92670700  0.83227759  0.91729944  1
  O  O61  1  0.42670700  0.66772241  0.41729944  1
  O  O62  1  0.07769641  0.10934202  0.65653226  1
  O  O63  1  0.57769641  0.39065798  0.15653226  1
  O  O64  1  0.93620971  0.91996348  0.34524640  1
  O  O65  1  0.43620971  0.58003652  0.84524640  1
  O  O66  1  0.88137673  0.14564631  0.93079235  1
  O  O67  1  0.38137673  0.35435369  0.43079235  1
  O  O68  1  0.11784092  0.85548606  0.06683986  1
  O  O69  1  0.61784092  0.64451394  0.56683986  1
