# generated using pymatgen
data_Y2BeAlBO7
_symmetry_space_group_name_H-M   'P 1'
_cell_length_a   4.75490142
_cell_length_b   7.38607085
_cell_length_c   7.37884652
_cell_angle_alpha   90.00000000
_cell_angle_beta   90.00000000
_cell_angle_gamma   90.26067672
_symmetry_Int_Tables_number   1
_chemical_formula_structural   Y2BeAlBO7
_chemical_formula_sum   'Y4 Be2 Al2 B2 O14'
_cell_volume   259.14269373
_cell_formula_units_Z   2
loop_
 _symmetry_equiv_pos_site_id
 _symmetry_equiv_pos_as_xyz
  1  'x, y, z'
loop_
 _atom_site_type_symbol
 _atom_site_label
 _atom_site_symmetry_multiplicity
 _atom_site_fract_x
 _atom_site_fract_y
 _atom_site_fract_z
 _atom_site_occupancy
  Y  Y0  1  0.50843177  0.17247264  0.66238489  1
  Y  Y1  1  0.49156823  0.32752736  0.16238489  1
  Y  Y2  1  0.50618825  0.84571445  0.33516470  1
  Y  Y3  1  0.49381175  0.65428555  0.83516470  1
  Be  Be4  1  0.94502998  0.36421611  0.86453823  1
  Be  Be5  1  0.05497002  0.13578389  0.36453823  1
  Al  Al6  1  0.00034825  0.50232942  0.49803616  1
  Al  Al7  1  0.99965175  0.99767058  0.99803616  1
  B  B8  1  0.93565655  0.63621414  0.13618861  1
  B  B9  1  0.06434345  0.86378586  0.63618861  1
  O  O10  1  0.20736579  0.68561858  0.58149799  1
  O  O11  1  0.79263421  0.81438142  0.08149799  1
  O  O12  1  0.21954775  0.32822765  0.42289836  1
  O  O13  1  0.78045225  0.17177235  0.92289836  1
  O  O14  1  0.77825902  0.42915872  0.67292490  1
  O  O15  1  0.22174098  0.07084128  0.17292490  1
  O  O16  1  0.79539068  0.58759297  0.31580832  1
  O  O17  1  0.20460932  0.91240703  0.81580832  1
  O  O18  1  0.27897244  0.36377316  0.86004889  1
  O  O19  1  0.72102756  0.13622684  0.36004889  1
  O  O20  1  0.24148811  0.64521828  0.14152452  1
  O  O21  1  0.75851189  0.85478172  0.64152452  1
  O  O22  1  0.18028611  0.99493122  0.50898445  1
  O  O23  1  0.81971389  0.50506878  0.00898445  1
