# generated using pymatgen
data_Y16Mg3AlNi4
_symmetry_space_group_name_H-M   'P 1'
_cell_length_a   9.69012266
_cell_length_b   9.69012266
_cell_length_c   9.61630962
_cell_angle_alpha   90.00000000
_cell_angle_beta   59.74575952
_cell_angle_gamma   120.00000000
_symmetry_Int_Tables_number   1
_chemical_formula_structural   Y16Mg3AlNi4
_chemical_formula_sum   'Y16 Mg3 Al1 Ni4'
_cell_volume   636.02228095
_cell_formula_units_Z   1
loop_
 _symmetry_equiv_pos_site_id
 _symmetry_equiv_pos_as_xyz
  1  'x, y, z'
loop_
 _atom_site_type_symbol
 _atom_site_label
 _atom_site_symmetry_multiplicity
 _atom_site_fract_x
 _atom_site_fract_y
 _atom_site_fract_z
 _atom_site_occupancy
  Y  Y0  1  0.87035749  0.43517875  0.06034166  1
  Y  Y1  1  0.50447960  0.06930085  0.06034166  1
  Y  Y2  1  0.50447960  0.43517875  0.06034166  1
  Y  Y3  1  0.12960257  0.06480128  0.43519136  1
  Y  Y4  1  0.50000736  0.43520607  0.43519136  1
  Y  Y5  1  0.50000736  0.06480128  0.43519136  1
  Y  Y6  1  0.62726708  0.81363354  0.18563352  1
  Y  Y7  1  0.00073295  0.18709941  0.18563352  1
  Y  Y8  1  0.00073295  0.81363354  0.18563352  1
  Y  Y9  1  0.37980181  0.18990090  0.81025332  1
  Y  Y10  1  -0.00015422  0.80994488  0.81025332  1
  Y  Y11  1  -0.00015422  0.18990090  0.81025332  1
  Y  Y12  1  0.30599791  0.65299895  0.04100314  1
  Y  Y13  1  0.69561423  0.65074531  0.65364045  1
  Y  Y14  1  0.69561423  0.04486892  0.65364045  1
  Y  Y15  1  0.30149063  0.65074531  0.65364045  1
  Mg  Mg16  1  0.15456215  0.41999989  0.42543796  1
  Mg  Mg17  1  0.15456215  0.73456226  0.42543796  1
  Mg  Mg18  1  0.83999978  0.41999989  0.42543796  1
  Al  Al19  1  0.83668879  0.41834439  0.74496682  1
  Ni  Ni20  1  0.71473917  0.85736959  0.42789124  1
  Ni  Ni21  1  0.28396545  0.85781988  0.85821467  1
  Ni  Ni22  1  0.28396545  0.42614558  0.85821467  1
  Ni  Ni23  1  0.71563975  0.85781988  0.85821467  1
