# generated using pymatgen
data_Y2NiRu3
_symmetry_space_group_name_H-M   'P 1'
_cell_length_a   5.25451356
_cell_length_b   5.25451356
_cell_length_c   5.29531160
_cell_angle_alpha   90.00000000
_cell_angle_beta   60.25453919
_cell_angle_gamma   120.00000000
_symmetry_Int_Tables_number   1
_chemical_formula_structural   Y2NiRu3
_chemical_formula_sum   'Y2 Ni1 Ru3'
_cell_volume   103.77715818
_cell_formula_units_Z   1
loop_
 _symmetry_equiv_pos_site_id
 _symmetry_equiv_pos_as_xyz
  1  'x, y, z'
loop_
 _atom_site_type_symbol
 _atom_site_label
 _atom_site_symmetry_multiplicity
 _atom_site_fract_x
 _atom_site_fract_y
 _atom_site_fract_z
 _atom_site_occupancy
  Y  Y0  1  0.50228216  0.75114108  0.74657676  1
  Y  Y1  1  0.99771784  0.99885892  0.00342324  1
  Ni  Ni2  1  0.75000000  0.37500000  0.87500000  1
  Ru  Ru3  1  0.25000000  0.37500000  0.37500000  1
  Ru  Ru4  1  0.25000000  0.87500000  0.37500000  1
  Ru  Ru5  1  0.75000000  0.37500000  0.37500000  1
