# generated using pymatgen
data_TmAlFe
_symmetry_space_group_name_H-M   'P 1'
_cell_length_a   5.26674352
_cell_length_b   5.34453935
_cell_length_c   8.60749479
_cell_angle_alpha   90.00000000
_cell_angle_beta   90.00000000
_cell_angle_gamma   120.49528389
_symmetry_Int_Tables_number   1
_chemical_formula_structural   TmAlFe
_chemical_formula_sum   'Tm4 Al4 Fe4'
_cell_volume   208.77123478
_cell_formula_units_Z   4
loop_
 _symmetry_equiv_pos_site_id
 _symmetry_equiv_pos_as_xyz
  1  'x, y, z'
loop_
 _atom_site_type_symbol
 _atom_site_label
 _atom_site_symmetry_multiplicity
 _atom_site_fract_x
 _atom_site_fract_y
 _atom_site_fract_z
 _atom_site_occupancy
  Tm  Tm0  1  0.66678403  0.33339684  0.55361086  1
  Tm  Tm1  1  0.33774110  0.66887025  0.42605269  1
  Tm  Tm2  1  0.33774110  0.66887025  0.07394731  1
  Tm  Tm3  1  0.66678403  0.33339684  0.94638914  1
  Al  Al4  1  0.98919135  0.99461344  0.48471695  1
  Al  Al5  1  0.98919135  0.99461344  0.01528305  1
  Al  Al6  1  0.17512970  0.34027356  0.75000000  1
  Al  Al7  1  0.17508271  0.83484922  0.75000000  1
  Fe  Fe8  1  0.66672992  0.83339385  0.75000000  1
  Fe  Fe9  1  0.82445513  0.64451466  0.25000000  1
  Fe  Fe10  1  0.82444482  0.17986472  0.25000000  1
  Fe  Fe11  1  0.34672475  0.17334293  0.25000000  1
