# generated using pymatgen
data_Th2CuSi3
_symmetry_space_group_name_H-M   'P 1'
_cell_length_a   4.14654532
_cell_length_b   4.14665614
_cell_length_c   8.14838031
_cell_angle_alpha   90.00000000
_cell_angle_beta   90.00000000
_cell_angle_gamma   120.00079888
_symmetry_Int_Tables_number   1
_chemical_formula_structural   Th2CuSi3
_chemical_formula_sum   'Th2 Cu1 Si3'
_cell_volume   121.33409794
_cell_formula_units_Z   1
loop_
 _symmetry_equiv_pos_site_id
 _symmetry_equiv_pos_as_xyz
  1  'x, y, z'
loop_
 _atom_site_type_symbol
 _atom_site_label
 _atom_site_symmetry_multiplicity
 _atom_site_fract_x
 _atom_site_fract_y
 _atom_site_fract_z
 _atom_site_occupancy
  Th  Th0  1  0.99997558  0.99999755  0.99555424  1
  Th  Th1  1  0.99997558  0.99999755  0.50444576  1
  Cu  Cu2  1  0.33327314  0.66668868  0.25000000  1
  Si  Si3  1  0.33330626  0.66665935  0.75000000  1
  Si  Si4  1  0.66665418  0.33330959  0.25000000  1
  Si  Si5  1  0.66661526  0.33334729  0.75000000  1
