# generated using pymatgen
data_Ti3VS6
_symmetry_space_group_name_H-M   'P 1'
_cell_length_a   5.89459799
_cell_length_b   5.89387123
_cell_length_c   6.70708256
_cell_angle_alpha   63.92496854
_cell_angle_beta   90.00416793
_cell_angle_gamma   120.00240997
_symmetry_Int_Tables_number   1
_chemical_formula_structural   Ti3VS6
_chemical_formula_sum   'Ti3 V1 S6'
_cell_volume   173.87433583
_cell_formula_units_Z   1
loop_
 _symmetry_equiv_pos_site_id
 _symmetry_equiv_pos_as_xyz
  1  'x, y, z'
loop_
 _atom_site_type_symbol
 _atom_site_label
 _atom_site_symmetry_multiplicity
 _atom_site_fract_x
 _atom_site_fract_y
 _atom_site_fract_z
 _atom_site_occupancy
  Ti  Ti0  1  0.33333300  0.66666700  -0.00000000  1
  Ti  Ti1  1  0.66549042  0.33096748  0.00357152  1
  Ti  Ti2  1  0.00117658  0.00236552  0.99642848  1
  V  V3  1  0.83333300  0.66666700  0.50000000  1
  S  S4  1  0.91606484  0.49776051  0.25460712  1
  S  S5  1  0.58165463  0.82924748  0.25460031  1
  S  S6  1  0.24762478  0.16370010  0.25461697  1
  S  S7  1  0.41904122  0.16963390  0.74538303  1
  S  S8  1  0.08501237  0.50408552  0.74539969  1
  S  S9  1  0.75060216  0.83557249  0.74539288  1
