# generated using pymatgen
data_Lu2GeO5
_symmetry_space_group_name_H-M   'P 1'
_cell_length_a   5.16018471
_cell_length_b   6.25745720
_cell_length_c   7.36510423
_cell_angle_alpha   68.32112307
_cell_angle_beta   90.00008104
_cell_angle_gamma   65.64714309
_symmetry_Int_Tables_number   1
_chemical_formula_structural   Lu2GeO5
_chemical_formula_sum   'Lu4 Ge2 O10'
_cell_volume   198.04612843
_cell_formula_units_Z   2
loop_
 _symmetry_equiv_pos_site_id
 _symmetry_equiv_pos_as_xyz
  1  'x, y, z'
loop_
 _atom_site_type_symbol
 _atom_site_label
 _atom_site_symmetry_multiplicity
 _atom_site_fract_x
 _atom_site_fract_y
 _atom_site_fract_z
 _atom_site_occupancy
  Lu  Lu0  1  0.63228606  0.72061012  0.75636236  1
  Lu  Lu1  1  0.35294499  0.27929271  0.74368819  1
  Lu  Lu2  1  0.64708106  0.72070796  0.25631921  1
  Lu  Lu3  1  0.36768043  0.27940229  0.24364756  1
  Ge  Ge4  1  0.99998007  0.99999298  0.49997802  1
  Ge  Ge5  1  0.00003247  0.99999527  0.99996196  1
  O  O6  1  0.02410567  0.66436253  0.63771227  1
  O  O7  1  0.75833975  0.85360757  0.95940188  1
  O  O8  1  0.38802187  0.85368278  0.45941373  1
  O  O9  1  0.68842898  0.33562149  0.86229078  1
  O  O10  1  0.31159725  0.66437273  0.13769894  1
  O  O11  1  0.17014913  0.00005686  0.74997893  1
  O  O12  1  0.61196147  0.14629612  0.54059375  1
  O  O13  1  0.24166487  0.14639721  0.04060718  1
  O  O14  1  0.97589036  0.33563272  0.36231231  1
  O  O15  1  0.82983856  0.99996968  0.25003292  1
