# generated using pymatgen
data_V3Bi(PbO4)3
_symmetry_space_group_name_H-M   'P 1'
_cell_length_a   9.51548111
_cell_length_b   9.53286943
_cell_length_c   9.50273072
_cell_angle_alpha   70.52049642
_cell_angle_beta   70.70075010
_cell_angle_gamma   109.53358891
_symmetry_Int_Tables_number   1
_chemical_formula_structural   V3Bi(PbO4)3
_chemical_formula_sum   'V6 Bi2 Pb6 O24'
_cell_volume   664.38726363
_cell_formula_units_Z   2
loop_
 _symmetry_equiv_pos_site_id
 _symmetry_equiv_pos_as_xyz
  1  'x, y, z'
loop_
 _atom_site_type_symbol
 _atom_site_label
 _atom_site_symmetry_multiplicity
 _atom_site_fract_x
 _atom_site_fract_y
 _atom_site_fract_z
 _atom_site_occupancy
  V  V0  1  0.62231383  0.74690966  0.63019129  1
  V  V1  1  0.87540417  0.25309034  0.87710096  1
  V  V2  1  0.12791001  0.37712943  0.24487946  1
  V  V3  1  0.37475769  0.12517112  0.75032803  1
  V  V4  1  0.24958658  0.87482888  0.37549915  1
  V  V5  1  0.75078058  0.62287057  0.12200889  1
  Bi  Bi6  1  0.17523478  0.67486754  0.82633135  1
  Bi  Bi7  1  0.50036724  0.32513246  0.00119889  1
  Pb  Pb8  1  0.50051488  0.83818536  0.00310377  1
  Pb  Pb9  1  0.34014417  0.49730193  0.49785430  1
  Pb  Pb10  1  0.99487210  0.99965554  0.66158283  1
  Pb  Pb11  1  0.66232952  0.16181464  0.34128913  1
  Pb  Pb12  1  0.84284224  0.50269807  0.49515624  1
  Pb  Pb13  1  0.99521656  0.00034446  0.16123837  1
  O  O14  1  0.80599203  0.64958428  0.27270172  1
  O  O15  1  0.07160246  0.84256608  0.35200888  1
  O  O16  1  0.68365939  0.41597334  0.14780433  1
  O  O17  1  0.42516031  0.08540438  0.22228285  1
  O  O18  1  0.15640776  0.35041572  0.42228600  1
  O  O19  1  0.22903639  0.15743392  0.69457496  1
  O  O20  1  0.26768605  0.58402666  0.06377766  1
  O  O21  1  0.33975594  0.91459562  0.80768723  1
  O  O22  1  0.84753388  0.18990284  0.08173449  1
  O  O23  1  0.76875077  0.91950325  0.42409041  1
  O  O24  1  0.71849366  0.30651705  0.85406120  1
  O  O25  1  0.64364710  0.56489846  0.66802378  1
  O  O26  1  0.19588212  0.84325056  0.58502114  1
  O  O27  1  0.93398025  0.76791634  0.91735451  1
  O  O28  1  0.30971511  0.73217685  0.34290845  1
  O  O29  1  0.57614520  0.65570553  0.15142743  1
  O  O30  1  0.35263157  0.15674944  0.92827170  1
  O  O31  1  0.16606391  0.23208366  0.18527085  1
  O  O32  1  0.57753826  0.26782315  0.57508530  1
  O  O33  1  0.92043967  0.34429447  0.30713296  1
  O  O34  1  0.65763104  0.81009716  0.77163733  1
  O  O35  1  0.84924753  0.08049675  0.84359366  1
  O  O36  1  0.41197661  0.69348295  0.66057825  1
  O  O37  1  0.07874865  0.43510154  0.73292224  1
