# generated using pymatgen
data_U11S20
_symmetry_space_group_name_H-M   'P 1'
_cell_length_a   6.35192679
_cell_length_b   10.17377939
_cell_length_c   10.17377939
_cell_angle_alpha   90.00000000
_cell_angle_beta   90.00000000
_cell_angle_gamma   90.00000000
_symmetry_Int_Tables_number   1
_chemical_formula_structural   U11S20
_chemical_formula_sum   'U11 S20'
_cell_volume   657.46118185
_cell_formula_units_Z   1
loop_
 _symmetry_equiv_pos_site_id
 _symmetry_equiv_pos_as_xyz
  1  'x, y, z'
loop_
 _atom_site_type_symbol
 _atom_site_label
 _atom_site_symmetry_multiplicity
 _atom_site_fract_x
 _atom_site_fract_y
 _atom_site_fract_z
 _atom_site_occupancy
  U  U0  1  0.25485171  0.90033574  0.09351567  1
  U  U1  1  0.75266305  0.60259624  0.08764994  1
  U  U2  1  0.75266305  0.89740376  0.41235006  1
  U  U3  1  0.25485171  0.59966426  0.40648433  1
  U  U4  1  0.75266305  0.08764994  0.89740376  1
  U  U5  1  0.25485171  0.40648433  0.90033574  1
  U  U6  1  0.25485171  0.09351567  0.59966426  1
  U  U7  1  0.75266305  0.41235006  0.60259624  1
  U  U8  1  0.13541825  0.75000000  0.75000000  1
  U  U9  1  0.35812653  0.25000000  0.25000000  1
  U  U10  1  0.85658445  0.25000000  0.25000000  1
  S  S11  1  0.37755824  0.83867796  0.54124145  1
  S  S12  1  0.88903233  0.66109835  0.54019124  1
  S  S13  1  0.88903233  0.83890165  0.95980876  1
  S  S14  1  0.37755824  0.66132204  0.95875855  1
  S  S15  1  0.88903233  0.54019124  0.83890165  1
  S  S16  1  0.37755824  0.95875855  0.83867796  1
  S  S17  1  0.37755824  0.54124145  0.66132204  1
  S  S18  1  0.88903233  0.95980876  0.66109835  1
  S  S19  1  0.61428956  0.15977430  0.45785160  1
  S  S20  1  0.11191955  0.33959657  0.45716628  1
  S  S21  1  0.11191955  0.16040343  0.04283372  1
  S  S22  1  0.61428956  0.34022570  0.04214840  1
  S  S23  1  0.11191955  0.45716628  0.16040343  1
  S  S24  1  0.61428956  0.04214840  0.15977430  1
  S  S25  1  0.61428956  0.45785160  0.34022570  1
  S  S26  1  0.11191955  0.04283372  0.33959657  1
  S  S27  1  0.50488446  0.75000000  0.25000000  1
  S  S28  1  0.00152207  0.75000000  0.25000000  1
  S  S29  1  0.00152207  0.25000000  0.75000000  1
  S  S30  1  0.50488446  0.25000000  0.75000000  1
