# generated using pymatgen
data_Tb17Mg11Ni8
_symmetry_space_group_name_H-M   'P 1'
_cell_length_a   3.64396724
_cell_length_b   10.94972907
_cell_length_c   21.90458980
_cell_angle_alpha   90.00000000
_cell_angle_beta   90.00000000
_cell_angle_gamma   90.00000000
_symmetry_Int_Tables_number   1
_chemical_formula_structural   Tb17Mg11Ni8
_chemical_formula_sum   'Tb17 Mg11 Ni8'
_cell_volume   874.00307810
_cell_formula_units_Z   1
loop_
 _symmetry_equiv_pos_site_id
 _symmetry_equiv_pos_as_xyz
  1  'x, y, z'
loop_
 _atom_site_type_symbol
 _atom_site_label
 _atom_site_symmetry_multiplicity
 _atom_site_fract_x
 _atom_site_fract_y
 _atom_site_fract_z
 _atom_site_occupancy
  Tb  Tb0  1  0.50000000  0.32417159  0.16212970  1
  Tb  Tb1  1  0.50000000  0.32478117  0.66205939  1
  Tb  Tb2  1  0.50000000  0.67521883  0.33794061  1
  Tb  Tb3  1  0.50000000  0.67582841  0.83787030  1
  Tb  Tb4  1  0.50000000  0.67582841  0.16212970  1
  Tb  Tb5  1  0.50000000  0.67521883  0.66205939  1
  Tb  Tb6  1  0.50000000  0.32478117  0.33794061  1
  Tb  Tb7  1  0.50000000  0.32417159  0.83787030  1
  Tb  Tb8  1  0.50000000  -0.00000000  0.13562412  1
  Tb  Tb9  1  0.50000000  -0.00000000  0.63334831  1
  Tb  Tb10  1  0.50000000  -0.00000000  0.36665169  1
  Tb  Tb11  1  0.50000000  -0.00000000  0.86437588  1
  Tb  Tb12  1  0.50000000  0.72875911  -0.00000000  1
  Tb  Tb13  1  0.50000000  0.73334451  0.50000000  1
  Tb  Tb14  1  0.50000000  0.27124089  -0.00000000  1
  Tb  Tb15  1  0.50000000  0.26665549  0.50000000  1
  Tb  Tb16  1  0.00000000  -0.00000000  -0.00000000  1
  Mg  Mg17  1  0.00000000  0.50000000  0.07083823  1
  Mg  Mg18  1  0.00000000  0.50000000  0.57083199  1
  Mg  Mg19  1  0.00000000  0.50000000  0.42916801  1
  Mg  Mg20  1  -0.00000000  0.50000000  0.92916177  1
  Mg  Mg21  1  0.00000000  0.85835263  0.25017667  1
  Mg  Mg22  1  0.00000000  0.85835263  0.74982333  1
  Mg  Mg23  1  0.00000000  0.14164737  0.25017667  1
  Mg  Mg24  1  -0.00000000  0.14164737  0.74982333  1
  Mg  Mg25  1  0.00000000  0.50000000  0.25007754  1
  Mg  Mg26  1  -0.00000000  0.50000000  0.74992246  1
  Mg  Mg27  1  0.00000000  0.00000000  0.50000000  1
  Ni  Ni28  1  -0.00000000  0.19030669  0.09525904  1
  Ni  Ni29  1  -0.00000000  0.19014086  0.59516118  1
  Ni  Ni30  1  0.00000000  0.80985914  0.40483882  1
  Ni  Ni31  1  -0.00000000  0.80969331  0.90474096  1
  Ni  Ni32  1  -0.00000000  0.80969331  0.09525904  1
  Ni  Ni33  1  -0.00000000  0.80985914  0.59516118  1
  Ni  Ni34  1  -0.00000000  0.19014086  0.40483882  1
  Ni  Ni35  1  -0.00000000  0.19030669  0.90474096  1
