# generated using pymatgen
data_TbGaAu
_symmetry_space_group_name_H-M   'P 1'
_cell_length_a   4.53254917
_cell_length_b   5.83373409
_cell_length_c   5.72127658
_cell_angle_alpha   94.54703933
_cell_angle_beta   113.33543978
_cell_angle_gamma   67.14019527
_symmetry_Int_Tables_number   1
_chemical_formula_structural   TbGaAu
_chemical_formula_sum   'Tb2 Ga2 Au2'
_cell_volume   127.49725891
_cell_formula_units_Z   2
loop_
 _symmetry_equiv_pos_site_id
 _symmetry_equiv_pos_as_xyz
  1  'x, y, z'
loop_
 _atom_site_type_symbol
 _atom_site_label
 _atom_site_symmetry_multiplicity
 _atom_site_fract_x
 _atom_site_fract_y
 _atom_site_fract_z
 _atom_site_occupancy
  Tb  Tb0  1  0.76025395  0.70305688  0.22356478  1
  Tb  Tb1  1  0.23974605  0.29694312  0.77643522  1
  Ga  Ga2  1  0.05111296  0.10707472  0.20930064  1
  Ga  Ga3  1  0.94888704  0.89292528  0.79069936  1
  Au  Au4  1  0.53983571  0.28238469  0.36205612  1
  Au  Au5  1  0.46016429  0.71761531  0.63794388  1
