# generated using pymatgen
data_TePb3(ClO2)2
_symmetry_space_group_name_H-M   'P 1'
_cell_length_a   5.63700301
_cell_length_b   5.65454355
_cell_length_c   7.00605417
_cell_angle_alpha   66.19989665
_cell_angle_beta   90.00000000
_cell_angle_gamma   90.00000000
_symmetry_Int_Tables_number   1
_chemical_formula_structural   TePb3(ClO2)2
_chemical_formula_sum   'Te1 Pb3 Cl2 O4'
_cell_volume   204.32472170
_cell_formula_units_Z   1
loop_
 _symmetry_equiv_pos_site_id
 _symmetry_equiv_pos_as_xyz
  1  'x, y, z'
loop_
 _atom_site_type_symbol
 _atom_site_label
 _atom_site_symmetry_multiplicity
 _atom_site_fract_x
 _atom_site_fract_y
 _atom_site_fract_z
 _atom_site_occupancy
  Te  Te0  1  0.25000000  0.93013772  0.13972456  1
  Pb  Pb1  1  0.75000000  0.38780040  0.22439920  1
  Pb  Pb2  1  0.25000000  0.60811314  0.78377372  1
  Pb  Pb3  1  0.75000000  0.10193296  0.79613409  1
  Cl  Cl4  1  0.75000000  0.74336131  0.51327737  1
  Cl  Cl5  1  0.25000000  0.25217969  0.49564062  1
  O  O6  1  0.48242006  0.76212676  0.01176261  1
  O  O7  1  0.01757994  0.76212676  0.01176261  1
  O  O8  1  0.48242006  0.22611063  0.01176261  1
  O  O9  1  0.01757994  0.22611063  0.01176261  1
