# generated using pymatgen
data_Tb4CuPt3
_symmetry_space_group_name_H-M   'P 1'
_cell_length_a   4.55857909
_cell_length_b   5.57979862
_cell_length_c   7.02459793
_cell_angle_alpha   89.58664980
_cell_angle_beta   90.00000000
_cell_angle_gamma   90.00000000
_symmetry_Int_Tables_number   1
_chemical_formula_structural   Tb4CuPt3
_chemical_formula_sum   'Tb4 Cu1 Pt3'
_cell_volume   178.67269547
_cell_formula_units_Z   1
loop_
 _symmetry_equiv_pos_site_id
 _symmetry_equiv_pos_as_xyz
  1  'x, y, z'
loop_
 _atom_site_type_symbol
 _atom_site_label
 _atom_site_symmetry_multiplicity
 _atom_site_fract_x
 _atom_site_fract_y
 _atom_site_fract_z
 _atom_site_occupancy
  Tb  Tb0  1  0.25000000  0.35937831  0.68337989  1
  Tb  Tb1  1  0.25000000  0.14287074  0.18103164  1
  Tb  Tb2  1  0.75000000  0.63540752  0.31186152  1
  Tb  Tb3  1  0.75000000  0.86127232  0.82281501  1
  Cu  Cu4  1  0.25000000  0.86396533  0.53675114  1
  Pt  Pt5  1  0.25000000  0.65981523  0.04384404  1
  Pt  Pt6  1  0.75000000  0.13290811  0.46528143  1
  Pt  Pt7  1  0.75000000  0.34438243  0.95503534  1
