# generated using pymatgen
data_UNiSn
_symmetry_space_group_name_H-M   'P 1'
_cell_length_a   5.93123748
_cell_length_b   5.94564457
_cell_length_c   5.94564457
_cell_angle_alpha   41.39463999
_cell_angle_beta   58.91424029
_cell_angle_gamma   74.58035903
_symmetry_Int_Tables_number   1
_chemical_formula_structural   UNiSn
_chemical_formula_sum   'U2 Ni2 Sn2'
_cell_volume   115.97220761
_cell_formula_units_Z   2
loop_
 _symmetry_equiv_pos_site_id
 _symmetry_equiv_pos_as_xyz
  1  'x, y, z'
loop_
 _atom_site_type_symbol
 _atom_site_label
 _atom_site_symmetry_multiplicity
 _atom_site_fract_x
 _atom_site_fract_y
 _atom_site_fract_z
 _atom_site_occupancy
  U  U0  1  0.21344881  0.50265565  0.28920684  1
  U  U1  1  0.78655119  0.49734435  0.71079316  1
  Ni  Ni2  1  0.62364920  0.12960870  0.50595950  1
  Ni  Ni3  1  0.37635080  0.87039130  0.49404050  1
  Sn  Sn4  1  0.79515657  0.79134643  0.99618987  1
  Sn  Sn5  1  0.20484343  0.20865357  0.00381013  1
