# generated using pymatgen
data_Tb2FeSbO7
_symmetry_space_group_name_H-M   'P 1'
_cell_length_a   7.32433433
_cell_length_b   7.28579678
_cell_length_c   7.32433433
_cell_angle_alpha   60.17389948
_cell_angle_beta   119.42933012
_cell_angle_gamma   119.82610052
_symmetry_Int_Tables_number   1
_chemical_formula_structural   Tb2FeSbO7
_chemical_formula_sum   'Tb4 Fe2 Sb2 O14'
_cell_volume   278.28058999
_cell_formula_units_Z   2
loop_
 _symmetry_equiv_pos_site_id
 _symmetry_equiv_pos_as_xyz
  1  'x, y, z'
loop_
 _atom_site_type_symbol
 _atom_site_label
 _atom_site_symmetry_multiplicity
 _atom_site_fract_x
 _atom_site_fract_y
 _atom_site_fract_z
 _atom_site_occupancy
  Tb  Tb0  1  0.50000000  0.50000000  0.00000000  1
  Tb  Tb1  1  0.50000000  0.00000000  0.00000000  1
  Tb  Tb2  1  0.50000000  0.00000000  0.50000000  1
  Tb  Tb3  1  0.00000000  0.00000000  0.00000000  1
  Fe  Fe4  1  0.00000000  0.00000000  0.50000000  1
  Fe  Fe5  1  0.00000000  0.50000000  0.50000000  1
  Sb  Sb6  1  0.00000000  0.50000000  0.00000000  1
  Sb  Sb7  1  0.50000000  0.50000000  0.50000000  1
  O  O8  1  0.08901995  0.83901995  0.41098005  1
  O  O9  1  0.66964485  0.41964485  0.83035515  1
  O  O10  1  0.08979147  0.83005290  0.83842356  1
  O  O11  1  0.66157644  0.42131500  0.41020853  1
  O  O12  1  0.08979147  0.42131500  0.83842356  1
  O  O13  1  0.66157644  0.83005290  0.41020853  1
  O  O14  1  0.91098005  0.16098005  0.58901995  1
  O  O15  1  0.33035515  0.58035515  0.16964485  1
  O  O16  1  0.91020853  0.16994710  0.16157644  1
  O  O17  1  0.33842356  0.57868500  0.58979147  1
  O  O18  1  0.91020853  0.57868500  0.16157644  1
  O  O19  1  0.33842356  0.16994710  0.58979147  1
  O  O20  1  0.37681266  0.12681266  0.12318734  1
  O  O21  1  0.62318734  0.87318734  0.87681266  1
