# generated using pymatgen
data_Li2BiS2
_symmetry_space_group_name_H-M   'P 1'
_cell_length_a   4.07485229
_cell_length_b   7.28433479
_cell_length_c   4.01526054
_cell_angle_alpha   74.06789732
_cell_angle_beta   90.00220650
_cell_angle_gamma   73.74676877
_symmetry_Int_Tables_number   1
_chemical_formula_structural   Li2BiS2
_chemical_formula_sum   'Li2 Bi1 S2'
_cell_volume   109.64285111
_cell_formula_units_Z   1
loop_
 _symmetry_equiv_pos_site_id
 _symmetry_equiv_pos_as_xyz
  1  'x, y, z'
loop_
 _atom_site_type_symbol
 _atom_site_label
 _atom_site_symmetry_multiplicity
 _atom_site_fract_x
 _atom_site_fract_y
 _atom_site_fract_z
 _atom_site_occupancy
  Li  Li0  1  0.73086637  0.52225815  0.74412111  1
  Li  Li1  1  0.25028855  0.48041134  0.26025530  1
  Bi  Bi2  1  0.99081631  0.00128598  0.99158889  1
  S  S3  1  0.13917222  0.70499219  0.64319403  1
  S  S4  1  0.84202556  0.29720034  0.34800267  1
