# generated using pymatgen
data_V20Ga(GeS10)4
_symmetry_space_group_name_H-M   'P 1'
_cell_length_a   9.69569224
_cell_length_b   11.86013571
_cell_length_c   11.86013572
_cell_angle_alpha   80.38204789
_cell_angle_beta   114.12642128
_cell_angle_gamma   114.12642131
_symmetry_Int_Tables_number   1
_chemical_formula_structural   V20Ga(GeS10)4
_chemical_formula_sum   'V20 Ga1 Ge4 S40'
_cell_volume   1135.95896146
_cell_formula_units_Z   1
loop_
 _symmetry_equiv_pos_site_id
 _symmetry_equiv_pos_as_xyz
  1  'x, y, z'
loop_
 _atom_site_type_symbol
 _atom_site_label
 _atom_site_symmetry_multiplicity
 _atom_site_fract_x
 _atom_site_fract_y
 _atom_site_fract_z
 _atom_site_occupancy
  V  V0  1  0.03854526  0.35255636  0.92457976  1
  V  V1  1  0.64357741  0.76222561  0.71918108  1
  V  V2  1  0.43575779  0.95827796  0.12464143  1
  V  V3  1  0.84208950  0.56174312  0.32691512  1
  V  V4  1  0.23255850  0.15852805  0.52314631  1
  V  V5  1  0.11864820  0.28081892  0.76222561  1
  V  V6  1  0.71965361  0.67308488  0.56174312  1
  V  V7  1  0.52252017  0.87535857  0.95827796  1
  V  V8  1  0.92596955  0.47685369  0.15852805  1
  V  V9  1  0.31401110  0.07542024  0.35255636  1
  V  V10  1  0.29058781  0.52314631  0.84147195  1
  V  V11  1  0.88603450  0.92457976  0.64744364  1
  V  V12  1  0.68888364  0.12464143  0.04172204  1
  V  V13  1  0.07560367  0.71918108  0.23777439  1
  V  V14  1  0.48482562  0.32691512  0.43825688  1
  V  V15  1  0.95343126  0.43825688  0.67308488  1
  V  V16  1  0.55088414  0.84147195  0.47685369  1
  V  V17  1  0.35283840  0.04172204  0.87535857  1
  V  V18  1  0.76140915  0.64744364  0.07542024  1
  V  V19  1  0.16217072  0.23777439  0.28081892  1
  Ga  Ga20  1  0.00000000  -0.00000000  -0.00000000  1
  Ge  Ge21  1  0.80019812  0.19970289  0.39947898  1
  Ge  Ge22  1  0.59928085  0.39947898  0.80029711  1
  Ge  Ge23  1  0.39950476  0.60052102  0.19970289  1
  Ge  Ge24  1  0.20101626  0.80029711  0.60052102  1
  S  S25  1  0.17786047  0.45315115  0.64444014  1
  S  S26  1  0.77586628  0.85085268  0.45068313  1
  S  S27  1  0.57510673  0.05243863  0.84292233  1
  S  S28  1  0.97698093  0.65022520  0.04144861  1
  S  S29  1  0.38240652  0.25223820  0.24412479  1
  S  S30  1  0.07498640  0.54931687  0.85085268  1
  S  S31  1  0.67324427  0.95855139  0.65022520  1
  S  S32  1  0.47733190  0.15707767  0.05243863  1
  S  S33  1  0.86983168  0.75587521  0.25223820  1
  S  S34  1  0.27529068  0.35555986  0.45315115  1
  S  S35  1  0.86171827  0.24412479  0.74776180  1
  S  S36  1  0.46657967  0.64444014  0.54684885  1
  S  S37  1  0.26781560  0.84292233  0.94756137  1
  S  S38  1  0.67481685  0.45068313  0.14914732  1
  S  S39  1  0.06446768  0.04144861  0.34977480  1
  S  S40  1  0.28530712  0.34977480  0.95855139  1
  S  S41  1  0.88604353  0.74776180  0.75587521  1
  S  S42  1  0.67974577  0.94756137  0.15707767  1
  S  S43  1  0.08026918  0.54684885  0.35555986  1
  S  S44  1  0.47433047  0.14914732  0.54931687  1
  S  S45  1  0.27759078  0.85336277  0.43484770  1
  S  S46  1  0.08372365  0.05735035  0.83566703  1
  S  S47  1  0.88358777  0.25374001  0.23716110  1
  S  S48  1  0.68163769  0.45350848  0.63647263  1
  S  S49  1  0.48285458  0.65510746  0.03681207  1
  S  S50  1  0.37015223  0.76283890  0.25374001  1
  S  S51  1  0.17225288  0.96318793  0.65510746  1
  S  S52  1  0.97362670  0.16433297  0.05735035  1
  S  S53  1  0.77187079  0.36352737  0.45350848  1
  S  S54  1  0.57577199  0.56515230  0.85336277  1
  S  S55  1  0.55395750  0.03681207  0.34489254  1
  S  S56  1  0.35357333  0.23716110  0.74625999  1
  S  S57  1  0.15725692  0.43484770  0.14663723  1
  S  S58  1  0.95483495  0.63647263  0.54649152  1
  S  S59  1  0.75194339  0.83566703  0.94264965  1
  S  S60  1  0.19070626  0.94264965  0.16433297  1
  S  S61  1  0.98938030  0.14663723  0.56515230  1
  S  S62  1  0.79093504  0.34489254  0.96318793  1
  S  S63  1  0.59165658  0.54649152  0.36352737  1
  S  S64  1  0.39268667  0.74625999  0.76283890  1
