# generated using pymatgen
data_Ta2Cr3Si
_symmetry_space_group_name_H-M   'P 1'
_cell_length_a   4.86345583
_cell_length_b   4.86345583
_cell_length_c   8.09676238
_cell_angle_alpha   90.00000000
_cell_angle_beta   90.00000000
_cell_angle_gamma   120.01102783
_symmetry_Int_Tables_number   1
_chemical_formula_structural   Ta2Cr3Si
_chemical_formula_sum   'Ta4 Cr6 Si2'
_cell_volume   165.83786828
_cell_formula_units_Z   2
loop_
 _symmetry_equiv_pos_site_id
 _symmetry_equiv_pos_as_xyz
  1  'x, y, z'
loop_
 _atom_site_type_symbol
 _atom_site_label
 _atom_site_symmetry_multiplicity
 _atom_site_fract_x
 _atom_site_fract_y
 _atom_site_fract_z
 _atom_site_occupancy
  Ta  Ta0  1  0.66667286  0.33332714  0.56501164  1
  Ta  Ta1  1  0.33332714  0.66667286  0.43498836  1
  Ta  Ta2  1  0.33332714  0.66667286  0.06501164  1
  Ta  Ta3  1  0.66667286  0.33332714  0.93498836  1
  Cr  Cr4  1  0.17189743  0.34375903  0.75000000  1
  Cr  Cr5  1  0.17191638  0.82808362  0.75000000  1
  Cr  Cr6  1  0.65624097  0.82810257  0.75000000  1
  Cr  Cr7  1  0.82810257  0.65624097  0.25000000  1
  Cr  Cr8  1  0.82808362  0.17191638  0.25000000  1
  Cr  Cr9  1  0.34375903  0.17189743  0.25000000  1
  Si  Si10  1  0.00000000  -0.00000000  0.50000000  1
  Si  Si11  1  0.00000000  -0.00000000  -0.00000000  1
