# generated using pymatgen
data_Ta6TiTl2O18
_symmetry_space_group_name_H-M   'P 1'
_cell_length_a   7.63020513
_cell_length_b   7.61830957
_cell_length_c   8.34778558
_cell_angle_alpha   90.15476244
_cell_angle_beta   89.99999998
_cell_angle_gamma   120.05167136
_symmetry_Int_Tables_number   1
_chemical_formula_structural   Ta6TiTl2O18
_chemical_formula_sum   'Ta6 Ti1 Tl2 O18'
_cell_volume   420.01835567
_cell_formula_units_Z   1
loop_
 _symmetry_equiv_pos_site_id
 _symmetry_equiv_pos_as_xyz
  1  'x, y, z'
loop_
 _atom_site_type_symbol
 _atom_site_label
 _atom_site_symmetry_multiplicity
 _atom_site_fract_x
 _atom_site_fract_y
 _atom_site_fract_z
 _atom_site_occupancy
  Ta  Ta0  1  0.66376537  0.83529912  0.15133665  1
  Ta  Ta1  1  0.16705900  0.83307294  0.15162528  1
  Ta  Ta2  1  0.16442417  0.33555250  0.15140932  1
  Ta  Ta3  1  0.33398606  0.16692706  0.84837472  1
  Ta  Ta4  1  0.82846625  0.16470088  0.84866335  1
  Ta  Ta5  1  0.82887166  0.66444750  0.84859068  1
  Ti  Ti6  1  0.99932954  1.00000000  0.50000000  1
  Tl  Tl7  1  0.27710327  0.63880112  0.69281844  1
  Tl  Tl8  1  0.63830216  0.36119888  0.30718156  1
  O  O9  1  0.10180955  0.55177064  0.15935094  1
  O  O10  1  0.44911190  0.55072524  0.16080862  1
  O  O11  1  0.44847972  0.89888783  0.15959450  1
  O  O12  1  0.89838666  0.44927476  0.83919138  1
  O  O13  1  0.55003891  0.44822936  0.84064906  1
  O  O14  1  0.54959189  0.10111217  0.84040550  1
  O  O15  1  0.28365037  0.14260527  0.10116505  1
  O  O16  1  0.85843661  0.14183283  0.10062919  1
  O  O17  1  0.85727849  0.71577555  0.10086670  1
  O  O18  1  0.71660378  0.85816717  0.89937081  1
  O  O19  1  0.14104509  0.85739473  0.89883495  1
  O  O20  1  0.14150294  0.28422445  0.89913330  1
  O  O21  1  0.75853387  0.87792356  0.36100774  1
  O  O22  1  0.12097778  0.87886591  0.36204724  1
  O  O23  1  0.12255634  0.24258991  0.36167126  1
  O  O24  1  0.24211187  0.12113409  0.63795276  1
  O  O25  1  0.88061032  0.12207644  0.63899226  1
  O  O26  1  0.87996643  0.75741009  0.63832874  1
