# generated using pymatgen
data_Ta6V3Ni3C2
_symmetry_space_group_name_H-M   'P 1'
_cell_length_a   8.15060744
_cell_length_b   8.15727366
_cell_length_c   8.13070112
_cell_angle_alpha   90.00000000
_cell_angle_beta   60.08075815
_cell_angle_gamma   120.02705895
_symmetry_Int_Tables_number   1
_chemical_formula_structural   Ta6V3Ni3C2
_chemical_formula_sum   'Ta12 V6 Ni6 C4'
_cell_volume   382.56016246
_cell_formula_units_Z   2
loop_
 _symmetry_equiv_pos_site_id
 _symmetry_equiv_pos_as_xyz
  1  'x, y, z'
loop_
 _atom_site_type_symbol
 _atom_site_label
 _atom_site_symmetry_multiplicity
 _atom_site_fract_x
 _atom_site_fract_y
 _atom_site_fract_z
 _atom_site_occupancy
  Ta  Ta0  1  0.63544686  0.81772343  0.43227657  1
  Ta  Ta1  1  0.87754341  0.43877170  0.81122830  1
  Ta  Ta2  1  0.24780664  0.81270834  0.81630234  1
  Ta  Ta3  1  0.24780664  0.43509830  0.43589101  1
  Ta  Ta4  1  0.24780664  0.43509830  0.81630234  1
  Ta  Ta5  1  0.24780664  0.81270834  0.43589101  1
  Ta  Ta6  1  0.37866518  0.18933259  0.56066741  1
  Ta  Ta7  1  0.13106937  0.56553468  0.18446532  1
  Ta  Ta8  1  0.74817753  0.18531035  0.18647569  1
  Ta  Ta9  1  0.74817753  0.56286718  0.56534678  1
  Ta  Ta10  1  0.74817753  0.56286718  0.18647569  1
  Ta  Ta11  1  0.74817753  0.18531035  0.56534678  1
  V  V12  1  0.51137044  0.50486172  0.99431478  1
  V  V13  1  0.51137044  0.00650871  0.99431478  1
  V  V14  1  -0.00062466  -0.00031233  0.50875103  1
  V  V15  1  -0.00062466  -0.00031233  0.99187363  1
  V  V16  1  0.08850578  0.88249530  0.20574711  1
  V  V17  1  0.08850578  0.20601048  0.20574711  1
  Ni  Ni18  1  0.40794812  0.20397406  0.89081932  1
  Ni  Ni19  1  0.40794812  0.20397406  0.20123256  1
  Ni  Ni20  1  0.90455091  0.10896737  0.79772455  1
  Ni  Ni21  1  0.90455091  0.79558354  0.79772455  1
  Ni  Ni22  1  0.58960816  0.79480408  0.11470214  1
  Ni  Ni23  1  0.58960816  0.79480408  0.79568969  1
  C  C24  1  0.49853205  0.00020275  0.50073398  1
  C  C25  1  0.49853205  0.49832930  0.50073398  1
  C  C26  1  0.99677845  0.49838923  0.00205044  1
  C  C27  1  0.99677845  0.49838923  0.50117111  1
