# generated using pymatgen
data_Li5Cu3(TeO5)2
_symmetry_space_group_name_H-M   'P 1'
_cell_length_a   5.43813556
_cell_length_b   5.62272016
_cell_length_c   8.18496445
_cell_angle_alpha   98.92306065
_cell_angle_beta   108.77018200
_cell_angle_gamma   105.67880988
_symmetry_Int_Tables_number   1
_chemical_formula_structural   Li5Cu3(TeO5)2
_chemical_formula_sum   'Li5 Cu3 Te2 O10'
_cell_volume   219.95473690
_cell_formula_units_Z   1
loop_
 _symmetry_equiv_pos_site_id
 _symmetry_equiv_pos_as_xyz
  1  'x, y, z'
loop_
 _atom_site_type_symbol
 _atom_site_label
 _atom_site_symmetry_multiplicity
 _atom_site_fract_x
 _atom_site_fract_y
 _atom_site_fract_z
 _atom_site_occupancy
  Li  Li0  1  0.23118869  0.89555277  0.37599834  1
  Li  Li1  1  0.40980593  0.28483830  0.81736074  1
  Li  Li2  1  0.50000000  0.50000000  0.50000000  1
  Li  Li3  1  0.59019407  0.71516170  0.18263926  1
  Li  Li4  1  0.76881131  0.10444723  0.62400166  1
  Cu  Cu5  1  0.00000000  0.50000000  0.00000000  1
  Cu  Cu6  1  0.76761563  0.86122877  0.89141301  1
  Cu  Cu7  1  0.23238437  0.13877123  0.10858699  1
  Te  Te8  1  0.13536990  0.69454268  0.69586771  1
  Te  Te9  1  0.86463010  0.30545732  0.30413229  1
  O  O10  1  0.04954974  0.98732209  0.78904564  1
  O  O11  1  0.41336404  0.66952573  0.90316455  1
  O  O12  1  0.16088029  0.37138536  0.55385234  1
  O  O13  1  0.16161326  0.53364930  0.25126706  1
  O  O14  1  0.40710787  0.90881899  0.63251059  1
  O  O15  1  0.59289213  0.09118101  0.36748941  1
  O  O16  1  0.83838674  0.46635070  0.74873294  1
  O  O17  1  0.83911971  0.62861464  0.44614766  1
  O  O18  1  0.58663596  0.33047427  0.09683545  1
  O  O19  1  0.95045026  0.01267791  0.21095436  1
