# generated using pymatgen
data_Ta4CoNi
_symmetry_space_group_name_H-M   'P 1'
_cell_length_a   4.91491887
_cell_length_b   5.00718872
_cell_length_c   5.00718872
_cell_angle_alpha   103.93795613
_cell_angle_beta   119.39226637
_cell_angle_gamma   60.60773363
_symmetry_Int_Tables_number   1
_chemical_formula_structural   Ta4CoNi
_chemical_formula_sum   'Ta4 Co1 Ni1'
_cell_volume   93.54483795
_cell_formula_units_Z   1
loop_
 _symmetry_equiv_pos_site_id
 _symmetry_equiv_pos_as_xyz
  1  'x, y, z'
loop_
 _atom_site_type_symbol
 _atom_site_label
 _atom_site_symmetry_multiplicity
 _atom_site_fract_x
 _atom_site_fract_y
 _atom_site_fract_z
 _atom_site_occupancy
  Ta  Ta0  1  0.15941226  0.50000000  0.81882451  1
  Ta  Ta1  1  0.84058774  0.50000000  0.18117549  1
  Ta  Ta2  1  0.34058774  0.81882451  0.50000000  1
  Ta  Ta3  1  0.65941226  0.18117549  0.50000000  1
  Co  Co4  1  0.75000000  0.00000000  0.00000000  1
  Ni  Ni5  1  0.25000000  0.00000000  0.00000000  1
