# generated using pymatgen
data_SrNdGa3O7
_symmetry_space_group_name_H-M   'P 1'
_cell_length_a   5.35239018
_cell_length_b   8.08123938
_cell_length_c   8.08123938
_cell_angle_alpha   90.57710366
_cell_angle_beta   90.00000000
_cell_angle_gamma   90.00000000
_symmetry_Int_Tables_number   1
_chemical_formula_structural   SrNdGa3O7
_chemical_formula_sum   'Sr2 Nd2 Ga6 O14'
_cell_volume   349.52776342
_cell_formula_units_Z   2
loop_
 _symmetry_equiv_pos_site_id
 _symmetry_equiv_pos_as_xyz
  1  'x, y, z'
loop_
 _atom_site_type_symbol
 _atom_site_label
 _atom_site_symmetry_multiplicity
 _atom_site_fract_x
 _atom_site_fract_y
 _atom_site_fract_z
 _atom_site_occupancy
  Sr  Sr0  1  0.50976325  0.33845653  0.16154347  1
  Sr  Sr1  1  0.50976325  0.66154347  0.83845653  1
  Nd  Nd2  1  0.48749719  0.16162432  0.66162432  1
  Nd  Nd3  1  0.48749719  0.83837568  0.33837568  1
  Ga  Ga4  1  0.96617541  0.14193048  0.35806952  1
  Ga  Ga5  1  0.03307700  0.35382173  0.85382173  1
  Ga  Ga6  1  0.96617541  0.85806952  0.64193048  1
  Ga  Ga7  1  0.03307700  0.64617827  0.14617827  1
  Ga  Ga8  1  0.00308059  0.50000000  0.50000000  1
  Ga  Ga9  1  0.00308059  0.00000000  0.00000000  1
  O  O10  1  0.79607785  0.33517625  0.41788061  1
  O  O11  1  0.20976760  0.15771555  0.90323148  1
  O  O12  1  0.79607785  0.66482375  0.58211939  1
  O  O13  1  0.20976760  0.84228445  0.09676852  1
  O  O14  1  0.20976760  0.59676852  0.34228445  1
  O  O15  1  0.79607785  0.91788061  0.83517625  1
  O  O16  1  0.20976760  0.40323148  0.65771555  1
  O  O17  1  0.79607785  0.08211939  0.16482375  1
  O  O18  1  0.18232058  0.50000000  0.00000000  1
  O  O19  1  0.79242985  0.00000000  0.50000000  1
  O  O20  1  0.30641288  0.12838039  0.37161961  1
  O  O21  1  0.69492758  0.34826754  0.84826754  1
  O  O22  1  0.30641288  0.87161961  0.62838039  1
  O  O23  1  0.69492758  0.65173246  0.15173246  1
