# generated using pymatgen
data_TaNi6Mo
_symmetry_space_group_name_H-M   'P 1'
_cell_length_a   4.25823035
_cell_length_b   4.51673561
_cell_length_c   5.09279389
_cell_angle_alpha   90.00000000
_cell_angle_beta   90.00000000
_cell_angle_gamma   90.00000000
_symmetry_Int_Tables_number   1
_chemical_formula_structural   TaNi6Mo
_chemical_formula_sum   'Ta1 Ni6 Mo1'
_cell_volume   97.95123607
_cell_formula_units_Z   1
loop_
 _symmetry_equiv_pos_site_id
 _symmetry_equiv_pos_as_xyz
  1  'x, y, z'
loop_
 _atom_site_type_symbol
 _atom_site_label
 _atom_site_symmetry_multiplicity
 _atom_site_fract_x
 _atom_site_fract_y
 _atom_site_fract_z
 _atom_site_occupancy
  Ta  Ta0  1  0.25000000  0.65444982  0.25000000  1
  Ni  Ni1  1  0.25000000  0.66498872  0.75000000  1
  Ni  Ni2  1  0.75000000  0.32356229  0.25000000  1
  Ni  Ni3  1  0.75000000  0.84316449  0.99605754  1
  Ni  Ni4  1  0.75000000  0.84316449  0.50394246  1
  Ni  Ni5  1  0.25000000  0.16098058  0.99512437  1
  Ni  Ni6  1  0.25000000  0.16098058  0.50487563  1
  Mo  Mo7  1  0.75000000  0.34870904  0.75000000  1
