# generated using pymatgen
data_SrLaMgTaO6
_symmetry_space_group_name_H-M   'P 1'
_cell_length_a   5.68074941
_cell_length_b   5.71374713
_cell_length_c   8.03295704
_cell_angle_alpha   90.00000000
_cell_angle_beta   89.96670277
_cell_angle_gamma   90.00000000
_symmetry_Int_Tables_number   1
_chemical_formula_structural   SrLaMgTaO6
_chemical_formula_sum   'Sr2 La2 Mg2 Ta2 O12'
_cell_volume   260.73661249
_cell_formula_units_Z   2
loop_
 _symmetry_equiv_pos_site_id
 _symmetry_equiv_pos_as_xyz
  1  'x, y, z'
loop_
 _atom_site_type_symbol
 _atom_site_label
 _atom_site_symmetry_multiplicity
 _atom_site_fract_x
 _atom_site_fract_y
 _atom_site_fract_z
 _atom_site_occupancy
  Sr  Sr0  1  0.99443577  0.02272279  0.25064260  1
  Sr  Sr1  1  0.49443577  0.47727721  0.75064260  1
  La  La2  1  0.01268552  0.96562690  0.75299434  1
  La  La3  1  0.51268552  0.53437310  0.25299434  1
  Mg  Mg4  1  0.50094505  0.00253917  0.50023124  1
  Mg  Mg5  1  0.00094505  0.49746083  0.00023124  1
  Ta  Ta6  1  0.00036770  0.49791483  0.50101883  1
  Ta  Ta7  1  0.50036770  0.00208517  0.00101883  1
  O  O8  1  0.09210422  0.48556819  0.25759071  1
  O  O9  1  0.59210422  0.01443181  0.75759071  1
  O  O10  1  0.93025128  0.52124746  0.74249956  1
  O  O11  1  0.43025128  0.97875254  0.24249956  1
  O  O12  1  0.26359951  0.72340930  0.53853633  1
  O  O13  1  0.76359951  0.77659070  0.03853633  1
  O  O14  1  0.72255602  0.28991563  0.45488190  1
  O  O15  1  0.22255602  0.21008437  0.95488190  1
  O  O16  1  0.20629877  0.22023411  0.54555431  1
  O  O17  1  0.70629877  0.27976589  0.04555431  1
  O  O18  1  0.77675614  0.76402421  0.45605018  1
  O  O19  1  0.27675614  0.73597579  0.95605018  1
