# generated using pymatgen
data_Ta6TeSe2
_symmetry_space_group_name_H-M   'P 1'
_cell_length_a   4.81059996
_cell_length_b   7.64186045
_cell_length_c   10.97444251
_cell_angle_alpha   89.37312988
_cell_angle_beta   90.00000000
_cell_angle_gamma   108.34591493
_symmetry_Int_Tables_number   1
_chemical_formula_structural   Ta6TeSe2
_chemical_formula_sum   'Ta12 Te2 Se4'
_cell_volume   382.91077582
_cell_formula_units_Z   2
loop_
 _symmetry_equiv_pos_site_id
 _symmetry_equiv_pos_as_xyz
  1  'x, y, z'
loop_
 _atom_site_type_symbol
 _atom_site_label
 _atom_site_symmetry_multiplicity
 _atom_site_fract_x
 _atom_site_fract_y
 _atom_site_fract_z
 _atom_site_occupancy
  Ta  Ta0  1  0.08116344  0.66232787  0.21858159  1
  Ta  Ta1  1  0.74875130  0.99750260  0.21446449  1
  Ta  Ta2  1  0.41596591  0.33193081  0.21654234  1
  Ta  Ta3  1  0.58458170  0.66916440  0.78553551  1
  Ta  Ta4  1  0.25216956  0.00433913  0.78141841  1
  Ta  Ta5  1  0.91736809  0.33473519  0.78345766  1
  Ta  Ta6  1  0.08384413  0.66768927  0.93224621  1
  Ta  Ta7  1  0.75007672  0.00015343  0.92655326  1
  Ta  Ta8  1  0.41745977  0.33491854  0.93087580  1
  Ta  Ta9  1  0.58325628  0.66651357  0.07344674  1
  Ta  Ta10  1  0.24948887  0.99897773  0.06775379  1
  Ta  Ta11  1  0.91587423  0.33174746  0.06912420  1
  Te  Te12  1  0.75179982  0.00359964  0.63546363  1
  Te  Te13  1  0.58153318  0.66306736  0.36453637  1
  Se  Se14  1  0.42031291  0.34062482  0.67149086  1
  Se  Se15  1  0.08450659  0.66901419  0.67407599  1
  Se  Se16  1  0.24882641  0.99765281  0.32592401  1
  Se  Se17  1  0.91302109  0.32604118  0.32850914  1
