# generated using pymatgen
data_TaCoNi2
_symmetry_space_group_name_H-M   'P 1'
_cell_length_a   4.19819949
_cell_length_b   5.18117488
_cell_length_c   5.23965206
_cell_angle_alpha   120.38678410
_cell_angle_beta   90.00000000
_cell_angle_gamma   90.00000000
_symmetry_Int_Tables_number   1
_chemical_formula_structural   TaCoNi2
_chemical_formula_sum   'Ta2 Co2 Ni4'
_cell_volume   98.31471274
_cell_formula_units_Z   2
loop_
 _symmetry_equiv_pos_site_id
 _symmetry_equiv_pos_as_xyz
  1  'x, y, z'
loop_
 _atom_site_type_symbol
 _atom_site_label
 _atom_site_symmetry_multiplicity
 _atom_site_fract_x
 _atom_site_fract_y
 _atom_site_fract_z
 _atom_site_occupancy
  Ta  Ta0  1  0.75000000  0.67117541  0.33561644  1
  Ta  Ta1  1  0.25000000  0.32763248  0.66390782  1
  Co  Co2  1  0.75000000  0.16279512  0.32056620  1
  Co  Co3  1  0.75000000  0.16280830  0.84217555  1
  Ni  Ni4  1  0.75000000  0.67928935  0.83963333  1
  Ni  Ni5  1  0.25000000  0.83840271  0.67910948  1
  Ni  Ni6  1  0.25000000  0.83841125  0.15926211  1
  Ni  Ni7  1  0.25000000  0.31948539  0.15972907  1
