# generated using pymatgen
data_Sr5As3O13
_symmetry_space_group_name_H-M   'P 1'
_cell_length_a   7.48497642
_cell_length_b   10.22155930
_cell_length_c   10.22163419
_cell_angle_alpha   120.00104328
_cell_angle_beta   90.00000000
_cell_angle_gamma   90.00000000
_symmetry_Int_Tables_number   1
_chemical_formula_structural   Sr5As3O13
_chemical_formula_sum   'Sr10 As6 O26'
_cell_volume   677.25775956
_cell_formula_units_Z   2
loop_
 _symmetry_equiv_pos_site_id
 _symmetry_equiv_pos_as_xyz
  1  'x, y, z'
loop_
 _atom_site_type_symbol
 _atom_site_label
 _atom_site_symmetry_multiplicity
 _atom_site_fract_x
 _atom_site_fract_y
 _atom_site_fract_z
 _atom_site_occupancy
  Sr  Sr0  1  0.50055697  0.66666093  0.33333005  1
  Sr  Sr1  1  0.00055697  0.33333907  0.66666995  1
  Sr  Sr2  1  0.49897463  0.33333757  0.66666828  1
  Sr  Sr3  1  0.99897463  0.66666243  0.33333172  1
  Sr  Sr4  1  0.74759986  0.25197151  0.00581167  1
  Sr  Sr5  1  0.74759435  0.99418483  0.24615634  1
  Sr  Sr6  1  0.74759636  0.75384605  0.74802591  1
  Sr  Sr7  1  0.24759986  0.74802849  0.99418833  1
  Sr  Sr8  1  0.24759435  0.00581517  0.75384366  1
  Sr  Sr9  1  0.24759636  0.24615395  0.25197409  1
  As  As10  1  0.74827375  0.03089173  0.63128540  1
  As  As11  1  0.74826500  0.36870945  0.39960252  1
  As  As12  1  0.74827267  0.60039616  0.96911359  1
  As  As13  1  0.24827375  0.96910827  0.36871460  1
  As  As14  1  0.24826500  0.63129055  0.60039748  1
  As  As15  1  0.24827267  0.39960384  0.03088641  1
  O  O16  1  0.75119888  0.12646965  0.53224909  1
  O  O17  1  0.75119962  0.46776482  0.59422283  1
  O  O18  1  0.75120096  0.40577285  0.87352805  1
  O  O19  1  0.25119888  0.87353035  0.46775091  1
  O  O20  1  0.25119962  0.53223518  0.40577717  1
  O  O21  1  0.25120096  0.59422715  0.12647195  1
  O  O22  1  0.74857739  0.83786414  0.51399353  1
  O  O23  1  0.74858022  0.48599214  0.32386051  1
  O  O24  1  0.74858077  0.67614191  0.16213079  1
  O  O25  1  0.24857739  0.16213586  0.48600647  1
  O  O26  1  0.24858022  0.51400786  0.67613949  1
  O  O27  1  0.24858077  0.32385809  0.83786921  1
  O  O28  1  0.56318287  0.09328959  0.74648209  1
  O  O29  1  0.56318664  0.25352185  0.34681389  1
  O  O30  1  0.56318820  0.65318766  0.90671085  1
  O  O31  1  0.06318287  0.90671041  0.25351791  1
  O  O32  1  0.06318664  0.74647815  0.65318611  1
  O  O33  1  0.06318820  0.34681234  0.09328915  1
  O  O34  1  0.43138825  0.90924890  0.25058717  1
  O  O35  1  0.43139354  0.74941195  0.65865600  1
  O  O36  1  0.43139168  0.34134462  0.09075468  1
  O  O37  1  0.93138825  0.09075110  0.74941283  1
  O  O38  1  0.93139354  0.25058805  0.34134400  1
  O  O39  1  0.93139168  0.65865538  0.90924532  1
  O  O40  1  0.72169739  0.99999988  0.00000706  1
  O  O41  1  0.22169739  0.00000012  0.99999294  1
