# generated using pymatgen
data_Sr2(AlAg)5
_symmetry_space_group_name_H-M   'P 1'
_cell_length_a   4.51110819
_cell_length_b   5.51429752
_cell_length_c   10.03019289
_cell_angle_alpha   90.00000093
_cell_angle_beta   90.00000000
_cell_angle_gamma   90.00000000
_symmetry_Int_Tables_number   1
_chemical_formula_structural   Sr2(AlAg)5
_chemical_formula_sum   'Sr2 Al5 Ag5'
_cell_volume   249.50699301
_cell_formula_units_Z   1
loop_
 _symmetry_equiv_pos_site_id
 _symmetry_equiv_pos_as_xyz
  1  'x, y, z'
loop_
 _atom_site_type_symbol
 _atom_site_label
 _atom_site_symmetry_multiplicity
 _atom_site_fract_x
 _atom_site_fract_y
 _atom_site_fract_z
 _atom_site_occupancy
  Sr  Sr0  1  0.00000000  0.99998650  0.00000000  1
  Sr  Sr1  1  0.00000000  0.49998684  0.50000000  1
  Al  Al2  1  0.50000000  0.49999120  -0.00000000  1
  Al  Al3  1  0.50000000  0.25134860  0.25188111  1
  Al  Al4  1  0.50000000  0.74861270  0.74811736  1
  Al  Al5  1  0.50000000  0.74861270  0.25188264  1
  Al  Al6  1  0.50000000  0.25134860  0.74811889  1
  Ag  Ag7  1  0.00000000  0.99998586  0.31629252  1
  Ag  Ag8  1  0.00000000  0.49998306  0.83283496  1
  Ag  Ag9  1  0.00000000  0.49998306  0.16716504  1
  Ag  Ag10  1  0.00000000  0.99998586  0.68370748  1
  Ag  Ag11  1  0.50000000  0.99997499  0.50000000  1
