# generated using pymatgen
data_Sr4Te3(ClO2)4
_symmetry_space_group_name_H-M   'P 1'
_cell_length_a   5.79426628
_cell_length_b   8.78087278
_cell_length_c   16.71321539
_cell_angle_alpha   84.91070220
_cell_angle_beta   80.01770347
_cell_angle_gamma   109.26494326
_symmetry_Int_Tables_number   1
_chemical_formula_structural   Sr4Te3(ClO2)4
_chemical_formula_sum   'Sr8 Te6 Cl8 O16'
_cell_volume   780.78218967
_cell_formula_units_Z   2
loop_
 _symmetry_equiv_pos_site_id
 _symmetry_equiv_pos_as_xyz
  1  'x, y, z'
loop_
 _atom_site_type_symbol
 _atom_site_label
 _atom_site_symmetry_multiplicity
 _atom_site_fract_x
 _atom_site_fract_y
 _atom_site_fract_z
 _atom_site_occupancy
  Sr  Sr0  1  0.56228386  0.82406620  0.69915927  1
  Sr  Sr1  1  0.43737692  0.17593380  0.30084073  1
  Sr  Sr2  1  0.28322241  0.12552320  0.55912902  1
  Sr  Sr3  1  0.71682823  0.87447680  0.44087098  1
  Sr  Sr4  1  0.13015145  0.08206955  0.81892966  1
  Sr  Sr5  1  0.86701156  0.91793045  0.18107034  1
  Sr  Sr6  1  0.40720445  0.75756905  0.95627313  1
  Sr  Sr7  1  0.60590854  0.24243095  0.04372687  1
  Te  Te8  1  0.06156158  0.69549784  0.57246268  1
  Te  Te9  1  0.93852642  0.30450216  0.42753732  1
  Te  Te10  1  0.91100819  0.64173269  0.82110484  1
  Te  Te11  1  0.09038033  0.35826731  0.17889516  1
  Te  Te12  1  0.78905858  0.25536758  0.67643233  1
  Te  Te13  1  0.21012333  0.74463242  0.32356767  1
  Cl  Cl14  1  0.21281976  0.40368889  0.98233853  1
  Cl  Cl15  1  0.79146940  0.59631111  0.01766147  1
  Cl  Cl16  1  0.35340529  0.45296370  0.74560268  1
  Cl  Cl17  1  0.64604427  0.54703630  0.25439732  1
  Cl  Cl18  1  0.35585643  0.85606215  0.12315734  1
  Cl  Cl19  1  0.62295162  0.14393785  0.87684266  1
  Cl  Cl20  1  0.50001568  0.50000000  0.50000000  1
  Cl  Cl21  1  0.95074811  0.00000000  1.00000000  1
  O  O22  1  0.94546024  0.10186679  0.69364292  1
  O  O23  1  0.46241112  0.10163616  0.69334569  1
  O  O24  1  0.05412065  0.89836384  0.30665431  1
  O  O25  1  0.53723636  0.89813321  0.30635708  1
  O  O26  1  0.73899782  0.79051794  0.83271899  1
  O  O27  1  0.21830094  0.79134904  0.83361002  1
  O  O28  1  0.26056193  0.20865096  0.16638998  1
  O  O29  1  0.78119887  0.20948206  0.16728101  1
  O  O30  1  0.99854042  0.69916272  0.70288232  1
  O  O31  1  0.00226002  0.30083728  0.29711768  1
  O  O32  1  0.89792299  0.84778427  0.56852836  1
  O  O33  1  0.38139319  0.84779566  0.56848127  1
  O  O34  1  0.10207880  0.15220434  0.43151873  1
  O  O35  1  0.61866707  0.15221573  0.43147164  1
  O  O36  1  0.84962397  0.25852781  0.55947306  1
  O  O37  1  0.15056921  0.74147219  0.44052694  1
