# generated using pymatgen
data_Sr5V3HO13
_symmetry_space_group_name_H-M   'P 1'
_cell_length_a   7.49179869
_cell_length_b   10.23078996
_cell_length_c   10.23086847
_cell_angle_alpha   120.00172561
_cell_angle_beta   90.00000000
_cell_angle_gamma   90.00000000
_symmetry_Int_Tables_number   1
_chemical_formula_structural   Sr5V3HO13
_chemical_formula_sum   'Sr10 V6 H2 O26'
_cell_volume   679.09549425
_cell_formula_units_Z   2
loop_
 _symmetry_equiv_pos_site_id
 _symmetry_equiv_pos_as_xyz
  1  'x, y, z'
loop_
 _atom_site_type_symbol
 _atom_site_label
 _atom_site_symmetry_multiplicity
 _atom_site_fract_x
 _atom_site_fract_y
 _atom_site_fract_z
 _atom_site_occupancy
  Sr  Sr0  1  0.00099360  0.33335988  0.66667808  1
  Sr  Sr1  1  0.50099360  0.66664012  0.33332192  1
  Sr  Sr2  1  0.99893765  0.66663858  0.33332064  1
  Sr  Sr3  1  0.49893765  0.33336142  0.66667936  1
  Sr  Sr4  1  0.24910322  0.74757776  0.99442986  1
  Sr  Sr5  1  0.24910221  0.00558330  0.75314285  1
  Sr  Sr6  1  0.24910130  0.24684388  0.25243443  1
  Sr  Sr7  1  0.74910322  0.25242224  0.00557014  1
  Sr  Sr8  1  0.74910221  0.99441670  0.24685715  1
  Sr  Sr9  1  0.74910130  0.75315612  0.74756557  1
  V  V10  1  0.24945441  0.96946293  0.36755463  1
  V  V11  1  0.24945330  0.63245572  0.60192275  1
  V  V12  1  0.24946597  0.39808560  0.03053012  1
  V  V13  1  0.74945441  0.03053707  0.63244537  1
  V  V14  1  0.74945330  0.36754428  0.39807725  1
  V  V15  1  0.74946597  0.60191440  0.96946988  1
  H  H16  1  0.57265512  0.99999950  0.00000131  1
  H  H17  1  0.07265512  0.00000050  0.99999869  1
  O  O18  1  0.25021572  0.87165665  0.46759473  1
  O  O19  1  0.25021639  0.53238961  0.40406137  1
  O  O20  1  0.25022145  0.59593105  0.12833028  1
  O  O21  1  0.75021572  0.12834335  0.53240527  1
  O  O22  1  0.75021639  0.46761039  0.59593863  1
  O  O23  1  0.75022145  0.40406895  0.87166972  1
  O  O24  1  0.24961084  0.16558544  0.48480592  1
  O  O25  1  0.24961330  0.51520785  0.68078327  1
  O  O26  1  0.24961475  0.31921976  0.83441542  1
  O  O27  1  0.74961084  0.83441456  0.51519408  1
  O  O28  1  0.74961330  0.48479215  0.31921673  1
  O  O29  1  0.74961475  0.68078024  0.16558458  1
  O  O30  1  0.06470787  0.90784921  0.24997867  1
  O  O31  1  0.06470383  0.75002135  0.65787060  1
  O  O32  1  0.06471813  0.34213631  0.09214539  1
  O  O33  1  0.56470787  0.09215079  0.75002133  1
  O  O34  1  0.56470383  0.24997865  0.34212940  1
  O  O35  1  0.56471813  0.65786369  0.90785461  1
  O  O36  1  0.93342351  0.09138832  0.75164082  1
  O  O37  1  0.93342894  0.24836140  0.33974887  1
  O  O38  1  0.93344241  0.66025277  0.90860954  1
  O  O39  1  0.43342351  0.90861168  0.24835918  1
  O  O40  1  0.43342894  0.75163860  0.66025113  1
  O  O41  1  0.43344241  0.33974723  0.09139046  1
  O  O42  1  0.20341606  0.00000215  0.99999638  1
  O  O43  1  0.70341606  0.99999785  0.00000362  1
