# generated using pymatgen
data_LiBiB2O5
_symmetry_space_group_name_H-M   'P 1'
_cell_length_a   5.35622268
_cell_length_b   4.39290468
_cell_length_c   7.57957883
_cell_angle_alpha   90.00000000
_cell_angle_beta   95.51674490
_cell_angle_gamma   90.00000000
_symmetry_Int_Tables_number   1
_chemical_formula_structural   LiBiB2O5
_chemical_formula_sum   'Li2 Bi2 B4 O10'
_cell_volume   177.51670002
_cell_formula_units_Z   2
loop_
 _symmetry_equiv_pos_site_id
 _symmetry_equiv_pos_as_xyz
  1  'x, y, z'
loop_
 _atom_site_type_symbol
 _atom_site_label
 _atom_site_symmetry_multiplicity
 _atom_site_fract_x
 _atom_site_fract_y
 _atom_site_fract_z
 _atom_site_occupancy
  Li  Li0  1  0.16075494  0.67211668  0.11015035  1
  Li  Li1  1  0.83924506  0.17211668  0.88984965  1
  Bi  Bi2  1  0.12367857  0.64388938  0.70631744  1
  Bi  Bi3  1  0.87632143  0.14388938  0.29368256  1
  B  B4  1  0.38813309  0.20455401  0.93508392  1
  B  B5  1  0.43472882  0.66557191  0.40861737  1
  B  B6  1  0.56527118  0.16557191  0.59138263  1
  B  B7  1  0.61186691  0.70455401  0.06491608  1
  O  O8  1  0.14995974  0.32972695  0.96333408  1
  O  O9  1  0.15571719  0.70493945  0.36879113  1
  O  O10  1  0.41326525  0.27281773  0.73603036  1
  O  O11  1  0.40122408  0.86947677  0.96092364  1
  O  O12  1  0.48265300  0.33056312  0.42731857  1
  O  O13  1  0.51734700  0.83056312  0.57268143  1
  O  O14  1  0.59877592  0.36947677  0.03907636  1
  O  O15  1  0.58673475  0.77281773  0.26396964  1
  O  O16  1  0.84428281  0.20493945  0.63120887  1
  O  O17  1  0.85004026  0.82972695  0.03666592  1
