# generated using pymatgen
data_SrCr9Ga3O19
_symmetry_space_group_name_H-M   'P 1'
_cell_length_a   5.91251880
_cell_length_b   5.91251880
_cell_length_c   23.04082498
_cell_angle_alpha   90.00000000
_cell_angle_beta   90.00000000
_cell_angle_gamma   120.00192417
_symmetry_Int_Tables_number   1
_chemical_formula_structural   SrCr9Ga3O19
_chemical_formula_sum   'Sr2 Cr18 Ga6 O38'
_cell_volume   697.53387738
_cell_formula_units_Z   2
loop_
 _symmetry_equiv_pos_site_id
 _symmetry_equiv_pos_as_xyz
  1  'x, y, z'
loop_
 _atom_site_type_symbol
 _atom_site_label
 _atom_site_symmetry_multiplicity
 _atom_site_fract_x
 _atom_site_fract_y
 _atom_site_fract_z
 _atom_site_occupancy
  Sr  Sr0  1  0.66667448  0.33332552  0.24940605  1
  Sr  Sr1  1  0.33332552  0.66667448  0.74940605  1
  Cr  Cr2  1  0.83163716  0.66329785  0.39228420  1
  Cr  Cr3  1  0.83160358  0.16839642  0.39223949  1
  Cr  Cr4  1  0.33670215  0.16836284  0.39228420  1
  Cr  Cr5  1  0.16769974  0.33535588  0.60805318  1
  Cr  Cr6  1  0.16774077  0.83225923  0.60809019  1
  Cr  Cr7  1  0.66464412  0.83230026  0.60805318  1
  Cr  Cr8  1  0.16836284  0.33670215  0.89228420  1
  Cr  Cr9  1  0.16839642  0.83160358  0.89223949  1
  Cr  Cr10  1  0.66329785  0.83163716  0.89228420  1
  Cr  Cr11  1  0.83230026  0.66464412  0.10805318  1
  Cr  Cr12  1  0.83225923  0.16774077  0.10809019  1
  Cr  Cr13  1  0.33535588  0.16769974  0.10805318  1
  Cr  Cr14  1  0.66666532  0.33333468  0.69123555  1
  Cr  Cr15  1  0.33334187  0.66665813  0.30877106  1
  Cr  Cr16  1  0.33333468  0.66666532  0.19123555  1
  Cr  Cr17  1  0.66665813  0.33334187  0.80877106  1
  Cr  Cr18  1  0.99999419  0.00000581  0.50006335  1
  Cr  Cr19  1  0.00000581  0.99999419  0.00006335  1
  Ga  Ga20  1  0.66665977  0.33334023  0.52785811  1
  Ga  Ga21  1  0.33333930  0.66666070  0.47265810  1
  Ga  Ga22  1  0.33334023  0.66665977  0.02785811  1
  Ga  Ga23  1  0.66666070  0.33333930  0.97265810  1
  Ga  Ga24  1  0.99997994  0.00002006  0.75430452  1
  Ga  Ga25  1  0.00002006  0.99997994  0.25430452  1
  O  O26  1  0.00001643  0.99998357  0.65153738  1
  O  O27  1  0.99999183  0.00000817  0.34792248  1
  O  O28  1  0.99998357  0.00001643  0.15153738  1
  O  O29  1  0.00000817  0.99999183  0.84792248  1
  O  O30  1  0.66664880  0.33335120  0.44478607  1
  O  O31  1  0.33336016  0.66663984  0.55524737  1
  O  O32  1  0.33335120  0.66664880  0.94478607  1
  O  O33  1  0.66663984  0.33336016  0.05524737  1
  O  O34  1  0.84298913  0.68575388  0.55268368  1
  O  O35  1  0.84286167  0.15713833  0.55268565  1
  O  O36  1  0.31424612  0.15701087  0.55268368  1
  O  O37  1  0.15698459  0.31419724  0.44717717  1
  O  O38  1  0.15711191  0.84288809  0.44717636  1
  O  O39  1  0.68580276  0.84301541  0.44717717  1
  O  O40  1  0.15701087  0.31424612  0.05268368  1
  O  O41  1  0.15713833  0.84286167  0.05268565  1
  O  O42  1  0.68575388  0.84298913  0.05268368  1
  O  O43  1  0.84301541  0.68580276  0.94717717  1
  O  O44  1  0.84288809  0.15711191  0.94717636  1
  O  O45  1  0.31419724  0.15698459  0.94717717  1
  O  O46  1  0.81843495  0.63678915  0.75033694  1
  O  O47  1  0.81838221  0.18161779  0.75033932  1
  O  O48  1  0.36321085  0.18156505  0.75033694  1
  O  O49  1  0.18156505  0.36321085  0.25033694  1
  O  O50  1  0.18161779  0.81838221  0.25033932  1
  O  O51  1  0.63678915  0.81843495  0.25033694  1
  O  O52  1  0.49299302  0.98576866  0.65153960  1
  O  O53  1  0.49286355  0.50713645  0.65154233  1
  O  O54  1  0.01423134  0.50700698  0.65153960  1
  O  O55  1  0.50755020  0.01529730  0.34855729  1
  O  O56  1  0.50765816  0.49234184  0.34857247  1
  O  O57  1  0.98470270  0.49244980  0.34855729  1
  O  O58  1  0.50700698  0.01423134  0.15153960  1
  O  O59  1  0.50713645  0.49286355  0.15154233  1
  O  O60  1  0.98576866  0.49299302  0.15153960  1
  O  O61  1  0.49244980  0.98470270  0.84855729  1
  O  O62  1  0.49234184  0.50765816  0.84857247  1
  O  O63  1  0.01529730  0.50755020  0.84855729  1
