# generated using pymatgen
data_Sr2FeRuO6
_symmetry_space_group_name_H-M   'P 1'
_cell_length_a   5.61299912
_cell_length_b   5.61626891
_cell_length_c   5.61460574
_cell_angle_alpha   60.00979558
_cell_angle_beta   90.00000000
_cell_angle_gamma   119.95153543
_symmetry_Int_Tables_number   1
_chemical_formula_structural   Sr2FeRuO6
_chemical_formula_sum   'Sr2 Fe1 Ru1 O6'
_cell_volume   125.26480829
_cell_formula_units_Z   1
loop_
 _symmetry_equiv_pos_site_id
 _symmetry_equiv_pos_as_xyz
  1  'x, y, z'
loop_
 _atom_site_type_symbol
 _atom_site_label
 _atom_site_symmetry_multiplicity
 _atom_site_fract_x
 _atom_site_fract_y
 _atom_site_fract_z
 _atom_site_occupancy
  Sr  Sr0  1  0.24999271  0.50001557  0.24999222  1
  Sr  Sr1  1  0.75000729  0.49998443  0.75000778  1
  Fe  Fe2  1  -0.00000000  -0.00000000  -0.00000000  1
  Ru  Ru3  1  0.50000000  -0.00000000  0.50000000  1
  O  O4  1  0.25208322  0.50416118  0.74791941  1
  O  O5  1  0.74791678  0.49583882  0.25208059  1
  O  O6  1  0.25192974  0.00000222  0.25192850  1
  O  O7  1  0.74807026  0.99999778  0.74807150  1
  O  O8  1  0.25192974  0.00000222  0.74806928  1
  O  O9  1  0.74807026  0.99999778  0.25193072  1
