# generated using pymatgen
data_Sm6Cd(SiS7)2
_symmetry_space_group_name_H-M   'P 1'
_cell_length_a   5.68068209
_cell_length_b   10.17741980
_cell_length_c   10.17754267
_cell_angle_alpha   60.00009887
_cell_angle_beta   89.99985060
_cell_angle_gamma   89.99989897
_symmetry_Int_Tables_number   1
_chemical_formula_structural   Sm6Cd(SiS7)2
_chemical_formula_sum   'Sm6 Cd1 Si2 S14'
_cell_volume   509.57976071
_cell_formula_units_Z   1
loop_
 _symmetry_equiv_pos_site_id
 _symmetry_equiv_pos_as_xyz
  1  'x, y, z'
loop_
 _atom_site_type_symbol
 _atom_site_label
 _atom_site_symmetry_multiplicity
 _atom_site_fract_x
 _atom_site_fract_y
 _atom_site_fract_z
 _atom_site_occupancy
  Sm  Sm0  1  0.24857013  0.23489743  0.12285121  1
  Sm  Sm1  1  0.24857014  0.64226452  0.23489400  1
  Sm  Sm2  1  0.24857204  0.12285214  0.64224645  1
  Sm  Sm3  1  0.75013267  0.76496962  0.87723650  1
  Sm  Sm4  1  0.75013436  0.35778028  0.76497187  1
  Sm  Sm5  1  0.75013451  0.87723673  0.35779977  1
  Cd  Cd6  1  0.49045057  0.00000093  0.99999893  1
  Si  Si7  1  0.83437861  0.33332810  0.33333503  1
  Si  Si8  1  0.33729375  0.66666954  0.66666471  1
  S  S9  1  0.46386700  0.33334975  0.33332292  1
  S  S10  1  0.96634537  0.66664796  0.66667508  1
  S  S11  1  0.73263511  0.16893540  0.08843150  1
  S  S12  1  0.73263446  0.74263641  0.16893931  1
  S  S13  1  0.73263311  0.08842394  0.74263268  1
  S  S14  1  0.24081948  0.82938311  0.91372825  1
  S  S15  1  0.24082276  0.25688691  0.82938236  1
  S  S16  1  0.24082308  0.91373181  0.25689094  1
  S  S17  1  0.98359475  0.11223784  0.40958453  1
  S  S18  1  0.98361570  0.47820221  0.11220442  1
  S  S19  1  0.98361011  0.40959717  0.47819409  1
  S  S20  1  0.48544225  0.88779995  0.59048032  1
  S  S21  1  0.48546318  0.52169849  0.88783121  1
  S  S22  1  0.48545686  0.59046974  0.52170392  1
