# generated using pymatgen
data_Sr10P6O25
_symmetry_space_group_name_H-M   'P 1'
_cell_length_a   7.34283092
_cell_length_b   9.90927559
_cell_length_c   9.90920971
_cell_angle_alpha   59.99934290
_cell_angle_beta   90.00017793
_cell_angle_gamma   90.00008556
_symmetry_Int_Tables_number   1
_chemical_formula_structural   Sr10P6O25
_chemical_formula_sum   'Sr10 P6 O25'
_cell_volume   624.41339437
_cell_formula_units_Z   1
loop_
 _symmetry_equiv_pos_site_id
 _symmetry_equiv_pos_as_xyz
  1  'x, y, z'
loop_
 _atom_site_type_symbol
 _atom_site_label
 _atom_site_symmetry_multiplicity
 _atom_site_fract_x
 _atom_site_fract_y
 _atom_site_fract_z
 _atom_site_occupancy
  Sr  Sr0  1  0.50922253  0.66667470  0.66666417  1
  Sr  Sr1  1  0.98977165  0.33332356  0.33333843  1
  Sr  Sr2  1  0.50208678  0.33332936  0.33333239  1
  Sr  Sr3  1  0.99853549  0.66668034  0.66665794  1
  Sr  Sr4  1  0.75536007  0.77282545  0.99137562  1
  Sr  Sr5  1  0.75535798  0.23581925  0.77282947  1
  Sr  Sr6  1  0.75535935  0.99135913  0.23581157  1
  Sr  Sr7  1  0.24837399  0.26800516  0.01159742  1
  Sr  Sr8  1  0.24837814  0.72038510  0.26800341  1
  Sr  Sr9  1  0.24838374  0.01160552  0.72039237  1
  P  P10  1  0.74895949  0.03092574  0.59325179  1
  P  P11  1  0.74895866  0.37582169  0.03092858  1
  P  P12  1  0.74895852  0.59325056  0.37581980  1
  P  P13  1  0.25260051  0.96864935  0.38898317  1
  P  P14  1  0.25259676  0.64236876  0.96864631  1
  P  P15  1  0.25259697  0.38898377  0.64236840  1
  O  O16  1  0.57898177  0.07976376  0.65282941  1
  O  O17  1  0.57897768  0.26740283  0.07977483  1
  O  O18  1  0.57897704  0.65282799  0.26739979  1
  O  O19  1  0.08084182  0.91448755  0.33795596  1
  O  O20  1  0.08083849  0.74755669  0.91447688  1
  O  O21  1  0.08083786  0.33795975  0.74756035  1
  O  O22  1  0.41979070  0.92046178  0.32692230  1
  O  O23  1  0.41978882  0.75261658  0.92045143  1
  O  O24  1  0.41978903  0.32692244  0.75262250  1
  O  O25  1  0.92555929  0.08782769  0.63675720  1
  O  O26  1  0.92555992  0.27541406  0.08783743  1
  O  O27  1  0.92555935  0.63675420  0.27541040  1
  O  O28  1  0.73971904  0.11655023  0.41235934  1
  O  O29  1  0.73971972  0.47109660  0.11654211  1
  O  O30  1  0.73972011  0.41235745  0.47109615  1
  O  O31  1  0.25828582  0.87749918  0.57210917  1
  O  O32  1  0.25828296  0.55038318  0.87750726  1
  O  O33  1  0.25828219  0.57210903  0.55038605  1
  O  O34  1  0.75278114  0.85017085  0.66581770  1
  O  O35  1  0.75278169  0.48400076  0.85016535  1
  O  O36  1  0.75278117  0.66582831  0.48399910  1
  O  O37  1  0.24971557  0.14766993  0.32796235  1
  O  O38  1  0.24971229  0.52437977  0.14767581  1
  O  O39  1  0.24971121  0.32794863  0.52438170  1
  O  O40  1  0.79350469  0.00000331  -0.00000140  1
