# generated using pymatgen
data_Sc3Ga5Co
_symmetry_space_group_name_H-M   'P 1'
_cell_length_a   6.33733470
_cell_length_b   7.91322345
_cell_length_c   7.91322345
_cell_angle_alpha   82.30213184
_cell_angle_beta   113.60486730
_cell_angle_gamma   66.39513270
_symmetry_Int_Tables_number   1
_chemical_formula_structural   Sc3Ga5Co
_chemical_formula_sum   'Sc6 Ga10 Co2'
_cell_volume   312.07205408
_cell_formula_units_Z   2
loop_
 _symmetry_equiv_pos_site_id
 _symmetry_equiv_pos_as_xyz
  1  'x, y, z'
loop_
 _atom_site_type_symbol
 _atom_site_label
 _atom_site_symmetry_multiplicity
 _atom_site_fract_x
 _atom_site_fract_y
 _atom_site_fract_z
 _atom_site_occupancy
  Sc  Sc0  1  0.42866149  0.46920595  0.96920595  1
  Sc  Sc1  1  0.92866149  0.53079405  0.03079405  1
  Sc  Sc2  1  0.76235299  0.25049937  0.75049937  1
  Sc  Sc3  1  0.26235299  0.74950063  0.24950063  1
  Sc  Sc4  1  0.42542203  0.03431305  0.53431305  1
  Sc  Sc5  1  0.92542203  0.96568695  0.46568695  1
  Ga  Ga6  1  0.45732674  0.34504881  0.34643763  1
  Ga  Ga7  1  0.45593792  0.65495119  0.65356237  1
  Ga  Ga8  1  0.95593792  0.84643763  0.84504881  1
  Ga  Ga9  1  0.95732674  0.15356237  0.15495119  1
  Ga  Ga10  1  0.25681687  0.25303530  0.75303530  1
  Ga  Ga11  1  0.75681687  0.74696470  0.24696470  1
  Ga  Ga12  1  0.37233968  0.12587022  0.13074001  1
  Ga  Ga13  1  0.36746988  0.87412978  0.86925999  1
  Ga  Ga14  1  0.86746988  0.63074001  0.62587022  1
  Ga  Ga15  1  0.87233968  0.36925999  0.37412978  1
  Co  Co16  1  0.19967241  0.50000000  0.50000000  1
  Co  Co17  1  0.69967241  0.00000000  -0.00000000  1
