# generated using pymatgen
data_Sn7Ir2Os
_symmetry_space_group_name_H-M   'P 1'
_cell_length_a   8.22687144
_cell_length_b   8.23145013
_cell_length_c   8.23145013
_cell_angle_alpha   70.67909135
_cell_angle_beta   70.44224947
_cell_angle_gamma   109.55775053
_symmetry_Int_Tables_number   1
_chemical_formula_structural   Sn7Ir2Os
_chemical_formula_sum   'Sn14 Ir4 Os2'
_cell_volume   428.98458427
_cell_formula_units_Z   2
loop_
 _symmetry_equiv_pos_site_id
 _symmetry_equiv_pos_as_xyz
  1  'x, y, z'
loop_
 _atom_site_type_symbol
 _atom_site_label
 _atom_site_symmetry_multiplicity
 _atom_site_fract_x
 _atom_site_fract_y
 _atom_site_fract_z
 _atom_site_occupancy
  Sn  Sn0  1  0.32771914  0.32562431  0.67437569  1
  Sn  Sn1  1  0.67215584  0.99990399  0.00009601  1
  Sn  Sn2  1  0.00198772  0.67428491  0.99794788  1
  Sn  Sn3  1  0.00198772  0.00205212  0.32571509  1
  Sn  Sn4  1  0.67215584  0.67225185  0.32774815  1
  Sn  Sn5  1  0.32771914  0.00209483  0.99790517  1
  Sn  Sn6  1  0.00198772  0.32770281  0.00006440  1
  Sn  Sn7  1  0.00198772  0.99993560  0.67229719  1
  Sn  Sn8  1  0.24889959  0.75079381  0.50189422  1
  Sn  Sn9  1  0.74744708  0.49826127  0.75081419  1
  Sn  Sn10  1  0.49593400  0.24796700  0.25203300  1
  Sn  Sn11  1  0.24889959  0.49810578  0.24920619  1
  Sn  Sn12  1  0.74744708  0.24918581  0.50173873  1
  Sn  Sn13  1  0.49593400  0.74796700  0.75203300  1
  Ir  Ir14  1  0.00038451  0.34386386  0.65613614  1
  Ir  Ir15  1  0.65853705  0.65841395  0.99987690  1
  Ir  Ir16  1  0.65853705  0.00012310  0.34158605  1
  Ir  Ir17  1  0.00038451  0.65652065  0.34347935  1
  Os  Os18  1  0.34494736  0.34471639  0.99976903  1
  Os  Os19  1  0.34494736  0.00023097  0.65528361  1
