# generated using pymatgen
data_SmHCO4
_symmetry_space_group_name_H-M   'P 1'
_cell_length_a   4.94942699
_cell_length_b   7.24396897
_cell_length_c   8.60690039
_cell_angle_alpha   90.00000000
_cell_angle_beta   90.00000000
_cell_angle_gamma   90.00000000
_symmetry_Int_Tables_number   1
_chemical_formula_structural   SmHCO4
_chemical_formula_sum   'Sm4 H4 C4 O16'
_cell_volume   308.58746470
_cell_formula_units_Z   4
loop_
 _symmetry_equiv_pos_site_id
 _symmetry_equiv_pos_as_xyz
  1  'x, y, z'
loop_
 _atom_site_type_symbol
 _atom_site_label
 _atom_site_symmetry_multiplicity
 _atom_site_fract_x
 _atom_site_fract_y
 _atom_site_fract_z
 _atom_site_occupancy
  Sm  Sm0  1  0.74805954  0.14055465  0.16328441  1
  Sm  Sm1  1  0.75194046  0.64055465  0.33671559  1
  Sm  Sm2  1  0.24805954  0.85944535  0.83671559  1
  Sm  Sm3  1  0.25194046  0.35944535  0.66328441  1
  H  H4  1  0.86057733  0.00299816  0.47030162  1
  H  H5  1  0.63942267  0.50299816  0.02969838  1
  H  H6  1  0.36057733  0.99700184  0.52969838  1
  H  H7  1  0.13942267  0.49700184  0.97030162  1
  C  C8  1  0.24926010  0.30191680  0.32432691  1
  C  C9  1  0.25073990  0.80191680  0.17567309  1
  C  C10  1  0.74926010  0.69808320  0.67567309  1
  C  C11  1  0.75073990  0.19808320  0.82432691  1
  O  O12  1  0.25055256  0.20446645  0.19931696  1
  O  O13  1  0.24944744  0.70446645  0.30068304  1
  O  O14  1  0.75055256  0.79553355  0.80068304  1
  O  O15  1  0.74944744  0.29553355  0.69931696  1
  O  O16  1  0.74474294  0.95860369  0.38598414  1
  O  O17  1  0.75525706  0.45860369  0.11401586  1
  O  O18  1  0.24474294  0.04139631  0.61401586  1
  O  O19  1  0.25525706  0.54139631  0.88598414  1
  O  O20  1  0.02134776  0.34728250  0.38918076  1
  O  O21  1  0.47865224  0.84728250  0.11081924  1
  O  O22  1  0.52134776  0.65271750  0.61081924  1
  O  O23  1  0.97865224  0.15271750  0.88918076  1
  O  O24  1  0.97391380  0.65348943  0.60756915  1
  O  O25  1  0.52608620  0.15348943  0.89243085  1
  O  O26  1  0.47391380  0.34651057  0.39243085  1
  O  O27  1  0.02608620  0.84651057  0.10756915  1
