# generated using pymatgen
data_ScAlFe
_symmetry_space_group_name_H-M   'P 1'
_cell_length_a   5.12294004
_cell_length_b   5.20775357
_cell_length_c   8.36926188
_cell_angle_alpha   90.00000000
_cell_angle_beta   90.00000000
_cell_angle_gamma   120.55062555
_symmetry_Int_Tables_number   1
_chemical_formula_structural   ScAlFe
_chemical_formula_sum   'Sc4 Al4 Fe4'
_cell_volume   192.28746704
_cell_formula_units_Z   4
loop_
 _symmetry_equiv_pos_site_id
 _symmetry_equiv_pos_as_xyz
  1  'x, y, z'
loop_
 _atom_site_type_symbol
 _atom_site_label
 _atom_site_symmetry_multiplicity
 _atom_site_fract_x
 _atom_site_fract_y
 _atom_site_fract_z
 _atom_site_occupancy
  Sc  Sc0  1  0.66597336  0.33297216  0.55177288  1
  Sc  Sc1  1  0.34009641  0.67005766  0.42432285  1
  Sc  Sc2  1  0.34009641  0.67005766  0.07567715  1
  Sc  Sc3  1  0.66597336  0.33297216  0.94822712  1
  Al  Al4  1  0.98519639  0.99258911  0.48574103  1
  Al  Al5  1  0.98519639  0.99258911  0.01425897  1
  Al  Al6  1  0.17704443  0.34225932  0.75000000  1
  Al  Al7  1  0.17702491  0.83477377  0.75000000  1
  Fe  Fe8  1  0.66686929  0.83343611  0.75000000  1
  Fe  Fe9  1  0.82456169  0.64308658  0.25000000  1
  Fe  Fe10  1  0.82457467  0.18149826  0.25000000  1
  Fe  Fe11  1  0.34739271  0.17370809  0.25000000  1
