# generated using pymatgen
data_Li5Zn4(BO3)4
_symmetry_space_group_name_H-M   'P 1'
_cell_length_a   5.13250215
_cell_length_b   5.11635177
_cell_length_c   11.51355910
_cell_angle_alpha   89.29308752
_cell_angle_beta   90.58586282
_cell_angle_gamma   59.91325267
_symmetry_Int_Tables_number   1
_chemical_formula_structural   Li5Zn4(BO3)4
_chemical_formula_sum   'Li5 Zn4 B4 O12'
_cell_volume   261.54009991
_cell_formula_units_Z   1
loop_
 _symmetry_equiv_pos_site_id
 _symmetry_equiv_pos_as_xyz
  1  'x, y, z'
loop_
 _atom_site_type_symbol
 _atom_site_label
 _atom_site_symmetry_multiplicity
 _atom_site_fract_x
 _atom_site_fract_y
 _atom_site_fract_z
 _atom_site_occupancy
  Li  Li0  1  0.33962391  0.68450414  0.83908528  1
  Li  Li1  1  0.36162769  0.66200634  0.46864831  1
  Li  Li2  1  0.33934225  0.63064090  0.28495331  1
  Li  Li3  1  0.68748169  0.33119231  0.66650874  1
  Li  Li4  1  0.66297989  0.34889167  0.08038080  1
  Zn  Zn5  1  0.98539411  0.67150203  0.63922204  1
  Zn  Zn6  1  0.68536573  0.98700150  0.88789814  1
  Zn  Zn7  1  0.00118649  0.32550389  0.36628290  1
  Zn  Zn8  1  0.31230514  0.01890780  0.10218894  1
  B  B9  1  0.00932842  0.33357393  0.87037343  1
  B  B10  1  0.66983885  0.99116063  0.37790883  1
  B  B11  1  0.32901898  0.01429747  0.63290902  1
  B  B12  1  0.98777059  0.67078148  0.11611178  1
  O  O13  1  0.02680522  0.58906043  0.83942649  1
  O  O14  1  0.42006594  0.94927819  0.36418086  1
  O  O15  1  0.34582215  0.73003749  0.63799406  1
  O  O16  1  0.26774211  0.65320283  0.12247226  1
  O  O17  1  0.05549259  0.26823611  0.60433865  1
  O  O18  1  0.73318645  0.94253073  0.08033773  1
  O  O19  1  0.26566823  0.06223559  0.90358393  1
  O  O20  1  0.96155537  0.73839653  0.39210826  1
  O  O21  1  0.73004923  0.34963965  0.86803220  1
  O  O22  1  0.62924301  0.28318484  0.37751986  1
  O  O23  1  0.58654285  0.02902110  0.65612940  1
  O  O24  1  0.96446213  0.41851344  0.14600380  1
