# generated using pymatgen
data_Rb(Ti3Se4)2
_symmetry_space_group_name_H-M   'P 1'
_cell_length_a   3.59583752
_cell_length_b   9.97144819
_cell_length_c   9.97648701
_cell_angle_alpha   119.99430511
_cell_angle_beta   90.00112641
_cell_angle_gamma   90.00217276
_symmetry_Int_Tables_number   1
_chemical_formula_structural   Rb(Ti3Se4)2
_chemical_formula_sum   'Rb1 Ti6 Se8'
_cell_volume   309.80718738
_cell_formula_units_Z   1
loop_
 _symmetry_equiv_pos_site_id
 _symmetry_equiv_pos_as_xyz
  1  'x, y, z'
loop_
 _atom_site_type_symbol
 _atom_site_label
 _atom_site_symmetry_multiplicity
 _atom_site_fract_x
 _atom_site_fract_y
 _atom_site_fract_z
 _atom_site_occupancy
  Rb  Rb0  1  0.50000000  0.00000000  0.00000000  1
  Ti  Ti1  1  0.74973523  0.36218473  0.87000335  1
  Ti  Ti2  1  0.74974166  0.13009534  0.49226637  1
  Ti  Ti3  1  0.74967807  0.50783045  0.63795467  1
  Ti  Ti4  1  0.25026477  0.63781527  0.12999665  1
  Ti  Ti5  1  0.25025834  0.86990466  0.50773363  1
  Ti  Ti6  1  0.25032193  0.49216955  0.36204533  1
  Se  Se7  1  0.74998017  0.66664604  0.33329832  1
  Se  Se8  1  0.25001983  0.33335396  0.66670168  1
  Se  Se9  1  0.75173076  0.05127342  0.69876304  1
  Se  Se10  1  0.75181903  0.30123552  0.35239212  1
  Se  Se11  1  0.75169026  0.64762600  0.94896548  1
  Se  Se12  1  0.24826924  0.94872658  0.30123696  1
  Se  Se13  1  0.24818097  0.69876448  0.64760788  1
  Se  Se14  1  0.24830974  0.35237400  0.05103452  1
