# generated using pymatgen
data_Sc2Mn12GaGe11
_symmetry_space_group_name_H-M   'P 1'
_cell_length_a   5.12756864
_cell_length_b   5.12950746
_cell_length_c   16.23052405
_cell_angle_alpha   90.00000000
_cell_angle_beta   90.00000000
_cell_angle_gamma   59.96038279
_symmetry_Int_Tables_number   1
_chemical_formula_structural   Sc2Mn12GaGe11
_chemical_formula_sum   'Sc2 Mn12 Ga1 Ge11'
_cell_volume   369.55306614
_cell_formula_units_Z   1
loop_
 _symmetry_equiv_pos_site_id
 _symmetry_equiv_pos_as_xyz
  1  'x, y, z'
loop_
 _atom_site_type_symbol
 _atom_site_label
 _atom_site_symmetry_multiplicity
 _atom_site_fract_x
 _atom_site_fract_y
 _atom_site_fract_z
 _atom_site_occupancy
  Sc  Sc0  1  0.99997332  0.00000533  0.00033208  1
  Sc  Sc1  1  0.99997332  0.00000533  0.49966792  1
  Mn  Mn2  1  0.49975642  0.49965730  0.12338602  1
  Mn  Mn3  1  0.49998548  0.50007574  0.62481827  1
  Mn  Mn4  1  0.49964719  0.00071941  0.12335866  1
  Mn  Mn5  1  0.50001801  0.99986767  0.62480626  1
  Mn  Mn6  1  0.00075170  0.49967206  0.12336375  1
  Mn  Mn7  1  0.99978861  0.50014309  0.62481602  1
  Mn  Mn8  1  0.49975642  0.49965730  0.37661398  1
  Mn  Mn9  1  0.49998548  0.50007574  0.87518173  1
  Mn  Mn10  1  0.49964719  0.00071941  0.37664134  1
  Mn  Mn11  1  0.50001801  0.99986767  0.87519374  1
  Mn  Mn12  1  0.00075170  0.49967206  0.37663625  1
  Mn  Mn13  1  0.99978861  0.50014309  0.87518398  1
  Ga  Ga14  1  0.66648306  0.66670768  0.25000000  1
  Ge  Ge15  1  0.66665039  0.66656002  0.50013565  1
  Ge  Ge16  1  0.66665039  0.66656002  0.99986435  1
  Ge  Ge17  1  0.33331385  0.33334922  0.99954248  1
  Ge  Ge18  1  0.33331385  0.33334922  0.50045752  1
  Ge  Ge19  1  0.00002312  0.99998549  0.16916286  1
  Ge  Ge20  1  0.99997513  0.00003982  0.66904849  1
  Ge  Ge21  1  0.00002312  0.99998549  0.33083714  1
  Ge  Ge22  1  0.99997513  0.00003982  0.83095151  1
  Ge  Ge23  1  0.66655428  0.66662572  0.75000000  1
  Ge  Ge24  1  0.33347859  0.33334654  0.25000000  1
  Ge  Ge25  1  0.33331764  0.33316973  0.75000000  1
