# generated using pymatgen
data_Rb12Sn2As6O
_symmetry_space_group_name_H-M   'P 1'
_cell_length_a   6.12373850
_cell_length_b   11.98005414
_cell_length_c   11.98005414
_cell_angle_alpha   119.99814909
_cell_angle_beta   89.99877777
_cell_angle_gamma   90.00122223
_symmetry_Int_Tables_number   1
_chemical_formula_structural   Rb12Sn2As6O
_chemical_formula_sum   'Rb12 Sn2 As6 O1'
_cell_volume   761.15469351
_cell_formula_units_Z   1
loop_
 _symmetry_equiv_pos_site_id
 _symmetry_equiv_pos_as_xyz
  1  'x, y, z'
loop_
 _atom_site_type_symbol
 _atom_site_label
 _atom_site_symmetry_multiplicity
 _atom_site_fract_x
 _atom_site_fract_y
 _atom_site_fract_z
 _atom_site_occupancy
  Rb  Rb0  1  0.72882638  0.88403528  0.76807188  1
  Rb  Rb1  1  0.72883179  0.88403940  0.11596060  1
  Rb  Rb2  1  0.72882638  0.23192812  0.11596472  1
  Rb  Rb3  1  0.27117362  0.11596472  0.23192812  1
  Rb  Rb4  1  0.27116821  0.11596060  0.88403940  1
  Rb  Rb5  1  0.27117362  0.76807188  0.88403528  1
  Rb  Rb6  1  0.75060183  0.54332170  0.08664646  1
  Rb  Rb7  1  0.75060718  0.54332729  0.45667271  1
  Rb  Rb8  1  0.75060183  0.91335354  0.45667830  1
  Rb  Rb9  1  0.24939817  0.45667830  0.91335354  1
  Rb  Rb10  1  0.24939282  0.45667271  0.54332729  1
  Rb  Rb11  1  0.24939817  0.08664646  0.54332170  1
  Sn  Sn12  1  0.24884545  0.66668169  0.33331831  1
  Sn  Sn13  1  0.75115455  0.33331831  0.66668169  1
  As  As14  1  0.75197249  0.20940339  0.41882759  1
  As  As15  1  0.75198503  0.20939413  0.79060587  1
  As  As16  1  0.75197249  0.58117241  0.79059661  1
  As  As17  1  0.24802751  0.79059661  0.58117241  1
  As  As18  1  0.24801497  0.79060587  0.20939413  1
  As  As19  1  0.24802751  0.41882759  0.20940339  1
  O  O20  1  0.50000000  -0.00000000  -0.00000000  1
