# generated using pymatgen
data_Rb8Hg3Ge43
_symmetry_space_group_name_H-M   'P 1'
_cell_length_a   11.12688348
_cell_length_b   11.12688348
_cell_length_c   11.12688348
_cell_angle_alpha   90.00922019
_cell_angle_beta   89.99077981
_cell_angle_gamma   89.99077981
_symmetry_Int_Tables_number   1
_chemical_formula_structural   Rb8Hg3Ge43
_chemical_formula_sum   'Rb8 Hg3 Ge43'
_cell_volume   1377.59197401
_cell_formula_units_Z   1
loop_
 _symmetry_equiv_pos_site_id
 _symmetry_equiv_pos_as_xyz
  1  'x, y, z'
loop_
 _atom_site_type_symbol
 _atom_site_label
 _atom_site_symmetry_multiplicity
 _atom_site_fract_x
 _atom_site_fract_y
 _atom_site_fract_z
 _atom_site_occupancy
  Rb  Rb0  1  0.50012989  0.49987011  0.49987011  1
  Rb  Rb1  1  0.99987011  0.00012989  0.00012989  1
  Rb  Rb2  1  0.99966253  0.75000000  0.49966253  1
  Rb  Rb3  1  0.25000000  0.49966253  0.00033747  1
  Rb  Rb4  1  0.50033747  0.00033747  0.75000000  1
  Rb  Rb5  1  0.99965687  0.25000000  0.49965687  1
  Rb  Rb6  1  0.75000000  0.49965687  0.00034313  1
  Rb  Rb7  1  0.50034313  0.00034313  0.25000000  1
  Hg  Hg8  1  0.75000000  0.99992093  0.50007907  1
  Hg  Hg9  1  0.00007907  0.50007907  0.25000000  1
  Hg  Hg10  1  0.49992093  0.25000000  0.99992093  1
  Ge  Ge11  1  0.38220269  0.80393844  0.49983866  1
  Ge  Ge12  1  0.19606156  0.49983866  0.61779731  1
  Ge  Ge13  1  0.50016134  0.61779731  0.80393844  1
  Ge  Ge14  1  0.61655095  0.19655604  0.49992077  1
  Ge  Ge15  1  0.80344396  0.49992077  0.38344905  1
  Ge  Ge16  1  0.50007923  0.38344905  0.19655604  1
  Ge  Ge17  1  0.80375944  0.49982095  0.61768700  1
  Ge  Ge18  1  0.49999161  0.38354051  0.80360247  1
  Ge  Ge19  1  0.19639753  0.50000839  0.38354051  1
  Ge  Ge20  1  0.50017905  0.61768700  0.19624056  1
  Ge  Ge21  1  0.61645949  0.80360247  0.50000839  1
  Ge  Ge22  1  0.38231300  0.19624056  0.49982095  1
  Ge  Ge23  1  0.30393844  0.88220269  0.00016134  1
  Ge  Ge24  1  0.00000839  0.69639753  0.11645949  1
  Ge  Ge25  1  0.11768700  0.00017905  0.30375944  1
  Ge  Ge26  1  0.69655604  0.11655095  0.00007923  1
  Ge  Ge27  1  0.99982095  0.30375944  0.88231300  1
  Ge  Ge28  1  0.88354051  -0.00000839  0.69639753  1
  Ge  Ge29  1  0.99992077  0.30344396  0.11655095  1
  Ge  Ge30  1  0.88344905  0.00007923  0.30344396  1
  Ge  Ge31  1  0.99983866  0.69606156  0.88220269  1
  Ge  Ge32  1  0.11779731  0.00016134  0.69606156  1
  Ge  Ge33  1  0.30360247  0.11645949  -0.00000839  1
  Ge  Ge34  1  0.69624056  0.88231300  0.00017905  1
  Ge  Ge35  1  0.31553769  0.68446231  0.68446231  1
  Ge  Ge36  1  0.68245589  0.31754411  0.31754411  1
  Ge  Ge37  1  0.68307905  0.31667007  0.68332365  1
  Ge  Ge38  1  0.31592904  0.68388498  0.31628278  1
  Ge  Ge39  1  0.68332993  0.68332365  0.31692095  1
  Ge  Ge40  1  0.31611502  0.31628278  0.68407096  1
  Ge  Ge41  1  0.31667635  0.31692095  0.31667007  1
  Ge  Ge42  1  0.68371722  0.68407096  0.68388498  1
  Ge  Ge43  1  0.18388498  0.81592904  0.18371722  1
  Ge  Ge44  1  0.81667007  0.18307905  0.81667635  1
  Ge  Ge45  1  0.81754411  0.18245589  0.18245589  1
  Ge  Ge46  1  0.18446231  0.81553769  0.81553769  1
  Ge  Ge47  1  0.18407096  0.18371722  0.81611502  1
  Ge  Ge48  1  0.81692095  0.81667635  0.18332993  1
  Ge  Ge49  1  0.81628278  0.81611502  0.81592904  1
  Ge  Ge50  1  0.18332365  0.18332993  0.18307905  1
  Ge  Ge51  1  0.25000000  0.99978654  0.50021346  1
  Ge  Ge52  1  0.00021346  0.50021346  0.75000000  1
  Ge  Ge53  1  0.49978654  0.75000000  0.99978654  1
