# generated using pymatgen
data_Pr2AlSi
_symmetry_space_group_name_H-M   'P 1'
_cell_length_a   4.10445070
_cell_length_b   4.50587611
_cell_length_c   6.14705297
_cell_angle_alpha   68.49964331
_cell_angle_beta   90.00000000
_cell_angle_gamma   90.00000000
_symmetry_Int_Tables_number   1
_chemical_formula_structural   Pr2AlSi
_chemical_formula_sum   'Pr2 Al1 Si1'
_cell_volume   105.77379410
_cell_formula_units_Z   1
loop_
 _symmetry_equiv_pos_site_id
 _symmetry_equiv_pos_as_xyz
  1  'x, y, z'
loop_
 _atom_site_type_symbol
 _atom_site_label
 _atom_site_symmetry_multiplicity
 _atom_site_fract_x
 _atom_site_fract_y
 _atom_site_fract_z
 _atom_site_occupancy
  Pr  Pr0  1  0.25000000  0.64105813  0.71788373  1
  Pr  Pr1  1  0.75000000  0.35605122  0.28789757  1
  Al  Al2  1  0.25000000  0.93369374  0.13261251  1
  Si  Si3  1  0.75000000  0.06919691  0.86160619  1
