# generated using pymatgen
data_NdAlSi
_symmetry_space_group_name_H-M   'P 1'
_cell_length_a   4.21643712
_cell_length_b   4.21643712
_cell_length_c   7.90141854
_cell_angle_alpha   74.52515984
_cell_angle_beta   74.52515984
_cell_angle_gamma   90.00000000
_symmetry_Int_Tables_number   1
_chemical_formula_structural   NdAlSi
_chemical_formula_sum   'Nd2 Al2 Si2'
_cell_volume   130.08990486
_cell_formula_units_Z   2
loop_
 _symmetry_equiv_pos_site_id
 _symmetry_equiv_pos_as_xyz
  1  'x, y, z'
loop_
 _atom_site_type_symbol
 _atom_site_label
 _atom_site_symmetry_multiplicity
 _atom_site_fract_x
 _atom_site_fract_y
 _atom_site_fract_z
 _atom_site_occupancy
  Nd  Nd0  1  0.87573599  0.62573599  0.24852803  1
  Nd  Nd1  1  0.12573599  0.37573599  0.74852803  1
  Al  Al2  1  0.54163118  0.79163118  0.91673765  1
  Al  Al3  1  0.29163118  0.04163118  0.41673765  1
  Si  Si4  1  0.45763284  0.20763284  0.08473433  1
  Si  Si5  1  0.70763284  0.95763284  0.58473433  1
