# generated using pymatgen
data_NbTlTeO6
_symmetry_space_group_name_H-M   'P 1'
_cell_length_a   7.38631770
_cell_length_b   7.32751215
_cell_length_c   7.54040083
_cell_angle_alpha   90.00000000
_cell_angle_beta   59.30750350
_cell_angle_gamma   119.73698608
_symmetry_Int_Tables_number   1
_chemical_formula_structural   NbTlTeO6
_chemical_formula_sum   'Nb2 Tl2 Te2 O12'
_cell_volume   286.67503524
_cell_formula_units_Z   2
loop_
 _symmetry_equiv_pos_site_id
 _symmetry_equiv_pos_as_xyz
  1  'x, y, z'
loop_
 _atom_site_type_symbol
 _atom_site_label
 _atom_site_symmetry_multiplicity
 _atom_site_fract_x
 _atom_site_fract_y
 _atom_site_fract_z
 _atom_site_occupancy
  Nb  Nb0  1  0.02030512  0.51015256  0.00984506  1
  Nb  Nb1  1  0.97969488  0.48984744  0.53015017  1
  Tl  Tl2  1  0.21160989  0.10580495  0.21110146  1
  Tl  Tl3  1  0.78839011  0.89419505  0.92271135  1
  Te  Te4  1  0.50000000  0.00000000  0.49696032  1
  Te  Te5  1  0.50000000  0.50000000  0.49696032  1
  O  O6  1  0.64555349  0.82277675  0.42157573  1
  O  O7  1  0.86592505  0.43296253  0.81886118  1
  O  O8  1  0.25451322  0.82350601  0.80374108  1
  O  O9  1  0.25435353  0.43167390  0.43480528  1
  O  O10  1  0.25451322  0.43100721  0.80374108  1
  O  O11  1  0.25435353  0.82267963  0.43480528  1
  O  O12  1  0.35444651  0.17722325  0.56712923  1
  O  O13  1  0.13407495  0.56703747  0.18478623  1
  O  O14  1  0.74564647  0.17732037  0.18915881  1
  O  O15  1  0.74548678  0.56899279  0.55825430  1
  O  O16  1  0.74564647  0.56832610  0.18915881  1
  O  O17  1  0.74548678  0.17649399  0.55825430  1
