# generated using pymatgen
data_NdMnFeGe2
_symmetry_space_group_name_H-M   'P 1'
_cell_length_a   3.97695229
_cell_length_b   3.97695229
_cell_length_c   6.14148361
_cell_angle_alpha   71.10845914
_cell_angle_beta   71.10845914
_cell_angle_gamma   90.00000000
_symmetry_Int_Tables_number   1
_chemical_formula_structural   NdMnFeGe2
_chemical_formula_sum   'Nd1 Mn1 Fe1 Ge2'
_cell_volume   86.35349695
_cell_formula_units_Z   1
loop_
 _symmetry_equiv_pos_site_id
 _symmetry_equiv_pos_as_xyz
  1  'x, y, z'
loop_
 _atom_site_type_symbol
 _atom_site_label
 _atom_site_symmetry_multiplicity
 _atom_site_fract_x
 _atom_site_fract_y
 _atom_site_fract_z
 _atom_site_occupancy
  Nd  Nd0  1  -0.00000000  -0.00000000  -0.00000000  1
  Mn  Mn1  1  0.75000000  0.25000000  0.50000000  1
  Fe  Fe2  1  0.25000000  0.75000000  0.50000000  1
  Ge  Ge3  1  0.37712510  0.37712510  0.24574979  1
  Ge  Ge4  1  0.62287490  0.62287490  0.75425021  1
