# generated using pymatgen
data_ZrNbO4
_symmetry_space_group_name_H-M   'P 1'
_cell_length_a   6.53910463
_cell_length_b   6.36032795
_cell_length_c   6.53910463
_cell_angle_alpha   132.93689501
_cell_angle_beta   70.97231606
_cell_angle_gamma   133.00832038
_symmetry_Int_Tables_number   1
_chemical_formula_structural   ZrNbO4
_chemical_formula_sum   'Zr2 Nb2 O8'
_cell_volume   140.63328858
_cell_formula_units_Z   2
loop_
 _symmetry_equiv_pos_site_id
 _symmetry_equiv_pos_as_xyz
  1  'x, y, z'
loop_
 _atom_site_type_symbol
 _atom_site_label
 _atom_site_symmetry_multiplicity
 _atom_site_fract_x
 _atom_site_fract_y
 _atom_site_fract_z
 _atom_site_occupancy
  Zr  Zr0  1  0.38156105  0.75000000  0.13156105  1
  Zr  Zr1  1  0.61843895  0.25000000  0.86843895  1
  Nb  Nb2  1  0.85300239  0.75000000  0.60300239  1
  Nb  Nb3  1  0.14699761  0.25000000  0.39699761  1
  O  O4  1  0.01158813  0.72078973  0.27017704  1
  O  O5  1  0.45061269  0.22078973  0.20920160  1
  O  O6  1  0.76205187  0.80611626  0.11672737  1
  O  O7  1  0.68938889  0.30611626  0.54406439  1
  O  O8  1  0.31061111  0.69388374  0.45593561  1
  O  O9  1  0.23794813  0.19388374  0.88327263  1
  O  O10  1  0.54938731  0.77921027  0.79079840  1
  O  O11  1  0.98841187  0.27921027  0.72982296  1
