# generated using pymatgen
data_PIrS
_symmetry_space_group_name_H-M   'P 1'
_cell_length_a   5.69354174
_cell_length_b   5.69354174
_cell_length_c   5.69354174
_cell_angle_alpha   90.00000000
_cell_angle_beta   90.00000000
_cell_angle_gamma   90.00000000
_symmetry_Int_Tables_number   1
_chemical_formula_structural   PIrS
_chemical_formula_sum   'P4 Ir4 S4'
_cell_volume   184.56422635
_cell_formula_units_Z   4
loop_
 _symmetry_equiv_pos_site_id
 _symmetry_equiv_pos_as_xyz
  1  'x, y, z'
loop_
 _atom_site_type_symbol
 _atom_site_label
 _atom_site_symmetry_multiplicity
 _atom_site_fract_x
 _atom_site_fract_y
 _atom_site_fract_z
 _atom_site_occupancy
  P  P0  1  0.11217644  0.61217644  0.88782356  1
  P  P1  1  0.61217644  0.88782356  0.11217644  1
  P  P2  1  0.88782356  0.11217644  0.61217644  1
  P  P3  1  0.38782356  0.38782356  0.38782356  1
  Ir  Ir4  1  0.50539892  0.00539892  0.49460108  1
  Ir  Ir5  1  0.00539892  0.49460108  0.50539892  1
  Ir  Ir6  1  0.49460108  0.50539892  0.00539892  1
  Ir  Ir7  1  0.99460108  0.99460108  0.99460108  1
  S  S8  1  0.89028060  0.39028060  0.10971940  1
  S  S9  1  0.39028060  0.10971940  0.89028060  1
  S  S10  1  0.10971940  0.89028060  0.39028060  1
  S  S11  1  0.60971940  0.60971940  0.60971940  1
