# generated using pymatgen
data_PHPbO4
_symmetry_space_group_name_H-M   'P 1'
_cell_length_a   4.78945369
_cell_length_b   5.85300728
_cell_length_c   6.63485327
_cell_angle_alpha   90.00000000
_cell_angle_beta   90.00000000
_cell_angle_gamma   96.72507886
_symmetry_Int_Tables_number   1
_chemical_formula_structural   PHPbO4
_chemical_formula_sum   'P2 H2 Pb2 O8'
_cell_volume   184.71317328
_cell_formula_units_Z   2
loop_
 _symmetry_equiv_pos_site_id
 _symmetry_equiv_pos_as_xyz
  1  'x, y, z'
loop_
 _atom_site_type_symbol
 _atom_site_label
 _atom_site_symmetry_multiplicity
 _atom_site_fract_x
 _atom_site_fract_y
 _atom_site_fract_z
 _atom_site_occupancy
  P  P0  1  0.50553845  0.24992475  0.78935228  1
  P  P1  1  0.50553845  0.74992475  0.21064772  1
  H  H2  1  0.49674763  0.99836712  0.48829136  1
  H  H3  1  0.49674763  0.49836712  0.51170864  1
  Pb  Pb4  1  0.00108856  0.25384620  0.20163596  1
  Pb  Pb5  1  0.00108856  0.75384620  0.79836404  1
  O  O6  1  0.62868860  0.07226593  0.65007823  1
  O  O7  1  0.38117775  0.43689700  0.65379748  1
  O  O8  1  0.38117775  0.93689700  0.34620252  1
  O  O9  1  0.62868860  0.57226593  0.34992177  1
  O  O10  1  0.74174125  0.37499601  0.92167027  1
  O  O11  1  0.26131776  0.12850299  0.91663830  1
  O  O12  1  0.26131776  0.62850299  0.08336170  1
  O  O13  1  0.74174125  0.87499601  0.07832973  1
