# generated using pymatgen
data_Nd6Cd(GeS7)2
_symmetry_space_group_name_H-M   'P 1'
_cell_length_a   5.82102904
_cell_length_b   10.26567986
_cell_length_c   10.26586139
_cell_angle_alpha   59.99846184
_cell_angle_beta   90.00070531
_cell_angle_gamma   89.99977461
_symmetry_Int_Tables_number   1
_chemical_formula_structural   Nd6Cd(GeS7)2
_chemical_formula_sum   'Nd6 Cd1 Ge2 S14'
_cell_volume   531.25958505
_cell_formula_units_Z   1
loop_
 _symmetry_equiv_pos_site_id
 _symmetry_equiv_pos_as_xyz
  1  'x, y, z'
loop_
 _atom_site_type_symbol
 _atom_site_label
 _atom_site_symmetry_multiplicity
 _atom_site_fract_x
 _atom_site_fract_y
 _atom_site_fract_z
 _atom_site_occupancy
  Nd  Nd0  1  0.24611478  0.22957824  0.12798481  1
  Nd  Nd1  1  0.24611395  0.64245589  0.22957275  1
  Nd  Nd2  1  0.24611483  0.12798437  0.64243993  1
  Nd  Nd3  1  0.75039196  0.77043884  0.87161693  1
  Nd  Nd4  1  0.75040140  0.35793644  0.77043696  1
  Nd  Nd5  1  0.75039554  0.87161920  0.35795234  1
  Cd  Cd6  1  0.48484752  0.00000265  0.99999857  1
  Ge  Ge7  1  0.82894885  0.33333142  0.33332690  1
  Ge  Ge8  1  0.33531645  0.66666174  0.66667076  1
  S  S9  1  0.71821230  0.16379638  0.09444671  1
  S  S10  1  0.71819923  0.74176066  0.16379170  1
  S  S11  1  0.71820428  0.09444837  0.74175692  1
  S  S12  1  0.22966816  0.83519315  0.90824360  1
  S  S13  1  0.22965691  0.25658260  0.83517490  1
  S  S14  1  0.22968143  0.90823417  0.25657221  1
  S  S15  1  0.45288888  0.33333936  0.33332858  1
  S  S16  1  0.95725656  0.66665536  0.66667105  1
  S  S17  1  0.98630280  0.10481787  0.41446278  1
  S  S18  1  0.98631795  0.48073159  0.10478922  1
  S  S19  1  0.98633897  0.41447808  0.48073213  1
  S  S20  1  0.49052987  0.89546370  0.58528438  1
  S  S21  1  0.49055484  0.51923659  0.89549101  1
  S  S22  1  0.49054254  0.58525332  0.51925489  1
