# generated using pymatgen
data_Nb9TlSe12
_symmetry_space_group_name_H-M   'P 1'
_cell_length_a   10.50799928
_cell_length_b   10.76943274
_cell_length_c   10.76922042
_cell_angle_alpha   109.95556703
_cell_angle_beta   71.01903432
_cell_angle_gamma   71.02106536
_symmetry_Int_Tables_number   1
_chemical_formula_structural   Nb9TlSe12
_chemical_formula_sum   'Nb18 Tl2 Se24'
_cell_volume   943.81172413
_cell_formula_units_Z   2
loop_
 _symmetry_equiv_pos_site_id
 _symmetry_equiv_pos_as_xyz
  1  'x, y, z'
loop_
 _atom_site_type_symbol
 _atom_site_label
 _atom_site_symmetry_multiplicity
 _atom_site_fract_x
 _atom_site_fract_y
 _atom_site_fract_z
 _atom_site_occupancy
  Nb  Nb0  1  0.28135233  0.51215566  0.89280690  1
  Nb  Nb1  1  0.61509337  0.51242431  0.89343832  1
  Nb  Nb2  1  0.94816655  0.51179222  0.89368538  1
  Nb  Nb3  1  0.45992019  0.38193174  0.48825925  1
  Nb  Nb4  1  0.79345684  0.38067818  0.48789443  1
  Nb  Nb5  1  0.12750299  0.38105577  0.48762802  1
  Nb  Nb6  1  0.50852546  0.10655577  0.61897915  1
  Nb  Nb7  1  0.84187532  0.10633502  0.61810872  1
  Nb  Nb8  1  0.17416012  0.10717068  0.61932386  1
  Nb  Nb9  1  0.05157263  0.48757569  0.10656168  1
  Nb  Nb10  1  0.38531467  0.48784434  0.10719310  1
  Nb  Nb11  1  0.71850045  0.48820778  0.10631462  1
  Nb  Nb12  1  0.87321016  0.61932182  0.51210557  1
  Nb  Nb13  1  0.20674681  0.61806826  0.51174075  1
  Nb  Nb14  1  0.53916301  0.61894423  0.51237198  1
  Nb  Nb15  1  0.82479168  0.89366498  0.38189128  1
  Nb  Nb16  1  0.15814054  0.89344423  0.38102085  1
  Nb  Nb17  1  0.49250688  0.89282932  0.38067614  1
  Tl  Tl18  1  0.83333300  -0.00000000  0.00000000  1
  Tl  Tl19  1  0.33333300  -0.00000000  0.00000000  1
  Se  Se20  1  0.41690737  0.66658068  0.33317966  1
  Se  Se21  1  0.08350997  0.66663284  0.33340588  1
  Se  Se22  1  0.75008014  0.66680218  0.33338669  1
  Se  Se23  1  0.24975963  0.33341932  0.66682034  1
  Se  Se24  1  0.91658686  0.33319782  0.66661331  1
  Se  Se25  1  0.58315603  0.33336716  0.66659412  1
  Se  Se26  1  0.95691459  0.65891577  0.71869129  1
  Se  Se27  1  0.62507984  0.65866016  0.71838332  1
  Se  Se28  1  0.28989850  0.66005773  0.71965146  1
  Se  Se29  1  0.28375570  0.05973715  0.34130291  1
  Se  Se30  1  0.94996074  0.05957923  0.33991947  1
  Se  Se31  1  0.61582108  0.05979140  0.34106031  1
  Se  Se32  1  0.00953148  0.28034166  0.94043915  1
  Se  Se33  1  0.67559169  0.28131292  0.94026692  1
  Se  Se34  1  0.34348296  0.28159624  0.94029111  1
  Se  Se35  1  0.70975241  0.34108423  0.28130871  1
  Se  Se36  1  0.37676850  0.33994227  0.28034854  1
  Se  Se37  1  0.04158616  0.34133984  0.28161668  1
  Se  Se38  1  0.38291030  0.94026285  0.65869709  1
  Se  Se39  1  0.05084592  0.94020860  0.65893969  1
  Se  Se40  1  0.71670626  0.94042077  0.66008053  1
  Se  Se41  1  0.65713552  0.71965834  0.05956085  1
  Se  Se42  1  0.32318304  0.71840376  0.05970889  1
  Se  Se43  1  0.99107531  0.71868708  0.05973308  1
