# generated using pymatgen
data_NaLaF4
_symmetry_space_group_name_H-M   'P 1'
_cell_length_a   6.25148651
_cell_length_b   7.33269898
_cell_length_c   7.33417696
_cell_angle_alpha   63.58194150
_cell_angle_beta   64.59250019
_cell_angle_gamma   64.70986494
_symmetry_Int_Tables_number   1
_chemical_formula_structural   NaLaF4
_chemical_formula_sum   'Na3 La3 F12'
_cell_volume   260.10721579
_cell_formula_units_Z   3
loop_
 _symmetry_equiv_pos_site_id
 _symmetry_equiv_pos_as_xyz
  1  'x, y, z'
loop_
 _atom_site_type_symbol
 _atom_site_label
 _atom_site_symmetry_multiplicity
 _atom_site_fract_x
 _atom_site_fract_y
 _atom_site_fract_z
 _atom_site_occupancy
  Na  Na0  1  0.68701413  0.14309103  0.50370217  1
  Na  Na1  1  0.64808803  0.66104397  0.02805377  1
  Na  Na2  1  0.33172692  0.87930650  0.45708269  1
  La  La3  1  0.00068056  0.99327344  0.00268042  1
  La  La4  1  0.99877870  0.50026007  0.50391474  1
  La  La5  1  0.33365149  0.39864613  0.93055144  1
  F  F6  1  0.04228543  0.65516370  0.71490722  1
  F  F7  1  0.03413597  0.19555561  0.17221678  1
  F  F8  1  0.59942223  0.02769146  0.99802896  1
  F  F9  1  0.58918184  0.49097623  0.55272310  1
  F  F10  1  0.37032134  0.31946340  0.28004411  1
  F  F11  1  0.36703286  0.76020477  0.82902557  1
  F  F12  1  0.99587616  0.12199947  0.62571230  1
  F  F13  1  0.96559516  0.62217118  0.13594406  1
  F  F14  1  0.25170038  0.74721988  0.25309260  1
  F  F15  1  0.28156589  0.22606954  0.73619318  1
  F  F16  1  0.74698954  0.87876342  0.38532478  1
  F  F17  1  0.75595336  0.37910019  0.89080212  1
