# generated using pymatgen
data_Nd2FeNiO6
_symmetry_space_group_name_H-M   'P 1'
_cell_length_a   5.44062124
_cell_length_b   5.65775849
_cell_length_c   7.76281228
_cell_angle_alpha   90.00000000
_cell_angle_beta   89.85315668
_cell_angle_gamma   90.00000000
_symmetry_Int_Tables_number   1
_chemical_formula_structural   Nd2FeNiO6
_chemical_formula_sum   'Nd4 Fe2 Ni2 O12'
_cell_volume   238.95193698
_cell_formula_units_Z   2
loop_
 _symmetry_equiv_pos_site_id
 _symmetry_equiv_pos_as_xyz
  1  'x, y, z'
loop_
 _atom_site_type_symbol
 _atom_site_label
 _atom_site_symmetry_multiplicity
 _atom_site_fract_x
 _atom_site_fract_y
 _atom_site_fract_z
 _atom_site_occupancy
  Nd  Nd0  1  0.51319333  0.55907557  0.25048178  1
  Nd  Nd1  1  0.98680667  0.05907557  0.24951822  1
  Nd  Nd2  1  0.48680667  0.44092443  0.74951822  1
  Nd  Nd3  1  0.01319333  0.94092443  0.75048178  1
  Fe  Fe4  1  -0.00000000  0.50000000  0.50000000  1
  Fe  Fe5  1  0.50000000  0.00000000  0.00000000  1
  Ni  Ni6  1  -0.00000000  0.50000000  0.00000000  1
  Ni  Ni7  1  0.50000000  0.00000000  0.50000000  1
  O  O8  1  0.41471913  0.97832767  0.24782267  1
  O  O9  1  0.08528087  0.47832767  0.25217733  1
  O  O10  1  0.58528087  0.02167233  0.75217733  1
  O  O11  1  0.91471913  0.52167233  0.74782267  1
  O  O12  1  0.79250868  0.80096795  0.04439600  1
  O  O13  1  0.70749132  0.30096795  0.45560400  1
  O  O14  1  0.20036787  0.20634183  0.54540791  1
  O  O15  1  0.29963213  0.70634183  0.95459209  1
  O  O16  1  0.20749132  0.19903205  0.95560400  1
  O  O17  1  0.29250868  0.69903205  0.54439600  1
  O  O18  1  0.79963213  0.79365817  0.45459209  1
  O  O19  1  0.70036787  0.29365817  0.04540791  1
