# generated using pymatgen
data_Na5SrNbP4
_symmetry_space_group_name_H-M   'P 1'
_cell_length_a   7.36444747
_cell_length_b   9.35374813
_cell_length_c   9.35374813
_cell_angle_alpha   120.06330972
_cell_angle_beta   90.03035651
_cell_angle_gamma   90.03035651
_symmetry_Int_Tables_number   1
_chemical_formula_structural   Na5SrNbP4
_chemical_formula_sum   'Na10 Sr2 Nb2 P8'
_cell_volume   557.65356983
_cell_formula_units_Z   2
loop_
 _symmetry_equiv_pos_site_id
 _symmetry_equiv_pos_as_xyz
  1  'x, y, z'
loop_
 _atom_site_type_symbol
 _atom_site_label
 _atom_site_symmetry_multiplicity
 _atom_site_fract_x
 _atom_site_fract_y
 _atom_site_fract_z
 _atom_site_occupancy
  Na  Na0  1  0.38667301  0.53401394  0.47211731  1
  Na  Na1  1  0.38670517  0.93762723  0.47103013  1
  Na  Na2  1  0.88667301  0.47211731  0.53401394  1
  Na  Na3  1  0.88670517  0.47103013  0.93762723  1
  Na  Na4  1  0.21589162  0.13829829  0.85325399  1
  Na  Na5  1  0.20991702  0.71155903  0.84928330  1
  Na  Na6  1  0.22005320  0.14667454  0.28924919  1
  Na  Na7  1  0.71589162  0.85325399  0.13829829  1
  Na  Na8  1  0.72005320  0.28924919  0.14667454  1
  Na  Na9  1  0.70991702  0.84928330  0.71155903  1
  Sr  Sr10  1  0.39102193  0.53258672  0.06240498  1
  Sr  Sr11  1  0.89102193  0.06240498  0.53258672  1
  Nb  Nb12  1  0.49907901  0.33292405  0.66240212  1
  Nb  Nb13  1  0.99907901  0.66240212  0.33292405  1
  P  P14  1  0.10319054  0.80829523  0.19415645  1
  P  P15  1  0.10622786  0.38355390  0.19061160  1
  P  P16  1  0.09892051  0.81041112  0.61564569  1
  P  P17  1  0.60319054  0.19415645  0.80829523  1
  P  P18  1  0.59892051  0.61564569  0.81041112  1
  P  P19  1  0.60622786  0.19061160  0.38355390  1
  P  P20  1  0.17212012  0.33384050  0.67006069  1
  P  P21  1  0.67212012  0.67006069  0.33384050  1
