# generated using pymatgen
data_Tm2GeO5
_symmetry_space_group_name_H-M   'P 1'
_cell_length_a   5.16670180
_cell_length_b   6.32809832
_cell_length_c   7.37275602
_cell_angle_alpha   68.07671177
_cell_angle_beta   90.16311674
_cell_angle_gamma   65.93626314
_symmetry_Int_Tables_number   1
_chemical_formula_structural   Tm2GeO5
_chemical_formula_sum   'Tm4 Ge2 O10'
_cell_volume   200.73710664
_cell_formula_units_Z   2
loop_
 _symmetry_equiv_pos_site_id
 _symmetry_equiv_pos_as_xyz
  1  'x, y, z'
loop_
 _atom_site_type_symbol
 _atom_site_label
 _atom_site_symmetry_multiplicity
 _atom_site_fract_x
 _atom_site_fract_y
 _atom_site_fract_z
 _atom_site_occupancy
  Tm  Tm0  1  0.63023489  0.71548499  0.76432717  1
  Tm  Tm1  1  0.65478559  0.71862893  0.26495706  1
  Tm  Tm2  1  0.34482096  0.28308826  0.73366949  1
  Tm  Tm3  1  0.36910100  0.28470873  0.23492032  1
  Ge  Ge4  1  0.99910358  0.00122069  0.49806970  1
  Ge  Ge5  1  0.00183467  0.99893363  0.99806920  1
  O  O6  1  0.76525177  0.84890870  0.96371358  1
  O  O7  1  0.38466476  0.85428982  0.46229526  1
  O  O8  1  0.01505976  0.66763804  0.63189797  1
  O  O9  1  0.68745945  0.33147803  0.85883902  1
  O  O10  1  0.31883921  0.66698794  0.13489345  1
  O  O11  1  0.98350840  0.33423919  0.36424196  1
  O  O12  1  0.61405777  0.14784711  0.53614733  1
  O  O13  1  0.16714955  0.99806422  0.74954131  1
  O  O14  1  0.24069210  0.14598855  0.03671025  1
  O  O15  1  0.83230954  0.00379214  0.24741695  1
