# generated using pymatgen
data_NaInSn2
_symmetry_space_group_name_H-M   'P 1'
_cell_length_a   6.46832767
_cell_length_b   6.65308997
_cell_length_c   11.59742822
_cell_angle_alpha   90.00000000
_cell_angle_beta   90.00000000
_cell_angle_gamma   90.00000000
_symmetry_Int_Tables_number   1
_chemical_formula_structural   NaInSn2
_chemical_formula_sum   'Na4 In4 Sn8'
_cell_volume   499.08797003
_cell_formula_units_Z   4
loop_
 _symmetry_equiv_pos_site_id
 _symmetry_equiv_pos_as_xyz
  1  'x, y, z'
loop_
 _atom_site_type_symbol
 _atom_site_label
 _atom_site_symmetry_multiplicity
 _atom_site_fract_x
 _atom_site_fract_y
 _atom_site_fract_z
 _atom_site_occupancy
  Na  Na0  1  0.88540363  0.62507024  0.06311592  1
  Na  Na1  1  0.61459637  0.37492976  0.56311592  1
  Na  Na2  1  0.38540363  0.87492976  0.93688408  1
  Na  Na3  1  0.11459637  0.12507024  0.43688408  1
  In  In4  1  0.59957126  0.90644889  0.38820836  1
  In  In5  1  0.90042874  0.09355111  0.88820836  1
  In  In6  1  0.09957126  0.59355111  0.61179164  1
  In  In7  1  0.40042874  0.40644889  0.11179164  1
  Sn  Sn8  1  0.76946092  0.73261997  0.76534579  1
  Sn  Sn9  1  0.73053908  0.26738003  0.26534579  1
  Sn  Sn10  1  0.26946092  0.76738003  0.23465421  1
  Sn  Sn11  1  0.23053908  0.23261997  0.73465421  1
  Sn  Sn12  1  0.93188776  0.61231310  0.37692684  1
  Sn  Sn13  1  0.56811224  0.38768690  0.87692684  1
  Sn  Sn14  1  0.43188776  0.88768690  0.62307316  1
  Sn  Sn15  1  0.06811224  0.11231310  0.12307316  1
