# generated using pymatgen
data_Pr32In3Rh19
_symmetry_space_group_name_H-M   'P 1'
_cell_length_a   10.19473785
_cell_length_b   11.90550972
_cell_length_c   11.90550972
_cell_angle_alpha   90.29431448
_cell_angle_beta   90.00000000
_cell_angle_gamma   90.00000000
_symmetry_Int_Tables_number   1
_chemical_formula_structural   Pr32In3Rh19
_chemical_formula_sum   'Pr32 In3 Rh19'
_cell_volume   1444.99492124
_cell_formula_units_Z   1
loop_
 _symmetry_equiv_pos_site_id
 _symmetry_equiv_pos_as_xyz
  1  'x, y, z'
loop_
 _atom_site_type_symbol
 _atom_site_label
 _atom_site_symmetry_multiplicity
 _atom_site_fract_x
 _atom_site_fract_y
 _atom_site_fract_z
 _atom_site_occupancy
  Pr  Pr0  1  0.81167100  0.00117038  0.50117038  1
  Pr  Pr1  1  0.80346432  0.49163608  0.99163608  1
  Pr  Pr2  1  0.18832900  0.00117038  0.50117038  1
  Pr  Pr3  1  0.19653568  0.49163608  0.99163608  1
  Pr  Pr4  1  -0.00000000  0.57490795  0.71409573  1
  Pr  Pr5  1  -0.00000000  0.41284456  0.30105377  1
  Pr  Pr6  1  -0.00000000  0.93805059  0.21722933  1
  Pr  Pr7  1  -0.00000000  0.07951170  0.78884309  1
  Pr  Pr8  1  -0.00000000  0.71722933  0.43805059  1
  Pr  Pr9  1  -0.00000000  0.28884309  0.57951170  1
  Pr  Pr10  1  -0.00000000  0.21409573  0.07490795  1
  Pr  Pr11  1  -0.00000000  0.80105377  0.91284456  1
  Pr  Pr12  1  0.69683357  0.70709200  0.58075105  1
  Pr  Pr13  1  0.69696428  0.29040496  0.42000322  1
  Pr  Pr14  1  0.69987197  0.79222004  0.07896268  1
  Pr  Pr15  1  0.69858115  0.20687267  0.91868822  1
  Pr  Pr16  1  0.69987197  0.57896268  0.29222004  1
  Pr  Pr17  1  0.69858115  0.41868822  0.70687267  1
  Pr  Pr18  1  0.69683357  0.08075105  0.20709200  1
  Pr  Pr19  1  0.69696428  0.92000322  0.79040496  1
  Pr  Pr20  1  0.30303572  0.29040496  0.42000322  1
  Pr  Pr21  1  0.30316643  0.70709200  0.58075105  1
  Pr  Pr22  1  0.30141885  0.20687267  0.91868822  1
  Pr  Pr23  1  0.30012803  0.79222004  0.07896268  1
  Pr  Pr24  1  0.30141885  0.41868822  0.70687267  1
  Pr  Pr25  1  0.30012803  0.57896268  0.29222004  1
  Pr  Pr26  1  0.30303572  0.92000322  0.79040496  1
  Pr  Pr27  1  0.30316643  0.08075105  0.20709200  1
  Pr  Pr28  1  0.50000000  0.14328519  0.64328519  1
  Pr  Pr29  1  0.50000000  0.85728227  0.35728227  1
  Pr  Pr30  1  0.50000000  0.35795106  0.13943536  1
  Pr  Pr31  1  0.50000000  0.63943536  0.85795106  1
  In  In32  1  0.50000000  0.49885152  0.50088646  1
  In  In33  1  0.50000000  0.00088646  0.99885152  1
  In  In34  1  -0.00000000  0.66147528  0.16147528  1
  Rh  Rh35  1  0.77509103  0.17689892  0.67689892  1
  Rh  Rh36  1  0.77868926  0.82195010  0.32195010  1
  Rh  Rh37  1  0.77450941  0.32162435  0.17805952  1
  Rh  Rh38  1  0.77450941  0.67805952  0.82162435  1
  Rh  Rh39  1  0.22131074  0.82195010  0.32195010  1
  Rh  Rh40  1  0.22490897  0.17689892  0.67689892  1
  Rh  Rh41  1  0.22549059  0.67805952  0.82162435  1
  Rh  Rh42  1  0.22549059  0.32162435  0.17805952  1
  Rh  Rh43  1  0.50000000  0.60359064  0.10359064  1
  Rh  Rh44  1  0.50000000  0.39867372  0.89867372  1
  Rh  Rh45  1  0.50000000  0.89659856  0.60223022  1
  Rh  Rh46  1  0.50000000  0.10223022  0.39659856  1
  Rh  Rh47  1  0.83943466  0.49894980  0.49949990  1
  Rh  Rh48  1  0.83943466  0.99949990  0.99894980  1
  Rh  Rh49  1  0.16056534  0.49894980  0.49949990  1
  Rh  Rh50  1  0.16056534  0.99949990  0.99894980  1
  Rh  Rh51  1  -0.00000000  0.34671470  0.84671470  1
  Rh  Rh52  1  -0.00000000  0.84026977  0.65665079  1
  Rh  Rh53  1  -0.00000000  0.15665079  0.34026977  1
