# generated using pymatgen
data_Nb5Si6W5
_symmetry_space_group_name_H-M   'P 1'
_cell_length_a   5.07616469
_cell_length_b   7.40488713
_cell_length_c   7.42455167
_cell_angle_alpha   96.77522501
_cell_angle_beta   109.98962410
_cell_angle_gamma   69.95501727
_symmetry_Int_Tables_number   1
_chemical_formula_structural   Nb5Si6W5
_chemical_formula_sum   'Nb5 Si6 W5'
_cell_volume   246.37702108
_cell_formula_units_Z   1
loop_
 _symmetry_equiv_pos_site_id
 _symmetry_equiv_pos_as_xyz
  1  'x, y, z'
loop_
 _atom_site_type_symbol
 _atom_site_label
 _atom_site_symmetry_multiplicity
 _atom_site_fract_x
 _atom_site_fract_y
 _atom_site_fract_z
 _atom_site_occupancy
  Nb  Nb0  1  0.42120645  0.85268370  0.69509661  1
  Nb  Nb1  1  0.58219959  0.14230933  0.30670851  1
  Nb  Nb2  1  0.92184058  0.30258833  0.14626950  1
  Nb  Nb3  1  0.07972113  0.69591168  0.85535395  1
  Nb  Nb4  1  0.72008607  0.70463430  0.14480643  1
  Si  Si5  1  0.24680333  0.00278986  0.99847805  1
  Si  Si6  1  0.74888487  0.00278986  0.99847805  1
  Si  Si7  1  0.33607700  0.49827122  0.17042522  1
  Si  Si8  1  0.66545480  0.49719083  0.82810044  1
  Si  Si9  1  0.83667658  0.83102133  0.50437450  1
  Si  Si10  1  0.16571207  0.16907926  0.50050340  1
  W  W11  1  0.27762045  0.29671454  0.85195543  1
  W  W12  1  0.77779361  0.14763973  0.70322695  1
  W  W13  1  0.21986140  0.85701788  0.29674069  1
  W  W14  1  0.24987739  0.49967907  0.49974113  1
  W  W15  1  0.75018467  0.49967907  0.49974113  1
