# generated using pymatgen
data_NaBi3(ClO2)2
_symmetry_space_group_name_H-M   'P 1'
_cell_length_a   5.57191254
_cell_length_b   5.56832831
_cell_length_c   6.77694584
_cell_angle_alpha   90.00000000
_cell_angle_beta   65.72647432
_cell_angle_gamma   90.00000000
_symmetry_Int_Tables_number   1
_chemical_formula_structural   NaBi3(ClO2)2
_chemical_formula_sum   'Na1 Bi3 Cl2 O4'
_cell_volume   191.67447202
_cell_formula_units_Z   1
loop_
 _symmetry_equiv_pos_site_id
 _symmetry_equiv_pos_as_xyz
  1  'x, y, z'
loop_
 _atom_site_type_symbol
 _atom_site_label
 _atom_site_symmetry_multiplicity
 _atom_site_fract_x
 _atom_site_fract_y
 _atom_site_fract_z
 _atom_site_occupancy
  Na  Na0  1  0.65020909  0.50000000  0.69958181  1
  Bi  Bi1  1  0.15720196  -0.00000000  0.68559608  1
  Bi  Bi2  1  0.84216794  0.00000000  0.31566413  1
  Bi  Bi3  1  0.34276231  0.50000000  0.31447538  1
  Cl  Cl4  1  0.50234332  -0.00000000  0.99531337  1
  Cl  Cl5  1  0.99764140  0.50000000  0.00471719  1
  O  O6  1  0.49497148  0.24349296  0.49616301  1
  O  O7  1  0.00886551  0.75650704  0.49616301  1
  O  O8  1  0.00886551  0.24349296  0.49616301  1
  O  O9  1  0.49497148  0.75650704  0.49616301  1
