# generated using pymatgen
data_NaSrNb2O6
_symmetry_space_group_name_H-M   'P 1'
_cell_length_a   4.06225316
_cell_length_b   5.70144609
_cell_length_c   5.70144609
_cell_angle_alpha   89.97349687
_cell_angle_beta   90.00000000
_cell_angle_gamma   90.00000000
_symmetry_Int_Tables_number   1
_chemical_formula_structural   NaSrNb2O6
_chemical_formula_sum   'Na1 Sr1 Nb2 O6'
_cell_volume   132.04956763
_cell_formula_units_Z   1
loop_
 _symmetry_equiv_pos_site_id
 _symmetry_equiv_pos_as_xyz
  1  'x, y, z'
loop_
 _atom_site_type_symbol
 _atom_site_label
 _atom_site_symmetry_multiplicity
 _atom_site_fract_x
 _atom_site_fract_y
 _atom_site_fract_z
 _atom_site_occupancy
  Na  Na0  1  0.50000000  0.00000000  0.50000000  1
  Sr  Sr1  1  0.50000000  0.50000000  -0.00000000  1
  Nb  Nb2  1  -0.00000000  0.50000000  0.50000000  1
  Nb  Nb3  1  0.00000000  -0.00000000  0.00000000  1
  O  O4  1  -0.00000000  0.28193397  0.78193397  1
  O  O5  1  0.00000000  0.71806603  0.21806603  1
  O  O6  1  -0.00000000  0.22823001  0.27176999  1
  O  O7  1  -0.00000000  0.77176999  0.72823001  1
  O  O8  1  0.50000000  0.50000000  0.50000000  1
  O  O9  1  0.50000000  0.00000000  -0.00000000  1
