# generated using pymatgen
data_NaHfMg6
_symmetry_space_group_name_H-M   'P 1'
_cell_length_a   6.43441221
_cell_length_b   8.85892946
_cell_length_c   4.55291330
_cell_angle_alpha   90.00000000
_cell_angle_beta   90.00000000
_cell_angle_gamma   133.50377959
_symmetry_Int_Tables_number   1
_chemical_formula_structural   NaHfMg6
_chemical_formula_sum   'Na1 Hf1 Mg6'
_cell_volume   188.24113024
_cell_formula_units_Z   1
loop_
 _symmetry_equiv_pos_site_id
 _symmetry_equiv_pos_as_xyz
  1  'x, y, z'
loop_
 _atom_site_type_symbol
 _atom_site_label
 _atom_site_symmetry_multiplicity
 _atom_site_fract_x
 _atom_site_fract_y
 _atom_site_fract_z
 _atom_site_occupancy
  Na  Na0  1  0.22789440  0.36394620  0.25000000  1
  Hf  Hf1  1  0.25851439  0.87925670  0.25000000  1
  Mg  Mg2  1  0.74913296  0.38163663  0.25000000  1
  Mg  Mg3  1  0.74913296  0.86749433  0.25000000  1
  Mg  Mg4  1  0.25244748  0.12174572  0.75000000  1
  Mg  Mg5  1  0.25244748  0.63070276  0.75000000  1
  Mg  Mg6  1  0.71292517  0.10646259  0.75000000  1
  Mg  Mg7  1  0.79750715  0.64875408  0.75000000  1
