# generated using pymatgen
data_NaCr12Si8BrO28
_symmetry_space_group_name_H-M   'P 1'
_cell_length_a   9.91302220
_cell_length_b   9.91302220
_cell_length_c   9.91302220
_cell_angle_alpha   63.61199217
_cell_angle_beta   63.61199217
_cell_angle_gamma   96.37899547
_symmetry_Int_Tables_number   1
_chemical_formula_structural   NaCr12Si8BrO28
_chemical_formula_sum   'Na1 Cr12 Si8 Br1 O28'
_cell_volume   721.57838476
_cell_formula_units_Z   1
loop_
 _symmetry_equiv_pos_site_id
 _symmetry_equiv_pos_as_xyz
  1  'x, y, z'
loop_
 _atom_site_type_symbol
 _atom_site_label
 _atom_site_symmetry_multiplicity
 _atom_site_fract_x
 _atom_site_fract_y
 _atom_site_fract_z
 _atom_site_occupancy
  Na  Na0  1  0.03845740  0.03845740  0.00000000  1
  Cr  Cr1  1  0.51488990  0.28506505  0.77017515  1
  Cr  Cr2  1  0.05524020  0.28506505  0.22982485  1
  Cr  Cr3  1  0.28506505  0.05524020  0.22982485  1
  Cr  Cr4  1  0.28506505  0.51488990  0.77017515  1
  Cr  Cr5  1  0.48557627  0.71598773  0.23041146  1
  Cr  Cr6  1  0.94639920  0.71598773  0.76958854  1
  Cr  Cr7  1  0.71598773  0.94639920  0.76958854  1
  Cr  Cr8  1  0.71598773  0.48557627  0.23041146  1
  Cr  Cr9  1  0.82500288  0.49980948  0.67480660  1
  Cr  Cr10  1  0.17461607  0.49980948  0.32519340  1
  Cr  Cr11  1  0.49980948  0.17461607  0.32519340  1
  Cr  Cr12  1  0.49980948  0.82500288  0.67480660  1
  Si  Si13  1  0.32913555  0.32913555  0.56445043  1
  Si  Si14  1  0.89358598  0.89358598  0.43554957  1
  Si  Si15  1  0.32913555  0.89358598  -0.00000000  1
  Si  Si16  1  0.89358598  0.32913555  0.00000000  1
  Si  Si17  1  0.67193232  0.67193232  0.43349903  1
  Si  Si18  1  0.10543135  0.10543135  0.56650097  1
  Si  Si19  1  0.67193232  0.10543135  -0.00000000  1
  Si  Si20  1  0.10543135  0.67193232  -0.00000000  1
  Br  Br21  1  0.47575002  0.47575002  0.00000000  1
  O  O22  1  0.34388977  0.34388977  0.71631856  1
  O  O23  1  0.06020832  0.06020832  0.28368144  1
  O  O24  1  0.34388977  0.06020832  0.00000000  1
  O  O25  1  0.06020832  0.34388977  0.00000000  1
  O  O26  1  0.65401346  0.65401346  0.28521527  1
  O  O27  1  0.93922873  0.93922873  0.71478473  1
  O  O28  1  0.65401346  0.93922873  -0.00000000  1
  O  O29  1  0.93922873  0.65401346  0.00000000  1
  O  O30  1  0.69738308  0.51162860  0.55664829  1
  O  O31  1  0.06827689  0.25403136  0.44335171  1
  O  O32  1  0.69738308  0.25403136  0.81424553  1
  O  O33  1  0.06827689  0.51162860  0.18575447  1
  O  O34  1  0.51162860  0.06827689  0.18575447  1
  O  O35  1  0.25403136  0.69738308  0.81424553  1
  O  O36  1  0.51162860  0.69738308  0.55664829  1
  O  O37  1  0.25403136  0.06827689  0.44335171  1
  O  O38  1  0.30330222  0.48914860  0.44206270  1
  O  O39  1  0.93121131  0.74536493  0.55793730  1
  O  O40  1  0.30330222  0.74536493  0.18584638  1
  O  O41  1  0.93121131  0.48914860  0.81415362  1
  O  O42  1  0.48914860  0.93121131  0.81415362  1
  O  O43  1  0.74536493  0.30330222  0.18584638  1
  O  O44  1  0.48914860  0.30330222  0.44206270  1
  O  O45  1  0.74536493  0.93121131  0.55793730  1
  O  O46  1  0.16339348  0.16339348  0.67386232  1
  O  O47  1  0.83725579  0.83725579  0.32613768  1
  O  O48  1  0.16339348  0.83725579  0.00000000  1
  O  O49  1  0.83725579  0.16339348  0.00000000  1
