# generated using pymatgen
data_NaCoP2HO7
_symmetry_space_group_name_H-M   'P 1'
_cell_length_a   6.59194874
_cell_length_b   6.60498918
_cell_length_c   6.75870380
_cell_angle_alpha   84.61879469
_cell_angle_beta   67.07779438
_cell_angle_gamma   88.23915717
_symmetry_Int_Tables_number   1
_chemical_formula_structural   NaCoP2HO7
_chemical_formula_sum   'Na2 Co2 P4 H2 O14'
_cell_volume   269.83501988
_cell_formula_units_Z   2
loop_
 _symmetry_equiv_pos_site_id
 _symmetry_equiv_pos_as_xyz
  1  'x, y, z'
loop_
 _atom_site_type_symbol
 _atom_site_label
 _atom_site_symmetry_multiplicity
 _atom_site_fract_x
 _atom_site_fract_y
 _atom_site_fract_z
 _atom_site_occupancy
  Na  Na0  1  0.22890864  0.61494089  0.25446599  1
  Na  Na1  1  0.69187681  0.34128284  0.76456637  1
  Co  Co2  1  0.28404800  0.14848992  0.61709179  1
  Co  Co3  1  0.71058850  0.85101314  0.38240320  1
  P  P4  1  0.15958262  0.11775742  0.13819971  1
  P  P5  1  0.84031084  0.88091774  0.86249678  1
  P  P6  1  0.26329149  0.64336079  0.71666421  1
  P  P7  1  0.73682980  0.35623095  0.28197217  1
  H  H8  1  0.42782905  0.28131481  0.20117117  1
  H  H9  1  0.57530488  0.71797800  0.80182298  1
  O  O10  1  0.26913417  0.20556847  0.28356329  1
  O  O11  1  0.72817189  0.79526094  0.71807559  1
  O  O12  1  0.38267553  0.59267318  0.86926359  1
  O  O13  1  0.61442541  0.40111008  0.13129985  1
  O  O14  1  0.36848765  0.82970717  0.55379146  1
  O  O15  1  0.63109109  0.17380898  0.45062905  1
  O  O16  1  0.32778872  0.11520078  0.90922975  1
  O  O17  1  0.67465993  0.88816884  0.09088850  1
  O  O18  1  0.23189998  0.46524748  0.60296343  1
  O  O19  1  0.77416745  0.53629987  0.39020886  1
  O  O20  1  0.01933954  0.71297259  0.87150420  1
  O  O21  1  0.98090704  0.28585952  0.12785269  1
  O  O22  1  0.04067261  0.92111520  0.25253205  1
  O  O23  1  0.95700835  0.07852039  0.74634331  1
