# generated using pymatgen
data_Na4Si2PbSe6
_symmetry_space_group_name_H-M   'P 1'
_cell_length_a   7.13254891
_cell_length_b   7.13254891
_cell_length_c   8.03462424
_cell_angle_alpha   98.57908798
_cell_angle_beta   98.57908798
_cell_angle_gamma   119.88711861
_symmetry_Int_Tables_number   1
_chemical_formula_structural   Na4Si2PbSe6
_chemical_formula_sum   'Na4 Si2 Pb1 Se6'
_cell_volume   338.30396506
_cell_formula_units_Z   1
loop_
 _symmetry_equiv_pos_site_id
 _symmetry_equiv_pos_as_xyz
  1  'x, y, z'
loop_
 _atom_site_type_symbol
 _atom_site_label
 _atom_site_symmetry_multiplicity
 _atom_site_fract_x
 _atom_site_fract_y
 _atom_site_fract_z
 _atom_site_occupancy
  Na  Na0  1  0.49985327  0.50014673  0.00000000  1
  Na  Na1  1  0.82505171  0.17494829  -0.00000000  1
  Na  Na2  1  0.17511855  0.82488145  0.00000000  1
  Na  Na3  1  0.66488001  0.33511999  0.50000000  1
  Si  Si4  1  0.04989010  0.04988355  0.65342731  1
  Si  Si5  1  0.95011645  0.95010990  0.34657269  1
  Pb  Pb6  1  0.33528922  0.66471078  0.50000000  1
  Se  Se7  1  0.77531714  0.77500509  0.74628783  1
  Se  Se8  1  0.22499491  0.22468286  0.25371217  1
  Se  Se9  1  0.08112765  0.38878670  0.74629516  1
  Se  Se10  1  0.38911495  0.08196725  0.74663164  1
  Se  Se11  1  0.91803275  0.61088505  0.25336836  1
  Se  Se12  1  0.61121330  0.91887235  0.25370484  1
