# generated using pymatgen
data_LiNb(PO3)4
_symmetry_space_group_name_H-M   'P 1'
_cell_length_a   7.15651771
_cell_length_b   8.71895301
_cell_length_c   9.03964286
_cell_angle_alpha   115.41959022
_cell_angle_beta   113.31842224
_cell_angle_gamma   65.77002783
_symmetry_Int_Tables_number   1
_chemical_formula_structural   LiNb(PO3)4
_chemical_formula_sum   'Li2 Nb2 P8 O24'
_cell_volume   447.73447390
_cell_formula_units_Z   2
loop_
 _symmetry_equiv_pos_site_id
 _symmetry_equiv_pos_as_xyz
  1  'x, y, z'
loop_
 _atom_site_type_symbol
 _atom_site_label
 _atom_site_symmetry_multiplicity
 _atom_site_fract_x
 _atom_site_fract_y
 _atom_site_fract_z
 _atom_site_occupancy
  Li  Li0  1  0.30324608  0.75000000  0.75000000  1
  Li  Li1  1  0.69675392  0.25000000  0.25000000  1
  Nb  Nb2  1  0.82944621  0.75000000  0.75000000  1
  Nb  Nb3  1  0.17055379  0.25000000  0.25000000  1
  P  P4  1  0.99365573  0.89752121  0.18814837  1
  P  P5  1  0.57855929  0.85133449  0.11918550  1
  P  P6  1  0.31070828  0.64866551  0.38081350  1
  P  P7  1  0.70302757  0.60247879  0.31185163  1
  P  P8  1  0.29697243  0.39752121  0.68814837  1
  P  P9  1  0.68929172  0.35133449  0.61918650  1
  P  P10  1  0.42144071  0.14866551  0.88081350  1
  P  P11  1  0.00634427  0.10247879  0.81185163  1
  O  O12  1  0.39726823  0.97713177  0.19666235  1
  O  O13  1  0.77933349  0.92886598  0.23057456  1
  O  O14  1  0.00888083  0.76130831  0.01928843  1
  O  O15  1  0.17224193  0.83409760  0.34132518  1
  O  O16  1  0.01205886  0.91547455  0.77929281  1
  O  O17  1  0.66501434  0.66590240  0.15867482  1
  O  O18  1  0.75090072  0.73869169  0.48071157  1
  O  O19  1  0.41584790  0.70029987  0.56714752  1
  O  O20  1  0.54900025  0.79970013  0.93285248  1
  O  O21  1  0.47762391  0.57113402  0.26942544  1
  O  O22  1  0.17773764  0.52286823  0.30333765  1
  O  O23  1  0.14824061  0.58452545  0.72070719  1
  O  O24  1  0.85175939  0.41547455  0.27929281  1
  O  O25  1  0.82226236  0.47713177  0.69666235  1
  O  O26  1  0.52237609  0.42886598  0.73057456  1
  O  O27  1  0.45099975  0.20029987  0.06714752  1
  O  O28  1  0.58415210  0.29970013  0.43285248  1
  O  O29  1  0.24909928  0.26130831  0.51928843  1
  O  O30  1  0.33498566  0.33409760  0.84132518  1
  O  O31  1  0.98794114  0.08452545  0.22070719  1
  O  O32  1  0.82775807  0.16590240  0.65867482  1
  O  O33  1  0.99111917  0.23869169  0.98071157  1
  O  O34  1  0.22066651  0.07113402  0.76942544  1
  O  O35  1  0.60273177  0.02286823  0.80333765  1
