# generated using pymatgen
data_NaTh2(PO4)3
_symmetry_space_group_name_H-M   'P 1'
_cell_length_a   6.85194193
_cell_length_b   8.25395149
_cell_length_c   9.43267343
_cell_angle_alpha   100.68576026
_cell_angle_beta   68.70299101
_cell_angle_gamma   90.00000000
_symmetry_Int_Tables_number   1
_chemical_formula_structural   NaTh2(PO4)3
_chemical_formula_sum   'Na2 Th4 P6 O24'
_cell_volume   487.09751407
_cell_formula_units_Z   2
loop_
 _symmetry_equiv_pos_site_id
 _symmetry_equiv_pos_as_xyz
  1  'x, y, z'
loop_
 _atom_site_type_symbol
 _atom_site_label
 _atom_site_symmetry_multiplicity
 _atom_site_fract_x
 _atom_site_fract_y
 _atom_site_fract_z
 _atom_site_occupancy
  Na  Na0  1  0.58953311  0.86960337  0.01992324  1
  Na  Na1  1  0.39054365  0.36960337  0.01992324  1
  Th  Th2  1  0.24353731  0.46933516  0.68852301  1
  Th  Th3  1  0.06793967  0.96933516  0.68852301  1
  Th  Th4  1  0.75170537  0.54132499  0.30237676  1
  Th  Th5  1  0.94591787  0.04132499  0.30237676  1
  P  P6  1  0.60522893  0.81806089  0.61998800  1
  P  P7  1  0.77478307  0.31806089  0.61998800  1
  P  P8  1  0.10057686  0.74775476  -0.00026955  1
  P  P9  1  0.89969268  0.24775476  -0.00026955  1
  P  P10  1  0.40319839  0.19370976  0.37271836  1
  P  P11  1  0.22408325  0.69370976  0.37271836  1
  O  O12  1  0.22199819  0.57683352  0.95598992  1
  O  O13  1  0.82201189  0.07683352  0.95598992  1
  O  O14  1  0.28239832  0.17451530  0.54385639  1
  O  O15  1  0.17374529  0.67451530  0.54385639  1
  O  O16  1  0.73832064  0.83235609  0.44841559  1
  O  O17  1  0.81326377  0.33235609  0.44841559  1
  O  O18  1  0.60941425  0.08474356  0.29522621  1
  O  O19  1  0.09535954  0.58474356  0.29522621  1
  O  O20  1  0.44401028  0.38245008  0.39998132  1
  O  O21  1  0.15600840  0.88245008  0.39998132  1
  O  O22  1  0.40420444  0.93298582  0.68511167  1
  O  O23  1  0.91068389  0.43298582  0.68511167  1
  O  O24  1  0.26638633  0.16399895  0.27405390  1
  O  O25  1  0.45955977  0.66399895  0.27405390  1
  O  O26  1  0.21570044  0.89239384  0.05520270  1
  O  O27  1  0.72909687  0.39239384  0.05520270  1
  O  O28  1  0.88414174  0.76029651  0.13790652  1
  O  O29  1  0.97795174  0.26029651  0.13790652  1
  O  O30  1  0.73242055  0.84589568  0.72579443  1
  O  O31  1  0.54178502  0.34589568  0.72579443  1
  O  O32  1  0.06291432  0.75913193  0.84832107  1
  O  O33  1  0.08876461  0.25913193  0.84832107  1
  O  O34  1  0.55109438  0.63190979  0.59268045  1
  O  O35  1  0.85622517  0.13190979  0.59268045  1
