# generated using pymatgen
data_Na2Mg5(MoO4)6
_symmetry_space_group_name_H-M   'P 1'
_cell_length_a   7.05431270
_cell_length_b   8.66996658
_cell_length_c   10.40028908
_cell_angle_alpha   106.73021815
_cell_angle_beta   104.63118257
_cell_angle_gamma   103.08363493
_symmetry_Int_Tables_number   1
_chemical_formula_structural   Na2Mg5(MoO4)6
_chemical_formula_sum   'Na2 Mg5 Mo6 O24'
_cell_volume   557.86194160
_cell_formula_units_Z   1
loop_
 _symmetry_equiv_pos_site_id
 _symmetry_equiv_pos_as_xyz
  1  'x, y, z'
loop_
 _atom_site_type_symbol
 _atom_site_label
 _atom_site_symmetry_multiplicity
 _atom_site_fract_x
 _atom_site_fract_y
 _atom_site_fract_z
 _atom_site_occupancy
  Na  Na0  1  0.00517564  0.50243099  0.00671521  1
  Na  Na1  1  0.28586023  0.29221886  0.30050888  1
  Mg  Mg2  1  0.38097387  0.95678119  0.10696326  1
  Mg  Mg3  1  0.62951989  0.04724204  0.89782777  1
  Mg  Mg4  1  0.95482313  0.79697212  0.48145933  1
  Mg  Mg5  1  0.03701299  0.19651689  0.51368832  1
  Mg  Mg6  1  0.72312474  0.72161243  0.69830793  1
  Mo  Mo7  1  0.40682585  0.74224829  0.37504017  1
  Mo  Mo8  1  0.59548292  0.27173791  0.63299078  1
  Mo  Mo9  1  0.88201108  0.90251748  0.16553248  1
  Mo  Mo10  1  0.11436908  0.08660337  0.83005244  1
  Mo  Mo11  1  0.78580695  0.33600627  0.23779959  1
  Mo  Mo12  1  0.22045382  0.66527662  0.76120644  1
  O  O13  1  0.24567044  0.81268254  0.46909243  1
  O  O14  1  0.75336235  0.19535174  0.53824870  1
  O  O15  1  0.66849370  0.96423737  0.07398515  1
  O  O16  1  0.33165857  0.02523538  0.91567083  1
  O  O17  1  0.82544600  0.68507520  0.07782193  1
  O  O18  1  0.15976691  0.30107479  0.92075044  1
  O  O19  1  0.11811169  0.00360052  0.14334709  1
  O  O20  1  0.86957571  0.97082191  0.84052217  1
  O  O21  1  0.44585790  0.85847122  0.26201103  1
  O  O22  1  0.58170379  0.16751895  0.75749518  1
  O  O23  1  0.26450094  0.52981995  0.25847407  1
  O  O24  1  0.71417835  0.50076333  0.72560063  1
  O  O25  1  0.79256094  0.29147940  0.05881318  1
  O  O26  1  0.22371282  0.70619420  0.94079755  1
  O  O27  1  0.83288411  0.55629795  0.32836874  1
  O  O28  1  0.15780753  0.44463847  0.67200469  1
  O  O29  1  0.91832929  0.94024791  0.35373495  1
  O  O30  1  0.07958764  0.05618416  0.64523767  1
  O  O31  1  0.97618488  0.26770548  0.33958490  1
  O  O32  1  0.01796954  0.73537938  0.66721364  1
  O  O33  1  0.64920481  0.74980920  0.50513989  1
  O  O34  1  0.34258198  0.23237707  0.51130314  1
  O  O35  1  0.53470068  0.21845176  0.22794242  1
  O  O36  1  0.47470924  0.76841767  0.75874700  1
