# generated using pymatgen
data_NaSmF4
_symmetry_space_group_name_H-M   'P 1'
_cell_length_a   6.13256586
_cell_length_b   7.13575082
_cell_length_c   7.13490141
_cell_angle_alpha   62.03732969
_cell_angle_beta   115.57290353
_cell_angle_gamma   115.51623793
_symmetry_Int_Tables_number   1
_chemical_formula_structural   NaSmF4
_chemical_formula_sum   'Na3 Sm3 F12'
_cell_volume   238.32193991
_cell_formula_units_Z   3
loop_
 _symmetry_equiv_pos_site_id
 _symmetry_equiv_pos_as_xyz
  1  'x, y, z'
loop_
 _atom_site_type_symbol
 _atom_site_label
 _atom_site_symmetry_multiplicity
 _atom_site_fract_x
 _atom_site_fract_y
 _atom_site_fract_z
 _atom_site_occupancy
  Na  Na0  1  0.68578438  0.84363460  0.50729599  1
  Na  Na1  1  0.64985229  0.32463214  0.98874593  1
  Na  Na2  1  0.33345741  0.08790051  0.57680177  1
  Sm  Sm3  1  0.00112032  0.00157115  0.00135784  1
  Sm  Sm4  1  0.00030862  0.49589858  0.50247180  1
  Sm  Sm5  1  0.33321763  0.58805066  0.07963210  1
  F  F6  1  0.59583846  0.96317711  0.99535681  1
  F  F7  1  0.59494007  0.50117607  0.45409062  1
  F  F8  1  0.04331857  0.80169223  0.83898706  1
  F  F9  1  0.04346906  0.34564265  0.29290271  1
  F  F10  1  0.35972169  0.68217457  0.72192147  1
  F  F11  1  0.35874153  0.22890909  0.17752960  1
  F  F12  1  0.99052178  0.87030301  0.37339455  1
  F  F13  1  0.96862136  0.37333132  0.87087038  1
  F  F14  1  0.75734331  0.11844566  0.62099210  1
  F  F15  1  0.75218197  0.61579080  0.11328770  1
  F  F16  1  0.27769931  0.76704739  0.26535947  1
  F  F17  1  0.25386224  0.25362247  0.75600210  1
