# generated using pymatgen
data_Na8CaMnSi12(HO8)4
_symmetry_space_group_name_H-M   'P 1'
_cell_length_a   9.15851882
_cell_length_b   10.35297231
_cell_length_c   15.91468446
_cell_angle_alpha   90.00000000
_cell_angle_beta   90.00931153
_cell_angle_gamma   90.00000000
_symmetry_Int_Tables_number   1
_chemical_formula_structural   Na8CaMnSi12(HO8)4
_chemical_formula_sum   'Na16 Ca2 Mn2 Si24 H8 O64'
_cell_volume   1508.99680770
_cell_formula_units_Z   2
loop_
 _symmetry_equiv_pos_site_id
 _symmetry_equiv_pos_as_xyz
  1  'x, y, z'
loop_
 _atom_site_type_symbol
 _atom_site_label
 _atom_site_symmetry_multiplicity
 _atom_site_fract_x
 _atom_site_fract_y
 _atom_site_fract_z
 _atom_site_occupancy
  Na  Na0  1  0.49989859  0.34806144  0.19202917  1
  Na  Na1  1  0.00010141  0.84806144  0.80797083  1
  Na  Na2  1  0.99976495  0.65266076  0.30618645  1
  Na  Na3  1  0.50023505  0.15266076  0.69381355  1
  Na  Na4  1  0.50010141  0.65193856  0.80797083  1
  Na  Na5  1  0.99989859  0.15193856  0.19202917  1
  Na  Na6  1  0.00023505  0.34733924  0.69381355  1
  Na  Na7  1  0.49976495  0.84733924  0.30618645  1
  Na  Na8  1  0.79700263  0.18081167  0.54442968  1
  Na  Na9  1  0.70299737  0.68081167  0.45557032  1
  Na  Na10  1  0.29456861  0.82008473  0.95690703  1
  Na  Na11  1  0.20543139  0.32008473  0.04309297  1
  Na  Na12  1  0.20299737  0.81918833  0.45557032  1
  Na  Na13  1  0.29700263  0.31918833  0.54442968  1
  Na  Na14  1  0.70543139  0.17991527  0.04309297  1
  Na  Na15  1  0.79456861  0.67991527  0.95690703  1
  Ca  Ca16  1  -0.00000000  0.50000000  0.50000000  1
  Ca  Ca17  1  0.50000000  -0.00000000  0.50000000  1
  Mn  Mn18  1  0.50000000  0.50000000  0.00000000  1
  Mn  Mn19  1  -0.00000000  -0.00000000  0.00000000  1
  Si  Si20  1  0.32643970  0.04666963  0.12447765  1
  Si  Si21  1  0.17356030  0.54666963  0.87552235  1
  Si  Si22  1  0.82940067  0.95136620  0.37225509  1
  Si  Si23  1  0.67059933  0.45136620  0.62774491  1
  Si  Si24  1  0.67356030  0.95333037  0.87552235  1
  Si  Si25  1  0.82643970  0.45333037  0.12447765  1
  Si  Si26  1  0.17059933  0.04863380  0.62774491  1
  Si  Si27  1  0.32940067  0.54863380  0.37225509  1
  Si  Si28  1  0.30167221  0.08369025  0.32003891  1
  Si  Si29  1  0.19832779  0.58369025  0.67996109  1
  Si  Si30  1  0.80504249  0.91573192  0.17709551  1
  Si  Si31  1  0.69495751  0.41573192  0.82290449  1
  Si  Si32  1  0.69832779  0.91630975  0.67996109  1
  Si  Si33  1  0.80167221  0.41630975  0.32003891  1
  Si  Si34  1  0.19495751  0.08426808  0.82290449  1
  Si  Si35  1  0.30504249  0.58426808  0.17709551  1
  Si  Si36  1  0.50695760  0.29843510  0.38716745  1
  Si  Si37  1  0.99304240  0.79843510  0.61283255  1
  Si  Si38  1  0.00795147  0.70320920  0.11174235  1
  Si  Si39  1  0.49204853  0.20320920  0.88825765  1
  Si  Si40  1  0.49304240  0.70156490  0.61283255  1
  Si  Si41  1  0.00695760  0.20156490  0.38716745  1
  Si  Si42  1  0.99204853  0.29679080  0.88825765  1
  Si  Si43  1  0.50795147  0.79679080  0.11174235  1
  H  H44  1  0.44485824  0.20690718  0.05411392  1
  H  H45  1  0.05514176  0.70690718  0.94588608  1
  H  H46  1  0.94497117  0.79501383  0.44531647  1
  H  H47  1  0.55502883  0.29501383  0.55468353  1
  H  H48  1  0.55514176  0.79309282  0.94588608  1
  H  H49  1  0.94485824  0.29309282  0.05411392  1
  H  H50  1  0.05502883  0.20498617  0.55468353  1
  H  H51  1  0.44497117  0.70498617  0.44531647  1
  O  O52  1  0.32121143  0.01643076  0.22660551  1
  O  O53  1  0.17878857  0.51643076  0.77339449  1
  O  O54  1  0.82386927  0.98513810  0.27015801  1
  O  O55  1  0.67613073  0.48513810  0.72984199  1
  O  O56  1  0.67878857  0.98356924  0.77339449  1
  O  O57  1  0.82121143  0.48356924  0.22660551  1
  O  O58  1  0.17613073  0.01486190  0.72984199  1
  O  O59  1  0.32386927  0.51486190  0.27015801  1
  O  O60  1  0.41420287  0.20851439  0.31997858  1
  O  O61  1  0.08579713  0.70851439  0.68002142  1
  O  O62  1  0.91555268  0.78977700  0.18072379  1
  O  O63  1  0.58444732  0.28977700  0.81927621  1
  O  O64  1  0.58579713  0.79148561  0.68002142  1
  O  O65  1  0.91420287  0.29148561  0.31997858  1
  O  O66  1  0.08444732  0.21022300  0.81927621  1
  O  O67  1  0.41555268  0.71022300  0.18072379  1
  O  O68  1  0.56221587  0.22283683  0.46889486  1
  O  O69  1  0.93778413  0.72283683  0.53110514  1
  O  O70  1  0.05972921  0.78294235  0.03061936  1
  O  O71  1  0.44027079  0.28294235  0.96938064  1
  O  O72  1  0.43778413  0.77716317  0.53110514  1
  O  O73  1  0.06221587  0.27716317  0.46889486  1
  O  O74  1  0.94027079  0.21705765  0.96938064  1
  O  O75  1  0.55972921  0.71705765  0.03061936  1
  O  O76  1  0.39685766  0.91434725  0.08083587  1
  O  O77  1  0.10314234  0.41434725  0.91916413  1
  O  O78  1  0.89558950  0.08409715  0.41756890  1
  O  O79  1  0.60441050  0.58409715  0.58243110  1
  O  O80  1  0.60314234  0.08565275  0.91916413  1
  O  O81  1  0.89685766  0.58565275  0.08083587  1
  O  O82  1  0.10441050  0.91590285  0.58243110  1
  O  O83  1  0.39558950  0.41590285  0.41756890  1
  O  O84  1  0.13366858  0.14152610  0.32427553  1
  O  O85  1  0.36633142  0.64152610  0.67572447  1
  O  O86  1  0.63608008  0.85970290  0.17265712  1
  O  O87  1  0.86391992  0.35970290  0.82734288  1
  O  O88  1  0.86633142  0.85847390  0.67572447  1
  O  O89  1  0.63366858  0.35847390  0.32427553  1
  O  O90  1  0.36391992  0.14029710  0.82734288  1
  O  O91  1  0.13608008  0.64029710  0.17265712  1
  O  O92  1  0.45046955  0.16400024  0.11233879  1
  O  O93  1  0.04953045  0.66400024  0.88766121  1
  O  O94  1  0.95471118  0.83598326  0.38648254  1
  O  O95  1  0.54528882  0.33598326  0.61351746  1
  O  O96  1  0.54953045  0.83599976  0.88766121  1
  O  O97  1  0.95046955  0.33599976  0.11233879  1
  O  O98  1  0.04528882  0.16401674  0.61351746  1
  O  O99  1  0.45471118  0.66401674  0.38648254  1
  O  O100  1  0.33770490  0.97876022  0.39013929  1
  O  O101  1  0.16229510  0.47876022  0.60986071  1
  O  O102  1  0.84586723  0.01721276  0.10503429  1
  O  O103  1  0.65413277  0.51721276  0.89496571  1
  O  O104  1  0.66229510  0.02123978  0.60986071  1
  O  O105  1  0.83770490  0.52123978  0.39013929  1
  O  O106  1  0.15413277  0.98278724  0.89496571  1
  O  O107  1  0.34586723  0.48278724  0.10503429  1
  O  O108  1  0.17151160  0.08753345  0.08637986  1
  O  O109  1  0.32848840  0.58753345  0.91362014  1
  O  O110  1  0.67550896  0.90683605  0.40904372  1
  O  O111  1  0.82449104  0.40683605  0.59095628  1
  O  O112  1  0.82848840  0.91246655  0.91362014  1
  O  O113  1  0.67151160  0.41246655  0.08637986  1
  O  O114  1  0.32449104  0.09316395  0.59095628  1
  O  O115  1  0.17550896  0.59316395  0.40904372  1
