# generated using pymatgen
data_MnZn3(CrSe2)8
_symmetry_space_group_name_H-M   'P 1'
_cell_length_a   7.51730203
_cell_length_b   7.51730202
_cell_length_c   13.01324685
_cell_angle_alpha   73.21191972
_cell_angle_beta   90.00000000
_cell_angle_gamma   119.99999997
_symmetry_Int_Tables_number   1
_chemical_formula_structural   MnZn3(CrSe2)8
_chemical_formula_sum   'Mn1 Zn3 Cr8 Se16'
_cell_volume   600.39132574
_cell_formula_units_Z   1
loop_
 _symmetry_equiv_pos_site_id
 _symmetry_equiv_pos_as_xyz
  1  'x, y, z'
loop_
 _atom_site_type_symbol
 _atom_site_label
 _atom_site_symmetry_multiplicity
 _atom_site_fract_x
 _atom_site_fract_y
 _atom_site_fract_z
 _atom_site_occupancy
  Mn  Mn0  1  0.93748150  0.37496300  0.18755550  1
  Zn  Zn1  1  0.43752262  0.37504524  0.68743213  1
  Zn  Zn2  1  0.56248890  0.62497780  0.31253330  1
  Zn  Zn3  1  0.06251082  0.62502164  0.81246754  1
  Cr  Cr4  1  0.24993679  0.99987358  0.25018963  1
  Cr  Cr5  1  0.75002663  0.00005326  0.74992010  1
  Cr  Cr6  1  0.50009643  0.50019286  0.99962710  1
  Cr  Cr7  1  0.00002678  0.50005356  0.50033440  1
  Cr  Cr8  1  0.50009643  0.00027647  0.99962710  1
  Cr  Cr9  1  0.00002678  0.99963882  0.50033440  1
  Cr  Cr10  1  0.00018004  0.00027647  0.99962710  1
  Cr  Cr11  1  0.49961204  0.99963882  0.50033440  1
  Se  Se12  1  0.86997937  0.23995874  0.39006188  1
  Se  Se13  1  0.36988310  0.23976621  0.89035069  1
  Se  Se14  1  0.14014459  0.78028917  0.11997188  1
  Se  Se15  1  0.64033196  0.78066392  0.61990044  1
  Se  Se16  1  0.14014459  0.23988353  0.11997188  1
  Se  Se17  1  0.64033196  0.23976761  0.61990044  1
  Se  Se18  1  0.59973894  0.23988353  0.11997188  1
  Se  Se19  1  0.09943565  0.23976761  0.61990044  1
  Se  Se20  1  0.63005975  0.76011949  0.10982076  1
  Se  Se21  1  0.13007114  0.76014228  0.60978658  1
  Se  Se22  1  0.35977878  0.21955757  0.38012536  1
  Se  Se23  1  0.85977981  0.21955962  0.88000145  1
  Se  Se24  1  0.35977878  0.76009586  0.38012536  1
  Se  Se25  1  0.85977981  0.76021874  0.88000145  1
  Se  Se26  1  0.90031708  0.76009586  0.38012536  1
  Se  Se27  1  0.40043893  0.76021874  0.88000145  1
