# generated using pymatgen
data_Na19Zr11S30
_symmetry_space_group_name_H-M   'P 1'
_cell_length_a   11.10395172
_cell_length_b   11.71713487
_cell_length_c   11.49524709
_cell_angle_alpha   60.62447957
_cell_angle_beta   90.00000000
_cell_angle_gamma   100.66582788
_symmetry_Int_Tables_number   1
_chemical_formula_structural   Na19Zr11S30
_chemical_formula_sum   'Na19 Zr11 S30'
_cell_volume   1273.57188069
_cell_formula_units_Z   1
loop_
 _symmetry_equiv_pos_site_id
 _symmetry_equiv_pos_as_xyz
  1  'x, y, z'
loop_
 _atom_site_type_symbol
 _atom_site_label
 _atom_site_symmetry_multiplicity
 _atom_site_fract_x
 _atom_site_fract_y
 _atom_site_fract_z
 _atom_site_occupancy
  Na  Na0  1  0.69736609  0.79763710  0.26143011  1
  Na  Na1  1  0.89965863  0.60054660  0.85983903  1
  Na  Na2  1  0.50000000  0.00000000  0.65885619  1
  Na  Na3  1  0.10034137  0.39945340  0.46038564  1
  Na  Na4  1  0.30263391  0.20236290  0.05906721  1
  Na  Na5  1  0.89965863  0.60054660  0.53961436  1
  Na  Na6  1  0.10034137  0.39945340  0.14016097  1
  Na  Na7  1  0.69736609  0.79763710  0.94093279  1
  Na  Na8  1  0.30263391  0.20236290  0.73856989  1
  Na  Na9  1  0.50000000  0.00000000  0.34114381  1
  Na  Na10  1  0.69976725  0.79997299  0.60001351  1
  Na  Na11  1  0.89895903  0.59665420  0.20167290  1
  Na  Na12  1  0.50000000  0.00000000  -0.00000000  1
  Na  Na13  1  0.10104097  0.40334580  0.79832710  1
  Na  Na14  1  0.30023275  0.20002701  0.39998649  1
  Na  Na15  1  0.60019941  0.40028355  0.79985823  1
  Na  Na16  1  0.20058927  0.80029296  0.59985352  1
  Na  Na17  1  0.79941073  0.19970704  0.40014648  1
  Na  Na18  1  0.39980059  0.59971645  0.20014177  1
  Zr  Zr19  1  -0.00000000  0.00000000  0.33724439  1
  Zr  Zr20  1  0.19977694  0.79998398  0.93169901  1
  Zr  Zr21  1  0.80022306  0.20001602  0.73168298  1
  Zr  Zr22  1  0.39881003  0.60144879  0.53009321  1
  Zr  Zr23  1  0.60118997  0.39855121  0.13154200  1
  Zr  Zr24  1  0.19977694  0.79998398  0.26831702  1
  Zr  Zr25  1  0.39881003  0.60144879  0.86845800  1
  Zr  Zr26  1  -0.00000000  0.00000000  0.66275561  1
  Zr  Zr27  1  0.60118997  0.39855121  0.46990679  1
  Zr  Zr28  1  0.80022306  0.20001602  0.06830099  1
  Zr  Zr29  1  -0.00000000  0.00000000  -0.00000000  1
  S  S30  1  0.83392047  0.39018920  0.48581856  1
  S  S31  1  0.03545841  0.18337396  0.07571375  1
  S  S32  1  0.63097087  0.59034660  0.88522134  1
  S  S33  1  0.23070610  0.99109279  0.68494951  1
  S  S34  1  0.43080180  0.79298567  0.28172456  1
  S  S35  1  0.63097087  0.59034660  0.52443206  1
  S  S36  1  0.83392047  0.39018920  0.12399224  1
  S  S37  1  0.43080180  0.79298567  0.92528977  1
  S  S38  1  0.03545841  0.18337396  0.74091229  1
  S  S39  1  0.23070610  0.99109279  0.32395770  1
  S  S40  1  0.76929390  0.00890721  0.31505049  1
  S  S41  1  0.96454159  0.81662604  0.92428625  1
  S  S42  1  0.56919820  0.20701433  0.71827544  1
  S  S43  1  0.16607953  0.60981080  0.51418144  1
  S  S44  1  0.36902913  0.40965340  0.11477866  1
  S  S45  1  0.96454159  0.81662604  0.25908771  1
  S  S46  1  0.16607953  0.60981080  0.87600776  1
  S  S47  1  0.76929390  0.00890721  0.67604230  1
  S  S48  1  0.36902913  0.40965340  0.47556794  1
  S  S49  1  0.56919820  0.20701433  0.07471023  1
  S  S50  1  0.15221014  0.62654076  0.18672962  1
  S  S51  1  0.35281291  0.42738049  0.78630975  1
  S  S52  1  0.95301664  0.82154706  0.58922647  1
  S  S53  1  0.55293209  0.22508372  0.38745814  1
  S  S54  1  0.76365160  0.01655628  0.99172186  1
  S  S55  1  0.44706791  0.77491628  0.61254186  1
  S  S56  1  0.64718709  0.57261951  0.21369025  1
  S  S57  1  0.23634840  0.98344372  0.00827814  1
  S  S58  1  0.84778986  0.37345924  0.81327038  1
  S  S59  1  0.04698336  0.17845294  0.41077353  1
