# generated using pymatgen
data_MnCr8Cu3S16
_symmetry_space_group_name_H-M   'P 1'
_cell_length_a   7.02357974
_cell_length_b   7.02357974
_cell_length_c   12.12553452
_cell_angle_alpha   73.16482938
_cell_angle_beta   90.00000000
_cell_angle_gamma   120.00000000
_symmetry_Int_Tables_number   1
_chemical_formula_structural   MnCr8Cu3S16
_chemical_formula_sum   'Mn1 Cr8 Cu3 S16'
_cell_volume   488.19616394
_cell_formula_units_Z   1
loop_
 _symmetry_equiv_pos_site_id
 _symmetry_equiv_pos_as_xyz
  1  'x, y, z'
loop_
 _atom_site_type_symbol
 _atom_site_label
 _atom_site_symmetry_multiplicity
 _atom_site_fract_x
 _atom_site_fract_y
 _atom_site_fract_z
 _atom_site_occupancy
  Mn  Mn0  1  0.93750613  0.37501227  0.18748160  1
  Cr  Cr1  1  0.24820013  0.99640025  0.25539962  1
  Cr  Cr2  1  0.75039603  0.00079206  0.74881192  1
  Cr  Cr3  1  0.50333645  0.50667290  0.99688859  1
  Cr  Cr4  1  0.00114418  0.50228836  0.50171931  1
  Cr  Cr5  1  0.50333645  0.99977497  0.99688859  1
  Cr  Cr6  1  0.00114418  0.99713651  0.50171931  1
  Cr  Cr7  1  0.99643852  0.99977497  0.99688859  1
  Cr  Cr8  1  0.49599233  0.99713651  0.50171931  1
  Cu  Cu9  1  0.43759976  0.37519951  0.68720073  1
  Cu  Cu10  1  0.56243265  0.62486529  0.31270206  1
  Cu  Cu11  1  0.06245394  0.62490787  0.81263819  1
  S  S12  1  0.87012034  0.24024067  0.38963899  1
  S  S13  1  0.37071604  0.24143209  0.88785187  1
  S  S14  1  0.13964394  0.77928788  0.12020444  1
  S  S15  1  0.63728290  0.77456579  0.62065882  1
  S  S16  1  0.13964394  0.24015162  0.12020444  1
  S  S17  1  0.63728290  0.24205828  0.62065882  1
  S  S18  1  0.60050768  0.24015162  0.12020444  1
  S  S19  1  0.10477539  0.24205828  0.62065882  1
  S  S20  1  0.62923578  0.75847156  0.11229265  1
  S  S21  1  0.12892236  0.75784471  0.61323293  1
  S  S22  1  0.36284642  0.22569284  0.37952461  1
  S  S23  1  0.86309513  0.22619025  0.87858739  1
  S  S24  1  0.36284642  0.75762897  0.37952461  1
  S  S25  1  0.86309513  0.75831748  0.87858739  1
  S  S26  1  0.89478255  0.75762897  0.37952461  1
  S  S27  1  0.39522236  0.75831748  0.87858739  1
