# generated using pymatgen
data_Na2(TaS2)3
_symmetry_space_group_name_H-M   'P 1'
_cell_length_a   5.84773066
_cell_length_b   5.84761690
_cell_length_c   14.90142791
_cell_angle_alpha   78.68645873
_cell_angle_beta   90.00000000
_cell_angle_gamma   120.00064352
_symmetry_Int_Tables_number   1
_chemical_formula_structural   Na2(TaS2)3
_chemical_formula_sum   'Na4 Ta6 S12'
_cell_volume   429.81640526
_cell_formula_units_Z   2
loop_
 _symmetry_equiv_pos_site_id
 _symmetry_equiv_pos_as_xyz
  1  'x, y, z'
loop_
 _atom_site_type_symbol
 _atom_site_label
 _atom_site_symmetry_multiplicity
 _atom_site_fract_x
 _atom_site_fract_y
 _atom_site_fract_z
 _atom_site_occupancy
  Na  Na0  1  0.58316212  0.49969716  0.25047048  1
  Na  Na1  1  0.24982042  0.83302907  0.25046558  1
  Na  Na2  1  0.08345735  0.50030393  0.74953442  1
  Na  Na3  1  0.75013196  0.83363584  0.74952952  1
  Ta  Ta4  1  0.99994280  0.33307957  0.00029721  1
  Ta  Ta5  1  0.33352923  0.00025343  0.99970279  1
  Ta  Ta6  1  0.66658511  0.66666700  -0.00000000  1
  Ta  Ta7  1  0.83308398  0.33314497  0.50000734  1
  Ta  Ta8  1  0.50021284  0.66666700  0.50000000  1
  Ta  Ta9  1  0.16660500  0.00018803  0.49999266  1
  S  S10  1  0.29584839  0.59333223  0.10732133  1
  S  S11  1  0.63223410  0.26147032  0.10731648  1
  S  S12  1  0.96411057  0.92970435  0.10730951  1
  S  S13  1  0.03742978  0.07186268  0.89268352  1
  S  S14  1  0.36918315  0.74000177  0.89267867  1
  S  S15  1  0.70107322  0.40362865  0.89269049  1
  S  S16  1  0.20150167  0.40396642  0.39281504  1
  S  S17  1  0.53699272  0.07179375  0.39280559  1
  S  S18  1  0.86917540  0.73945542  0.39280632  1
  S  S19  1  0.13186597  0.26153925  0.60719441  1
  S  S20  1  0.46420125  0.92936658  0.60718496  1
  S  S21  1  0.79638698  0.59387858  0.60719368  1
