# generated using pymatgen
data_MnCr4CdSe8
_symmetry_space_group_name_H-M   'P 1'
_cell_length_a   7.62869131
_cell_length_b   7.62869131
_cell_length_c   7.62869131
_cell_angle_alpha   90.00000000
_cell_angle_beta   60.00000000
_cell_angle_gamma   120.00000000
_symmetry_Int_Tables_number   1
_chemical_formula_structural   MnCr4CdSe8
_chemical_formula_sum   'Mn1 Cr4 Cd1 Se8'
_cell_volume   313.93166857
_cell_formula_units_Z   1
loop_
 _symmetry_equiv_pos_site_id
 _symmetry_equiv_pos_as_xyz
  1  'x, y, z'
loop_
 _atom_site_type_symbol
 _atom_site_label
 _atom_site_symmetry_multiplicity
 _atom_site_fract_x
 _atom_site_fract_y
 _atom_site_fract_z
 _atom_site_occupancy
  Mn  Mn0  1  0.25000000  0.62500000  0.62500000  1
  Cr  Cr1  1  0.50041480  0.50062220  0.99979260  1
  Cr  Cr2  1  0.50041480  0.99979260  0.99979260  1
  Cr  Cr3  1  0.99958520  0.99979260  0.50062220  1
  Cr  Cr4  1  0.99958520  0.99979260  0.99979260  1
  Cd  Cd5  1  0.75000000  0.37500000  0.37500000  1
  Se  Se6  1  0.03102180  0.79653270  0.23448910  1
  Se  Se7  1  0.03102180  0.23448910  0.23448910  1
  Se  Se8  1  0.46897820  0.23448910  0.79653270  1
  Se  Se9  1  0.46897820  0.23448910  0.23448910  1
  Se  Se10  1  0.97794852  0.21692279  0.76102574  1
  Se  Se11  1  0.97794852  0.76102574  0.76102574  1
  Se  Se12  1  0.52205148  0.76102574  0.21692279  1
  Se  Se13  1  0.52205148  0.76102574  0.76102574  1
