# generated using pymatgen
data_Li2TiP3O10
_symmetry_space_group_name_H-M   'P 1'
_cell_length_a   12.26151788
_cell_length_b   8.05610113
_cell_length_c   9.98282324
_cell_angle_alpha   90.00000000
_cell_angle_beta   98.04297117
_cell_angle_gamma   90.00000000
_symmetry_Int_Tables_number   1
_chemical_formula_structural   Li2TiP3O10
_chemical_formula_sum   'Li8 Ti4 P12 O40'
_cell_volume   976.40366502
_cell_formula_units_Z   4
loop_
 _symmetry_equiv_pos_site_id
 _symmetry_equiv_pos_as_xyz
  1  'x, y, z'
loop_
 _atom_site_type_symbol
 _atom_site_label
 _atom_site_symmetry_multiplicity
 _atom_site_fract_x
 _atom_site_fract_y
 _atom_site_fract_z
 _atom_site_occupancy
  Li  Li0  1  0.14960661  0.45207019  0.38116124  1
  Li  Li1  1  0.14960661  0.04792981  0.88116124  1
  Li  Li2  1  0.43890167  0.11230413  0.91160074  1
  Li  Li3  1  0.43890167  0.38769587  0.41160074  1
  Li  Li4  1  0.56109833  0.61230413  0.58839926  1
  Li  Li5  1  0.56109833  0.88769587  0.08839926  1
  Li  Li6  1  0.85039339  0.95207019  0.11883876  1
  Li  Li7  1  0.85039339  0.54792981  0.61883876  1
  Ti  Ti8  1  0.16944786  0.85755259  0.63147861  1
  Ti  Ti9  1  0.16944786  0.64244741  0.13147861  1
  Ti  Ti10  1  0.83055214  0.35755259  0.86852139  1
  Ti  Ti11  1  0.83055214  0.14244741  0.36852139  1
  P  P12  1  0.06079782  0.57471111  0.80628933  1
  P  P13  1  0.06079782  0.92528889  0.30628933  1
  P  P14  1  0.26971559  0.42760897  0.91342189  1
  P  P15  1  0.26971559  0.07239103  0.41342189  1
  P  P16  1  0.33128116  0.78643468  0.93276836  1
  P  P17  1  0.33128116  0.71356532  0.43276836  1
  P  P18  1  0.66871884  0.28643468  0.56723164  1
  P  P19  1  0.66871884  0.21356532  0.06723164  1
  P  P20  1  0.73028441  0.92760897  0.58657811  1
  P  P21  1  0.73028441  0.57239103  0.08657811  1
  P  P22  1  0.93920218  0.07471111  0.69371067  1
  P  P23  1  0.93920218  0.42528889  0.19371067  1
  O  O24  1  0.08403233  0.67025172  0.93797905  1
  O  O25  1  0.05521857  0.00116568  0.71820565  1
  O  O26  1  0.07785720  0.66692221  0.67682269  1
  O  O27  1  0.08403233  0.82974828  0.43797905  1
  O  O28  1  0.05521857  0.49883432  0.21820565  1
  O  O29  1  0.07785720  0.83307779  0.17682269  1
  O  O30  1  0.15128118  0.42328405  0.81530380  1
  O  O31  1  0.15128118  0.07671595  0.31530380  1
  O  O32  1  0.24974544  0.88536373  0.82986869  1
  O  O33  1  0.24575691  0.05770155  0.55873917  1
  O  O34  1  0.29169287  0.72181274  0.57188907  1
  O  O35  1  0.24974544  0.61463627  0.32986869  1
  O  O36  1  0.24575691  0.44229845  0.05873917  1
  O  O37  1  0.29169287  0.77818726  0.07188907  1
  O  O38  1  0.33094622  0.59469345  0.87399001  1
  O  O39  1  0.32979584  0.27766438  0.87656285  1
  O  O40  1  0.33094622  0.90530655  0.37399001  1
  O  O41  1  0.32979584  0.22233562  0.37656285  1
  O  O42  1  0.44570583  0.85725197  0.93913778  1
  O  O43  1  0.44570583  0.64274803  0.43913778  1
  O  O44  1  0.55429417  0.35725197  0.56086222  1
  O  O45  1  0.55429417  0.14274803  0.06086222  1
  O  O46  1  0.67020416  0.77766438  0.62343715  1
  O  O47  1  0.66905378  0.09469345  0.62600999  1
  O  O48  1  0.67020416  0.72233562  0.12343715  1
  O  O49  1  0.66905378  0.40530655  0.12600999  1
  O  O50  1  0.70830713  0.22181274  0.92811093  1
  O  O51  1  0.75424309  0.55770155  0.94126083  1
  O  O52  1  0.75025456  0.38536373  0.67013131  1
  O  O53  1  0.70830713  0.27818726  0.42811093  1
  O  O54  1  0.75424309  0.94229845  0.44126083  1
  O  O55  1  0.75025456  0.11463627  0.17013131  1
  O  O56  1  0.84871882  0.92328405  0.68469620  1
  O  O57  1  0.84871882  0.57671595  0.18469620  1
  O  O58  1  0.92214280  0.16692221  0.82317731  1
  O  O59  1  0.94478143  0.50116568  0.78179435  1
  O  O60  1  0.91596767  0.17025172  0.56202095  1
  O  O61  1  0.92214280  0.33307879  0.32317731  1
  O  O62  1  0.94478143  0.99883432  0.28179435  1
  O  O63  1  0.91596767  0.32974828  0.06202095  1
