# generated using pymatgen
data_Li2GeTeO6
_symmetry_space_group_name_H-M   'P 1'
_cell_length_a   5.08042201
_cell_length_b   5.08042282
_cell_length_c   5.69151056
_cell_angle_alpha   90.00000000
_cell_angle_beta   63.49244622
_cell_angle_gamma   119.99999890
_symmetry_Int_Tables_number   1
_chemical_formula_structural   Li2GeTeO6
_chemical_formula_sum   'Li2 Ge1 Te1 O6'
_cell_volume   109.02473412
_cell_formula_units_Z   1
loop_
 _symmetry_equiv_pos_site_id
 _symmetry_equiv_pos_as_xyz
  1  'x, y, z'
loop_
 _atom_site_type_symbol
 _atom_site_label
 _atom_site_symmetry_multiplicity
 _atom_site_fract_x
 _atom_site_fract_y
 _atom_site_fract_z
 _atom_site_occupancy
  Li  Li0  1  0.26642512  0.13321256  0.60036231  1
  Li  Li1  1  0.73691713  0.86845857  0.39462430  1
  Ge  Ge2  1  0.32016926  0.66008463  0.01974611  1
  Te  Te3  1  0.68032153  0.34016076  0.97951771  1
  O  O4  1  0.77527436  0.71535421  0.77562669  1
  O  O5  1  0.16445315  0.44909894  0.77562669  1
  O  O6  1  0.50901910  0.05992016  0.77562669  1
  O  O7  1  0.22811176  0.29498319  0.22218983  1
  O  O8  1  0.84468160  0.54969841  0.22218983  1
  O  O9  1  0.48282698  0.93312857  0.22218983  1
