# generated using pymatgen
data_LiMgH14Cl3O7
_symmetry_space_group_name_H-M   'P 1'
_cell_length_a   6.89430491
_cell_length_b   6.68959140
_cell_length_c   6.67614668
_cell_angle_alpha   88.15881317
_cell_angle_beta   88.17407249
_cell_angle_gamma   88.15603385
_symmetry_Int_Tables_number   1
_chemical_formula_structural   LiMgH14Cl3O7
_chemical_formula_sum   'Li1 Mg1 H14 Cl3 O7'
_cell_volume   307.43960310
_cell_formula_units_Z   1
loop_
 _symmetry_equiv_pos_site_id
 _symmetry_equiv_pos_as_xyz
  1  'x, y, z'
loop_
 _atom_site_type_symbol
 _atom_site_label
 _atom_site_symmetry_multiplicity
 _atom_site_fract_x
 _atom_site_fract_y
 _atom_site_fract_z
 _atom_site_occupancy
  Li  Li0  1  0.43584616  0.43836484  0.43858757  1
  Mg  Mg1  1  0.84680915  0.84602860  0.84654808  1
  H  H2  1  0.76234279  0.06628617  0.50392459  1
  H  H3  1  0.05939713  0.50478574  0.76301889  1
  H  H4  1  0.50956062  0.76579401  0.06250174  1
  H  H5  1  0.17898382  0.07760073  0.77375136  1
  H  H6  1  0.07362442  0.77025736  0.18258214  1
  H  H7  1  0.77369196  0.18633537  0.08024181  1
  H  H8  1  0.61670774  0.88803608  0.51268286  1
  H  H9  1  0.88689951  0.50994340  0.61103847  1
  H  H10  1  0.51546103  0.61410062  0.88608647  1
  H  H11  1  0.19197747  0.88243685  0.64709171  1
  H  H12  1  0.88578127  0.64082683  0.19872530  1
  H  H13  1  0.64848903  0.19584727  0.88608005  1
  H  H14  1  0.29505873  0.29126448  0.12718298  1
  H  H15  1  0.28429723  0.12779485  0.30069506  1
  Cl  Cl16  1  0.35287920  0.78961960  0.36168717  1
  Cl  Cl17  1  0.76870670  0.36843408  0.36141508  1
  Cl  Cl18  1  0.35760865  0.35453580  0.79063160  1
  O  O19  1  0.73608298  0.93552339  0.57040525  1
  O  O20  1  0.93423067  0.57135658  0.73273464  1
  O  O21  1  0.57502643  0.73572380  0.93349531  1
  O  O22  1  0.28466826  0.27333150  0.27353004  1
  O  O23  1  0.12192704  0.94555713  0.76036079  1
  O  O24  1  0.94470858  0.75652094  0.12720510  1
  O  O25  1  0.75997342  0.12643400  0.94863593  1
