# generated using pymatgen
data_LaSeS
_symmetry_space_group_name_H-M   'P 1'
_cell_length_a   4.17834057
_cell_length_b   8.39239330
_cell_length_c   8.40558555
_cell_angle_alpha   90.25255742
_cell_angle_beta   90.00000000
_cell_angle_gamma   90.00000000
_symmetry_Int_Tables_number   1
_chemical_formula_structural   LaSeS
_chemical_formula_sum   'La4 Se4 S4'
_cell_volume   294.74973107
_cell_formula_units_Z   4
loop_
 _symmetry_equiv_pos_site_id
 _symmetry_equiv_pos_as_xyz
  1  'x, y, z'
loop_
 _atom_site_type_symbol
 _atom_site_label
 _atom_site_symmetry_multiplicity
 _atom_site_fract_x
 _atom_site_fract_y
 _atom_site_fract_z
 _atom_site_occupancy
  La  La0  1  0.71725849  0.37242731  0.71304802  1
  La  La1  1  0.21725849  0.12757269  0.28695198  1
  La  La2  1  0.28274151  0.62757269  0.28695198  1
  La  La3  1  0.78274151  0.87242731  0.71304802  1
  Se  Se4  1  0.68406156  0.11901487  0.00202804  1
  Se  Se5  1  0.18406156  0.38098513  0.99797196  1
  Se  Se6  1  0.31593844  0.88098513  0.99797196  1
  Se  Se7  1  0.81593844  0.61901487  0.00202804  1
  S  S8  1  0.73972805  0.37435048  0.36587742  1
  S  S9  1  0.23972805  0.12564952  0.63412258  1
  S  S10  1  0.26027195  0.62564952  0.63412258  1
  S  S11  1  0.76027195  0.87435048  0.36587742  1
