# generated using pymatgen
data_LiTi(PO3)4
_symmetry_space_group_name_H-M   'P 1'
_cell_length_a   10.36401114
_cell_length_b   9.14943958
_cell_length_c   10.06566961
_cell_angle_alpha   90.00000000
_cell_angle_beta   72.57389713
_cell_angle_gamma   90.00000000
_symmetry_Int_Tables_number   1
_chemical_formula_structural   LiTi(PO3)4
_chemical_formula_sum   'Li4 Ti4 P16 O48'
_cell_volume   910.66941043
_cell_formula_units_Z   4
loop_
 _symmetry_equiv_pos_site_id
 _symmetry_equiv_pos_as_xyz
  1  'x, y, z'
loop_
 _atom_site_type_symbol
 _atom_site_label
 _atom_site_symmetry_multiplicity
 _atom_site_fract_x
 _atom_site_fract_y
 _atom_site_fract_z
 _atom_site_occupancy
  Li  Li0  1  0.99042009  0.44926254  0.85476557  1
  Li  Li1  1  0.49042009  0.05073746  0.35476557  1
  Li  Li2  1  0.50957991  0.94926254  0.64523443  1
  Li  Li3  1  0.00957991  0.55073746  0.14523443  1
  Ti  Ti4  1  0.18795567  0.19689286  0.99695314  1
  Ti  Ti5  1  0.31204433  0.69689286  0.50304686  1
  Ti  Ti6  1  0.68795567  0.30310714  0.49695314  1
  Ti  Ti7  1  0.81204433  0.80310714  0.00304686  1
  P  P8  1  0.14139524  0.83429825  0.04183968  1
  P  P9  1  0.02561764  0.88401909  0.67864085  1
  P  P10  1  0.24045709  0.99705565  0.24340493  1
  P  P11  1  0.25954291  0.49705565  0.25659507  1
  P  P12  1  0.24283517  0.10306282  0.65995272  1
  P  P13  1  0.25716483  0.60306282  0.84004728  1
  P  P14  1  0.35860476  0.33429825  0.45816032  1
  P  P15  1  0.52561764  0.61598091  0.17864085  1
  P  P16  1  0.47438236  0.38401909  0.82135915  1
  P  P17  1  0.64139524  0.66570175  0.54183968  1
  P  P18  1  0.74283517  0.39693718  0.15995272  1
  P  P19  1  0.75716483  0.89693718  0.34004728  1
  P  P20  1  0.74045709  0.50294435  0.74340493  1
  P  P21  1  0.75954291  0.00294435  0.75659507  1
  P  P22  1  0.97438236  0.11598091  0.32135915  1
  P  P23  1  0.85860476  0.16570175  0.95816032  1
  O  O24  1  0.00852094  0.75471973  0.07602558  1
  O  O25  1  0.02375429  0.18344182  0.17787352  1
  O  O26  1  0.10553011  0.05709855  0.36038503  1
  O  O27  1  0.18534039  0.85279877  0.18206199  1
  O  O28  1  0.16063161  0.45233973  0.18302641  1
  O  O29  1  0.11464295  0.79852212  0.55911352  1
  O  O30  1  0.09362430  0.04078601  0.68930004  1
  O  O31  1  0.21563148  0.60863631  0.37183595  1
  O  O32  1  0.28436852  0.10863631  0.12816405  1
  O  O33  1  0.24161882  0.22390826  0.54285476  1
  O  O34  1  0.33936839  0.95233973  0.31697359  1
  O  O35  1  0.15396258  0.48609643  0.89736566  1
  O  O36  1  0.31465961  0.35279877  0.31793801  1
  O  O37  1  0.15386749  0.97880616  0.96756900  1
  O  O38  1  0.39446989  0.55709855  0.13961497  1
  O  O39  1  0.24773236  0.68653793  0.71461812  1
  O  O40  1  0.25226764  0.18653793  0.78538188  1
  O  O41  1  0.34613251  0.47880616  0.53243100  1
  O  O42  1  0.34603742  0.98609643  0.60263434  1
  O  O43  1  0.25838118  0.72390826  0.95714524  1
  O  O44  1  0.47624571  0.68344182  0.32212648  1
  O  O45  1  0.49147906  0.25471973  0.42397442  1
  O  O46  1  0.61464295  0.70147788  0.05911352  1
  O  O47  1  0.40637570  0.54078601  0.81069996  1
  O  O48  1  0.59362430  0.45921399  0.18930004  1
  O  O49  1  0.38535705  0.29852212  0.94088648  1
  O  O50  1  0.50852094  0.74528027  0.57602558  1
  O  O51  1  0.52375429  0.31655818  0.67787352  1
  O  O52  1  0.74161882  0.27609174  0.04285476  1
  O  O53  1  0.65396258  0.01390357  0.39736566  1
  O  O54  1  0.65386749  0.52119384  0.46756900  1
  O  O55  1  0.74773236  0.81346207  0.21461812  1
  O  O56  1  0.75226764  0.31346207  0.28538188  1
  O  O57  1  0.60553011  0.44290145  0.86038503  1
  O  O58  1  0.84613251  0.02119384  0.03243100  1
  O  O59  1  0.68534039  0.64720123  0.68206199  1
  O  O60  1  0.84603742  0.51390357  0.10263434  1
  O  O61  1  0.66063161  0.04766027  0.68302641  1
  O  O62  1  0.75838118  0.77609174  0.45714524  1
  O  O63  1  0.71563148  0.89136369  0.87183595  1
  O  O64  1  0.78436852  0.39136369  0.62816405  1
  O  O65  1  0.90637570  0.95921399  0.31069996  1
  O  O66  1  0.88535705  0.20147788  0.44088648  1
  O  O67  1  0.83936839  0.54766027  0.81697359  1
  O  O68  1  0.81465961  0.14720123  0.81793801  1
  O  O69  1  0.89446989  0.94290145  0.63961497  1
  O  O70  1  0.97624571  0.81655818  0.82212648  1
  O  O71  1  0.99147906  0.24528027  0.92397442  1
