# generated using pymatgen
data_LaCeRu4
_symmetry_space_group_name_H-M   'P 1'
_cell_length_a   5.40720491
_cell_length_b   5.40720491
_cell_length_c   5.40720491
_cell_angle_alpha   90.00000000
_cell_angle_beta   60.00000000
_cell_angle_gamma   120.00000000
_symmetry_Int_Tables_number   1
_chemical_formula_structural   LaCeRu4
_chemical_formula_sum   'La1 Ce1 Ru4'
_cell_volume   111.79013635
_cell_formula_units_Z   1
loop_
 _symmetry_equiv_pos_site_id
 _symmetry_equiv_pos_as_xyz
  1  'x, y, z'
loop_
 _atom_site_type_symbol
 _atom_site_label
 _atom_site_symmetry_multiplicity
 _atom_site_fract_x
 _atom_site_fract_y
 _atom_site_fract_z
 _atom_site_occupancy
  La  La0  1  0.00000000  0.00000000  0.00000000  1
  Ce  Ce1  1  0.50000000  0.75000000  0.75000000  1
  Ru  Ru2  1  0.75027020  0.37513510  0.87459470  1
  Ru  Ru3  1  0.24972980  0.37513510  0.37513510  1
  Ru  Ru4  1  0.24972980  0.87459470  0.37513510  1
  Ru  Ru5  1  0.75027020  0.37513510  0.37513510  1
