# generated using pymatgen
data_LuAl7Fe5
_symmetry_space_group_name_H-M   'P 1'
_cell_length_a   5.00158768
_cell_length_b   6.57217708
_cell_length_c   6.57217708
_cell_angle_alpha   98.02714670
_cell_angle_beta   112.36541095
_cell_angle_gamma   67.63458905
_symmetry_Int_Tables_number   1
_chemical_formula_structural   LuAl7Fe5
_chemical_formula_sum   'Lu1 Al7 Fe5'
_cell_volume   184.75302325
_cell_formula_units_Z   1
loop_
 _symmetry_equiv_pos_site_id
 _symmetry_equiv_pos_as_xyz
  1  'x, y, z'
loop_
 _atom_site_type_symbol
 _atom_site_label
 _atom_site_symmetry_multiplicity
 _atom_site_fract_x
 _atom_site_fract_y
 _atom_site_fract_z
 _atom_site_occupancy
  Lu  Lu0  1  0.00503662  0.99496338  0.00503662  1
  Al  Al1  1  0.66079093  0.33920907  0.66079093  1
  Al  Al2  1  0.33808712  0.66191288  0.33808712  1
  Al  Al3  1  0.99195266  0.34981224  0.33371755  1
  Al  Al4  1  0.99195266  0.66628245  0.65018776  1
  Al  Al5  1  0.27500698  0.22499302  0.77500698  1
  Al  Al6  1  0.50448194  0.78580755  0.79477142  1
  Al  Al7  1  0.50448194  0.20522858  0.21419245  1
  Fe  Fe8  1  0.49620935  0.00191451  0.49936303  1
  Fe  Fe9  1  0.00123918  0.00191451  0.49936303  1
  Fe  Fe10  1  0.49620935  0.50063697  0.99808549  1
  Fe  Fe11  1  0.00123918  0.50063697  0.99808549  1
  Fe  Fe12  1  0.73331211  0.76668789  0.23331211  1
