# generated using pymatgen
data_LiGdS2
_symmetry_space_group_name_H-M   'P 1'
_cell_length_a   3.96306775
_cell_length_b   3.96306774
_cell_length_c   6.56927519
_cell_angle_alpha   72.44406539
_cell_angle_beta   90.00000000
_cell_angle_gamma   120.00000006
_symmetry_Int_Tables_number   1
_chemical_formula_structural   LiGdS2
_chemical_formula_sum   'Li1 Gd1 S2'
_cell_volume   83.75836546
_cell_formula_units_Z   1
loop_
 _symmetry_equiv_pos_site_id
 _symmetry_equiv_pos_as_xyz
  1  'x, y, z'
loop_
 _atom_site_type_symbol
 _atom_site_label
 _atom_site_symmetry_multiplicity
 _atom_site_fract_x
 _atom_site_fract_y
 _atom_site_fract_z
 _atom_site_occupancy
  Li  Li0  1  0.50000000  0.00000000  0.50000000  1
  Gd  Gd1  1  0.00000000  0.00000000  -0.00000000  1
  S  S2  1  0.24973394  0.49946788  0.25079818  1
  S  S3  1  0.75026606  0.50053212  0.74920182  1
