# generated using pymatgen
data_KTaSi2O7
_symmetry_space_group_name_H-M   'P 1'
_cell_length_a   7.99979381
_cell_length_b   8.89092598
_cell_length_c   8.89076068
_cell_angle_alpha   90.00000000
_cell_angle_beta   90.00000000
_cell_angle_gamma   90.00000000
_symmetry_Int_Tables_number   1
_chemical_formula_structural   KTaSi2O7
_chemical_formula_sum   'K4 Ta4 Si8 O28'
_cell_volume   632.36046217
_cell_formula_units_Z   4
loop_
 _symmetry_equiv_pos_site_id
 _symmetry_equiv_pos_as_xyz
  1  'x, y, z'
loop_
 _atom_site_type_symbol
 _atom_site_label
 _atom_site_symmetry_multiplicity
 _atom_site_fract_x
 _atom_site_fract_y
 _atom_site_fract_z
 _atom_site_occupancy
  K  K0  1  0.00000000  0.67772141  0.17771994  1
  K  K1  1  0.00000000  0.32227859  0.82228006  1
  K  K2  1  0.00000000  0.82227859  0.67771994  1
  K  K3  1  0.00000000  0.17772141  0.32228006  1
  Ta  Ta4  1  0.75113525  0.50000000  0.50000000  1
  Ta  Ta5  1  0.75113525  0.00000000  0.00000000  1
  Ta  Ta6  1  0.24886475  0.50000000  0.50000000  1
  Ta  Ta7  1  0.24886475  0.00000000  0.00000000  1
  Si  Si8  1  0.29989488  0.62343062  0.87658090  1
  Si  Si9  1  0.29989488  0.37656938  0.12341910  1
  Si  Si10  1  0.29989488  0.87656938  0.37658090  1
  Si  Si11  1  0.29989488  0.12343062  0.62341910  1
  Si  Si12  1  0.70010512  0.37656938  0.12341910  1
  Si  Si13  1  0.70010512  0.62343062  0.87658090  1
  Si  Si14  1  0.70010512  0.12343062  0.62341910  1
  Si  Si15  1  0.70010512  0.87656938  0.37658090  1
  O  O16  1  0.76695298  0.57633840  0.71154200  1
  O  O17  1  0.76695298  0.42366160  0.28845800  1
  O  O18  1  0.76695298  0.92366160  0.21154200  1
  O  O19  1  0.76695298  0.07633840  0.78845800  1
  O  O20  1  0.76697462  0.71153709  0.42366205  1
  O  O21  1  0.76697462  0.28846291  0.57633795  1
  O  O22  1  0.76697462  0.21153709  0.07633795  1
  O  O23  1  0.76697462  0.78846291  0.92366205  1
  O  O24  1  0.23304702  0.42366160  0.28845800  1
  O  O25  1  0.23304702  0.57633840  0.71154200  1
  O  O26  1  0.23304702  0.07633840  0.78845800  1
  O  O27  1  0.23304702  0.92366160  0.21154200  1
  O  O28  1  0.23302538  0.28846291  0.57633795  1
  O  O29  1  0.23302538  0.71153709  0.42366205  1
  O  O30  1  0.23302538  0.78846291  0.92366205  1
  O  O31  1  0.23302538  0.21153709  0.07633795  1
  O  O32  1  0.50000000  0.61768804  0.88237304  1
  O  O33  1  0.50000000  0.38231196  0.11762696  1
  O  O34  1  0.50000000  0.88231196  0.38237304  1
  O  O35  1  0.50000000  0.11768804  0.61762696  1
  O  O36  1  0.00000000  0.50000000  0.50000000  1
  O  O37  1  0.00000000  0.00000000  0.00000000  1
  O  O38  1  0.77349552  0.50000000  0.00000000  1
  O  O39  1  0.77349552  0.00000000  0.50000000  1
  O  O40  1  0.22650448  0.50000000  0.00000000  1
  O  O41  1  0.22650448  0.00000000  0.50000000  1
  O  O42  1  0.50000000  0.50000000  0.50000000  1
  O  O43  1  0.50000000  0.00000000  0.00000000  1
