# generated using pymatgen
data_LiNb(PO3)4
_symmetry_space_group_name_H-M   'P 1'
_cell_length_a   5.31618515
_cell_length_b   14.04404705
_cell_length_c   7.25677681
_cell_angle_alpha   90.00000000
_cell_angle_beta   94.30056857
_cell_angle_gamma   90.00000000
_symmetry_Int_Tables_number   1
_chemical_formula_structural   LiNb(PO3)4
_chemical_formula_sum   'Li2 Nb2 P8 O24'
_cell_volume   540.27094235
_cell_formula_units_Z   2
loop_
 _symmetry_equiv_pos_site_id
 _symmetry_equiv_pos_as_xyz
  1  'x, y, z'
loop_
 _atom_site_type_symbol
 _atom_site_label
 _atom_site_symmetry_multiplicity
 _atom_site_fract_x
 _atom_site_fract_y
 _atom_site_fract_z
 _atom_site_occupancy
  Li  Li0  1  0.60305541  0.98894525  0.09728505  1
  Li  Li1  1  0.39694459  0.48894525  0.90271495  1
  Nb  Nb2  1  0.50992242  0.76442276  0.51047459  1
  Nb  Nb3  1  0.49007758  0.26442276  0.48952541  1
  P  P4  1  0.03834740  0.90564111  0.56219715  1
  P  P5  1  0.98408576  0.62103759  0.44968446  1
  P  P6  1  0.13794929  0.32672513  0.09098207  1
  P  P7  1  0.21710323  0.68085686  0.10973861  1
  P  P8  1  0.78289677  0.18085686  0.89026139  1
  P  P9  1  0.86205071  0.82672513  0.90901793  1
  P  P10  1  0.01591424  0.12103759  0.55031554  1
  P  P11  1  0.96165260  0.40564111  0.43780285  1
  O  O12  1  0.05029464  0.73941890  0.95585150  1
  O  O13  1  0.03557875  0.89312998  0.78322292  1
  O  O14  1  0.00479229  0.13897423  0.76846798  1
  O  O15  1  0.19469146  0.38405978  0.92714619  1
  O  O16  1  0.06781899  0.51146960  0.47300273  1
  O  O17  1  0.14854627  0.34165896  0.53893727  1
  O  O18  1  0.18029053  0.67650248  0.56266230  1
  O  O19  1  0.30978442  0.90021972  0.51164145  1
  O  O20  1  0.28766607  0.13102949  0.50324264  1
  O  O21  1  0.38166395  0.74916075  0.22700422  1
  O  O22  1  0.35986950  0.28600126  0.20859281  1
  O  O23  1  0.34471380  0.60159515  0.01958761  1
  O  O24  1  0.65528620  0.10159515  0.98041239  1
  O  O25  1  0.64013050  0.78600126  0.79140719  1
  O  O26  1  0.61833605  0.24916075  0.77299578  1
  O  O27  1  0.71233393  0.63102949  0.49675736  1
  O  O28  1  0.69021558  0.40021972  0.48835855  1
  O  O29  1  0.81970947  0.17650248  0.43733770  1
  O  O30  1  0.85145373  0.84165896  0.46106273  1
  O  O31  1  0.93218101  0.01146960  0.52699727  1
  O  O32  1  0.80530854  0.88405978  0.07285381  1
  O  O33  1  0.99520771  0.63897423  0.23153202  1
  O  O34  1  0.96442125  0.39312998  0.21677708  1
  O  O35  1  0.94970536  0.23941890  0.04414850  1
