# generated using pymatgen
data_La2CuSi3
_symmetry_space_group_name_H-M   'P 1'
_cell_length_a   4.15040528
_cell_length_b   4.15002216
_cell_length_c   8.63175633
_cell_angle_alpha   90.00000000
_cell_angle_beta   90.00000000
_cell_angle_gamma   120.00752936
_symmetry_Int_Tables_number   1
_chemical_formula_structural   La2CuSi3
_chemical_formula_sum   'La2 Cu1 Si3'
_cell_volume   128.74719367
_cell_formula_units_Z   1
loop_
 _symmetry_equiv_pos_site_id
 _symmetry_equiv_pos_as_xyz
  1  'x, y, z'
loop_
 _atom_site_type_symbol
 _atom_site_label
 _atom_site_symmetry_multiplicity
 _atom_site_fract_x
 _atom_site_fract_y
 _atom_site_fract_z
 _atom_site_occupancy
  La  La0  1  0.99999097  0.00001318  0.00187676  1
  La  La1  1  0.99999097  0.00001318  0.49812324  1
  Cu  Cu2  1  0.33329692  0.66665804  0.25000000  1
  Si  Si3  1  0.33339704  0.66672396  0.75000000  1
  Si  Si4  1  0.66661370  0.33332247  0.25000000  1
  Si  Si5  1  0.66651040  0.33326917  0.75000000  1
