# generated using pymatgen
data_La4Cu3Sb8
_symmetry_space_group_name_H-M   'P 1'
_cell_length_a   6.28123480
_cell_length_b   6.28123480
_cell_length_c   11.03364094
_cell_angle_alpha   73.46265917
_cell_angle_beta   73.46265917
_cell_angle_gamma   90.00000000
_symmetry_Int_Tables_number   1
_chemical_formula_structural   La4Cu3Sb8
_chemical_formula_sum   'La4 Cu3 Sb8'
_cell_volume   398.49285093
_cell_formula_units_Z   1
loop_
 _symmetry_equiv_pos_site_id
 _symmetry_equiv_pos_as_xyz
  1  'x, y, z'
loop_
 _atom_site_type_symbol
 _atom_site_label
 _atom_site_symmetry_multiplicity
 _atom_site_fract_x
 _atom_site_fract_y
 _atom_site_fract_z
 _atom_site_occupancy
  La  La0  1  0.12111461  0.36980441  0.75908098  1
  La  La1  1  0.61980441  0.87111461  0.75908098  1
  La  La2  1  0.37888539  0.12888539  0.24091902  1
  La  La3  1  0.88019559  0.63019559  0.24091902  1
  Cu  Cu4  1  0.25000000  0.00000000  -0.00000000  1
  Cu  Cu5  1  0.25000000  0.50000000  -0.00000000  1
  Cu  Cu6  1  0.75000000  0.00000000  -0.00000000  1
  Sb  Sb7  1  0.43189610  0.67647693  0.14162697  1
  Sb  Sb8  1  0.92647693  0.18189610  0.14162697  1
  Sb  Sb9  1  0.06810390  0.81810390  0.85837303  1
  Sb  Sb10  1  0.57352307  0.32352307  0.85837303  1
  Sb  Sb11  1  0.00017154  0.75017154  0.49965692  1
  Sb  Sb12  1  0.49982846  0.24982846  0.50034308  1
  Sb  Sb13  1  0.50000000  0.75000000  0.50000000  1
  Sb  Sb14  1  0.00000000  0.25000000  0.50000000  1
