# generated using pymatgen
data_KMg3AlSi3(O5F)2
_symmetry_space_group_name_H-M   'P 1'
_cell_length_a   5.36457491
_cell_length_b   5.36400854
_cell_length_c   10.36830833
_cell_angle_alpha   85.27290495
_cell_angle_beta   80.07042324
_cell_angle_gamma   60.03534994
_symmetry_Int_Tables_number   1
_chemical_formula_structural   KMg3AlSi3(O5F)2
_chemical_formula_sum   'K1 Mg3 Al1 Si3 O10 F2'
_cell_volume   254.60036590
_cell_formula_units_Z   1
loop_
 _symmetry_equiv_pos_site_id
 _symmetry_equiv_pos_as_xyz
  1  'x, y, z'
loop_
 _atom_site_type_symbol
 _atom_site_label
 _atom_site_symmetry_multiplicity
 _atom_site_fract_x
 _atom_site_fract_y
 _atom_site_fract_z
 _atom_site_occupancy
  K  K0  1  0.48956773  0.99913088  0.03199849  1
  Mg  Mg1  1  0.33185639  0.34108099  0.49441756  1
  Mg  Mg2  1  0.67356621  0.66280387  0.49516503  1
  Mg  Mg3  1  0.99585824  0.99945585  0.49513523  1
  Al  Al4  1  0.09122931  0.66649444  0.22660497  1
  Si  Si5  1  0.75917857  0.33355755  0.22248270  1
  Si  Si6  1  0.91064878  0.33112592  0.76964307  1
  Si  Si7  1  0.24663474  0.66489029  0.76958222  1
  O  O8  1  0.99862662  0.01138498  0.16632059  1
  O  O9  1  0.04643064  0.99856246  0.82795529  1
  O  O10  1  0.03269109  0.66694581  0.39943846  1
  O  O11  1  0.70375199  0.33435411  0.38711611  1
  O  O12  1  0.95950526  0.33075701  0.61061257  1
  O  O13  1  0.30221202  0.66543797  0.61057624  1
  O  O14  1  0.87971452  0.55223475  0.16584640  1
  O  O15  1  0.45770605  0.43395185  0.16620586  1
  O  O16  1  0.07208067  0.48618610  0.82562383  1
  O  O17  1  0.55822755  0.51159060  0.82936755  1
  F  F18  1  0.36382920  0.99916157  0.40688963  1
  F  F19  1  0.62668442  0.01089301  0.59901819  1
