# generated using pymatgen
data_KBaY(BO3)2
_symmetry_space_group_name_H-M   'P 1'
_cell_length_a   5.47392174
_cell_length_b   5.47403998
_cell_length_c   6.83194528
_cell_angle_alpha   66.38300283
_cell_angle_beta   66.38224763
_cell_angle_gamma   59.99928233
_symmetry_Int_Tables_number   1
_chemical_formula_structural   KBaY(BO3)2
_chemical_formula_sum   'K1 Ba1 Y1 B2 O6'
_cell_volume   157.17715213
_cell_formula_units_Z   1
loop_
 _symmetry_equiv_pos_site_id
 _symmetry_equiv_pos_as_xyz
  1  'x, y, z'
loop_
 _atom_site_type_symbol
 _atom_site_label
 _atom_site_symmetry_multiplicity
 _atom_site_fract_x
 _atom_site_fract_y
 _atom_site_fract_z
 _atom_site_occupancy
  K  K0  1  0.78024694  0.78030612  0.65914081  1
  Ba  Ba1  1  0.20771305  0.20772658  0.37683378  1
  Y  Y2  1  0.00208309  0.00206509  0.99378673  1
  B  B3  1  0.41327647  0.41328595  0.76015162  1
  B  B4  1  0.58985107  0.58982499  0.23049896  1
  O  O5  1  0.70702117  0.26596271  0.76105341  1
  O  O6  1  0.26594737  0.26597915  0.76104509  1
  O  O7  1  0.26594737  0.70702840  0.76104509  1
  O  O8  1  0.29607814  0.73589233  0.23213721  1
  O  O9  1  0.73591766  0.73587893  0.23215365  1
  O  O10  1  0.73591766  0.29604976  0.23215365  1
