# generated using pymatgen
data_KMg3AlGe3(O5F)2
_symmetry_space_group_name_H-M   'P 1'
_cell_length_a   5.46761920
_cell_length_b   5.46565412
_cell_length_c   10.67469763
_cell_angle_alpha   94.72435927
_cell_angle_beta   94.96314767
_cell_angle_gamma   119.99844740
_symmetry_Int_Tables_number   1
_chemical_formula_structural   KMg3AlGe3(O5F)2
_chemical_formula_sum   'K1 Mg3 Al1 Ge3 O10 F2'
_cell_volume   272.30114602
_cell_formula_units_Z   1
loop_
 _symmetry_equiv_pos_site_id
 _symmetry_equiv_pos_as_xyz
  1  'x, y, z'
loop_
 _atom_site_type_symbol
 _atom_site_label
 _atom_site_symmetry_multiplicity
 _atom_site_fract_x
 _atom_site_fract_y
 _atom_site_fract_z
 _atom_site_occupancy
  K  K0  1  0.50793440  0.50808388  0.02335189  1
  Mg  Mg1  1  0.66611051  0.32641651  0.49079626  1
  Mg  Mg2  1  0.32312380  0.65860876  0.49103094  1
  Mg  Mg3  1  0.00288915  0.00624644  0.49106986  1
  Al  Al4  1  0.90858269  0.24236458  0.22808890  1
  Ge  Ge5  1  0.24090640  0.90711514  0.22347786  1
  Ge  Ge6  1  0.08949111  0.75720703  0.76894858  1
  Ge  Ge7  1  0.75504981  0.08917746  0.76912565  1
  O  O8  1  0.14486586  0.55520459  0.16786333  1
  O  O9  1  0.55587137  0.14550521  0.16782149  1
  O  O10  1  0.86754355  0.44526806  0.83600236  1
  O  O11  1  0.44468155  0.86744715  0.83698357  1
  O  O12  1  0.96403931  0.29928149  0.39706355  1
  O  O13  1  0.29849758  0.96309004  0.39535125  1
  O  O14  1  0.03636598  0.70451170  0.60314173  1
  O  O15  1  0.69801409  0.03269002  0.60329447  1
  O  O16  1  0.96610606  0.96679588  0.16861328  1
  O  O17  1  0.02250889  0.02316929  0.83658966  1
  F  F18  1  0.63985987  0.64025618  0.41071272  1
  F  F19  1  0.36755803  0.36156058  0.59067263  1
