# generated using pymatgen
data_KBi3S5
_symmetry_space_group_name_H-M   'P 1'
_cell_length_a   4.11269641
_cell_length_b   16.98907534
_cell_length_c   17.47147799
_cell_angle_alpha   90.00000000
_cell_angle_beta   90.00000000
_cell_angle_gamma   90.00000000
_symmetry_Int_Tables_number   1
_chemical_formula_structural   KBi3S5
_chemical_formula_sum   'K4 Bi12 S20'
_cell_volume   1220.74805153
_cell_formula_units_Z   4
loop_
 _symmetry_equiv_pos_site_id
 _symmetry_equiv_pos_as_xyz
  1  'x, y, z'
loop_
 _atom_site_type_symbol
 _atom_site_label
 _atom_site_symmetry_multiplicity
 _atom_site_fract_x
 _atom_site_fract_y
 _atom_site_fract_z
 _atom_site_occupancy
  K  K0  1  0.75000000  0.99927480  0.20988997  1
  K  K1  1  0.75000000  0.49927480  0.29011003  1
  K  K2  1  0.25000000  0.00072520  0.79011003  1
  K  K3  1  0.25000000  0.50072520  0.70988997  1
  Bi  Bi4  1  0.25000000  0.41645105  0.06867116  1
  Bi  Bi5  1  0.25000000  0.91645105  0.43132884  1
  Bi  Bi6  1  0.75000000  0.58354895  0.93132884  1
  Bi  Bi7  1  0.75000000  0.08354895  0.56867116  1
  Bi  Bi8  1  0.25000000  0.15997422  0.37555330  1
  Bi  Bi9  1  0.25000000  0.65997422  0.12444670  1
  Bi  Bi10  1  0.75000000  0.84002578  0.62444670  1
  Bi  Bi11  1  0.75000000  0.34002578  0.87555330  1
  Bi  Bi12  1  0.75000000  0.26070991  0.20993529  1
  Bi  Bi13  1  0.75000000  0.76070991  0.29006471  1
  Bi  Bi14  1  0.25000000  0.73929009  0.79006471  1
  Bi  Bi15  1  0.25000000  0.23929009  0.70993529  1
  S  S16  1  0.75000000  0.31231779  0.03925798  1
  S  S17  1  0.75000000  0.81231779  0.46074202  1
  S  S18  1  0.25000000  0.68768221  0.96074202  1
  S  S19  1  0.25000000  0.18768221  0.53925798  1
  S  S20  1  0.75000000  0.53876182  0.09989407  1
  S  S21  1  0.75000000  0.03876182  0.40010593  1
  S  S22  1  0.25000000  0.46123818  0.90010593  1
  S  S23  1  0.25000000  0.96123818  0.59989407  1
  S  S24  1  0.75000000  0.26913041  0.36273453  1
  S  S25  1  0.75000000  0.76913041  0.13726547  1
  S  S26  1  0.25000000  0.73086959  0.63726547  1
  S  S27  1  0.25000000  0.23086959  0.86273453  1
  S  S28  1  0.25000000  0.14394198  0.21687723  1
  S  S29  1  0.25000000  0.64394198  0.28312277  1
  S  S30  1  0.75000000  0.85605802  0.78312277  1
  S  S31  1  0.75000000  0.35605802  0.71687723  1
  S  S32  1  0.25000000  0.37504375  0.21932688  1
  S  S33  1  0.25000000  0.87504375  0.28067312  1
  S  S34  1  0.75000000  0.62495625  0.78067312  1
  S  S35  1  0.75000000  0.12495625  0.71932688  1
