# generated using pymatgen
data_K(SiPd)4
_symmetry_space_group_name_H-M   'P 1'
_cell_length_a   4.61708761
_cell_length_b   6.42560240
_cell_length_c   6.42560240
_cell_angle_alpha   97.41625661
_cell_angle_beta   111.05554417
_cell_angle_gamma   68.94445583
_symmetry_Int_Tables_number   1
_chemical_formula_structural   K(SiPd)4
_chemical_formula_sum   'K1 Si4 Pd4'
_cell_volume   166.02580476
_cell_formula_units_Z   1
loop_
 _symmetry_equiv_pos_site_id
 _symmetry_equiv_pos_as_xyz
  1  'x, y, z'
loop_
 _atom_site_type_symbol
 _atom_site_label
 _atom_site_symmetry_multiplicity
 _atom_site_fract_x
 _atom_site_fract_y
 _atom_site_fract_z
 _atom_site_occupancy
  K  K0  1  0.34255050  0.00000000  1.00000000  1
  Si  Si1  1  0.11114639  0.50160383  0.72330495  1
  Si  Si2  1  0.88944527  0.49839617  0.27669505  1
  Si  Si3  1  0.61275022  0.27669505  0.50160383  1
  Si  Si4  1  0.38784144  0.72330495  0.49839617  1
  Pd  Pd5  1  0.32006203  0.50663515  0.14612611  1
  Pd  Pd6  1  0.68057107  0.49336485  0.85387389  1
  Pd  Pd7  1  0.82669717  0.85387389  0.50663515  1
  Pd  Pd8  1  0.17393592  0.14612611  0.49336485  1
