# generated using pymatgen
data_KRbMn2Ga4P6(H2O7)4
_symmetry_space_group_name_H-M   'P 1'
_cell_length_a   8.61145866
_cell_length_b   8.61145866
_cell_length_c   8.98099440
_cell_angle_alpha   75.44384080
_cell_angle_beta   75.44384080
_cell_angle_gamma   73.92383002
_symmetry_Int_Tables_number   1
_chemical_formula_structural   KRbMn2Ga4P6(H2O7)4
_chemical_formula_sum   'K1 Rb1 Mn2 Ga4 P6 H8 O28'
_cell_volume   607.47925186
_cell_formula_units_Z   1
loop_
 _symmetry_equiv_pos_site_id
 _symmetry_equiv_pos_as_xyz
  1  'x, y, z'
loop_
 _atom_site_type_symbol
 _atom_site_label
 _atom_site_symmetry_multiplicity
 _atom_site_fract_x
 _atom_site_fract_y
 _atom_site_fract_z
 _atom_site_occupancy
  K  K0  1  0.36037602  0.63962398  0.25000000  1
  Rb  Rb1  1  0.63936267  0.36063733  0.75000000  1
  Mn  Mn2  1  0.71744800  0.28255200  0.25000000  1
  Mn  Mn3  1  0.28245118  0.71754882  0.75000000  1
  Ga  Ga4  1  0.75491125  0.90403418  0.07153137  1
  Ga  Ga5  1  0.09596582  0.24508875  0.42846863  1
  Ga  Ga6  1  0.24518082  0.09579882  0.92870538  1
  Ga  Ga7  1  0.90420118  0.75481918  0.57129462  1
  P  P8  1  0.00039962  0.99960038  0.75000000  1
  P  P9  1  0.00055617  0.99944383  0.25000000  1
  P  P10  1  0.83649328  0.58324910  0.32458772  1
  P  P11  1  0.41675090  0.16350672  0.17541228  1
  P  P12  1  0.16258842  0.41704474  0.67519414  1
  P  P13  1  0.58295526  0.83741158  0.82480586  1
  H  H14  1  0.46653538  0.21953521  0.50354942  1
  H  H15  1  0.78046479  0.53346462  0.99645058  1
  H  H16  1  0.53320509  0.78015539  0.49589406  1
  H  H17  1  0.21984461  0.46679491  0.00410594  1
  H  H18  1  0.62058919  0.07797924  0.54857457  1
  H  H19  1  0.92202076  0.37941081  0.95142543  1
  H  H20  1  0.37922382  0.92155748  0.45110838  1
  H  H21  1  0.07844252  0.62077618  0.04889162  1
  O  O22  1  0.77426913  0.68020611  0.46096072  1
  O  O23  1  0.31979389  0.22573087  0.03903928  1
  O  O24  1  0.22544432  0.32038459  0.53860851  1
  O  O25  1  0.67961541  0.77455568  0.96139149  1
  O  O26  1  0.70003511  0.50213897  0.32314984  1
  O  O27  1  0.49786103  0.29996489  0.17685016  1
  O  O28  1  0.29806202  0.49937641  0.67627323  1
  O  O29  1  0.50062359  0.70193798  0.82372677  1
  O  O30  1  0.58744743  0.19266707  0.49201394  1
  O  O31  1  0.80733293  0.41255257  0.00798606  1
  O  O32  1  0.41238725  0.80636361  0.50654935  1
  O  O33  1  0.19363639  0.58761275  0.99345065  1
  O  O34  1  0.00548578  0.46159104  0.33886029  1
  O  O35  1  0.53840896  0.99451422  0.16113971  1
  O  O36  1  0.99316353  0.53800089  0.66136129  1
  O  O37  1  0.46199911  0.00683647  0.83863871  1
  O  O38  1  0.84977825  0.03150441  0.88406851  1
  O  O39  1  0.96849559  0.15022175  0.61593149  1
  O  O40  1  0.15164296  0.96702619  0.11623044  1
  O  O41  1  0.03297381  0.84835704  0.38376956  1
  O  O42  1  0.88107635  0.70287954  0.16398175  1
  O  O43  1  0.29712046  0.11892365  0.33601825  1
  O  O44  1  0.11896238  0.29696968  0.83580870  1
  O  O45  1  0.70303032  0.88103762  0.66419130  1
  O  O46  1  0.02480132  0.83417296  0.69684661  1
  O  O47  1  0.16582704  0.97519868  0.80315339  1
  O  O48  1  0.97573659  0.16497771  0.30319121  1
  O  O49  1  0.83502229  0.02426341  0.19680879  1
