# generated using pymatgen
data_InAgGeSe4
_symmetry_space_group_name_H-M   'P 1'
_cell_length_a   5.88591744
_cell_length_b   5.88591744
_cell_length_c   6.95214640
_cell_angle_alpha   64.95584275
_cell_angle_beta   64.95584275
_cell_angle_gamma   90.00000000
_symmetry_Int_Tables_number   1
_chemical_formula_structural   InAgGeSe4
_chemical_formula_sum   'In1 Ag1 Ge1 Se4'
_cell_volume   192.92187635
_cell_formula_units_Z   1
loop_
 _symmetry_equiv_pos_site_id
 _symmetry_equiv_pos_as_xyz
  1  'x, y, z'
loop_
 _atom_site_type_symbol
 _atom_site_label
 _atom_site_symmetry_multiplicity
 _atom_site_fract_x
 _atom_site_fract_y
 _atom_site_fract_z
 _atom_site_occupancy
  In  In0  1  0.50000000  0.50000000  0.00000000  1
  Ag  Ag1  1  0.75000000  0.25000000  0.50000000  1
  Ge  Ge2  1  0.25000000  0.75000000  0.50000000  1
  Se  Se3  1  0.32395187  0.87328637  0.76227461  1
  Se  Se4  1  0.91377352  0.36443902  0.76227461  1
  Se  Se5  1  0.12671363  0.08622648  0.23772539  1
  Se  Se6  1  0.63556098  0.67604813  0.23772539  1
