# generated using pymatgen
data_K2VCo6Cu2As5O24
_symmetry_space_group_name_H-M   'P 1'
_cell_length_a   6.93547212
_cell_length_b   8.93878932
_cell_length_c   8.94279031
_cell_angle_alpha   92.40957277
_cell_angle_beta   106.07064569
_cell_angle_gamma   106.03935167
_symmetry_Int_Tables_number   1
_chemical_formula_structural   K2VCo6Cu2As5O24
_chemical_formula_sum   'K2 V1 Co6 Cu2 As5 O24'
_cell_volume   507.76739247
_cell_formula_units_Z   1
loop_
 _symmetry_equiv_pos_site_id
 _symmetry_equiv_pos_as_xyz
  1  'x, y, z'
loop_
 _atom_site_type_symbol
 _atom_site_label
 _atom_site_symmetry_multiplicity
 _atom_site_fract_x
 _atom_site_fract_y
 _atom_site_fract_z
 _atom_site_occupancy
  K  K0  1  0.24979251  0.98578650  0.01401110  1
  K  K1  1  0.74981072  0.01348900  0.98629785  1
  V  V2  1  0.37239774  0.64593706  0.87818247  1
  Co  Co3  1  0.12959161  0.37750881  0.06101288  1
  Co  Co4  1  0.36897577  0.94057522  0.62257697  1
  Co  Co5  1  0.87028118  0.62290681  0.94055349  1
  Co  Co6  1  0.62992782  0.05978557  0.37786117  1
  Co  Co7  1  0.24957531  0.25647238  0.74267007  1
  Co  Co8  1  0.75130374  0.74112259  0.25777200  1
  Cu  Cu9  1  0.24996196  0.50152375  0.49716184  1
  Cu  Cu10  1  0.75007580  0.49735729  0.50292886  1
  As  As11  1  0.74980300  0.28566272  0.71443110  1
  As  As12  1  0.25058577  0.71509041  0.28599233  1
  As  As13  1  0.12768468  0.12232310  0.35273916  1
  As  As14  1  0.62776138  0.35262728  0.12265853  1
  As  As15  1  0.87191497  0.87729087  0.64702749  1
  O  O16  1  0.81890985  0.40660242  0.02886400  1
  O  O17  1  0.68049950  0.97123420  0.59305264  1
  O  O18  1  0.17555873  0.59292135  0.97115734  1
  O  O19  1  0.31977808  0.02847173  0.40692828  1
  O  O20  1  0.38205200  0.33083256  0.98957248  1
  O  O21  1  0.11785614  0.01015992  0.66998864  1
  O  O22  1  0.62246721  0.67216482  0.01262226  1
  O  O23  1  0.88189367  0.99066416  0.33020602  1
  O  O24  1  0.97583114  0.25052105  0.82589146  1
  O  O25  1  0.52389953  0.17409983  0.74973460  1
  O  O26  1  0.02524659  0.75109950  0.17462563  1
  O  O27  1  0.47638929  0.82626860  0.24981389  1
  O  O28  1  0.62535807  0.17446726  0.18437899  1
  O  O29  1  0.87410232  0.81566433  0.82521686  1
  O  O30  1  0.37541315  0.82466544  0.81299829  1
  O  O31  1  0.12630222  0.18446300  0.17456978  1
  O  O32  1  0.23631000  0.51584836  0.27624835  1
  O  O33  1  0.26477442  0.72421561  0.48522996  1
  O  O34  1  0.76399414  0.48490205  0.72425726  1
  O  O35  1  0.73660823  0.27641676  0.51532987  1
  O  O36  1  0.18595992  0.27565714  0.49980232  1
  O  O37  1  0.31156990  0.49885457  0.71999587  1
  O  O38  1  0.81414175  0.72386839  0.49941185  1
  O  O39  1  0.68564016  0.50047761  0.27622606  1
