# generated using pymatgen
data_LiNb(PO3)4
_symmetry_space_group_name_H-M   'P 1'
_cell_length_a   7.58812598
_cell_length_b   8.72429738
_cell_length_c   14.86571574
_cell_angle_alpha   90.00000000
_cell_angle_beta   96.06492952
_cell_angle_gamma   90.00000000
_symmetry_Int_Tables_number   1
_chemical_formula_structural   LiNb(PO3)4
_chemical_formula_sum   'Li4 Nb4 P16 O48'
_cell_volume   978.61790257
_cell_formula_units_Z   4
loop_
 _symmetry_equiv_pos_site_id
 _symmetry_equiv_pos_as_xyz
  1  'x, y, z'
loop_
 _atom_site_type_symbol
 _atom_site_label
 _atom_site_symmetry_multiplicity
 _atom_site_fract_x
 _atom_site_fract_y
 _atom_site_fract_z
 _atom_site_occupancy
  Li  Li0  1  0.05939461  0.58379809  0.92671131  1
  Li  Li1  1  0.44060539  0.08379809  0.57328869  1
  Li  Li2  1  0.55939461  0.91620191  0.42671131  1
  Li  Li3  1  0.94060539  0.41620191  0.07328869  1
  Nb  Nb4  1  0.04259635  0.65840160  0.35392055  1
  Nb  Nb5  1  0.54259635  0.84159840  0.85392055  1
  Nb  Nb6  1  0.45740365  0.15840160  0.14607945  1
  Nb  Nb7  1  0.95740365  0.34159840  0.64607945  1
  P  P8  1  0.06436861  0.27236617  0.42966086  1
  P  P9  1  0.13599553  0.05071327  0.78367180  1
  P  P10  1  0.18543548  0.23551539  0.95188008  1
  P  P11  1  0.20366207  0.03056288  0.31038652  1
  P  P12  1  0.31456452  0.73551539  0.54811992  1
  P  P13  1  0.36400447  0.55071327  0.71632820  1
  P  P14  1  0.29633793  0.53056288  0.18961348  1
  P  P15  1  0.56436861  0.22763383  0.92966086  1
  P  P16  1  0.43563139  0.77236617  0.07033914  1
  P  P17  1  0.70366207  0.46943712  0.81038652  1
  P  P18  1  0.63599553  0.44928673  0.28367180  1
  P  P19  1  0.68543548  0.26448461  0.45188008  1
  P  P20  1  0.79633793  0.96943712  0.68961348  1
  P  P21  1  0.81456452  0.76448461  0.04811992  1
  P  P22  1  0.86400447  0.94928673  0.21632820  1
  P  P23  1  0.93563139  0.72763383  0.57033914  1
  O  O24  1  0.07648827  0.37682821  0.96345392  1
  O  O25  1  0.08021803  0.13216076  0.87403361  1
  O  O26  1  0.03231582  0.06208495  0.23829561  1
  O  O27  1  0.10874591  0.28219137  0.53054937  1
  O  O28  1  0.13839970  0.16249938  0.70629049  1
  O  O29  1  0.13990380  0.78489442  0.59406487  1
  O  O30  1  0.10207612  0.40535548  0.37129114  1
  O  O31  1  0.20220126  0.45696741  0.69536441  1
  O  O32  1  0.16093160  0.11973394  0.40061377  1
  O  O33  1  0.13984045  0.60606047  0.22367377  1
  O  O34  1  0.29779874  0.95696741  0.80463559  1
  O  O35  1  0.22212638  0.86450031  0.33724738  1
  O  O36  1  0.26628169  0.64035735  0.46504770  1
  O  O37  1  0.36009620  0.28489442  0.90593513  1
  O  O38  1  0.36160030  0.66249938  0.79370951  1
  O  O39  1  0.39125409  0.78219137  0.96945063  1
  O  O40  1  0.23371831  0.14035735  0.03495230  1
  O  O41  1  0.27787362  0.36450031  0.16275262  1
  O  O42  1  0.41978197  0.63216076  0.62596639  1
  O  O43  1  0.36015955  0.10606047  0.27632623  1
  O  O44  1  0.42351173  0.87682821  0.53654608  1
  O  O45  1  0.33906840  0.61973394  0.09938623  1
  O  O46  1  0.53231582  0.43791505  0.73829561  1
  O  O47  1  0.39792388  0.90535548  0.12870886  1
  O  O48  1  0.60207612  0.09464452  0.87129114  1
  O  O49  1  0.46768418  0.56208495  0.26170439  1
  O  O50  1  0.66093160  0.38026606  0.90061377  1
  O  O51  1  0.57648827  0.12317179  0.46345392  1
  O  O52  1  0.63984045  0.89393953  0.72367377  1
  O  O53  1  0.58021803  0.36783924  0.37403361  1
  O  O54  1  0.72212638  0.63549969  0.83724738  1
  O  O55  1  0.76628169  0.85964265  0.96504770  1
  O  O56  1  0.60874591  0.21780863  0.03054937  1
  O  O57  1  0.63839970  0.33750062  0.20629049  1
  O  O58  1  0.63990380  0.71510558  0.09406487  1
  O  O59  1  0.73371831  0.35964265  0.53495230  1
  O  O60  1  0.77787362  0.13549969  0.66275262  1
  O  O61  1  0.70220126  0.04303259  0.19536441  1
  O  O62  1  0.86015955  0.39393953  0.77632623  1
  O  O63  1  0.83906840  0.88026606  0.59938623  1
  O  O64  1  0.79779874  0.54303259  0.30463559  1
  O  O65  1  0.89792388  0.59464452  0.62870886  1
  O  O66  1  0.86009620  0.21510558  0.40593513  1
  O  O67  1  0.86160030  0.83750062  0.29370951  1
  O  O68  1  0.89125409  0.71780863  0.46945063  1
  O  O69  1  0.96768418  0.93791505  0.76170439  1
  O  O70  1  0.91978197  0.86783924  0.12596639  1
  O  O71  1  0.92351173  0.62317179  0.03654608  1
