# generated using pymatgen
data_InAgSnS4
_symmetry_space_group_name_H-M   'P 1'
_cell_length_a   7.73367921
_cell_length_b   7.73367921
_cell_length_c   7.73367921
_cell_angle_alpha   89.93305265
_cell_angle_beta   60.21006756
_cell_angle_gamma   120.13307464
_symmetry_Int_Tables_number   1
_chemical_formula_structural   InAgSnS4
_chemical_formula_sum   'In2 Ag2 Sn2 S8'
_cell_volume   327.25848277
_cell_formula_units_Z   2
loop_
 _symmetry_equiv_pos_site_id
 _symmetry_equiv_pos_as_xyz
  1  'x, y, z'
loop_
 _atom_site_type_symbol
 _atom_site_label
 _atom_site_symmetry_multiplicity
 _atom_site_fract_x
 _atom_site_fract_y
 _atom_site_fract_z
 _atom_site_occupancy
  In  In0  1  0.75000000  0.37500000  0.87500000  1
  In  In1  1  0.25000000  0.37500000  0.37500000  1
  Ag  Ag2  1  0.50000000  0.75336635  0.74663365  1
  Ag  Ag3  1  0.00000000  0.99663365  0.00336635  1
  Sn  Sn4  1  0.25000000  0.87500000  0.37500000  1
  Sn  Sn5  1  0.75000000  0.37500000  0.37500000  1
  S  S6  1  0.26948531  0.12983776  0.60067693  1
  S  S7  1  0.73051469  0.12983776  0.13964755  1
  S  S8  1  0.73281783  0.59449319  0.13832464  1
  S  S9  1  0.26718217  0.12885753  0.13832464  1
  S  S10  1  0.23051469  0.62016224  0.14932307  1
  S  S11  1  0.76948531  0.62016224  0.61035245  1
  S  S12  1  0.76718217  0.15550681  0.61167536  1
  S  S13  1  0.23281783  0.62114247  0.61167536  1
