# generated using pymatgen
data_K2MnH4(I2O7)2
_symmetry_space_group_name_H-M   'P 1'
_cell_length_a   8.22776306
_cell_length_b   8.12945030
_cell_length_c   8.18253081
_cell_angle_alpha   92.60484269
_cell_angle_beta   59.81697231
_cell_angle_gamma   120.40085653
_symmetry_Int_Tables_number   1
_chemical_formula_structural   K2MnH4(I2O7)2
_chemical_formula_sum   'K2 Mn1 H4 I4 O14'
_cell_volume   391.69920311
_cell_formula_units_Z   1
loop_
 _symmetry_equiv_pos_site_id
 _symmetry_equiv_pos_as_xyz
  1  'x, y, z'
loop_
 _atom_site_type_symbol
 _atom_site_label
 _atom_site_symmetry_multiplicity
 _atom_site_fract_x
 _atom_site_fract_y
 _atom_site_fract_z
 _atom_site_occupancy
  K  K0  1  0.65014325  0.00000000  1.00000000  1
  K  K1  1  0.13164816  1.00000000  0.00000000  1
  Mn  Mn2  1  0.08441289  0.50000000  0.50000000  1
  H  H3  1  0.32924323  0.37677370  0.53942467  1
  H  H4  1  0.49189419  0.62322630  0.46057533  1
  H  H5  1  0.83575702  0.53177559  0.37535328  1
  H  H6  1  0.67933471  0.46822441  0.62464672  1
  I  I7  1  0.65110417  0.48990055  0.98147859  1
  I  I8  1  0.14268221  0.51009945  0.01852141  1
  I  I9  1  0.67335288  0.03518192  0.51733801  1
  I  I10  1  0.15550897  0.96481808  0.48266199  1
  O  O11  1  0.82238009  0.50000000  0.50000000  1
  O  O12  1  0.92204602  0.17849176  0.53324312  1
  O  O13  1  0.27679738  0.82150824  0.46675688  1
  O  O14  1  0.72362076  0.85016183  0.41188377  1
  O  O15  1  0.28534269  0.14983817  0.58811623  1
  O  O16  1  0.82763277  0.76082119  0.87840551  1
  O  O17  1  0.94521709  0.23917881  0.12159449  1
  O  O18  1  0.85064276  0.42098182  0.82830416  1
  O  O19  1  0.25796511  0.57901818  0.17169584  1
  O  O20  1  0.34265609  0.50000000  0.50000000  1
  O  O21  1  0.45852620  0.90267334  0.77975724  1
  O  O22  1  0.33561009  0.09732666  0.22024276  1
  O  O23  1  0.49034806  0.41285655  0.86558171  1
  O  O24  1  0.94307322  0.58714345  0.13441829  1
