# generated using pymatgen
data_La(CdAs)3
_symmetry_space_group_name_H-M   'P 1'
_cell_length_a   4.49676360
_cell_length_b   4.48753482
_cell_length_c   21.71640170
_cell_angle_alpha   90.00000000
_cell_angle_beta   90.00000000
_cell_angle_gamma   120.06450100
_symmetry_Int_Tables_number   1
_chemical_formula_structural   La(CdAs)3
_chemical_formula_sum   'La2 Cd6 As6'
_cell_volume   379.26585615
_cell_formula_units_Z   2
loop_
 _symmetry_equiv_pos_site_id
 _symmetry_equiv_pos_as_xyz
  1  'x, y, z'
loop_
 _atom_site_type_symbol
 _atom_site_label
 _atom_site_symmetry_multiplicity
 _atom_site_fract_x
 _atom_site_fract_y
 _atom_site_fract_z
 _atom_site_occupancy
  La  La0  1  0.00202881  0.00116812  0.49985099  1
  La  La1  1  0.00202881  0.00116812  0.00014901  1
  Cd  Cd2  1  0.66726283  0.33489485  0.12535993  1
  Cd  Cd3  1  0.33605817  0.66806560  0.87480481  1
  Cd  Cd4  1  0.33605817  0.66806560  0.62519519  1
  Cd  Cd5  1  0.66726283  0.33489485  0.37464007  1
  Cd  Cd6  1  0.72708683  0.36628253  0.75000000  1
  Cd  Cd7  1  0.36168557  0.72669463  0.25000000  1
  As  As8  1  0.66931684  0.33474420  0.57721951  1
  As  As9  1  0.33452615  0.66822467  0.42253161  1
  As  As10  1  0.33452615  0.66822467  0.07746839  1
  As  As11  1  0.66931684  0.33474420  0.92278049  1
  As  As12  1  0.39617966  0.69939991  0.75000000  1
  As  As13  1  0.69796231  0.39862807  0.25000000  1
