# generated using pymatgen
data_KAs3(PbO3)4
_symmetry_space_group_name_H-M   'P 1'
_cell_length_a   7.52598229
_cell_length_b   10.33029017
_cell_length_c   10.33044413
_cell_angle_alpha   59.99869045
_cell_angle_beta   90.00000000
_cell_angle_gamma   90.00000000
_symmetry_Int_Tables_number   1
_chemical_formula_structural   KAs3(PbO3)4
_chemical_formula_sum   'K2 As6 Pb8 O24'
_cell_volume   695.53598890
_cell_formula_units_Z   2
loop_
 _symmetry_equiv_pos_site_id
 _symmetry_equiv_pos_as_xyz
  1  'x, y, z'
loop_
 _atom_site_type_symbol
 _atom_site_label
 _atom_site_symmetry_multiplicity
 _atom_site_fract_x
 _atom_site_fract_y
 _atom_site_fract_z
 _atom_site_occupancy
  K  K0  1  0.01554095  0.33334216  0.33334682  1
  K  K1  1  0.51554095  0.66665784  0.66665318  1
  As  As2  1  0.24624939  0.01628048  0.37432924  1
  As  As3  1  0.24625378  0.60938425  0.01629127  1
  As  As4  1  0.24625351  0.37432267  0.60938469  1
  As  As5  1  0.74624939  0.98371952  0.62567076  1
  As  As6  1  0.74625378  0.39061575  0.98370873  1
  As  As7  1  0.74625351  0.62567733  0.39061531  1
  Pb  Pb8  1  0.75013394  0.26020801  0.74003602  1
  Pb  Pb9  1  0.75013271  -0.00024256  0.26021529  1
  Pb  Pb10  1  0.75013625  0.74004072  -0.00025609  1
  Pb  Pb11  1  0.25013394  0.73979199  0.25996398  1
  Pb  Pb12  1  0.25013271  0.00024256  0.73978471  1
  Pb  Pb13  1  0.25013625  0.25995928  0.00025609  1
  Pb  Pb14  1  0.01706805  0.66664745  0.66667825  1
  Pb  Pb15  1  0.51706805  0.33335255  0.33332175  1
  O  O16  1  0.23958383  0.69591490  0.82483186  1
  O  O17  1  0.23958297  0.47924966  0.69591682  1
  O  O18  1  0.23958380  0.82483148  0.47925408  1
  O  O19  1  0.73958383  0.30408510  0.17516814  1
  O  O20  1  0.73958297  0.52075034  0.30408318  1
  O  O21  1  0.73958380  0.17516852  0.52074592  1
  O  O22  1  0.56938034  0.34064799  0.91191017  1
  O  O23  1  0.56937955  0.74744461  0.34065159  1
  O  O24  1  0.56937785  0.91191019  0.74744152  1
  O  O25  1  0.06938034  0.65935201  0.08808983  1
  O  O26  1  0.06937955  0.25255539  0.65934841  1
  O  O27  1  0.06937785  0.08808981  0.25255848  1
  O  O28  1  0.43031592  0.65517794  0.08508614  1
  O  O29  1  0.43031427  0.25973093  0.65518369  1
  O  O30  1  0.43031223  0.08508117  0.25972981  1
  O  O31  1  0.93031592  0.34482206  0.91491386  1
  O  O32  1  0.93031427  0.74026907  0.34481631  1
  O  O33  1  0.93031223  0.91491883  0.74027019  1
  O  O34  1  0.25346471  0.09635651  0.48759038  1
  O  O35  1  0.25346736  0.41604926  0.09636082  1
  O  O36  1  0.25346860  0.48759547  0.41605197  1
  O  O37  1  0.75346471  0.90364349  0.51240962  1
  O  O38  1  0.75346736  0.58395074  0.90363918  1
  O  O39  1  0.75346860  0.51240453  0.58394803  1
