# generated using pymatgen
data_Hf2Al3Pd
_symmetry_space_group_name_H-M   'P 1'
_cell_length_a   5.33329118
_cell_length_b   5.33330898
_cell_length_c   8.34995211
_cell_angle_alpha   90.00000000
_cell_angle_beta   90.00000000
_cell_angle_gamma   59.99988304
_symmetry_Int_Tables_number   1
_chemical_formula_structural   Hf2Al3Pd
_chemical_formula_sum   'Hf4 Al6 Pd2'
_cell_volume   205.68666888
_cell_formula_units_Z   2
loop_
 _symmetry_equiv_pos_site_id
 _symmetry_equiv_pos_as_xyz
  1  'x, y, z'
loop_
 _atom_site_type_symbol
 _atom_site_label
 _atom_site_symmetry_multiplicity
 _atom_site_fract_x
 _atom_site_fract_y
 _atom_site_fract_z
 _atom_site_occupancy
  Hf  Hf0  1  0.33331120  0.33334440  0.56814814  1
  Hf  Hf1  1  0.66668880  0.66665560  0.43185186  1
  Hf  Hf2  1  0.66668880  0.66665560  0.06814814  1
  Hf  Hf3  1  0.33331120  0.33334440  0.93185186  1
  Al  Al4  1  0.82996938  0.34006638  0.75000000  1
  Al  Al5  1  0.34007692  0.82996154  0.75000000  1
  Al  Al6  1  0.82996938  0.82996424  0.75000000  1
  Al  Al7  1  0.17003062  0.65993362  0.25000000  1
  Al  Al8  1  0.65992308  0.17003846  0.25000000  1
  Al  Al9  1  0.17003062  0.17003576  0.25000000  1
  Pd  Pd10  1  0.00000000  0.00000000  0.50000000  1
  Pd  Pd11  1  0.00000000  0.00000000  0.00000000  1
