# generated using pymatgen
data_HfCrCuS4
_symmetry_space_group_name_H-M   'P 1'
_cell_length_a   7.19382529
_cell_length_b   7.23567313
_cell_length_c   7.20212986
_cell_angle_alpha   90.00000000
_cell_angle_beta   59.96180533
_cell_angle_gamma   120.19261838
_symmetry_Int_Tables_number   1
_chemical_formula_structural   HfCrCuS4
_chemical_formula_sum   'Hf2 Cr2 Cu2 S8'
_cell_volume   264.15678266
_cell_formula_units_Z   2
loop_
 _symmetry_equiv_pos_site_id
 _symmetry_equiv_pos_as_xyz
  1  'x, y, z'
loop_
 _atom_site_type_symbol
 _atom_site_label
 _atom_site_symmetry_multiplicity
 _atom_site_fract_x
 _atom_site_fract_y
 _atom_site_fract_z
 _atom_site_occupancy
  Hf  Hf0  1  -0.00000000  -0.00000000  0.50000000  1
  Hf  Hf1  1  -0.00000000  -0.00000000  -0.00000000  1
  Cr  Cr2  1  0.50000000  0.50000000  -0.00000000  1
  Cr  Cr3  1  0.50000000  -0.00000000  -0.00000000  1
  Cu  Cu4  1  0.74209834  0.37104917  0.37895083  1
  Cu  Cu5  1  0.25790166  0.62895083  0.62104917  1
  S  S6  1  0.01972933  0.76277772  0.24013533  1
  S  S7  1  0.01972933  0.25695161  0.24013533  1
  S  S8  1  0.50193258  0.25096629  0.76945402  1
  S  S9  1  0.50193258  0.25096629  0.22861340  1
  S  S10  1  0.98027067  0.23722228  0.75986467  1
  S  S11  1  0.98027067  0.74304839  0.75986467  1
  S  S12  1  0.49806742  0.74903371  0.23054598  1
  S  S13  1  0.49806742  0.74903371  0.77138660  1
