# generated using pymatgen
data_Fe2AsO4F
_symmetry_space_group_name_H-M   'P 1'
_cell_length_a   6.71077825
_cell_length_b   7.54589019
_cell_length_c   9.94965480
_cell_angle_alpha   87.70718303
_cell_angle_beta   70.29138970
_cell_angle_gamma   116.40187243
_symmetry_Int_Tables_number   1
_chemical_formula_structural   Fe2AsO4F
_chemical_formula_sum   'Fe8 As4 O16 F4'
_cell_volume   413.92899604
_cell_formula_units_Z   4
loop_
 _symmetry_equiv_pos_site_id
 _symmetry_equiv_pos_as_xyz
  1  'x, y, z'
loop_
 _atom_site_type_symbol
 _atom_site_label
 _atom_site_symmetry_multiplicity
 _atom_site_fract_x
 _atom_site_fract_y
 _atom_site_fract_z
 _atom_site_occupancy
  Fe  Fe0  1  0.22383180  0.89920657  0.98312018  1
  Fe  Fe1  1  0.82708459  0.60365076  0.51337807  1
  Fe  Fe2  1  0.76318809  0.10365076  0.01337807  1
  Fe  Fe3  1  0.19225459  0.39920657  0.48312018  1
  Fe  Fe4  1  0.32223938  0.06437029  0.63407382  1
  Fe  Fe5  1  0.39765817  0.45066333  0.87147733  1
  Fe  Fe6  1  0.68152783  0.95066333  0.37147733  1
  Fe  Fe7  1  0.60805709  0.56437029  0.13407382  1
  As  As8  1  0.73162271  0.95794220  0.69330773  1
  As  As9  1  0.96939836  0.54178557  0.80625107  1
  As  As10  1  0.26613615  0.04178557  0.30625107  1
  As  As11  1  0.03301176  0.45794220  0.19330773  1
  O  O12  1  0.60099470  0.98569550  0.86599210  1
  O  O13  1  0.98252043  0.50833695  0.63339152  1
  O  O14  1  0.39242500  0.00833695  0.13339152  1
  O  O15  1  0.01870869  0.48569550  0.36599210  1
  O  O16  1  0.66318156  0.70747000  0.69838946  1
  O  O17  1  0.15866608  0.79188296  0.79657289  1
  O  O18  1  0.33664399  0.29188296  0.29657289  1
  O  O19  1  0.84589898  0.20747000  0.19838946  1
  O  O20  1  0.64150524  0.04082364  0.57151150  1
  O  O21  1  0.67754429  0.46081314  0.92980014  1
  O  O22  1  0.35346870  0.96081314  0.42980014  1
  O  O23  1  0.32780690  0.54082364  0.07151150  1
  O  O24  1  0.04133987  0.11469028  0.62710209  1
  O  O25  1  0.05674378  0.38590213  0.87461937  1
  O  O26  1  0.95453897  0.88590213  0.37461937  1
  O  O27  1  0.94624832  0.61469028  0.12710209  1
  F  F28  1  0.32170593  0.16875264  0.83364545  1
  F  F29  1  0.51340126  0.66875264  0.33364545  1
  F  F30  1  0.49142314  0.39011403  0.54346726  1
  F  F31  1  0.85522364  0.89011403  0.04346726  1
