# generated using pymatgen
data_Hf4C3N
_symmetry_space_group_name_H-M   'P 1'
_cell_length_a   3.27323505
_cell_length_b   3.27323505
_cell_length_c   10.83665316
_cell_angle_alpha   90.00000000
_cell_angle_beta   81.31360449
_cell_angle_gamma   120.00000000
_symmetry_Int_Tables_number   1
_chemical_formula_structural   Hf4C3N
_chemical_formula_sum   'Hf4 C3 N1'
_cell_volume   99.00881020
_cell_formula_units_Z   1
loop_
 _symmetry_equiv_pos_site_id
 _symmetry_equiv_pos_as_xyz
  1  'x, y, z'
loop_
 _atom_site_type_symbol
 _atom_site_label
 _atom_site_symmetry_multiplicity
 _atom_site_fract_x
 _atom_site_fract_y
 _atom_site_fract_z
 _atom_site_occupancy
  Hf  Hf0  1  0.99890454  0.49945227  0.50164319  1
  Hf  Hf1  1  0.50109546  0.75054773  0.74835681  1
  Hf  Hf2  1  0.00262417  0.00131209  0.99606374  1
  Hf  Hf3  1  0.49737583  0.24868791  0.25393626  1
  C  C4  1  0.75328441  0.87664221  0.37007338  1
  C  C5  1  0.25000000  0.12500000  0.62500000  1
  C  C6  1  0.74671559  0.37335779  0.87992662  1
  N  N7  1  0.25000000  0.62500000  0.12500000  1
