# generated using pymatgen
data_KIn7S8
_symmetry_space_group_name_H-M   'P 1'
_cell_length_a   3.98946513
_cell_length_b   19.32866824
_cell_length_c   17.90127236
_cell_angle_alpha   112.16086617
_cell_angle_beta   90.00000000
_cell_angle_gamma   90.00000000
_symmetry_Int_Tables_number   1
_chemical_formula_structural   KIn7S8
_chemical_formula_sum   'K3 In21 S24'
_cell_volume   1278.41461239
_cell_formula_units_Z   3
loop_
 _symmetry_equiv_pos_site_id
 _symmetry_equiv_pos_as_xyz
  1  'x, y, z'
loop_
 _atom_site_type_symbol
 _atom_site_label
 _atom_site_symmetry_multiplicity
 _atom_site_fract_x
 _atom_site_fract_y
 _atom_site_fract_z
 _atom_site_occupancy
  K  K0  1  0.75000000  0.21620420  0.29762324  1
  K  K1  1  0.25000000  0.78367829  0.20228191  1
  K  K2  1  0.25000000  0.78354248  0.70228764  1
  In  In3  1  0.75000000  0.88588563  0.50121646  1
  In  In4  1  0.75000000  0.88605995  0.00136300  1
  In  In5  1  0.25000000  0.11409260  0.49870564  1
  In  In6  1  0.25000000  0.11405640  0.99882205  1
  In  In7  1  0.75000000  0.54398360  0.60015947  1
  In  In8  1  0.75000000  0.54383187  0.10012000  1
  In  In9  1  0.25000000  0.45594828  0.39976180  1
  In  In10  1  0.25000000  0.45611743  0.90032543  1
  In  In11  1  0.75000000  0.38327002  0.21041068  1
  In  In12  1  0.75000000  0.38327957  0.70994725  1
  In  In13  1  0.25000000  0.61689315  0.78959923  1
  In  In14  1  0.25000000  0.61687859  0.28948618  1
  In  In15  1  0.75000000  0.31448872  0.54155732  1
  In  In16  1  0.75000000  0.31402308  0.04066601  1
  In  In17  1  0.25000000  0.68542731  0.45865604  1
  In  In18  1  0.25000000  0.68562904  0.95861869  1
  In  In19  1  0.75000000  0.00507066  0.15608695  1
  In  In20  1  0.75000000  0.00514929  0.65563680  1
  In  In21  1  0.25000000  0.99480422  0.84458371  1
  In  In22  1  0.25000000  0.99505462  0.34380048  1
  In  In23  1  0.75000000  0.21618162  0.79650369  1
  S  S24  1  0.75000000  0.76487098  0.53585427  1
  S  S25  1  0.75000000  0.76476924  0.03583887  1
  S  S26  1  0.25000000  0.23489339  0.46378322  1
  S  S27  1  0.25000000  0.23528105  0.96444681  1
  S  S28  1  0.75000000  0.50475244  0.33473060  1
  S  S29  1  0.75000000  0.50397275  0.83424237  1
  S  S30  1  0.25000000  0.49578781  0.66580703  1
  S  S31  1  0.25000000  0.49542152  0.16572282  1
  S  S32  1  0.75000000  0.66668045  0.73120438  1
  S  S33  1  0.75000000  0.66669389  0.23122987  1
  S  S34  1  0.25000000  0.33316493  0.26854377  1
  S  S35  1  0.25000000  0.33188368  0.76895828  1
  S  S36  1  0.75000000  0.41332874  0.47399573  1
  S  S37  1  0.75000000  0.41357761  0.97408266  1
  S  S38  1  0.25000000  0.58677688  0.52610234  1
  S  S39  1  0.25000000  0.58687625  0.02612622  1
  S  S40  1  0.75000000  0.13201132  0.08856821  1
  S  S41  1  0.75000000  0.13215389  0.58924696  1
  S  S42  1  0.25000000  0.86774126  0.91125478  1
  S  S43  1  0.25000000  0.86793123  0.41143190  1
  S  S44  1  0.75000000  0.92597197  0.76061112  1
  S  S45  1  0.75000000  0.92550425  0.26061787  1
  S  S46  1  0.25000000  0.07440528  0.23952263  1
  S  S47  1  0.25000000  0.07599855  0.73985763  1
