# generated using pymatgen
data_K3Na7Mg2H12S6(NO18)2
_symmetry_space_group_name_H-M   'P 1'
_cell_length_a   10.32370772
_cell_length_b   10.32369886
_cell_length_c   10.32370199
_cell_angle_alpha   64.78849047
_cell_angle_beta   64.78860002
_cell_angle_gamma   64.78809972
_symmetry_Int_Tables_number   1
_chemical_formula_structural   K3Na7Mg2H12S6(NO18)2
_chemical_formula_sum   'K3 Na7 Mg2 H12 S6 N2 O36'
_cell_volume   859.52484905
_cell_formula_units_Z   1
loop_
 _symmetry_equiv_pos_site_id
 _symmetry_equiv_pos_as_xyz
  1  'x, y, z'
loop_
 _atom_site_type_symbol
 _atom_site_label
 _atom_site_symmetry_multiplicity
 _atom_site_fract_x
 _atom_site_fract_y
 _atom_site_fract_z
 _atom_site_occupancy
  K  K0  1  0.00089309  0.49932819  0.49797894  1
  K  K1  1  0.49932686  0.49797823  0.00088920  1
  K  K2  1  0.49797769  0.00089115  0.49932768  1
  Na  Na3  1  0.72815311  0.26035291  0.74096755  1
  Na  Na4  1  0.26035498  0.74096997  0.72814947  1
  Na  Na5  1  0.74097798  0.72815599  0.26034392  1
  Na  Na6  1  0.27607906  0.73240273  0.26082199  1
  Na  Na7  1  0.73240700  0.26081841  0.27607608  1
  Na  Na8  1  0.26081134  0.27607326  0.73241497  1
  Na  Na9  1  0.87203988  0.87203734  0.87203637  1
  Mg  Mg10  1  0.99833632  0.99833620  0.99833634  1
  Mg  Mg11  1  0.12324068  0.12324061  0.12324245  1
  H  H12  1  0.76620392  0.03274603  0.62323456  1
  H  H13  1  0.03274523  0.62323541  0.76620264  1
  H  H14  1  0.62323638  0.76620490  0.03274454  1
  H  H15  1  0.22394291  0.98468476  0.36662597  1
  H  H16  1  0.98468502  0.36662492  0.22394195  1
  H  H17  1  0.36662467  0.22394154  0.98468488  1
  H  H18  1  0.62193043  0.03576783  0.75923880  1
  H  H19  1  0.03576820  0.75923912  0.62192797  1
  H  H20  1  0.75924008  0.62192920  0.03576792  1
  H  H21  1  0.36649740  0.98200224  0.22737812  1
  H  H22  1  0.98200074  0.22737801  0.36649807  1
  H  H23  1  0.22737695  0.36649727  0.98200237  1
  S  S24  1  0.89913404  0.37800885  0.90459494  1
  S  S25  1  0.37800732  0.90459213  0.89913669  1
  S  S26  1  0.90459399  0.89913697  0.37800833  1
  S  S27  1  0.10758415  0.61230472  0.10270172  1
  S  S28  1  0.61230440  0.10270302  0.10758171  1
  S  S29  1  0.10270136  0.10758126  0.61230416  1
  N  N30  1  0.57235712  0.57235342  0.57234110  1
  N  N31  1  0.42793258  0.42793772  0.42795259  1
  O  O32  1  0.81032596  0.37445713  0.82673145  1
  O  O33  1  0.37445614  0.82673019  0.81032927  1
  O  O34  1  0.82673109  0.81032795  0.37445719  1
  O  O35  1  0.20103605  0.60012603  0.18596919  1
  O  O36  1  0.60012440  0.18597115  0.20103324  1
  O  O37  1  0.18596962  0.20103314  0.60012528  1
  O  O38  1  0.98312273  0.21797986  0.97821527  1
  O  O39  1  0.21797871  0.97821467  0.98312448  1
  O  O40  1  0.97821244  0.98312528  0.21797932  1
  O  O41  1  0.03063159  0.77457470  0.03581589  1
  O  O42  1  0.77457524  0.03581505  0.03063254  1
  O  O43  1  0.03581277  0.03063375  0.77457576  1
  O  O44  1  0.01420630  0.45428293  0.79629428  1
  O  O45  1  0.45428153  0.79628965  0.01421198  1
  O  O46  1  0.79629158  0.01421103  0.45428192  1
  O  O47  1  0.98914672  0.53700342  0.20745473  1
  O  O48  1  0.53700526  0.20745979  0.98913925  1
  O  O49  1  0.20745579  0.98914036  0.53700678  1
  O  O50  1  0.79929433  0.44823624  0.02622022  1
  O  O51  1  0.44823589  0.02621661  0.79929930  1
  O  O52  1  0.02621949  0.79929753  0.44823444  1
  O  O53  1  0.20364404  0.54331490  0.97864979  1
  O  O54  1  0.54331374  0.97865463  0.20363755  1
  O  O55  1  0.97865195  0.20364078  0.54331338  1
  O  O56  1  0.70387522  0.49373115  0.51894202  1
  O  O57  1  0.49373585  0.51894975  0.70386462  1
  O  O58  1  0.51895299  0.70387100  0.49372305  1
  O  O59  1  0.29636166  0.50482746  0.48352230  1
  O  O60  1  0.50482293  0.48351581  0.29637446  1
  O  O61  1  0.48351004  0.29636667  0.50483669  1
  O  O62  1  0.72309906  0.72243359  0.04877862  1
  O  O63  1  0.72243289  0.04878003  0.72309796  1
  O  O64  1  0.04878297  0.72309586  0.72243236  1
  O  O65  1  0.26118769  0.26020477  0.98084642  1
  O  O66  1  0.26020593  0.98084454  0.26118923  1
  O  O67  1  0.98084452  0.26118826  0.26020580  1
