# generated using pymatgen
data_K10Zn4Sn4S17
_symmetry_space_group_name_H-M   'P 1'
_cell_length_a   10.09344174
_cell_length_b   10.09344174
_cell_length_c   10.09344174
_cell_angle_alpha   90.45121602
_cell_angle_beta   89.54878398
_cell_angle_gamma   89.54878398
_symmetry_Int_Tables_number   1
_chemical_formula_structural   K10Zn4Sn4S17
_chemical_formula_sum   'K10 Zn4 Sn4 S17'
_cell_volume   1028.19911277
_cell_formula_units_Z   1
loop_
 _symmetry_equiv_pos_site_id
 _symmetry_equiv_pos_as_xyz
  1  'x, y, z'
loop_
 _atom_site_type_symbol
 _atom_site_label
 _atom_site_symmetry_multiplicity
 _atom_site_fract_x
 _atom_site_fract_y
 _atom_site_fract_z
 _atom_site_occupancy
  K  K0  1  0.99953558  0.49963908  0.00046442  1
  K  K1  1  0.50036092  0.00046442  0.00046442  1
  K  K2  1  0.99953558  0.00046442  0.49963908  1
  K  K3  1  0.50088878  0.49911122  0.95666597  1
  K  K4  1  0.50088878  0.95666597  0.49911122  1
  K  K5  1  0.04333403  0.49911122  0.49911122  1
  K  K6  1  0.33437466  0.32365391  0.66562534  1
  K  K7  1  0.67634609  0.66562534  0.66562534  1
  K  K8  1  0.33437466  0.66562534  0.32365391  1
  K  K9  1  0.66663298  0.33336702  0.33336702  1
  Zn  Zn10  1  0.86641438  0.13358562  0.13358562  1
  Zn  Zn11  1  0.13279698  0.13378299  0.86720302  1
  Zn  Zn12  1  0.13279698  0.86720302  0.13378299  1
  Zn  Zn13  1  0.86621701  0.86720302  0.86720302  1
  Sn  Sn14  1  0.77612259  0.22387741  0.77559997  1
  Sn  Sn15  1  0.77612259  0.77559997  0.22387741  1
  Sn  Sn16  1  0.22440003  0.22387741  0.22387741  1
  Sn  Sn17  1  0.22262824  0.77737176  0.77737176  1
  S  S18  1  0.00068312  0.99931688  0.99931688  1
  S  S19  1  0.63866425  0.36133575  0.64679399  1
  S  S20  1  0.63866425  0.64679399  0.36133575  1
  S  S21  1  0.35320601  0.36133575  0.36133575  1
  S  S22  1  0.35934363  0.64065637  0.64065637  1
  S  S23  1  0.72711760  0.27288240  0.00772956  1
  S  S24  1  0.72711760  0.00772956  0.27288240  1
  S  S25  1  0.99227044  0.27288240  0.27288240  1
  S  S26  1  0.27316279  0.27217743  0.99213388  1
  S  S27  1  0.27366836  0.00647741  0.72633164  1
  S  S28  1  0.00786612  0.27217743  0.72683721  1
  S  S29  1  0.27366836  0.72633164  0.00647741  1
  S  S30  1  0.27316279  0.99213388  0.27217743  1
  S  S31  1  0.00786612  0.72683721  0.27217743  1
  S  S32  1  0.72782257  0.72683721  0.99213388  1
  S  S33  1  0.72782257  0.99213388  0.72683721  1
  S  S34  1  0.99352259  0.72633164  0.72633164  1
