# generated using pymatgen
data_Hf2Al3Au
_symmetry_space_group_name_H-M   'P 1'
_cell_length_a   5.32435273
_cell_length_b   5.27383567
_cell_length_c   5.32435273
_cell_angle_alpha   90.00000000
_cell_angle_beta   60.00000000
_cell_angle_gamma   120.31737362
_symmetry_Int_Tables_number   1
_chemical_formula_structural   Hf2Al3Au
_chemical_formula_sum   'Hf2 Al3 Au1'
_cell_volume   105.20712100
_cell_formula_units_Z   1
loop_
 _symmetry_equiv_pos_site_id
 _symmetry_equiv_pos_as_xyz
  1  'x, y, z'
loop_
 _atom_site_type_symbol
 _atom_site_label
 _atom_site_symmetry_multiplicity
 _atom_site_fract_x
 _atom_site_fract_y
 _atom_site_fract_z
 _atom_site_occupancy
  Hf  Hf0  1  0.74559771  0.36839656  0.37720115  1
  Hf  Hf1  1  0.25440229  0.63160344  0.62279885  1
  Al  Al2  1  0.50000000  -0.00000000  0.00000000  1
  Al  Al3  1  -0.00000000  -0.00000000  0.50000000  1
  Al  Al4  1  -0.00000000  0.00000000  0.00000000  1
  Au  Au5  1  0.50000000  0.50000000  -0.00000000  1
