# generated using pymatgen
data_La3Nd11(Si3O13)3
_symmetry_space_group_name_H-M   'P 1'
_cell_length_a   9.66240108
_cell_length_b   9.66236842
_cell_length_c   21.40191461
_cell_angle_alpha   90.00000000
_cell_angle_beta   90.00000000
_cell_angle_gamma   60.00004910
_symmetry_Int_Tables_number   1
_chemical_formula_structural   La3Nd11(Si3O13)3
_chemical_formula_sum   'La6 Nd22 Si18 O78'
_cell_volume   1730.42239501
_cell_formula_units_Z   2
loop_
 _symmetry_equiv_pos_site_id
 _symmetry_equiv_pos_as_xyz
  1  'x, y, z'
loop_
 _atom_site_type_symbol
 _atom_site_label
 _atom_site_symmetry_multiplicity
 _atom_site_fract_x
 _atom_site_fract_y
 _atom_site_fract_z
 _atom_site_occupancy
  La  La0  1  0.66667143  0.66666410  0.84172141  1
  La  La1  1  0.33332857  0.33333590  0.34172141  1
  La  La2  1  0.33333245  0.33332978  0.16897469  1
  La  La3  1  0.66666755  0.66667022  0.66897469  1
  La  La4  1  0.66667236  0.66666841  0.50174383  1
  La  La5  1  0.33332764  0.33333159  0.00174383  1
  Nd  Nd6  1  0.24558079  0.98490465  0.91858528  1
  Nd  Nd7  1  0.76950710  0.24558463  0.91858773  1
  Nd  Nd8  1  0.98490363  0.76951580  0.91858558  1
  Nd  Nd9  1  0.75441921  0.01509535  0.41858528  1
  Nd  Nd10  1  0.23049290  0.75441537  0.41858773  1
  Nd  Nd11  1  0.01509637  0.23048420  0.41858558  1
  Nd  Nd12  1  0.76026770  0.00944476  0.08224716  1
  Nd  Nd13  1  0.23029379  0.76026354  0.08224800  1
  Nd  Nd14  1  0.00944205  0.23029369  0.08224856  1
  Nd  Nd15  1  0.23973230  0.99055524  0.58224716  1
  Nd  Nd16  1  0.76970621  0.23973646  0.58224800  1
  Nd  Nd17  1  0.99055795  0.76970631  0.58224856  1
  Nd  Nd18  1  0.66666451  0.66666884  0.15635758  1
  Nd  Nd19  1  0.33333549  0.33333116  0.65635758  1
  Nd  Nd20  1  0.33333319  0.33333193  0.83200667  1
  Nd  Nd21  1  0.66666681  0.66666807  0.33200667  1
  Nd  Nd22  1  0.24278915  0.98895254  0.24956164  1
  Nd  Nd23  1  0.76825264  0.24279499  0.24956121  1
  Nd  Nd24  1  0.98895172  0.76826103  0.24955967  1
  Nd  Nd25  1  0.75721085  0.01104746  0.74956164  1
  Nd  Nd26  1  0.23174736  0.75720501  0.74956121  1
  Nd  Nd27  1  0.01104828  0.23173897  0.74955967  1
  Si  Si28  1  0.40043634  0.97194433  0.74984841  1
  Si  Si29  1  0.62761975  0.40043577  0.74984861  1
  Si  Si30  1  0.97194481  0.62761796  0.74984890  1
  Si  Si31  1  0.59956366  0.02805567  0.24984841  1
  Si  Si32  1  0.37238025  0.59956423  0.24984861  1
  Si  Si33  1  0.02805519  0.37238204  0.24984890  1
  Si  Si34  1  0.39913034  0.97091091  0.08365208  1
  Si  Si35  1  0.62995470  0.39912950  0.08365282  1
  Si  Si36  1  0.97091122  0.62995840  0.08365185  1
  Si  Si37  1  0.60086966  0.02908909  0.58365208  1
  Si  Si38  1  0.37004530  0.60087050  0.58365282  1
  Si  Si39  1  0.02908878  0.37004160  0.58365185  1
  Si  Si40  1  0.60333189  0.03119771  0.91488077  1
  Si  Si41  1  0.36546928  0.60333208  0.91487998  1
  Si  Si42  1  0.03120108  0.36546754  0.91488094  1
  Si  Si43  1  0.39666811  0.96880229  0.41488077  1
  Si  Si44  1  0.63453072  0.39666792  0.41487998  1
  Si  Si45  1  0.96879892  0.63453246  0.41488094  1
  O  O46  1  0.46513283  0.69562438  0.91035186  1
  O  O47  1  0.83924048  0.46513155  0.91035434  1
  O  O48  1  0.69563287  0.83923737  0.91035243  1
  O  O49  1  0.53486717  0.30437562  0.41035186  1
  O  O50  1  0.16075952  0.53486845  0.41035434  1
  O  O51  1  0.30436713  0.16076263  0.41035243  1
  O  O52  1  0.51694156  0.31394882  0.08488163  1
  O  O53  1  0.16910510  0.51694415  0.08488055  1
  O  O54  1  0.31394298  0.16910552  0.08488166  1
  O  O55  1  0.48305844  0.68605118  0.58488163  1
  O  O56  1  0.83089490  0.48305585  0.58488055  1
  O  O57  1  0.68605702  0.83089448  0.58488166  1
  O  O58  1  0.25505667  0.63328628  0.85142973  1
  O  O59  1  0.11165443  0.25505750  0.85143043  1
  O  O60  1  0.63328421  0.11165353  0.85142983  1
  O  O61  1  0.74494333  0.36671372  0.35142973  1
  O  O62  1  0.88834557  0.74494250  0.35143043  1
  O  O63  1  0.36671579  0.88834647  0.35142983  1
  O  O64  1  0.74247604  0.35681245  0.14745127  1
  O  O65  1  0.90070919  0.74247914  0.14745065  1
  O  O66  1  0.35681513  0.90070625  0.14745090  1
  O  O67  1  0.25752396  0.64318755  0.64745127  1
  O  O68  1  0.09929081  0.25752086  0.64745065  1
  O  O69  1  0.64318487  0.09929375  0.64745090  1
  O  O70  1  0.16507951  0.50780509  0.74815432  1
  O  O71  1  0.32711428  0.16508076  0.74815346  1
  O  O72  1  0.50780001  0.32711997  0.74815370  1
  O  O73  1  0.83492049  0.49219491  0.24815432  1
  O  O74  1  0.67288572  0.83491924  0.24815346  1
  O  O75  1  0.49219999  0.67288003  0.24815370  1
  O  O76  1  0.24064387  0.67346877  0.97431516  1
  O  O77  1  0.08589572  0.24064605  0.97431789  1
  O  O78  1  0.67346456  0.08588729  0.97431707  1
  O  O79  1  0.75935613  0.32653123  0.47431516  1
  O  O80  1  0.91410428  0.75935395  0.47431789  1
  O  O81  1  0.32653544  0.91411271  0.47431707  1
  O  O82  1  0.76111633  0.30490301  0.02772129  1
  O  O83  1  0.93397668  0.76112009  0.02772077  1
  O  O84  1  0.30490926  0.93397188  0.02771933  1
  O  O85  1  0.23888367  0.69509699  0.52772129  1
  O  O86  1  0.06602332  0.23887991  0.52772077  1
  O  O87  1  0.69509074  0.06602812  0.52771933  1
  O  O88  1  0.33830724  0.91436017  0.81088871  1
  O  O89  1  0.74733421  0.33830497  0.81088810  1
  O  O90  1  0.91435802  0.74733320  0.81088872  1
  O  O91  1  0.66169276  0.08563983  0.31088871  1
  O  O92  1  0.25266579  0.66169503  0.31088810  1
  O  O93  1  0.08564198  0.25266680  0.31088872  1
  O  O94  1  0.65617687  0.09284993  0.18897773  1
  O  O95  1  0.25096972  0.65618297  0.18897853  1
  O  O96  1  0.09285030  0.25097128  0.18897877  1
  O  O97  1  0.34382313  0.90715007  0.68897773  1
  O  O98  1  0.74903028  0.34381703  0.68897853  1
  O  O99  1  0.90714970  0.74902872  0.68897877  1
  O  O100  1  0.00000119  0.99999653  0.75029296  1
  O  O101  1  -0.00000119  0.00000347  0.25029296  1
  O  O102  1  0.52818914  0.59756048  0.75093516  1
  O  O103  1  0.87425523  0.52818206  0.75093584  1
  O  O104  1  0.59756115  0.87425511  0.75093578  1
  O  O105  1  0.47181086  0.40243952  0.25093516  1
  O  O106  1  0.12574477  0.47181794  0.25093584  1
  O  O107  1  0.40243885  0.12574489  0.25093578  1
  O  O108  1  0.88835643  0.51974861  0.08297670  1
  O  O109  1  0.59189341  0.88836339  0.08297702  1
  O  O110  1  0.51974529  0.59189496  0.08297761  1
  O  O111  1  0.11164357  0.48025139  0.58297670  1
  O  O112  1  0.40810659  0.11163661  0.58297702  1
  O  O113  1  0.48025471  0.40810504  0.58297761  1
  O  O114  1  0.12268047  0.47079186  0.92142851  1
  O  O115  1  0.40652871  0.12267568  0.92142977  1
  O  O116  1  0.47078886  0.40652673  0.92142937  1
  O  O117  1  0.87731953  0.52920814  0.42142851  1
  O  O118  1  0.59347129  0.87732432  0.42142977  1
  O  O119  1  0.52921114  0.59347327  0.42142937  1
  O  O120  1  0.99999386  0.00000518  0.90837494  1
  O  O121  1  0.00000614  0.99999482  0.40837494  1
  O  O122  1  0.00000384  0.99999836  0.09685413  1
  O  O123  1  0.99999616  0.00000164  0.59685413  1
