# generated using pymatgen
data_FeSb3Pb4O13
_symmetry_space_group_name_H-M   'P 1'
_cell_length_a   7.55226908
_cell_length_b   7.50631206
_cell_length_c   7.55226908
_cell_angle_alpha   90.00000000
_cell_angle_beta   60.00000000
_cell_angle_gamma   120.20273650
_symmetry_Int_Tables_number   1
_chemical_formula_structural   FeSb3Pb4O13
_chemical_formula_sum   'Fe1 Sb3 Pb4 O13'
_cell_volume   301.80669779
_cell_formula_units_Z   1
loop_
 _symmetry_equiv_pos_site_id
 _symmetry_equiv_pos_as_xyz
  1  'x, y, z'
loop_
 _atom_site_type_symbol
 _atom_site_label
 _atom_site_symmetry_multiplicity
 _atom_site_fract_x
 _atom_site_fract_y
 _atom_site_fract_z
 _atom_site_occupancy
  Fe  Fe0  1  0.50137070  0.00205605  0.49931465  1
  Sb  Sb1  1  0.50055128  0.49971437  0.49972436  1
  Sb  Sb2  1  0.99943874  0.49971437  0.00083690  1
  Sb  Sb3  1  0.99943874  0.49971437  0.49972436  1
  Pb  Pb4  1  0.50292251  0.50438376  0.99853875  1
  Pb  Pb5  1  0.50267872  0.99812597  0.99866064  1
  Pb  Pb6  1  0.99678661  0.99812597  0.50455275  1
  Pb  Pb7  1  0.99678661  0.99812597  0.99866064  1
  O  O8  1  0.64561272  0.81760574  0.42719364  1
  O  O9  1  0.85385557  0.42850756  0.82307221  1
  O  O10  1  0.24479938  0.81760574  0.82800698  1
  O  O11  1  0.25157977  0.42850756  0.42534801  1
  O  O12  1  0.25157977  0.42850756  0.82307221  1
  O  O13  1  0.24479938  0.81760574  0.42719364  1
  O  O14  1  0.35896665  0.18405030  0.57051668  1
  O  O15  1  0.14196608  0.56913085  0.17901696  1
  O  O16  1  0.75456698  0.18405030  0.17491635  1
  O  O17  1  0.74814781  0.56913085  0.57283523  1
  O  O18  1  0.74814781  0.56913085  0.17901696  1
  O  O19  1  0.75456698  0.18405030  0.57051668  1
  O  O20  1  0.25143720  0.12715579  0.12428140  1
