# generated using pymatgen
data_GaFe2Co4Si
_symmetry_space_group_name_H-M   'P 1'
_cell_length_a   4.01427779
_cell_length_b   4.01427779
_cell_length_c   6.95213044
_cell_angle_alpha   73.21934389
_cell_angle_beta   90.00000000
_cell_angle_gamma   120.00000000
_symmetry_Int_Tables_number   1
_chemical_formula_structural   GaFe2Co4Si
_chemical_formula_sum   'Ga1 Fe2 Co4 Si1'
_cell_volume   91.47045496
_cell_formula_units_Z   1
loop_
 _symmetry_equiv_pos_site_id
 _symmetry_equiv_pos_as_xyz
  1  'x, y, z'
loop_
 _atom_site_type_symbol
 _atom_site_label
 _atom_site_symmetry_multiplicity
 _atom_site_fract_x
 _atom_site_fract_y
 _atom_site_fract_z
 _atom_site_occupancy
  Ga  Ga0  1  0.75000000  0.50000000  0.75000000  1
  Fe  Fe1  1  0.00104244  0.00208489  0.99687267  1
  Fe  Fe2  1  0.49895756  0.99791511  0.50312733  1
  Co  Co3  1  0.62146270  0.24292539  0.13561191  1
  Co  Co4  1  0.12879045  0.25758090  0.61362864  1
  Co  Co5  1  0.87853730  0.75707461  0.36438809  1
  Co  Co6  1  0.37120955  0.74241910  0.88637136  1
  Si  Si7  1  0.25000000  0.50000000  0.25000000  1
