# generated using pymatgen
data_HNO3
_symmetry_space_group_name_H-M   'P 1'
_cell_length_a   6.80488182
_cell_length_b   8.72905495
_cell_length_c   17.52093077
_cell_angle_alpha   90.00000000
_cell_angle_beta   90.02535771
_cell_angle_gamma   90.00000000
_symmetry_Int_Tables_number   1
_chemical_formula_structural   HNO3
_chemical_formula_sum   'H16 N16 O48'
_cell_volume   1040.74646829
_cell_formula_units_Z   16
loop_
 _symmetry_equiv_pos_site_id
 _symmetry_equiv_pos_as_xyz
  1  'x, y, z'
loop_
 _atom_site_type_symbol
 _atom_site_label
 _atom_site_symmetry_multiplicity
 _atom_site_fract_x
 _atom_site_fract_y
 _atom_site_fract_z
 _atom_site_occupancy
  H  H0  1  0.01698972  0.20746563  0.86221552  1
  H  H1  1  0.98301028  0.70746563  0.63778448  1
  H  H2  1  0.98304659  0.79270716  0.13772575  1
  H  H3  1  0.01695341  0.29270716  0.36227425  1
  H  H4  1  0.49323859  0.13230821  0.23525126  1
  H  H5  1  0.50676141  0.63230821  0.26474874  1
  H  H6  1  0.50669443  0.86766791  0.76476433  1
  H  H7  1  0.49330557  0.36766791  0.73523567  1
  H  H8  1  0.02281040  0.29028022  0.11275291  1
  H  H9  1  0.97718960  0.79028022  0.38724709  1
  H  H10  1  0.97725461  0.70952664  0.88720610  1
  H  H11  1  0.02274539  0.20952664  0.61279390  1
  H  H12  1  0.48302159  0.03812174  0.98598536  1
  H  H13  1  0.51697841  0.53812174  0.51401464  1
  H  H14  1  0.51754591  0.53972324  0.01236060  1
  H  H15  1  0.48245409  0.03972324  0.48763940  1
  N  N16  1  0.01427056  0.07144767  0.11605251  1
  N  N17  1  0.98572944  0.57144767  0.38394749  1
  N  N18  1  0.98545617  0.92833082  0.88392940  1
  N  N19  1  0.01454383  0.42833082  0.61607060  1
  N  N20  1  0.01255309  0.42496423  0.86954902  1
  N  N21  1  0.98744691  0.92496423  0.63045098  1
  N  N22  1  0.98776905  0.57522262  0.13053680  1
  N  N23  1  0.01223095  0.07522262  0.36946320  1
  N  N24  1  0.48710484  0.25617947  0.99269683  1
  N  N25  1  0.51289516  0.75617947  0.50730317  1
  N  N26  1  0.51146517  0.75870844  0.00789887  1
  N  N27  1  0.48853483  0.25870844  0.49210113  1
  N  N28  1  0.48362644  0.91446954  0.24495152  1
  N  N29  1  0.51637356  0.41446954  0.25504848  1
  N  N30  1  0.51632952  0.08555332  0.75497830  1
  N  N31  1  0.48367048  0.58555332  0.74502170  1
  O  O32  1  0.07920426  0.95279670  0.08722891  1
  O  O33  1  0.92079574  0.45279670  0.41277109  1
  O  O34  1  0.92000960  0.04700383  0.91261893  1
  O  O35  1  0.07999040  0.54700383  0.58738107  1
  O  O36  1  0.42276684  0.12557188  0.95636179  1
  O  O37  1  0.57723316  0.62557188  0.54363821  1
  O  O38  1  0.57410293  0.87726595  0.03784701  1
  O  O39  1  0.42589707  0.37726595  0.46215299  1
  O  O40  1  0.59943140  0.24374529  0.04661321  1
  O  O41  1  0.40056860  0.74374529  0.45338679  1
  O  O42  1  0.39981807  0.74784526  0.95367645  1
  O  O43  1  0.60018193  0.24784526  0.54632355  1
  O  O44  1  0.07875695  0.54523639  0.84272125  1
  O  O45  1  0.92124305  0.04523639  0.65727875  1
  O  O46  1  0.92109468  0.45489373  0.15726366  1
  O  O47  1  0.07890532  0.95489373  0.34273634  1
  O  O48  1  0.89499767  0.08286254  0.16790670  1
  O  O49  1  0.10500233  0.58286254  0.33209330  1
  O  O50  1  0.10537915  0.91702052  0.83231837  1
  O  O51  1  0.89462085  0.41702052  0.66768163  1
  O  O52  1  0.60392920  0.92591179  0.29659379  1
  O  O53  1  0.39607080  0.42591179  0.20340621  1
  O  O54  1  0.39583597  0.07402921  0.70345328  1
  O  O55  1  0.60416403  0.57402921  0.79654672  1
  O  O56  1  0.89821409  0.41052273  0.92288571  1
  O  O57  1  0.10178591  0.91052273  0.57711429  1
  O  O58  1  0.10232533  0.58954013  0.07731939  1
  O  O59  1  0.89767467  0.08954013  0.42268061  1
  O  O60  1  0.40744041  0.79620698  0.22008157  1
  O  O61  1  0.59255959  0.29620698  0.27991843  1
  O  O62  1  0.59288115  0.20378611  0.77973112  1
  O  O63  1  0.40711885  0.70378611  0.72026888  1
  O  O64  1  0.42226601  0.04563168  0.20862223  1
  O  O65  1  0.57773399  0.54563168  0.29137777  1
  O  O66  1  0.57759587  0.95435012  0.79142358  1
  O  O67  1  0.42240413  0.45435012  0.70857642  1
  O  O68  1  0.42024303  0.37573709  0.96498083  1
  O  O69  1  0.57975697  0.87573709  0.53501917  1
  O  O70  1  0.58070086  0.62644930  0.04160981  1
  O  O71  1  0.41929914  0.12644930  0.45839019  1
  O  O72  1  0.07901887  0.29512238  0.83327658  1
  O  O73  1  0.92098113  0.79512238  0.66672342  1
  O  O74  1  0.92115857  0.70502991  0.16674876  1
  O  O75  1  0.07884143  0.20502991  0.33325124  1
  O  O76  1  0.08927506  0.20366401  0.08451073  1
  O  O77  1  0.91072494  0.70366401  0.41548927  1
  O  O78  1  0.91038168  0.79609964  0.91538204  1
  O  O79  1  0.08961832  0.29609964  0.58461796  1
