# generated using pymatgen
data_FeNiSb6
_symmetry_space_group_name_H-M   'P 1'
_cell_length_a   7.91538302
_cell_length_b   7.89923029
_cell_length_c   7.91538302
_cell_angle_alpha   70.51329463
_cell_angle_beta   70.44473634
_cell_angle_gamma   109.45438997
_symmetry_Int_Tables_number   1
_chemical_formula_structural   FeNiSb6
_chemical_formula_sum   'Fe2 Ni2 Sb12'
_cell_volume   380.59445783
_cell_formula_units_Z   2
loop_
 _symmetry_equiv_pos_site_id
 _symmetry_equiv_pos_as_xyz
  1  'x, y, z'
loop_
 _atom_site_type_symbol
 _atom_site_label
 _atom_site_symmetry_multiplicity
 _atom_site_fract_x
 _atom_site_fract_y
 _atom_site_fract_z
 _atom_site_occupancy
  Fe  Fe0  1  0.00000000  0.50000000  -0.00000000  1
  Fe  Fe1  1  0.50000000  0.50000000  0.50000000  1
  Ni  Ni2  1  0.50000000  0.00000000  -0.00000000  1
  Ni  Ni3  1  0.00000000  0.00000000  0.50000000  1
  Sb  Sb4  1  0.67037704  0.50903141  0.16134563  1
  Sb  Sb5  1  0.32962296  0.49096859  0.83865437  1
  Sb  Sb6  1  0.66157029  0.81890487  0.84266542  1
  Sb  Sb7  1  0.33842971  0.18109513  0.15733458  1
  Sb  Sb8  1  0.84522843  0.33911221  0.82464369  1
  Sb  Sb9  1  0.15477157  0.66088779  0.17535631  1
  Sb  Sb10  1  0.16375590  0.33911221  0.50611622  1
  Sb  Sb11  1  0.83624410  0.66088779  0.49388378  1
  Sb  Sb12  1  0.49353922  0.16265715  0.66166068  1
  Sb  Sb13  1  0.50646078  0.83734285  0.33833932  1
  Sb  Sb14  1  0.17568217  0.83734285  0.66911794  1
  Sb  Sb15  1  0.82431783  0.16265715  0.33088206  1
