# generated using pymatgen
data_La16Cu8O31
_symmetry_space_group_name_H-M   'P 1'
_cell_length_a   7.05246889
_cell_length_b   11.82378826
_cell_length_c   11.15412765
_cell_angle_alpha   118.24836277
_cell_angle_beta   89.85212830
_cell_angle_gamma   104.33982546
_symmetry_Int_Tables_number   1
_chemical_formula_structural   La16Cu8O31
_chemical_formula_sum   'La16 Cu8 O31'
_cell_volume   786.61473926
_cell_formula_units_Z   1
loop_
 _symmetry_equiv_pos_site_id
 _symmetry_equiv_pos_as_xyz
  1  'x, y, z'
loop_
 _atom_site_type_symbol
 _atom_site_label
 _atom_site_symmetry_multiplicity
 _atom_site_fract_x
 _atom_site_fract_y
 _atom_site_fract_z
 _atom_site_occupancy
  La  La0  1  0.45610916  0.17924859  0.59916691  1
  La  La1  1  0.04417395  0.31989046  0.15416627  1
  La  La2  1  0.45674971  0.18002741  0.09469081  1
  La  La3  1  0.79625855  0.07395630  0.29457109  1
  La  La4  1  0.04322966  0.31910408  0.65267998  1
  La  La5  1  0.80709425  0.08879298  0.80485936  1
  La  La6  1  0.28787875  0.56417873  0.03972701  1
  La  La7  1  0.70879293  0.43943033  0.96028531  1
  La  La8  1  0.70046554  0.42791753  0.45566351  1
  La  La9  1  0.27991394  0.55051942  0.53429668  1
  La  La10  1  0.54977488  0.81641602  0.39097918  1
  La  La11  1  0.20262977  0.93238589  0.20325134  1
  La  La12  1  0.55467164  0.81433311  0.92115530  1
  La  La13  1  0.18216327  0.93619238  0.70674614  1
  La  La14  1  0.96230073  0.68066881  0.35235633  1
  La  La15  1  0.96445868  0.67958519  0.84278528  1
  Cu  Cu16  1  0.99521555  0.00152542  0.00000001  1
  Cu  Cu17  1  0.99409823  0.00181399  0.50050553  1
  Cu  Cu18  1  0.25712434  0.24545044  0.37268839  1
  Cu  Cu19  1  0.25937226  0.24969875  0.87536678  1
  Cu  Cu20  1  0.50065013  0.50047292  0.25117120  1
  Cu  Cu21  1  0.49949259  0.49996098  0.74968112  1
  Cu  Cu22  1  0.73430829  0.75408922  0.62759226  1
  Cu  Cu23  1  0.76053563  0.74715747  0.12540207  1
  O  O24  1  0.13970711  0.12083479  0.93553216  1
  O  O25  1  0.14633947  0.11709755  0.43365503  1
  O  O26  1  0.11248026  0.12840056  0.18918158  1
  O  O27  1  0.11389251  0.12822623  0.68993035  1
  O  O28  1  0.51381088  0.13279004  0.78967981  1
  O  O29  1  0.72338197  0.10020520  0.51537716  1
  O  O30  1  0.72345926  0.10063577  0.02123697  1
  O  O31  1  0.53855073  0.16020779  0.29732507  1
  O  O32  1  0.36096507  0.37764044  0.31332113  1
  O  O33  1  0.36329882  0.37836863  0.81419564  1
  O  O34  1  0.39194015  0.36760613  0.55910236  1
  O  O35  1  0.39499315  0.37008975  0.06021197  1
  O  O36  1  0.05058808  0.67324848  0.56320770  1
  O  O37  1  0.02838894  0.65093138  0.03970154  1
  O  O38  1  0.20973815  0.58901693  0.25899188  1
  O  O39  1  0.78506840  0.40765660  0.73487270  1
  O  O40  1  0.79007794  0.41317708  0.24300463  1
  O  O41  1  0.21433613  0.58762568  0.76354741  1
  O  O42  1  0.95720062  0.33692117  0.94789569  1
  O  O43  1  0.97379749  0.35143951  0.45523870  1
  O  O44  1  0.59524230  0.63525214  0.44387650  1
  O  O45  1  0.60786418  0.62912118  0.94235626  1
  O  O46  1  0.62461478  0.62605990  0.68808082  1
  O  O47  1  0.64173488  0.62066366  0.18719537  1
  O  O48  1  0.29173578  0.89692966  0.49428066  1
  O  O49  1  0.28666374  0.89863004  0.96579614  1
  O  O50  1  0.46675594  0.84611813  0.19281431  1
  O  O51  1  0.84931285  0.88734122  0.57239961  1
  O  O52  1  0.89796562  0.86702961  0.31036572  1
  O  O53  1  0.86597328  0.87982564  0.06681289  1
  O  O54  1  0.86727707  0.87655568  0.81244138  1
