# generated using pymatgen
data_FeCu6GeS8
_symmetry_space_group_name_H-M   'P 1'
_cell_length_a   7.41270469
_cell_length_b   7.41270469
_cell_length_c   7.41270469
_cell_angle_alpha   60.00000000
_cell_angle_beta   90.00000000
_cell_angle_gamma   120.00000000
_symmetry_Int_Tables_number   1
_chemical_formula_structural   FeCu6GeS8
_chemical_formula_sum   'Fe1 Cu6 Ge1 S8'
_cell_volume   288.01499426
_cell_formula_units_Z   1
loop_
 _symmetry_equiv_pos_site_id
 _symmetry_equiv_pos_as_xyz
  1  'x, y, z'
loop_
 _atom_site_type_symbol
 _atom_site_label
 _atom_site_symmetry_multiplicity
 _atom_site_fract_x
 _atom_site_fract_y
 _atom_site_fract_z
 _atom_site_occupancy
  Fe  Fe0  1  0.00000000  -0.00000000  0.00000000  1
  Cu  Cu1  1  0.50489291  0.50000000  0.99510709  1
  Cu  Cu2  1  0.99510709  0.50000000  0.50489291  1
  Cu  Cu3  1  0.50489291  0.50000000  0.50489291  1
  Cu  Cu4  1  0.99510709  0.50000000  0.99510709  1
  Cu  Cu5  1  0.50489291  0.00978581  0.99510709  1
  Cu  Cu6  1  0.99510709  0.99021419  0.50489291  1
  Ge  Ge7  1  0.50000000  -0.00000000  0.50000000  1
  S  S8  1  0.87864960  0.75729919  0.36405121  1
  S  S9  1  0.37515695  0.75031390  0.87452915  1
  S  S10  1  0.87864960  0.24270081  0.87864960  1
  S  S11  1  0.37515695  0.24968610  0.37515695  1
  S  S12  1  0.87864960  0.75729919  0.87864960  1
  S  S13  1  0.37515695  0.75031390  0.37515695  1
  S  S14  1  0.36405121  0.24270081  0.87864960  1
  S  S15  1  0.87452915  0.24968610  0.37515695  1
