# generated using pymatgen
data_Gd2InSbO7
_symmetry_space_group_name_H-M   'P 1'
_cell_length_a   7.49497905
_cell_length_b   7.41482807
_cell_length_c   7.59978623
_cell_angle_alpha   90.00000000
_cell_angle_beta   59.53633636
_cell_angle_gamma   119.64687279
_symmetry_Int_Tables_number   1
_chemical_formula_structural   Gd2InSbO7
_chemical_formula_sum   'Gd4 In2 Sb2 O14'
_cell_volume   298.13200521
_cell_formula_units_Z   2
loop_
 _symmetry_equiv_pos_site_id
 _symmetry_equiv_pos_as_xyz
  1  'x, y, z'
loop_
 _atom_site_type_symbol
 _atom_site_label
 _atom_site_symmetry_multiplicity
 _atom_site_fract_x
 _atom_site_fract_y
 _atom_site_fract_z
 _atom_site_occupancy
  Gd  Gd0  1  0.50000000  0.50000000  0.00000000  1
  Gd  Gd1  1  0.50000000  -0.00000000  0.00000000  1
  Gd  Gd2  1  -0.00000000  -0.00000000  0.50000000  1
  Gd  Gd3  1  -0.00000000  -0.00000000  0.00000000  1
  In  In4  1  0.50000000  -0.00000000  0.50000000  1
  In  In5  1  0.50000000  0.50000000  0.50000000  1
  Sb  Sb6  1  -0.00000000  0.50000000  0.00000000  1
  Sb  Sb7  1  -0.00000000  0.50000000  0.50000000  1
  O  O8  1  0.71077367  0.85538683  0.39461317  1
  O  O9  1  0.86703947  0.43351973  0.81648027  1
  O  O10  1  0.25016852  0.82503488  0.85122721  1
  O  O11  1  0.25016852  0.42513363  0.39860427  1
  O  O12  1  0.25016852  0.42513363  0.85122721  1
  O  O13  1  0.25016852  0.82503488  0.39860427  1
  O  O14  1  0.28922633  0.14461317  0.60538683  1
  O  O15  1  0.13296053  0.56648027  0.18351973  1
  O  O16  1  0.74983148  0.17496512  0.14877279  1
  O  O17  1  0.74983148  0.57486637  0.60139573  1
  O  O18  1  0.74983148  0.57486637  0.14877279  1
  O  O19  1  0.74983148  0.17496512  0.60139573  1
  O  O20  1  0.25904253  0.12952126  0.12047874  1
  O  O21  1  0.74095747  0.87047874  0.87952126  1
