# generated using pymatgen
data_FeAg2Sn3S8
_symmetry_space_group_name_H-M   'P 1'
_cell_length_a   7.47043670
_cell_length_b   7.55728860
_cell_length_c   7.47292802
_cell_angle_alpha   59.62586074
_cell_angle_beta   60.79526445
_cell_angle_gamma   90.00000000
_symmetry_Int_Tables_number   1
_chemical_formula_structural   FeAg2Sn3S8
_chemical_formula_sum   'Fe1 Ag2 Sn3 S8'
_cell_volume   300.18135937
_cell_formula_units_Z   1
loop_
 _symmetry_equiv_pos_site_id
 _symmetry_equiv_pos_as_xyz
  1  'x, y, z'
loop_
 _atom_site_type_symbol
 _atom_site_label
 _atom_site_symmetry_multiplicity
 _atom_site_fract_x
 _atom_site_fract_y
 _atom_site_fract_z
 _atom_site_occupancy
  Fe  Fe0  1  -0.00000000  0.50000000  0.50000000  1
  Ag  Ag1  1  0.61592840  0.88384598  0.73230804  1
  Ag  Ag2  1  0.38407160  0.11615402  0.26769196  1
  Sn  Sn3  1  0.50000000  0.50000000  0.50000000  1
  Sn  Sn4  1  -0.00000000  0.50000000  -0.00000000  1
  Sn  Sn5  1  -0.00000000  0.00000000  -0.00000000  1
  S  S6  1  0.79254088  0.28019322  0.93961355  1
  S  S7  1  0.24625739  0.25418096  0.99163809  1
  S  S8  1  0.78006043  0.29232695  0.48748514  1
  S  S9  1  0.78006043  0.72018791  0.48748514  1
  S  S10  1  0.20745912  0.71980678  0.06038645  1
  S  S11  1  0.75374261  0.74581904  0.00836191  1
  S  S12  1  0.21993957  0.70767305  0.51251486  1
  S  S13  1  0.21993957  0.27981209  0.51251486  1
