# generated using pymatgen
data_Dy(AlCu)6
_symmetry_space_group_name_H-M   'P 1'
_cell_length_a   5.09592644
_cell_length_b   6.60860913
_cell_length_c   6.60860913
_cell_angle_alpha   99.03758958
_cell_angle_beta   112.67802045
_cell_angle_gamma   67.32197955
_symmetry_Int_Tables_number   1
_chemical_formula_structural   Dy(AlCu)6
_chemical_formula_sum   'Dy1 Al6 Cu6'
_cell_volume   189.46539514
_cell_formula_units_Z   1
loop_
 _symmetry_equiv_pos_site_id
 _symmetry_equiv_pos_as_xyz
  1  'x, y, z'
loop_
 _atom_site_type_symbol
 _atom_site_label
 _atom_site_symmetry_multiplicity
 _atom_site_fract_x
 _atom_site_fract_y
 _atom_site_fract_z
 _atom_site_occupancy
  Dy  Dy0  1  0.00000000  -0.00000000  0.00000000  1
  Al  Al1  1  0.65159965  0.34840035  0.65159965  1
  Al  Al2  1  0.34840035  0.65159965  0.34840035  1
  Al  Al3  1  -0.00000000  0.34548588  0.34548588  1
  Al  Al4  1  0.00000000  0.65451412  0.65451412  1
  Al  Al5  1  0.70576266  0.79423734  0.20576266  1
  Al  Al6  1  0.29423734  0.20576266  0.79423734  1
  Cu  Cu7  1  0.50000000  -0.00000000  0.50000000  1
  Cu  Cu8  1  0.00000000  -0.00000000  0.50000000  1
  Cu  Cu9  1  0.50000000  0.50000000  0.00000000  1
  Cu  Cu10  1  0.00000000  0.50000000  0.00000000  1
  Cu  Cu11  1  0.50000000  0.77350890  0.77350890  1
  Cu  Cu12  1  0.50000000  0.22649110  0.22649110  1
