# generated using pymatgen
data_Fe3Co3Si2
_symmetry_space_group_name_H-M   'P 1'
_cell_length_a   3.96724645
_cell_length_b   3.96724645
_cell_length_c   6.88201625
_cell_angle_alpha   73.24780364
_cell_angle_beta   90.00000000
_cell_angle_gamma   120.00000000
_symmetry_Int_Tables_number   1
_chemical_formula_structural   Fe3Co3Si2
_chemical_formula_sum   'Fe3 Co3 Si2'
_cell_volume   88.45685534
_cell_formula_units_Z   1
loop_
 _symmetry_equiv_pos_site_id
 _symmetry_equiv_pos_as_xyz
  1  'x, y, z'
loop_
 _atom_site_type_symbol
 _atom_site_label
 _atom_site_symmetry_multiplicity
 _atom_site_fract_x
 _atom_site_fract_y
 _atom_site_fract_z
 _atom_site_occupancy
  Fe  Fe0  1  0.37490899  0.74981797  0.87527304  1
  Fe  Fe1  1  0.25049599  0.50099197  0.24851204  1
  Fe  Fe2  1  0.74963531  0.49927062  0.75109408  1
  Co  Co3  1  0.62429576  0.24859151  0.12711273  1
  Co  Co4  1  0.12558879  0.25117757  0.62323364  1
  Co  Co5  1  0.87509718  0.75019435  0.37470847  1
  Si  Si6  1  0.00042750  0.00085500  0.99871750  1
  Si  Si7  1  0.49955050  0.99910100  0.50134851  1
