# generated using pymatgen
data_Li2Cu3F8
_symmetry_space_group_name_H-M   'P 1'
_cell_length_a   5.59530261
_cell_length_b   5.68156585
_cell_length_c   5.62976135
_cell_angle_alpha   73.97600276
_cell_angle_beta   65.01078302
_cell_angle_gamma   74.28534389
_symmetry_Int_Tables_number   1
_chemical_formula_structural   Li2Cu3F8
_chemical_formula_sum   'Li2 Cu3 F8'
_cell_volume   153.45096932
_cell_formula_units_Z   1
loop_
 _symmetry_equiv_pos_site_id
 _symmetry_equiv_pos_as_xyz
  1  'x, y, z'
loop_
 _atom_site_type_symbol
 _atom_site_label
 _atom_site_symmetry_multiplicity
 _atom_site_fract_x
 _atom_site_fract_y
 _atom_site_fract_z
 _atom_site_occupancy
  Li  Li0  1  0.62603054  0.18511666  0.57693153  1
  Li  Li1  1  0.41487963  0.81818007  0.38380935  1
  Cu  Cu2  1  0.93143366  0.56758598  0.73704937  1
  Cu  Cu3  1  0.97774804  0.99819307  0.02426029  1
  Cu  Cu4  1  0.27579341  0.42950145  0.07119618  1
  F  F5  1  0.69144534  0.86441996  0.74957987  1
  F  F6  1  0.67906929  0.38487485  0.75664043  1
  F  F7  1  0.77638053  0.75153029  0.23448337  1
  F  F8  1  0.75523080  0.24740520  0.21587671  1
  F  F9  1  0.19538896  0.73526373  0.80022158  1
  F  F10  1  0.20266667  0.26175027  0.80931302  1
  F  F11  1  0.23703563  0.61963300  0.32223265  1
  F  F12  1  0.23707250  0.13654447  0.31840367  1
