# generated using pymatgen
data_DyAlNi4
_symmetry_space_group_name_H-M   'P 1'
_cell_length_a   4.02356507
_cell_length_b   4.90250095
_cell_length_c   4.90250110
_cell_angle_alpha   61.43643997
_cell_angle_beta   90.00000000
_cell_angle_gamma   90.00000000
_symmetry_Int_Tables_number   1
_chemical_formula_structural   DyAlNi4
_chemical_formula_sum   'Dy1 Al1 Ni4'
_cell_volume   84.93427643
_cell_formula_units_Z   1
loop_
 _symmetry_equiv_pos_site_id
 _symmetry_equiv_pos_as_xyz
  1  'x, y, z'
loop_
 _atom_site_type_symbol
 _atom_site_label
 _atom_site_symmetry_multiplicity
 _atom_site_fract_x
 _atom_site_fract_y
 _atom_site_fract_z
 _atom_site_occupancy
  Dy  Dy0  1  0.00000000  0.99998046  0.00001954  1
  Al  Al1  1  0.50000000  0.49998946  0.50001054  1
  Ni  Ni2  1  0.00000000  0.33342449  0.33348300  1
  Ni  Ni3  1  0.00000000  0.66651700  0.66657551  1
  Ni  Ni4  1  0.50000000  0.49999299  0.00000440  1
  Ni  Ni5  1  0.50000000  0.99999560  0.50000701  1
