# generated using pymatgen
data_EuCo2SiGe
_symmetry_space_group_name_H-M   'P 1'
_cell_length_a   3.96189660
_cell_length_b   3.96189660
_cell_length_c   5.83656770
_cell_angle_alpha   70.15949719
_cell_angle_beta   70.15949719
_cell_angle_gamma   90.00000000
_symmetry_Int_Tables_number   1
_chemical_formula_structural   EuCo2SiGe
_chemical_formula_sum   'Eu1 Co2 Si1 Ge1'
_cell_volume   80.37102577
_cell_formula_units_Z   1
loop_
 _symmetry_equiv_pos_site_id
 _symmetry_equiv_pos_as_xyz
  1  'x, y, z'
loop_
 _atom_site_type_symbol
 _atom_site_label
 _atom_site_symmetry_multiplicity
 _atom_site_fract_x
 _atom_site_fract_y
 _atom_site_fract_z
 _atom_site_occupancy
  Eu  Eu0  1  0.00112823  0.00112823  0.99774355  1
  Co  Co1  1  0.74587803  0.24587803  0.50824393  1
  Co  Co2  1  0.24587803  0.74587803  0.50824393  1
  Si  Si3  1  0.63691418  0.63691418  0.72617164  1
  Ge  Ge4  1  0.37020153  0.37020153  0.25959695  1
