# generated using pymatgen
data_Eu2MnP3Pt7
_symmetry_space_group_name_H-M   'P 1'
_cell_length_a   4.10153441
_cell_length_b   4.10153441
_cell_length_c   13.89640213
_cell_angle_alpha   81.51355399
_cell_angle_beta   81.51355399
_cell_angle_gamma   90.00000000
_symmetry_Int_Tables_number   1
_chemical_formula_structural   Eu2MnP3Pt7
_chemical_formula_sum   'Eu2 Mn1 P3 Pt7'
_cell_volume   228.62548153
_cell_formula_units_Z   1
loop_
 _symmetry_equiv_pos_site_id
 _symmetry_equiv_pos_as_xyz
  1  'x, y, z'
loop_
 _atom_site_type_symbol
 _atom_site_label
 _atom_site_symmetry_multiplicity
 _atom_site_fract_x
 _atom_site_fract_y
 _atom_site_fract_z
 _atom_site_occupancy
  Eu  Eu0  1  0.33507049  0.33507049  0.32985901  1
  Eu  Eu1  1  0.66492951  0.66492951  0.67014099  1
  Mn  Mn2  1  0.50000000  0.50000000  0.00000000  1
  P  P3  1  0.12025628  0.12025628  0.75948744  1
  P  P4  1  0.87974372  0.87974372  0.24051256  1
  P  P5  1  0.75000000  0.25000000  0.50000000  1
  Pt  Pt6  1  0.57136341  0.07136341  0.85727319  1
  Pt  Pt7  1  0.07221361  0.57221361  0.85557278  1
  Pt  Pt8  1  0.42778639  0.92778639  0.14442722  1
  Pt  Pt9  1  0.92863659  0.42863659  0.14272681  1
  Pt  Pt10  1  0.20699637  0.20699637  0.58600726  1
  Pt  Pt11  1  0.79300363  0.79300363  0.41399274  1
  Pt  Pt12  1  -0.00000000  -0.00000000  0.00000000  1
