# generated using pymatgen
data_EuAl3Ag2
_symmetry_space_group_name_H-M   'P 1'
_cell_length_a   4.41727126
_cell_length_b   5.59369475
_cell_length_c   5.59428137
_cell_angle_alpha   119.99652373
_cell_angle_beta   90.00000000
_cell_angle_gamma   90.00000000
_symmetry_Int_Tables_number   1
_chemical_formula_structural   EuAl3Ag2
_chemical_formula_sum   'Eu1 Al3 Ag2'
_cell_volume   119.71345977
_cell_formula_units_Z   1
loop_
 _symmetry_equiv_pos_site_id
 _symmetry_equiv_pos_as_xyz
  1  'x, y, z'
loop_
 _atom_site_type_symbol
 _atom_site_label
 _atom_site_symmetry_multiplicity
 _atom_site_fract_x
 _atom_site_fract_y
 _atom_site_fract_z
 _atom_site_occupancy
  Eu  Eu0  1  0.00000000  0.99999353  1.00000000  1
  Al  Al1  1  0.50000000  0.50000208  -0.00000000  1
  Al  Al2  1  0.50000000  0.49999929  0.50000281  1
  Al  Al3  1  0.50000000  0.99999647  0.49999719  1
  Ag  Ag4  1  -0.00000000  0.33329122  0.66667381  1
  Ag  Ag5  1  -0.00000000  0.66661741  0.33332619  1
