# generated using pymatgen
data_Cu4Bi3Pb(SeO)4
_symmetry_space_group_name_H-M   'P 1'
_cell_length_a   5.61535395
_cell_length_b   5.61535395
_cell_length_c   10.11011354
_cell_angle_alpha   73.87643788
_cell_angle_beta   73.87643788
_cell_angle_gamma   90.00000000
_symmetry_Int_Tables_number   1
_chemical_formula_structural   Cu4Bi3Pb(SeO)4
_chemical_formula_sum   'Cu4 Bi3 Pb1 Se4 O4'
_cell_volume   293.17875157
_cell_formula_units_Z   1
loop_
 _symmetry_equiv_pos_site_id
 _symmetry_equiv_pos_as_xyz
  1  'x, y, z'
loop_
 _atom_site_type_symbol
 _atom_site_label
 _atom_site_symmetry_multiplicity
 _atom_site_fract_x
 _atom_site_fract_y
 _atom_site_fract_z
 _atom_site_occupancy
  Cu  Cu0  1  0.00049495  0.75001535  0.49948970  1
  Cu  Cu1  1  0.50001535  0.25049495  0.49948970  1
  Cu  Cu2  1  0.50001535  0.75001535  0.49948970  1
  Cu  Cu3  1  0.00049495  0.25049495  0.49948970  1
  Bi  Bi4  1  0.06199265  0.31199265  0.87601570  1
  Bi  Bi5  1  0.93367613  0.68367613  0.13264674  1
  Bi  Bi6  1  0.43367613  0.18367613  0.13264674  1
  Pb  Pb7  1  0.57606965  0.82606965  0.84786171  1
  Se  Se8  1  0.33343197  0.58343197  0.33313507  1
  Se  Se9  1  0.83196380  0.08196380  0.33607139  1
  Se  Se10  1  0.16952818  0.91952918  0.66094264  1
  Se  Se11  1  0.66952918  0.41952918  0.66094264  1
  O  O12  1  0.24156283  0.00299253  0.00544464  1
  O  O13  1  0.75299253  0.49156283  0.00544464  1
  O  O14  1  0.75299253  0.00299253  0.00544464  1
  O  O15  1  0.24156283  0.49156283  0.00544464  1
