# generated using pymatgen
data_CsGa5(HgSe3)4
_symmetry_space_group_name_H-M   'P 1'
_cell_length_a   9.14027091
_cell_length_b   9.20717104
_cell_length_c   9.15512266
_cell_angle_alpha   107.14282000
_cell_angle_beta   107.41427391
_cell_angle_gamma   108.07471438
_symmetry_Int_Tables_number   1
_chemical_formula_structural   CsGa5(HgSe3)4
_chemical_formula_sum   'Cs1 Ga5 Hg4 Se12'
_cell_volume   631.84904174
_cell_formula_units_Z   1
loop_
 _symmetry_equiv_pos_site_id
 _symmetry_equiv_pos_as_xyz
  1  'x, y, z'
loop_
 _atom_site_type_symbol
 _atom_site_label
 _atom_site_symmetry_multiplicity
 _atom_site_fract_x
 _atom_site_fract_y
 _atom_site_fract_z
 _atom_site_occupancy
  Cs  Cs0  1  0.00252330  0.00396928  0.00341323  1
  Ga  Ga1  1  0.51636135  0.05848507  0.66582342  1
  Ga  Ga2  1  0.06197046  0.65998894  0.51244298  1
  Ga  Ga3  1  0.67057452  0.51911646  0.06579785  1
  Ga  Ga4  1  0.98266161  0.44413996  0.81354922  1
  Ga  Ga5  1  0.43860386  0.81188520  0.97339464  1
  Hg  Hg6  1  0.36952675  0.60336991  0.29179338  1
  Hg  Hg7  1  0.60002070  0.28604830  0.36461550  1
  Hg  Hg8  1  0.29058663  0.36966246  0.60488647  1
  Hg  Hg9  1  0.80973945  0.97982007  0.43578468  1
  Se  Se10  1  0.21368966  0.70679960  0.06032630  1
  Se  Se11  1  0.69189243  0.06504666  0.18838497  1
  Se  Se12  1  0.07563612  0.23108773  0.72813012  1
  Se  Se13  1  0.93341242  0.75542279  0.30203737  1
  Se  Se14  1  0.76690984  0.31400256  0.91715208  1
  Se  Se15  1  0.30384876  0.91728185  0.76564550  1
  Se  Se16  1  0.62282718  0.85331024  0.58377736  1
  Se  Se17  1  0.86150908  0.56663903  0.63267189  1
  Se  Se18  1  0.57288030  0.63768320  0.86629103  1
  Se  Se19  1  0.11637391  0.43613518  0.36135390  1
  Se  Se20  1  0.44264372  0.36505950  0.12070805  1
  Se  Se21  1  0.36116794  0.12040600  0.44738004  1
