# generated using pymatgen
data_CsGaNiF6
_symmetry_space_group_name_H-M   'P 1'
_cell_length_a   7.36855025
_cell_length_b   7.33366840
_cell_length_c   7.38604846
_cell_angle_alpha   90.00000000
_cell_angle_beta   59.92141387
_cell_angle_gamma   119.84352760
_symmetry_Int_Tables_number   1
_chemical_formula_structural   CsGaNiF6
_chemical_formula_sum   'Cs2 Ga2 Ni2 F12'
_cell_volume   282.55898284
_cell_formula_units_Z   2
loop_
 _symmetry_equiv_pos_site_id
 _symmetry_equiv_pos_as_xyz
  1  'x, y, z'
loop_
 _atom_site_type_symbol
 _atom_site_label
 _atom_site_symmetry_multiplicity
 _atom_site_fract_x
 _atom_site_fract_y
 _atom_site_fract_z
 _atom_site_occupancy
  Cs  Cs0  1  0.75665324  0.37832662  0.37167338  1
  Cs  Cs1  1  0.24334676  0.62167338  0.62832662  1
  Ga  Ga2  1  0.00000000  0.00000000  0.50000000  1
  Ga  Ga3  1  -0.00000000  0.00000000  0.00000000  1
  Ni  Ni4  1  0.50000000  0.50000000  0.00000000  1
  Ni  Ni5  1  0.50000000  0.00000000  0.00000000  1
  F  F6  1  0.87187839  0.93593919  0.31406081  1
  F  F7  1  0.64906185  0.32453093  0.92546907  1
  F  F8  1  0.24273214  0.93430600  0.92869477  1
  F  F9  1  0.24273214  0.30842614  0.32857309  1
  F  F10  1  0.24273214  0.30842614  0.92869477  1
  F  F11  1  0.24273214  0.93430600  0.32857309  1
  F  F12  1  0.12812161  0.06406081  0.68593919  1
  F  F13  1  0.35093815  0.67546907  0.07453093  1
  F  F14  1  0.75726786  0.06569400  0.07130523  1
  F  F15  1  0.75726786  0.69157386  0.67142691  1
  F  F16  1  0.75726786  0.69157386  0.07130523  1
  F  F17  1  0.75726786  0.06569400  0.67142691  1
