# generated using pymatgen
data_Dy9Al5S21
_symmetry_space_group_name_H-M   'P 1'
_cell_length_a   11.41075810
_cell_length_b   11.41076570
_cell_length_c   11.41075891
_cell_angle_alpha   94.58482193
_cell_angle_beta   85.41493673
_cell_angle_gamma   85.41501194
_symmetry_Int_Tables_number   1
_chemical_formula_structural   Dy9Al5S21
_chemical_formula_sum   'Dy18 Al10 S42'
_cell_volume   1470.66725645
_cell_formula_units_Z   2
loop_
 _symmetry_equiv_pos_site_id
 _symmetry_equiv_pos_as_xyz
  1  'x, y, z'
loop_
 _atom_site_type_symbol
 _atom_site_label
 _atom_site_symmetry_multiplicity
 _atom_site_fract_x
 _atom_site_fract_y
 _atom_site_fract_z
 _atom_site_occupancy
  Dy  Dy0  1  0.25911794  0.11533624  0.87807162  1
  Dy  Dy1  1  0.92569215  0.45571899  0.22224060  1
  Dy  Dy2  1  0.60059266  0.77059145  0.55044206  1
  Dy  Dy3  1  0.44956294  0.39940553  0.77059630  1
  Dy  Dy4  1  0.12192816  0.74087445  0.11534002  1
  Dy  Dy5  1  0.77775992  0.07429556  0.45572538  1
  Dy  Dy6  1  0.54428021  0.22224041  0.07430478  1
  Dy  Dy7  1  0.22940882  0.55043549  0.39940902  1
  Dy  Dy8  1  0.88466578  0.87807234  0.74088459  1
  Dy  Dy9  1  0.41759813  0.20825279  0.43768582  1
  Dy  Dy10  1  0.07055817  0.54764538  0.77951099  1
  Dy  Dy11  1  0.75485921  0.87352555  0.10402727  1
  Dy  Dy12  1  0.22049589  0.92944488  0.54763742  1
  Dy  Dy13  1  0.89597647  0.24514676  0.87352089  1
  Dy  Dy14  1  0.56231682  0.58240788  0.20824362  1
  Dy  Dy15  1  0.12647208  0.10402724  0.24513998  1
  Dy  Dy16  1  0.79174844  0.43768156  0.58239953  1
  Dy  Dy17  1  0.45235149  0.77951440  0.92944115  1
  Al  Al18  1  0.95042959  0.72135546  0.38833309  1
  Al  Al19  1  0.61167500  0.04956457  0.72137603  1
  Al  Al20  1  0.27863471  0.38832049  0.04957511  1
  Al  Al21  1  0.45078934  0.88414521  0.22603602  1
  Al  Al22  1  0.11586395  0.22604926  0.54920550  1
  Al  Al23  1  0.77395683  0.54922088  0.88412785  1
  Al  Al24  1  0.14542528  0.85457615  0.85457705  1
  Al  Al25  1  0.82869159  0.17129508  0.17129871  1
  Al  Al26  1  0.32903883  0.67096131  0.67095989  1
  Al  Al27  1  0.64527934  0.35472135  0.35471901  1
  S  S28  1  0.82540971  0.84225543  0.51146364  1
  S  S29  1  0.48854067  0.17459059  0.84226452  1
  S  S30  1  0.15773699  0.51145294  0.17459412  1
  S  S31  1  0.65736281  0.67512286  0.01044461  1
  S  S32  1  0.32488336  0.01045680  0.34263092  1
  S  S33  1  0.98955136  0.34264023  0.67511299  1
  S  S34  1  0.69098254  0.55395995  0.40595521  1
  S  S35  1  0.33720775  0.89145437  0.75636584  1
  S  S36  1  0.00343370  0.23720716  0.09615691  1
  S  S37  1  0.90384090  0.99655845  0.23721060  1
  S  S38  1  0.59403683  0.30902149  0.55395940  1
  S  S39  1  0.24363137  0.66279520  0.89145308  1
  S  S40  1  0.10855128  0.75637296  0.66279889  1
  S  S41  1  0.76279187  0.09615944  0.99655723  1
  S  S42  1  0.44604378  0.40596313  0.30901904  1
  S  S43  1  0.62382750  0.14862888  0.28424900  1
  S  S44  1  0.27445441  0.48388801  0.62115909  1
  S  S45  1  0.96385527  0.79102880  0.94207629  1
  S  S46  1  0.37884439  0.72554616  0.48388791  1
  S  S47  1  0.05792644  0.03614756  0.79103253  1
  S  S48  1  0.71575133  0.37617269  0.14863143  1
  S  S49  1  0.20896822  0.94207005  0.03614349  1
  S  S50  1  0.85136456  0.28424253  0.37617459  1
  S  S51  1  0.51610918  0.62115631  0.72554767  1
  S  S52  1  0.98850955  0.53917424  0.44619659  1
  S  S53  1  0.64395647  0.86880508  0.78224948  1
  S  S54  1  0.30642098  0.20312458  0.10406028  1
  S  S55  1  0.89594058  0.69357914  0.20313618  1
  S  S56  1  0.55380634  0.01149076  0.53919418  1
  S  S57  1  0.21775367  0.35604625  0.86881574  1
  S  S58  1  0.13118600  0.78224111  0.35605118  1
  S  S59  1  0.79686796  0.10405918  0.69358450  1
  S  S60  1  0.46081267  0.44619479  0.01149548  1
  S  S61  1  0.52508675  0.96414840  0.06562139  1
  S  S62  1  0.19022738  0.29906570  0.38528965  1
  S  S63  1  0.84298471  0.62955077  0.72012553  1
  S  S64  1  0.61470020  0.80977976  0.29906308  1
  S  S65  1  0.27986208  0.15702384  0.62954762  1
  S  S66  1  0.93436495  0.47492038  0.96414001  1
  S  S67  1  0.37045014  0.72014175  0.15701999  1
  S  S68  1  0.03585830  0.06563355  0.47491591  1
  S  S69  1  0.70093530  0.38530207  0.80977492  1
