# generated using pymatgen
data_Er8Mn3Mo5O28
_symmetry_space_group_name_H-M   'P 1'
_cell_length_a   7.45812322
_cell_length_b   11.63295519
_cell_length_c   7.51527907
_cell_angle_alpha   90.00000000
_cell_angle_beta   120.25383437
_cell_angle_gamma   98.96842874
_symmetry_Int_Tables_number   1
_chemical_formula_structural   Er8Mn3Mo5O28
_chemical_formula_sum   'Er8 Mn3 Mo5 O28'
_cell_volume   553.97317612
_cell_formula_units_Z   1
loop_
 _symmetry_equiv_pos_site_id
 _symmetry_equiv_pos_as_xyz
  1  'x, y, z'
loop_
 _atom_site_type_symbol
 _atom_site_label
 _atom_site_symmetry_multiplicity
 _atom_site_fract_x
 _atom_site_fract_y
 _atom_site_fract_z
 _atom_site_occupancy
  Er  Er0  1  0.24506356  0.00698406  0.73856916  1
  Er  Er1  1  0.75493644  0.49301594  0.49350560  1
  Er  Er2  1  0.75963729  0.99975669  0.25438429  1
  Er  Er3  1  0.24036271  0.50024331  0.49474700  1
  Er  Er4  1  0.76496861  0.52424708  0.01255872  1
  Er  Er5  1  0.23503139  0.97575292  0.24759011  1
  Er  Er6  1  0.23982575  0.46479039  0.99631867  1
  Er  Er7  1  0.76017425  0.03520961  0.75649292  1
  Mn  Mn8  1  -0.00000000  0.25000000  0.57826015  1
  Mn  Mn9  1  -0.00000000  0.75000000  0.40940415  1
  Mn  Mn10  1  -0.00000000  0.25000000  0.14034776  1
  Mo  Mo11  1  0.49860194  0.75445874  0.86367967  1
  Mo  Mo12  1  0.50139806  0.74554126  0.36507772  1
  Mo  Mo13  1  0.49847933  0.24025471  0.12790207  1
  Mo  Mo14  1  0.50152067  0.25974529  0.62942275  1
  Mo  Mo15  1  -0.00000000  0.75000000  0.85899788  1
  O  O16  1  0.38559956  0.20794234  0.82640648  1
  O  O17  1  0.61440044  0.29205766  0.44080693  1
  O  O18  1  0.61352097  0.78951363  0.17415248  1
  O  O19  1  0.38647903  0.71048637  0.56063150  1
  O  O20  1  0.78541593  0.71962792  0.95248989  1
  O  O21  1  0.21458407  0.78037208  0.16707396  1
  O  O22  1  0.22724018  0.27197277  0.06023807  1
  O  O23  1  0.77275982  0.22802723  0.83299789  1
  O  O24  1  0.97056497  0.08089750  0.11781545  1
  O  O25  1  0.02943503  0.41910250  0.14725047  1
  O  O26  1  0.00819954  0.91620174  0.87325668  1
  O  O27  1  0.99180046  0.58379826  0.86505714  1
  O  O28  1  0.20694644  0.78733287  0.76184382  1
  O  O29  1  0.79305356  0.71266713  0.55489737  1
  O  O30  1  0.78253099  0.21178686  0.23800849  1
  O  O31  1  0.21746901  0.28821314  0.45547750  1
  O  O32  1  0.57608188  0.91033407  0.45300517  1
  O  O33  1  0.42391812  0.58966593  0.87692329  1
  O  O34  1  0.42181079  0.08378106  0.55531737  1
  O  O35  1  0.57818921  0.41621894  0.13350658  1
  O  O36  1  0.57036688  0.92679682  0.87745231  1
  O  O37  1  0.42963312  0.57320318  0.30708542  1
  O  O38  1  0.42354773  0.05915146  0.10942408  1
  O  O39  1  0.57645227  0.44084854  0.68587635  1
  O  O40  1  0.06004524  0.42095832  0.65159927  1
  O  O41  1  0.93995476  0.07904168  0.59155403  1
  O  O42  1  0.94516080  0.57774332  0.35387710  1
  O  O43  1  0.05483920  0.92225668  0.40871631  1
