# generated using pymatgen
data_Cs8Na4YHo3Cl24
_symmetry_space_group_name_H-M   'P 1'
_cell_length_a   7.70937897
_cell_length_b   7.70937897
_cell_length_c   25.56824524
_cell_angle_alpha   90.00000000
_cell_angle_beta   81.32898055
_cell_angle_gamma   120.00000000
_symmetry_Int_Tables_number   1
_chemical_formula_structural   Cs8Na4YHo3Cl24
_chemical_formula_sum   'Cs8 Na4 Y1 Ho3 Cl24'
_cell_volume   1295.94897058
_cell_formula_units_Z   1
loop_
 _symmetry_equiv_pos_site_id
 _symmetry_equiv_pos_as_xyz
  1  'x, y, z'
loop_
 _atom_site_type_symbol
 _atom_site_label
 _atom_site_symmetry_multiplicity
 _atom_site_fract_x
 _atom_site_fract_y
 _atom_site_fract_z
 _atom_site_occupancy
  Cs  Cs0  1  0.62500347  0.81250174  0.56249479  1
  Cs  Cs1  1  0.12502661  0.06251330  0.81246009  1
  Cs  Cs2  1  0.62497010  0.31248505  0.06254484  1
  Cs  Cs3  1  0.12500473  0.56250237  0.31249290  1
  Cs  Cs4  1  0.87499527  0.43749763  0.68750710  1
  Cs  Cs5  1  0.37502990  0.68751495  0.93745516  1
  Cs  Cs6  1  0.87497339  0.93748670  0.18753991  1
  Cs  Cs7  1  0.37499653  0.18749826  0.43750521  1
  Na  Na8  1  0.25000021  0.12500011  0.62499968  1
  Na  Na9  1  0.75002131  0.37501066  0.87496803  1
  Na  Na10  1  0.24997869  0.62498934  0.12503197  1
  Na  Na11  1  0.74999979  0.87499989  0.37500032  1
  Y  Y12  1  0.00000000  0.00000000  0.00000000  1
  Ho  Ho13  1  0.49999660  0.24999830  0.25000509  1
  Ho  Ho14  1  0.00000000  0.50000000  0.50000000  1
  Ho  Ho15  1  0.50000340  0.75000170  0.74999491  1
  Cl  Cl16  1  0.12064276  0.80160564  0.56032012  1
  Cl  Cl17  1  0.62063026  0.05157137  0.81031086  1
  Cl  Cl18  1  0.12146851  0.30367355  0.06073653  1
  Cl  Cl19  1  0.62065009  0.55162162  0.31032144  1
  Cl  Cl20  1  0.37934991  0.93097153  0.68967856  1
  Cl  Cl21  1  0.87853149  0.18220504  0.93926347  1
  Cl  Cl22  1  0.37936974  0.43094111  0.18968914  1
  Cl  Cl23  1  0.87935724  0.68096288  0.43967988  1
  Cl  Cl24  1  0.63807424  0.31903712  0.56032012  1
  Cl  Cl25  1  0.13811777  0.56905889  0.81031086  1
  Cl  Cl26  1  0.63558992  0.81779496  0.06073653  1
  Cl  Cl27  1  0.13805694  0.06902847  0.31032144  1
  Cl  Cl28  1  0.37934991  0.44837838  0.68967856  1
  Cl  Cl29  1  0.87853149  0.69632645  0.93926347  1
  Cl  Cl30  1  0.37936974  0.94842863  0.18968914  1
  Cl  Cl31  1  0.87935724  0.19839436  0.43967988  1
  Cl  Cl32  1  0.12064276  0.31903712  0.56032012  1
  Cl  Cl33  1  0.62063026  0.56905889  0.81031086  1
  Cl  Cl34  1  0.12146851  0.81779496  0.06073653  1
  Cl  Cl35  1  0.62065009  0.06902847  0.31032144  1
  Cl  Cl36  1  0.86194306  0.93097153  0.68967856  1
  Cl  Cl37  1  0.36441008  0.18220504  0.93926347  1
  Cl  Cl38  1  0.86188223  0.43094111  0.18968914  1
  Cl  Cl39  1  0.36192576  0.68096288  0.43967988  1
