# generated using pymatgen
data_DyThFe14B
_symmetry_space_group_name_H-M   'P 1'
_cell_length_a   8.74896402
_cell_length_b   8.74896402
_cell_length_c   11.97176094
_cell_angle_alpha   90.00000000
_cell_angle_beta   90.00000000
_cell_angle_gamma   90.00000000
_symmetry_Int_Tables_number   1
_chemical_formula_structural   DyThFe14B
_chemical_formula_sum   'Dy4 Th4 Fe56 B4'
_cell_volume   916.37091598
_cell_formula_units_Z   4
loop_
 _symmetry_equiv_pos_site_id
 _symmetry_equiv_pos_as_xyz
  1  'x, y, z'
loop_
 _atom_site_type_symbol
 _atom_site_label
 _atom_site_symmetry_multiplicity
 _atom_site_fract_x
 _atom_site_fract_y
 _atom_site_fract_z
 _atom_site_occupancy
  Dy  Dy0  1  0.22942132  0.77057868  0.50000000  1
  Dy  Dy1  1  0.77057868  0.22942132  0.50000000  1
  Dy  Dy2  1  0.27057868  0.27057868  0.00000000  1
  Dy  Dy3  1  0.72942132  0.72942132  0.00000000  1
  Th  Th4  1  0.64406796  0.64406796  0.50000000  1
  Th  Th5  1  0.35593204  0.35593204  0.50000000  1
  Th  Th6  1  0.85593204  0.14406796  0.00000000  1
  Th  Th7  1  0.14406796  0.85593204  0.00000000  1
  Fe  Fe8  1  0.18342128  0.81657872  0.25531803  1
  Fe  Fe9  1  0.81657872  0.18342128  0.25531803  1
  Fe  Fe10  1  0.31657872  0.31657872  0.75531803  1
  Fe  Fe11  1  0.68342128  0.68342128  0.75531803  1
  Fe  Fe12  1  0.81657872  0.18342128  0.74468197  1
  Fe  Fe13  1  0.18342128  0.81657872  0.74468197  1
  Fe  Fe14  1  0.68342128  0.68342128  0.24468197  1
  Fe  Fe15  1  0.31657872  0.31657872  0.24468197  1
  Fe  Fe16  1  0.93480885  0.72489832  0.37310510  1
  Fe  Fe17  1  0.06519115  0.27510168  0.37310510  1
  Fe  Fe18  1  0.56519115  0.22489832  0.87310510  1
  Fe  Fe19  1  0.43480885  0.77510168  0.87310510  1
  Fe  Fe20  1  0.06519115  0.27510168  0.62689490  1
  Fe  Fe21  1  0.93480885  0.72489832  0.62689490  1
  Fe  Fe22  1  0.43480885  0.77510168  0.12689490  1
  Fe  Fe23  1  0.56519115  0.22489832  0.12689490  1
  Fe  Fe24  1  0.72489832  0.93480885  0.37310510  1
  Fe  Fe25  1  0.27510168  0.06519115  0.37310510  1
  Fe  Fe26  1  0.22489832  0.56519115  0.87310510  1
  Fe  Fe27  1  0.77510168  0.43480885  0.87310510  1
  Fe  Fe28  1  0.27510168  0.06519115  0.62689490  1
  Fe  Fe29  1  0.72489832  0.93480885  0.62689490  1
  Fe  Fe30  1  0.77510168  0.43480885  0.12689490  1
  Fe  Fe31  1  0.22489832  0.56519115  0.12689490  1
  Fe  Fe32  1  0.50000000  0.50000000  0.11510240  1
  Fe  Fe33  1  0.00000000  -0.00000000  0.61510240  1
  Fe  Fe34  1  0.50000000  0.50000000  0.88489760  1
  Fe  Fe35  1  0.00000000  -0.00000000  0.38489760  1
  Fe  Fe36  1  0.14076486  0.53758469  0.32496012  1
  Fe  Fe37  1  0.85923514  0.46241531  0.32496012  1
  Fe  Fe38  1  0.35923514  0.03758469  0.82496012  1
  Fe  Fe39  1  0.64076486  0.96241531  0.82496012  1
  Fe  Fe40  1  0.85923514  0.46241531  0.67503988  1
  Fe  Fe41  1  0.14076486  0.53758469  0.67503988  1
  Fe  Fe42  1  0.64076486  0.96241531  0.17503988  1
  Fe  Fe43  1  0.35923514  0.03758469  0.17503988  1
  Fe  Fe44  1  0.53758469  0.14076486  0.32496012  1
  Fe  Fe45  1  0.46241531  0.85923514  0.32496012  1
  Fe  Fe46  1  0.03758469  0.35923514  0.82496012  1
  Fe  Fe47  1  0.96241531  0.64076486  0.82496012  1
  Fe  Fe48  1  0.46241531  0.85923514  0.67503988  1
  Fe  Fe49  1  0.53758469  0.14076486  0.67503988  1
  Fe  Fe50  1  0.96241531  0.64076486  0.17503988  1
  Fe  Fe51  1  0.03758469  0.35923514  0.17503988  1
  Fe  Fe52  1  0.00000000  0.50000000  0.50000000  1
  Fe  Fe53  1  0.50000000  -0.00000000  0.00000000  1
  Fe  Fe54  1  0.50000000  -0.00000000  0.50000000  1
  Fe  Fe55  1  0.00000000  0.50000000  0.00000000  1
  Fe  Fe56  1  0.40205445  0.59794555  0.29795481  1
  Fe  Fe57  1  0.59794555  0.40205445  0.29795481  1
  Fe  Fe58  1  0.09794555  0.09794555  0.79795481  1
  Fe  Fe59  1  0.90205445  0.90205445  0.79795481  1
  Fe  Fe60  1  0.59794555  0.40205445  0.70204519  1
  Fe  Fe61  1  0.40205445  0.59794555  0.70204519  1
  Fe  Fe62  1  0.90205445  0.90205445  0.20204519  1
  Fe  Fe63  1  0.09794555  0.09794555  0.20204519  1
  B  B64  1  0.87718745  0.87718745  0.50000000  1
  B  B65  1  0.12281255  0.12281255  0.50000000  1
  B  B66  1  0.62281255  0.37718745  0.00000000  1
  B  B67  1  0.37718745  0.62281255  0.00000000  1
