# generated using pymatgen
data_LiCuPO4
_symmetry_space_group_name_H-M   'P 1'
_cell_length_a   9.95316242
_cell_length_b   9.95316239
_cell_length_c   22.81292316
_cell_angle_alpha   90.00000000
_cell_angle_beta   90.00000000
_cell_angle_gamma   120.00000233
_symmetry_Int_Tables_number   1
_chemical_formula_structural   LiCuPO4
_chemical_formula_sum   'Li24 Cu24 P24 O96'
_cell_volume   1957.19338885
_cell_formula_units_Z   24
loop_
 _symmetry_equiv_pos_site_id
 _symmetry_equiv_pos_as_xyz
  1  'x, y, z'
loop_
 _atom_site_type_symbol
 _atom_site_label
 _atom_site_symmetry_multiplicity
 _atom_site_fract_x
 _atom_site_fract_y
 _atom_site_fract_z
 _atom_site_occupancy
  Li  Li0  1  0.02410987  0.94072248  0.41801210  1
  Li  Li1  1  0.06242544  0.55387317  0.91701240  1
  Li  Li2  1  0.06097825  0.51023912  0.25339489  1
  Li  Li3  1  0.01938055  0.48428679  0.58782226  1
  Li  Li4  1  0.46490624  0.98061945  0.92115626  1
  Li  Li5  1  0.44926086  0.93902175  0.58672789  1
  Li  Li6  1  0.05927752  0.08338839  0.08467910  1
  Li  Li7  1  0.49144773  0.93757456  0.25034540  1
  Li  Li8  1  0.08338839  0.02410987  0.25134510  1
  Li  Li9  1  0.44612683  0.50855227  0.58367840  1
  Li  Li10  1  0.48976088  0.55073914  0.92006189  1
  Li  Li11  1  0.51571321  0.53509376  0.25448926  1
  Li  Li12  1  0.48428679  0.46490624  0.75448926  1
  Li  Li13  1  0.51023912  0.44926086  0.42006189  1
  Li  Li14  1  0.55387317  0.49144773  0.08367840  1
  Li  Li15  1  0.91661161  0.97589013  0.75134510  1
  Li  Li16  1  0.50855227  0.06242544  0.75034540  1
  Li  Li17  1  0.94072248  0.91661161  0.58467910  1
  Li  Li18  1  0.55073914  0.06097825  0.08672789  1
  Li  Li19  1  0.53509376  0.01938055  0.42115626  1
  Li  Li20  1  0.98061945  0.51571321  0.08782226  1
  Li  Li21  1  0.93902175  0.48976088  0.75339489  1
  Li  Li22  1  0.93757456  0.44612683  0.41701240  1
  Li  Li23  1  0.97589013  0.05927752  0.91801210  1
  Cu  Cu24  1  0.14455734  0.83231026  0.68401346  1
  Cu  Cu25  1  0.19296961  0.89185442  0.00971443  1
  Cu  Cu26  1  0.18119354  0.78357026  0.37888028  1
  Cu  Cu27  1  0.10814558  0.30111519  0.67638143  1
  Cu  Cu28  1  0.32769387  0.67534891  0.81534119  1
  Cu  Cu29  1  0.32465109  0.65234495  0.48200719  1
  Cu  Cu30  1  0.34765505  0.67230613  0.14867419  1
  Cu  Cu31  1  0.16768974  0.31224708  0.35067946  1
  Cu  Cu32  1  0.21642974  0.39762328  0.04554628  1
  Cu  Cu33  1  0.60237672  0.81880646  0.71221328  1
  Cu  Cu34  1  0.30111519  0.19296961  0.84304843  1
  Cu  Cu35  1  0.31224708  0.14455734  0.51734646  1
  Cu  Cu36  1  0.68775292  0.85544266  0.01734646  1
  Cu  Cu37  1  0.69888481  0.80703039  0.34304843  1
  Cu  Cu38  1  0.39762328  0.18119354  0.21221328  1
  Cu  Cu39  1  0.78357026  0.60237672  0.54554628  1
  Cu  Cu40  1  0.83231026  0.68775292  0.85067946  1
  Cu  Cu41  1  0.65234495  0.32769387  0.64867419  1
  Cu  Cu42  1  0.67534891  0.34765505  0.98200719  1
  Cu  Cu43  1  0.67230613  0.32465109  0.31534119  1
  Cu  Cu44  1  0.89185442  0.69888481  0.17638143  1
  Cu  Cu45  1  0.81880646  0.21642974  0.87888028  1
  Cu  Cu46  1  0.80703039  0.10814558  0.50971443  1
  Cu  Cu47  1  0.85544266  0.16768974  0.18401346  1
  P  P48  1  0.17685455  0.85319753  0.81476414  1
  P  P49  1  0.12788807  0.77893475  0.50798132  1
  P  P50  1  0.22595982  0.88773789  0.14565780  1
  P  P51  1  0.11226211  0.33822194  0.81232480  1
  P  P52  1  0.32819781  0.68847198  0.00816180  1
  P  P53  1  0.14680247  0.32365803  0.48143114  1
  P  P54  1  0.31152802  0.63972584  0.67482880  1
  P  P55  1  0.36027416  0.67180219  0.34149580  1
  P  P56  1  0.22106525  0.34895332  0.17464732  1
  P  P57  1  0.65104668  0.87211193  0.84131432  1
  P  P58  1  0.33822194  0.22595982  0.97899180  1
  P  P59  1  0.32365803  0.17685455  0.64809714  1
  P  P60  1  0.67634197  0.82314545  0.14809714  1
  P  P61  1  0.66177806  0.77404018  0.47899180  1
  P  P62  1  0.34895332  0.12788807  0.34131432  1
  P  P63  1  0.77893475  0.65104668  0.67464732  1
  P  P64  1  0.63972584  0.32819781  0.84149580  1
  P  P65  1  0.68847198  0.36027416  0.17482880  1
  P  P66  1  0.85319753  0.67634197  0.98143114  1
  P  P67  1  0.67180219  0.31152802  0.50816180  1
  P  P68  1  0.88773789  0.66177806  0.31232480  1
  P  P69  1  0.77404018  0.11226211  0.64565780  1
  P  P70  1  0.87211193  0.22106525  0.00798132  1
  P  P71  1  0.82314545  0.14680247  0.31476414  1
  O  O72  1  0.01465950  0.71340022  0.80070203  1
  O  O73  1  0.15213186  0.97705846  0.84621103  1
  O  O74  1  0.01714327  0.68802316  0.55904395  1
  O  O75  1  0.13100781  0.93559130  0.49582490  1
  O  O76  1  0.19725474  0.99668026  0.18628351  1
  O  O77  1  0.07570071  0.72967259  0.13477697  1
  O  O78  1  0.06739191  0.67291415  0.45259119  1
  O  O79  1  0.26847776  0.91271894  0.75574273  1
  O  O80  1  0.28762005  0.97016569  0.08618832  1
  O  O81  1  0.15434121  0.63401547  0.68160850  1
  O  O82  1  0.20865952  0.71438214  0.97438032  1
  O  O83  1  0.27799394  0.81578131  0.85662657  1
  O  O84  1  0.21138294  0.65172847  0.31285124  1
  O  O85  1  0.29352693  0.81358427  0.52361577  1
  O  O86  1  0.02983431  0.31745435  0.75285432  1
  O  O87  1  0.35388109  0.86314797  0.17437672  1
  O  O88  1  0.13685203  0.49073312  0.84104272  1
  O  O89  1  0.00331974  0.20057448  0.85295051  1
  O  O90  1  0.08728106  0.35575882  0.42240973  1
  O  O91  1  0.02294154  0.17507340  0.51287803  1
  O  O92  1  0.25018002  0.61222607  0.06966015  1
  O  O93  1  0.06440870  0.19541551  0.16249190  1
  O  O94  1  0.18421869  0.46221263  0.52329357  1
  O  O95  1  0.18641573  0.47994266  0.19028277  1
  O  O96  1  0.36204605  0.74981998  0.40299315  1
  O  O97  1  0.28561786  0.49427739  0.64104732  1
  O  O98  1  0.38777393  0.63795395  0.73632615  1
  O  O99  1  0.34827153  0.55965447  0.97951724  1
  O  O100  1  0.44034553  0.78861706  0.64618424  1
  O  O101  1  0.47967427  0.84565879  0.01494250  1
  O  O102  1  0.36598453  0.52032573  0.34827550  1
  O  O103  1  0.17507340  0.15213186  0.67954503  1
  O  O104  1  0.20057448  0.19725474  0.01961751  1
  O  O105  1  0.27032741  0.34602812  0.80144397  1
  O  O106  1  0.32708585  0.39447876  0.11925819  1
  O  O107  1  0.50572261  0.79134048  0.30771332  1
  O  O108  1  0.19541551  0.13100781  0.32915790  1
  O  O109  1  0.28659978  0.30125927  0.46736803  1
  O  O110  1  0.31197684  0.32912111  0.22571095  1
  O  O111  1  0.52005734  0.70647307  0.85694877  1
  O  O112  1  0.60552124  0.93260809  0.78592419  1
  O  O113  1  0.53778737  0.72200606  0.18996057  1
  O  O114  1  0.31745435  0.28762005  0.91952132  1
  O  O115  1  0.67087889  0.98285673  0.89237795  1
  O  O116  1  0.50926688  0.64611891  0.50770972  1
  O  O117  1  0.35575882  0.26847776  0.58907573  1
  O  O118  1  0.65397188  0.92429929  0.46811097  1
  O  O119  1  0.69874073  0.98534050  0.13403503  1
  O  O120  1  0.30125927  0.01465950  0.63403503  1
  O  O121  1  0.34602812  0.07570071  0.96811097  1
  O  O122  1  0.64424118  0.73152224  0.08907573  1
  O  O123  1  0.49073312  0.35388109  0.00770972  1
  O  O124  1  0.32912111  0.01714327  0.39237795  1
  O  O125  1  0.68254565  0.71237995  0.41952132  1
  O  O126  1  0.46221263  0.27799394  0.68996057  1
  O  O127  1  0.39447876  0.06739191  0.28592419  1
  O  O128  1  0.47994266  0.29352693  0.35694877  1
  O  O129  1  0.68802316  0.67087889  0.72571095  1
  O  O130  1  0.71340022  0.69874073  0.96736803  1
  O  O131  1  0.80458449  0.86899219  0.82915790  1
  O  O132  1  0.49427739  0.20865952  0.80771332  1
  O  O133  1  0.67291415  0.60552124  0.61925819  1
  O  O134  1  0.72967259  0.65397188  0.30144397  1
  O  O135  1  0.79942552  0.80274526  0.51961751  1
  O  O136  1  0.82492660  0.84786814  0.17954503  1
  O  O137  1  0.63401547  0.47967427  0.84827550  1
  O  O138  1  0.52032573  0.15434121  0.51494250  1
  O  O139  1  0.55965447  0.21138294  0.14618424  1
  O  O140  1  0.65172847  0.44034553  0.47951724  1
  O  O141  1  0.61222607  0.36204605  0.23632615  1
  O  O142  1  0.71438214  0.50572261  0.14104732  1
  O  O143  1  0.63795395  0.25018002  0.90299315  1
  O  O144  1  0.81358427  0.52005734  0.69028277  1
  O  O145  1  0.81578131  0.53778737  0.02329357  1
  O  O146  1  0.93559130  0.80458449  0.66249190  1
  O  O147  1  0.74981998  0.38777393  0.56966015  1
  O  O148  1  0.97705846  0.82492660  0.01287803  1
  O  O149  1  0.91271894  0.64424118  0.92240973  1
  O  O150  1  0.99668026  0.79942552  0.35295051  1
  O  O151  1  0.86314797  0.50926688  0.34104272  1
  O  O152  1  0.64611891  0.13685203  0.67437672  1
  O  O153  1  0.97016569  0.68254565  0.25285432  1
  O  O154  1  0.70647307  0.18641573  0.02361577  1
  O  O155  1  0.78861706  0.34827153  0.81285124  1
  O  O156  1  0.72200606  0.18421869  0.35662657  1
  O  O157  1  0.79134048  0.28561786  0.47438032  1
  O  O158  1  0.84565879  0.36598453  0.18160850  1
  O  O159  1  0.71237995  0.02983431  0.58618832  1
  O  O160  1  0.73152224  0.08728106  0.25574273  1
  O  O161  1  0.93260809  0.32708585  0.95259119  1
  O  O162  1  0.92429929  0.27032741  0.63477697  1
  O  O163  1  0.80274526  0.00331974  0.68628351  1
  O  O164  1  0.86899219  0.06440870  0.99582490  1
  O  O165  1  0.98285673  0.31197684  0.05904395  1
  O  O166  1  0.84786814  0.02294154  0.34621103  1
  O  O167  1  0.98534050  0.28659978  0.30070203  1
