# generated using pymatgen
data_CsSbWO6
_symmetry_space_group_name_H-M   'P 1'
_cell_length_a   7.40960783
_cell_length_b   7.44382595
_cell_length_c   7.32804611
_cell_angle_alpha   90.00000000
_cell_angle_beta   60.36346406
_cell_angle_gamma   120.15288269
_symmetry_Int_Tables_number   1
_chemical_formula_structural   CsSbWO6
_chemical_formula_sum   'Cs2 Sb2 W2 O12'
_cell_volume   286.70304178
_cell_formula_units_Z   2
loop_
 _symmetry_equiv_pos_site_id
 _symmetry_equiv_pos_as_xyz
  1  'x, y, z'
loop_
 _atom_site_type_symbol
 _atom_site_label
 _atom_site_symmetry_multiplicity
 _atom_site_fract_x
 _atom_site_fract_y
 _atom_site_fract_z
 _atom_site_occupancy
  Cs  Cs0  1  0.73588636  0.38282331  0.88205682  1
  Cs  Cs1  1  0.26411364  0.64693695  0.11794318  1
  Sb  Sb2  1  -0.00000000  0.00109988  0.50000000  1
  Sb  Sb3  1  -0.00000000  0.00109988  0.00000000  1
  W  W4  1  0.50046631  0.00200310  0.49976685  1
  W  W5  1  0.49953369  0.50153680  0.50023315  1
  O  O6  1  0.85312424  0.92552018  0.82343788  1
  O  O7  1  0.61639608  0.30898954  0.44180196  1
  O  O8  1  0.25514994  0.31979527  0.81082584  1
  O  O9  1  0.25396853  0.93601420  0.43562929  1
  O  O10  1  0.25396853  0.93601420  0.81040218  1
  O  O11  1  0.25514994  0.31979527  0.43402422  1
  O  O12  1  0.14687576  0.07239594  0.17656212  1
  O  O13  1  0.38360392  0.69259346  0.55819804  1
  O  O14  1  0.74603147  0.68204567  0.18959782  1
  O  O15  1  0.74485006  0.06464534  0.56597578  1
  O  O16  1  0.74485006  0.06464534  0.18917416  1
  O  O17  1  0.74603147  0.68204567  0.56437071  1
