# generated using pymatgen
data_CsInCu(PO3)6
_symmetry_space_group_name_H-M   'P 1'
_cell_length_a   5.21882223
_cell_length_b   9.14068149
_cell_length_c   9.36498177
_cell_angle_alpha   86.67932157
_cell_angle_beta   74.60685940
_cell_angle_gamma   74.03031306
_symmetry_Int_Tables_number   1
_chemical_formula_structural   CsInCu(PO3)6
_chemical_formula_sum   'Cs1 In1 Cu1 P6 O18'
_cell_volume   414.03983106
_cell_formula_units_Z   1
loop_
 _symmetry_equiv_pos_site_id
 _symmetry_equiv_pos_as_xyz
  1  'x, y, z'
loop_
 _atom_site_type_symbol
 _atom_site_label
 _atom_site_symmetry_multiplicity
 _atom_site_fract_x
 _atom_site_fract_y
 _atom_site_fract_z
 _atom_site_occupancy
  Cs  Cs0  1  0.50717267  0.97854107  0.47703135  1
  In  In1  1  0.00083442  0.00031264  0.99844045  1
  Cu  Cu2  1  0.00071944  0.49884668  0.50020010  1
  P  P3  1  0.43643054  0.45860853  0.70471196  1
  P  P4  1  0.56337230  0.54090514  0.29496679  1
  P  P5  1  0.59565003  0.76262073  0.04363699  1
  P  P6  1  0.40431672  0.23727819  0.95608019  1
  P  P7  1  0.00209699  0.75494458  0.74694161  1
  P  P8  1  0.99792269  0.24513542  0.25280009  1
  O  O9  1  0.02807170  0.90907797  0.78346952  1
  O  O10  1  0.97282273  0.09069948  0.21578778  1
  O  O11  1  0.79088483  0.69977572  0.88501759  1
  O  O12  1  0.20800794  0.30071150  0.11465152  1
  O  O13  1  0.66746230  0.61138148  0.13407988  1
  O  O14  1  0.33220348  0.38838550  0.86561898  1
  O  O15  1  0.68245464  0.88798406  0.10146977  1
  O  O16  1  0.31896163  0.11133627  0.89894086  1
  O  O17  1  0.31785592  0.40302056  0.59518207  1
  O  O18  1  0.68239004  0.59756178  0.40396596  1
  O  O19  1  0.74347456  0.43322696  0.67236020  1
  O  O20  1  0.25611105  0.56708510  0.32787650  1
  O  O21  1  0.29281312  0.63593727  0.74865029  1
  O  O22  1  0.70647739  0.36393770  0.25157637  1
  O  O23  1  0.29874812  0.79895340  0.03916380  1
  O  O24  1  0.70059668  0.20168300  0.96174093  1
  O  O25  1  0.92318713  0.74150754  0.60780823  1
  O  O26  1  0.07796095  0.25844169  0.39153021  1
