# generated using pymatgen
data_LiTi(PO3)4
_symmetry_space_group_name_H-M   'P 1'
_cell_length_a   7.30305335
_cell_length_b   13.09652806
_cell_length_c   9.46348299
_cell_angle_alpha   90.00000000
_cell_angle_beta   93.68415074
_cell_angle_gamma   90.00000000
_symmetry_Int_Tables_number   1
_chemical_formula_structural   LiTi(PO3)4
_chemical_formula_sum   'Li4 Ti4 P16 O48'
_cell_volume   903.26093685
_cell_formula_units_Z   4
loop_
 _symmetry_equiv_pos_site_id
 _symmetry_equiv_pos_as_xyz
  1  'x, y, z'
loop_
 _atom_site_type_symbol
 _atom_site_label
 _atom_site_symmetry_multiplicity
 _atom_site_fract_x
 _atom_site_fract_y
 _atom_site_fract_z
 _atom_site_occupancy
  Li  Li0  1  0.91917506  0.21845834  0.04064195  1
  Li  Li1  1  0.58082494  0.71845834  0.45935805  1
  Li  Li2  1  0.41917506  0.28154166  0.54064195  1
  Li  Li3  1  0.08082494  0.78154166  0.95935805  1
  Ti  Ti4  1  0.95368757  0.29895887  0.43572237  1
  Ti  Ti5  1  0.54631243  0.79895887  0.06427763  1
  Ti  Ti6  1  0.45368757  0.20104113  0.93572237  1
  Ti  Ti7  1  0.04631243  0.70104113  0.56427763  1
  P  P8  1  0.07540141  0.61119555  0.24589741  1
  P  P9  1  0.10870332  0.13422923  0.69479112  1
  P  P10  1  0.16601456  0.91629619  0.70851784  1
  P  P11  1  0.30063016  0.89372880  0.22963980  1
  P  P12  1  0.19936984  0.39372880  0.27036020  1
  P  P13  1  0.33398544  0.41629619  0.79148216  1
  P  P14  1  0.39129668  0.63422923  0.80520888  1
  P  P15  1  0.42459859  0.11119555  0.25410259  1
  P  P16  1  0.57540141  0.88880445  0.74589741  1
  P  P17  1  0.60870332  0.36577077  0.19479112  1
  P  P18  1  0.66601456  0.58370381  0.20851784  1
  P  P19  1  0.80063016  0.60627120  0.72963980  1
  P  P20  1  0.69936984  0.10627120  0.77036020  1
  P  P21  1  0.83398544  0.08370381  0.29148216  1
  P  P22  1  0.89129668  0.86577077  0.30520888  1
  P  P23  1  0.92459859  0.38880445  0.75410259  1
  O  O24  1  0.10566327  0.86687242  0.27973093  1
  O  O25  1  0.04351004  0.90251632  0.82498033  1
  O  O26  1  0.12681106  0.43022777  0.72931021  1
  O  O27  1  0.05386456  0.31900560  0.21349043  1
  O  O28  1  0.08356399  0.68272260  0.12531828  1
  O  O29  1  0.21673295  0.14077543  0.83489846  1
  O  O30  1  0.15195822  0.64217179  0.39260666  1
  O  O31  1  0.30963832  0.89128190  0.06877739  1
  O  O32  1  0.17423694  0.50515536  0.20452343  1
  O  O33  1  0.13789221  0.02439993  0.62497295  1
  O  O34  1  0.13871380  0.21573317  0.58592994  1
  O  O35  1  0.34086357  0.33770934  0.91035867  1
  O  O36  1  0.15913643  0.83770934  0.58964133  1
  O  O37  1  0.32576306  0.00515536  0.29547657  1
  O  O38  1  0.36128620  0.71573317  0.91407006  1
  O  O39  1  0.19036168  0.39128190  0.43122261  1
  O  O40  1  0.36210779  0.52439993  0.87502705  1
  O  O41  1  0.34804178  0.14217179  0.10739334  1
  O  O42  1  0.28326705  0.64077543  0.66510154  1
  O  O43  1  0.41643601  0.18272260  0.37468172  1
  O  O44  1  0.44613544  0.81900560  0.28650957  1
  O  O45  1  0.37318894  0.93022777  0.77068979  1
  O  O46  1  0.39433673  0.36687242  0.22026907  1
  O  O47  1  0.45648996  0.40251632  0.67501967  1
  O  O48  1  0.54351004  0.59748368  0.32498033  1
  O  O49  1  0.60566327  0.63312758  0.77973093  1
  O  O50  1  0.62681106  0.06977223  0.22931021  1
  O  O51  1  0.55386456  0.18099440  0.71349043  1
  O  O52  1  0.58356399  0.81727740  0.62531828  1
  O  O53  1  0.71673295  0.35922457  0.33489846  1
  O  O54  1  0.65195822  0.85782821  0.89260666  1
  O  O55  1  0.63789221  0.47560007  0.12497295  1
  O  O56  1  0.80963832  0.60871810  0.56877739  1
  O  O57  1  0.63871380  0.28426683  0.08592994  1
  O  O58  1  0.67423694  0.99484464  0.70452343  1
  O  O59  1  0.84086357  0.16229066  0.41035867  1
  O  O60  1  0.65913643  0.66229066  0.08964133  1
  O  O61  1  0.86128620  0.78426683  0.41407006  1
  O  O62  1  0.86210779  0.97560007  0.37502705  1
  O  O63  1  0.82576306  0.49484464  0.79547657  1
  O  O64  1  0.69036168  0.10871810  0.93122261  1
  O  O65  1  0.84804178  0.35782821  0.60739334  1
  O  O66  1  0.78326705  0.85922457  0.16510154  1
  O  O67  1  0.91643601  0.31727740  0.87468172  1
  O  O68  1  0.94613544  0.68099440  0.78650957  1
  O  O69  1  0.87318894  0.56977223  0.27068979  1
  O  O70  1  0.95648996  0.09748368  0.17501967  1
  O  O71  1  0.89433673  0.13312758  0.72026907  1
