# generated using pymatgen
data_CeZn4Ni
_symmetry_space_group_name_H-M   'P 1'
_cell_length_a   4.30259973
_cell_length_b   5.19826035
_cell_length_c   5.19705296
_cell_angle_alpha   59.99456472
_cell_angle_beta   90.00000000
_cell_angle_gamma   90.00000000
_symmetry_Int_Tables_number   1
_chemical_formula_structural   CeZn4Ni
_chemical_formula_sum   'Ce1 Zn4 Ni1'
_cell_volume   100.65908032
_cell_formula_units_Z   1
loop_
 _symmetry_equiv_pos_site_id
 _symmetry_equiv_pos_as_xyz
  1  'x, y, z'
loop_
 _atom_site_type_symbol
 _atom_site_label
 _atom_site_symmetry_multiplicity
 _atom_site_fract_x
 _atom_site_fract_y
 _atom_site_fract_z
 _atom_site_occupancy
  Ce  Ce0  1  0.00000000  0.99998715  0.00000869  1
  Zn  Zn1  1  0.00000000  0.66659665  0.66672543  1
  Zn  Zn2  1  0.50000000  0.49592230  0.49592342  1
  Zn  Zn3  1  0.50000000  0.49591393  0.00816608  1
  Zn  Zn4  1  0.50000000  0.00814629  0.49592463  1
  Ni  Ni5  1  -0.00000000  0.33333369  0.33335175  1
