# generated using pymatgen
data_Cs3Tb7Te12
_symmetry_space_group_name_H-M   'P 1'
_cell_length_a   4.46416599
_cell_length_b   13.82181493
_cell_length_c   28.46244625
_cell_angle_alpha   90.00000000
_cell_angle_beta   90.00000000
_cell_angle_gamma   90.00000000
_symmetry_Int_Tables_number   1
_chemical_formula_structural   Cs3Tb7Te12
_chemical_formula_sum   'Cs6 Tb14 Te24'
_cell_volume   1756.21479534
_cell_formula_units_Z   2
loop_
 _symmetry_equiv_pos_site_id
 _symmetry_equiv_pos_as_xyz
  1  'x, y, z'
loop_
 _atom_site_type_symbol
 _atom_site_label
 _atom_site_symmetry_multiplicity
 _atom_site_fract_x
 _atom_site_fract_y
 _atom_site_fract_z
 _atom_site_occupancy
  Cs  Cs0  1  0.50000000  0.27797301  0.37073051  1
  Cs  Cs1  1  0.50000000  0.71614957  0.63176531  1
  Cs  Cs2  1  -0.00000000  0.78385043  0.13176531  1
  Cs  Cs3  1  -0.00000000  0.22202699  0.87073051  1
  Cs  Cs4  1  0.50000000  0.56049890  0.02853231  1
  Cs  Cs5  1  -0.00000000  0.93950110  0.52853231  1
  Tb  Tb6  1  0.50000000  0.91458130  0.31701587  1
  Tb  Tb7  1  0.50000000  0.08704105  0.68346982  1
  Tb  Tb8  1  0.00000000  0.41295895  0.18346982  1
  Tb  Tb9  1  0.00000000  0.58541870  0.81701587  1
  Tb  Tb10  1  0.50000000  0.49953211  0.50007850  1
  Tb  Tb11  1  0.00000000  0.00046789  0.00007850  1
  Tb  Tb12  1  0.50000000  0.78680618  0.91367493  1
  Tb  Tb13  1  0.50000000  0.21316564  0.08524638  1
  Tb  Tb14  1  0.00000000  0.28683436  0.58524638  1
  Tb  Tb15  1  0.00000000  0.71319382  0.41367493  1
  Tb  Tb16  1  0.50000000  0.58497368  0.28821120  1
  Tb  Tb17  1  0.50000000  0.41543253  0.71212125  1
  Tb  Tb18  1  0.00000000  0.08456747  0.21212125  1
  Tb  Tb19  1  -0.00000000  0.91502632  0.78821120  1
  Te  Te20  1  0.50000000  0.86809709  0.42242873  1
  Te  Te21  1  0.50000000  0.13279710  0.57792259  1
  Te  Te22  1  -0.00000000  0.36720290  0.07792259  1
  Te  Te23  1  -0.00000000  0.63190291  0.92242873  1
  Te  Te24  1  0.50000000  0.75220458  0.80192670  1
  Te  Te25  1  0.50000000  0.24777620  0.19781640  1
  Te  Te26  1  -0.00000000  0.25222380  0.69781640  1
  Te  Te27  1  -0.00000000  0.74779542  0.30192670  1
  Te  Te28  1  0.50000000  0.56713652  0.17802588  1
  Te  Te29  1  0.50000000  0.43374838  0.82062627  1
  Te  Te30  1  0.00000000  0.06625162  0.32062627  1
  Te  Te31  1  -0.00000000  0.93286348  0.67802588  1
  Te  Te32  1  0.50000000  0.56065095  0.39591816  1
  Te  Te33  1  0.50000000  0.43849172  0.60414200  1
  Te  Te34  1  -0.00000000  0.06150828  0.10414200  1
  Te  Te35  1  -0.00000000  0.93934905  0.89591816  1
  Te  Te36  1  0.50000000  0.84449015  0.01832078  1
  Te  Te37  1  0.50000000  0.15252740  0.98226435  1
  Te  Te38  1  0.00000000  0.34747260  0.48226435  1
  Te  Te39  1  -0.00000000  0.65550985  0.51832078  1
  Te  Te40  1  0.50000000  0.93408571  0.21011931  1
  Te  Te41  1  0.50000000  0.06521647  0.78984275  1
  Te  Te42  1  -0.00000000  0.43478353  0.28984275  1
  Te  Te43  1  0.00000000  0.56591429  0.71011931  1
