# generated using pymatgen
data_Cs2LiCr3F12
_symmetry_space_group_name_H-M   'P 1'
_cell_length_a   7.37017712
_cell_length_b   7.45451630
_cell_length_c   7.37017712
_cell_angle_alpha   90.00000000
_cell_angle_beta   60.00000000
_cell_angle_gamma   119.62644179
_symmetry_Int_Tables_number   1
_chemical_formula_structural   Cs2LiCr3F12
_chemical_formula_sum   'Cs2 Li1 Cr3 F12'
_cell_volume   287.93174692
_cell_formula_units_Z   1
loop_
 _symmetry_equiv_pos_site_id
 _symmetry_equiv_pos_as_xyz
  1  'x, y, z'
loop_
 _atom_site_type_symbol
 _atom_site_label
 _atom_site_symmetry_multiplicity
 _atom_site_fract_x
 _atom_site_fract_y
 _atom_site_fract_z
 _atom_site_occupancy
  Cs  Cs0  1  0.76213084  0.39319625  0.36893458  1
  Cs  Cs1  1  0.23786916  0.60680375  0.63106542  1
  Li  Li2  1  0.50000000  0.50000000  -0.00000000  1
  Cr  Cr3  1  0.50000000  0.00000000  -0.00000000  1
  Cr  Cr4  1  0.00000000  0.00000000  0.50000000  1
  Cr  Cr5  1  0.00000000  0.00000000  -0.00000000  1
  F  F6  1  0.86897518  0.94139000  0.31551241  1
  F  F7  1  0.64047793  0.30512250  0.92976053  1
  F  F8  1  0.25690241  0.94139000  0.92758418  1
  F  F9  1  0.23488304  0.30512250  0.33535543  1
  F  F10  1  0.23488304  0.30512250  0.92976053  1
  F  F11  1  0.25690241  0.94139000  0.31551241  1
  F  F12  1  0.13102482  0.05861000  0.68448759  1
  F  F13  1  0.35952207  0.69487750  0.07023947  1
  F  F14  1  0.74309759  0.05861000  0.07241582  1
  F  F15  1  0.76511696  0.69487750  0.66464457  1
  F  F16  1  0.76511696  0.69487750  0.07023947  1
  F  F17  1  0.74309759  0.05861000  0.68448759  1
