# generated using pymatgen
data_Er36In8Fe7
_symmetry_space_group_name_H-M   'P 1'
_cell_length_a   8.40947410
_cell_length_b   8.40947410
_cell_length_c   21.09440351
_cell_angle_alpha   82.14573196
_cell_angle_beta   82.68764415
_cell_angle_gamma   109.75199372
_symmetry_Int_Tables_number   1
_chemical_formula_structural   Er36In8Fe7
_chemical_formula_sum   'Er36 In8 Fe7'
_cell_volume   1366.55566929
_cell_formula_units_Z   1
loop_
 _symmetry_equiv_pos_site_id
 _symmetry_equiv_pos_as_xyz
  1  'x, y, z'
loop_
 _atom_site_type_symbol
 _atom_site_label
 _atom_site_symmetry_multiplicity
 _atom_site_fract_x
 _atom_site_fract_y
 _atom_site_fract_z
 _atom_site_occupancy
  Er  Er0  1  0.92859829  0.23119511  0.23202323  1
  Er  Er1  1  0.25581425  0.56602017  0.56634217  1
  Er  Er2  1  0.59630240  0.89683448  0.89606360  1
  Er  Er3  1  0.40473571  0.10213889  0.10131077  1
  Er  Er4  1  0.73703060  0.43649852  0.43726940  1
  Er  Er5  1  0.07751875  0.76731283  0.76699083  1
  Er  Er6  1  0.53678267  0.83937949  0.23202323  1
  Er  Er7  1  0.86763765  0.17784357  0.56634217  1
  Er  Er8  1  0.20710092  0.50763300  0.89606360  1
  Er  Er9  1  0.79655133  0.49395451  0.10131077  1
  Er  Er10  1  0.12623208  0.82570000  0.43726940  1
  Er  Er11  1  0.46569535  0.15548943  0.76699083  1
  Er  Er12  1  0.11025264  0.56792544  0.32182092  1
  Er  Er13  1  0.45801416  0.89046289  0.65152396  1
  Er  Er14  1  0.77896077  0.23357911  0.98746012  1
  Er  Er15  1  0.94293276  0.90472666  0.15234158  1
  Er  Er16  1  0.27519813  0.23681329  0.48798858  1
  Er  Er17  1  0.61933100  0.57275481  0.80791319  1
  Er  Er18  1  0.10740767  0.31805565  0.06897871  1
  Er  Er19  1  0.44157185  0.65220528  0.40391701  1
  Er  Er20  1  0.77518940  0.96757348  0.72975357  1
  Er  Er21  1  0.61296464  0.82361262  0.06897871  1
  Er  Er22  1  0.94387871  0.15451214  0.40391701  1
  Er  Er23  1  0.30267295  0.49505703  0.72975357  1
  Er  Er24  1  0.22308036  0.76540756  0.01151208  1
  Er  Er25  1  0.55437223  0.09975389  0.34587288  1
  Er  Er26  1  0.87531984  0.44287111  0.68181004  1
  Er  Er27  1  0.39040124  0.42860734  0.18099242  1
  Er  Er28  1  0.71400200  0.76057819  0.52541981  1
  Er  Er29  1  0.05813487  0.09651971  0.84534442  1
  Er  Er30  1  0.22592533  0.01527735  0.26435429  1
  Er  Er31  1  0.55814360  0.36575952  0.60357943  1
  Er  Er32  1  0.89176215  0.68112872  0.92941699  1
  Er  Er33  1  0.72036836  0.50972038  0.26435429  1
  Er  Er34  1  0.03066005  0.83827597  0.60357943  1
  Er  Er35  1  0.38945529  0.17882186  0.92941699  1
  In  In36  1  0.83365481  0.83363452  0.33270967  1
  In  In37  1  0.16666700  0.16666700  0.66666700  1
  In  In38  1  0.49967819  0.49969848  0.00062333  1
  In  In39  1  0.16666700  0.66666700  0.16666700  1
  In  In40  1  0.50000978  0.00140565  0.49858457  1
  In  In41  1  0.83332322  0.33192735  0.83474843  1
  In  In42  1  0.00133278  0.99955074  0.99911648  1
  In  In43  1  0.33200022  0.33378226  0.33421652  1
  Fe  Fe44  1  0.74211013  0.12700657  0.13088431  1
  Fe  Fe45  1  0.07405291  0.46212122  0.46382587  1
  Fe  Fe46  1  0.40992744  0.79433282  0.79573873  1
  Fe  Fe47  1  0.59122387  0.20632743  0.20244969  1
  Fe  Fe48  1  0.92340556  0.53900018  0.53759427  1
  Fe  Fe49  1  0.25928009  0.87121178  0.86950713  1
  Fe  Fe50  1  0.66666700  0.66666700  0.66666700  1
