# generated using pymatgen
data_Cs4Fe(MoO4)3
_symmetry_space_group_name_H-M   'P 1'
_cell_length_a   6.37952352
_cell_length_b   6.38628151
_cell_length_c   24.81520977
_cell_angle_alpha   90.12874798
_cell_angle_beta   89.74223061
_cell_angle_gamma   119.96500168
_symmetry_Int_Tables_number   1
_chemical_formula_structural   Cs4Fe(MoO4)3
_chemical_formula_sum   'Cs8 Fe2 Mo6 O24'
_cell_volume   875.85767909
_cell_formula_units_Z   2
loop_
 _symmetry_equiv_pos_site_id
 _symmetry_equiv_pos_as_xyz
  1  'x, y, z'
loop_
 _atom_site_type_symbol
 _atom_site_label
 _atom_site_symmetry_multiplicity
 _atom_site_fract_x
 _atom_site_fract_y
 _atom_site_fract_z
 _atom_site_occupancy
  Cs  Cs0  1  0.33262583  0.66653620  0.15921150  1
  Cs  Cs1  1  0.33340659  0.66692518  0.33760681  1
  Cs  Cs2  1  0.66608963  0.33346380  0.65921150  1
  Cs  Cs3  1  0.66648141  0.33307482  0.83760681  1
  Cs  Cs4  1  0.66659343  0.33328568  0.03211907  1
  Cs  Cs5  1  0.66666484  0.33335083  0.47117679  1
  Cs  Cs6  1  0.33330775  0.66671432  0.53211907  1
  Cs  Cs7  1  0.33331402  0.66664917  0.97117679  1
  Fe  Fe8  1  0.00820275  0.00504764  0.25057843  1
  Fe  Fe9  1  0.00315511  0.99495236  0.75057843  1
  Mo  Mo10  1  0.99930295  0.99960882  0.09376806  1
  Mo  Mo11  1  0.00031332  0.00034232  0.40647819  1
  Mo  Mo12  1  0.99969413  0.00039118  0.59376806  1
  Mo  Mo13  1  -0.00002900  0.99965768  0.90647819  1
  Mo  Mo14  1  0.66572576  0.33231381  0.22854982  1
  Mo  Mo15  1  0.33341195  0.66768619  0.72854982  1
  O  O16  1  0.14866204  0.30330822  0.06892005  1
  O  O17  1  0.15537559  0.85158968  0.06873143  1
  O  O18  1  0.69633162  0.84469037  0.06875880  1
  O  O19  1  0.14948067  0.30559419  0.43026447  1
  O  O20  1  0.15630974  0.85089852  0.43016199  1
  O  O21  1  0.69419832  0.84360190  0.43017468  1
  O  O22  1  0.84535383  0.69669178  0.56892005  1
  O  O23  1  0.30378591  0.14841032  0.56873143  1
  O  O24  1  0.85164125  0.15530963  0.56875880  1
  O  O25  1  0.84388648  0.69440581  0.93026447  1
  O  O26  1  0.30541122  0.14910148  0.93016199  1
  O  O27  1  0.85059643  0.15639810  0.93017468  1
  O  O28  1  0.99678521  0.99712503  0.16766384  1
  O  O29  1  0.00188698  0.00168148  0.33286220  1
  O  O30  1  0.99966018  0.00287497  0.66766384  1
  O  O31  1  0.00020550  0.99831852  0.83286220  1
  O  O32  1  0.66603971  0.33265240  0.15747566  1
  O  O33  1  0.33338731  0.66734760  0.65747566  1
  O  O34  1  0.37201614  0.27947774  0.25243989  1
  O  O35  1  0.90439765  0.62463792  0.25147233  1
  O  O36  1  0.71907162  0.09391367  0.25166598  1
  O  O37  1  0.09253840  0.72052226  0.75243989  1
  O  O38  1  0.27975973  0.37536208  0.75147233  1
  O  O39  1  0.62515796  0.90608633  0.75166598  1
