# generated using pymatgen
data_KSmS2O9
_symmetry_space_group_name_H-M   'P 1'
_cell_length_a   8.80152217
_cell_length_b   10.00712036
_cell_length_c   10.34439797
_cell_angle_alpha   117.39684597
_cell_angle_beta   90.00000000
_cell_angle_gamma   90.00000000
_symmetry_Int_Tables_number   1
_chemical_formula_structural   KSmS2O9
_chemical_formula_sum   'K4 Sm4 S8 O36'
_cell_volume   808.92301019
_cell_formula_units_Z   4
loop_
 _symmetry_equiv_pos_site_id
 _symmetry_equiv_pos_as_xyz
  1  'x, y, z'
loop_
 _atom_site_type_symbol
 _atom_site_label
 _atom_site_symmetry_multiplicity
 _atom_site_fract_x
 _atom_site_fract_y
 _atom_site_fract_z
 _atom_site_occupancy
  K  K0  1  0.30305105  0.72675238  0.69834938  1
  K  K1  1  0.69694895  0.27324762  0.30165062  1
  K  K2  1  0.80305105  0.27324762  0.80165062  1
  K  K3  1  0.19694895  0.72675238  0.19834938  1
  Sm  Sm4  1  0.35831962  0.23779875  0.97386153  1
  Sm  Sm5  1  0.64168038  0.76220125  0.02613847  1
  Sm  Sm6  1  0.85831962  0.76220125  0.52613847  1
  Sm  Sm7  1  0.14168038  0.23779875  0.47386153  1
  S  S8  1  0.12602932  0.44301008  0.32049379  1
  S  S9  1  0.87397068  0.55698992  0.67950621  1
  S  S10  1  0.62602932  0.55698992  0.17950621  1
  S  S11  1  0.37397068  0.44301008  0.82049379  1
  S  S12  1  0.18573769  0.02807180  0.62088031  1
  S  S13  1  0.81426231  0.97192820  0.37911969  1
  S  S14  1  0.68573769  0.97192820  0.87911969  1
  S  S15  1  0.31426231  0.02807180  0.12088031  1
  O  O16  1  0.05294581  0.59267351  0.37190063  1
  O  O17  1  0.94705419  0.40732649  0.62809937  1
  O  O18  1  0.55294581  0.40732649  0.12809937  1
  O  O19  1  0.44705419  0.59267351  0.87190063  1
  O  O20  1  0.40905171  0.16762569  0.17235807  1
  O  O21  1  0.59094829  0.83237431  0.82764193  1
  O  O22  1  0.90905171  0.83237431  0.32764193  1
  O  O23  1  0.09094829  0.16762569  0.67235807  1
  O  O24  1  0.01470147  0.32610145  0.30732898  1
  O  O25  1  0.98529853  0.67389855  0.69267102  1
  O  O26  1  0.51470147  0.67389855  0.19267102  1
  O  O27  1  0.48529853  0.32610145  0.80732898  1
  O  O28  1  0.19769273  0.40713308  0.17638911  1
  O  O29  1  0.80230727  0.59286692  0.82361089  1
  O  O30  1  0.69769273  0.59286692  0.32361089  1
  O  O31  1  0.30230727  0.40713308  0.67638911  1
  O  O32  1  0.30730610  0.04776493  0.72692231  1
  O  O33  1  0.69269390  0.95223507  0.27307769  1
  O  O34  1  0.80730610  0.95223507  0.77307769  1
  O  O35  1  0.19269390  0.04776493  0.22692231  1
  O  O36  1  0.59372659  0.10442160  0.90057203  1
  O  O37  1  0.40627341  0.89557840  0.09942797  1
  O  O38  1  0.09372659  0.89557840  0.59942797  1
  O  O39  1  0.90627341  0.10442160  0.40057203  1
  O  O40  1  0.08409647  0.20703084  0.96151623  1
  O  O41  1  0.91590353  0.79296916  0.03848377  1
  O  O42  1  0.58409647  0.79296916  0.53848377  1
  O  O43  1  0.41590353  0.20703084  0.46151623  1
  O  O44  1  0.74954535  0.99718632  0.02320359  1
  O  O45  1  0.25045465  0.00281368  0.97679641  1
  O  O46  1  0.24954535  0.00281368  0.47679641  1
  O  O47  1  0.75045465  0.99718632  0.52320359  1
  O  O48  1  0.24432218  0.44728354  0.42607327  1
  O  O49  1  0.75567782  0.55271646  0.57392673  1
  O  O50  1  0.74432218  0.55271646  0.07392673  1
  O  O51  1  0.25567782  0.44728354  0.92607327  1
