# generated using pymatgen
data_CaCeV2O8
_symmetry_space_group_name_H-M   'P 1'
_cell_length_a   6.07941717
_cell_length_b   6.07941717
_cell_length_c   6.07941717
_cell_angle_alpha   63.86182499
_cell_angle_beta   73.75583177
_cell_angle_gamma   106.24416823
_symmetry_Int_Tables_number   1
_chemical_formula_structural   CaCeV2O8
_chemical_formula_sum   'Ca1 Ce1 V2 O8'
_cell_volume   171.19099082
_cell_formula_units_Z   1
loop_
 _symmetry_equiv_pos_site_id
 _symmetry_equiv_pos_as_xyz
  1  'x, y, z'
loop_
 _atom_site_type_symbol
 _atom_site_label
 _atom_site_symmetry_multiplicity
 _atom_site_fract_x
 _atom_site_fract_y
 _atom_site_fract_z
 _atom_site_occupancy
  Ca  Ca0  1  0.25000000  0.37500000  0.87500000  1
  Ce  Ce1  1  0.75000000  0.62500000  0.12500000  1
  V  V2  1  0.75000000  0.12500000  0.62500000  1
  V  V3  1  0.25000000  0.87500000  0.37500000  1
  O  O4  1  0.92872938  0.30446438  0.26680624  1
  O  O5  1  0.06211924  0.85432559  0.20779365  1
  O  O6  1  0.43788076  0.23008711  0.20779365  1
  O  O7  1  0.57127062  0.30446438  0.62426501  1
  O  O8  1  0.06211924  0.70779365  0.73008711  1
  O  O9  1  0.92872938  0.12426501  0.80446438  1
  O  O10  1  0.57127062  0.76680624  0.80446438  1
  O  O11  1  0.43788076  0.70779365  0.35432559  1
