# generated using pymatgen
data_CeY(MgNi4)2
_symmetry_space_group_name_H-M   'P 1'
_cell_length_a   4.94474537
_cell_length_b   4.94474537
_cell_length_c   8.56100233
_cell_angle_alpha   73.21419010
_cell_angle_beta   90.00000000
_cell_angle_gamma   120.00000000
_symmetry_Int_Tables_number   1
_chemical_formula_structural   CeY(MgNi4)2
_chemical_formula_sum   'Ce1 Y1 Mg2 Ni8'
_cell_volume   170.90090426
_cell_formula_units_Z   1
loop_
 _symmetry_equiv_pos_site_id
 _symmetry_equiv_pos_as_xyz
  1  'x, y, z'
loop_
 _atom_site_type_symbol
 _atom_site_label
 _atom_site_symmetry_multiplicity
 _atom_site_fract_x
 _atom_site_fract_y
 _atom_site_fract_z
 _atom_site_occupancy
  Ce  Ce0  1  0.00011591  0.00023182  0.99965227  1
  Y  Y1  1  0.49999411  0.99998822  0.50001766  1
  Mg  Mg2  1  0.87461666  0.74923332  0.37615002  1
  Mg  Mg3  1  0.37535579  0.75071158  0.87393263  1
  Ni  Ni4  1  0.43601765  0.37635471  0.18762764  1
  Ni  Ni5  1  0.93611001  0.37553422  0.68835577  1
  Ni  Ni6  1  0.43601765  0.87203530  0.18762764  1
  Ni  Ni7  1  0.93611001  0.87222003  0.68835577  1
  Ni  Ni8  1  0.18791290  0.37582581  0.43626129  1
  Ni  Ni9  1  0.68798803  0.37597605  0.93603592  1
  Ni  Ni10  1  0.94033706  0.37635471  0.18762764  1
  Ni  Ni11  1  0.43942421  0.37553422  0.68835577  1
