# generated using pymatgen
data_LiCuPO4
_symmetry_space_group_name_H-M   'P 1'
_cell_length_a   9.90619272
_cell_length_b   9.90619251
_cell_length_c   23.69266499
_cell_angle_alpha   90.00000000
_cell_angle_beta   90.00000000
_cell_angle_gamma   120.00000090
_symmetry_Int_Tables_number   1
_chemical_formula_structural   LiCuPO4
_chemical_formula_sum   'Li24 Cu24 P24 O96'
_cell_volume   2013.52987450
_cell_formula_units_Z   24
loop_
 _symmetry_equiv_pos_site_id
 _symmetry_equiv_pos_as_xyz
  1  'x, y, z'
loop_
 _atom_site_type_symbol
 _atom_site_label
 _atom_site_symmetry_multiplicity
 _atom_site_fract_x
 _atom_site_fract_y
 _atom_site_fract_z
 _atom_site_occupancy
  Li  Li0  1  0.02361186  0.98252850  0.69553741  1
  Li  Li1  1  0.03268325  0.58176476  0.03597233  1
  Li  Li2  1  0.03984604  0.46140275  0.19233946  1
  Li  Li3  1  0.04081060  0.48288060  0.85037829  1
  Li  Li4  1  0.42155671  0.96015396  0.85900646  1
  Li  Li5  1  0.44207100  0.95918940  0.51704529  1
  Li  Li6  1  0.01747150  0.04108236  0.02887041  1
  Li  Li7  1  0.04108236  0.02361186  0.86220341  1
  Li  Li8  1  0.54908150  0.96731675  0.70263933  1
  Li  Li9  1  0.41823524  0.45091850  0.36930633  1
  Li  Li10  1  0.51711940  0.55792900  0.18371129  1
  Li  Li11  1  0.53859725  0.57844329  0.52567346  1
  Li  Li12  1  0.46140275  0.42155671  0.02567346  1
  Li  Li13  1  0.48288060  0.44207100  0.68371129  1
  Li  Li14  1  0.58176476  0.54908150  0.86930633  1
  Li  Li15  1  0.45091850  0.03268325  0.20263933  1
  Li  Li16  1  0.95891764  0.97638814  0.36220341  1
  Li  Li17  1  0.98252850  0.95891764  0.52887041  1
  Li  Li18  1  0.55792900  0.04081060  0.01704529  1
  Li  Li19  1  0.57844329  0.03984604  0.35900646  1
  Li  Li20  1  0.95918940  0.51711940  0.35037829  1
  Li  Li21  1  0.96015396  0.53859725  0.69233946  1
  Li  Li22  1  0.96731675  0.41823524  0.53597233  1
  Li  Li23  1  0.97638814  0.01747150  0.19553741  1
  Cu  Cu24  1  0.11421105  0.81927508  0.26913027  1
  Cu  Cu25  1  0.09623889  0.77309883  0.92251053  1
  Cu  Cu26  1  0.12324443  0.76009968  0.59388274  1
  Cu  Cu27  1  0.31548689  0.65729610  0.75587957  1
  Cu  Cu28  1  0.34270390  0.65819080  0.08921257  1
  Cu  Cu29  1  0.34180920  0.68451311  0.42254557  1
  Cu  Cu30  1  0.18072492  0.29493596  0.60246427  1
  Cu  Cu31  1  0.23990032  0.36314475  0.92721574  1
  Cu  Cu32  1  0.22690117  0.32314107  0.25584353  1
  Cu  Cu33  1  0.63685525  0.87675557  0.26054874  1
  Cu  Cu34  1  0.67685893  0.90376111  0.58917653  1
  Cu  Cu35  1  0.29493596  0.11421105  0.43579727  1
  Cu  Cu36  1  0.70506404  0.88578895  0.93579727  1
  Cu  Cu37  1  0.32314107  0.09623889  0.08917653  1
  Cu  Cu38  1  0.36314475  0.12324443  0.76054874  1
  Cu  Cu39  1  0.77309883  0.67685893  0.75584353  1
  Cu  Cu40  1  0.76009968  0.63685525  0.42721574  1
  Cu  Cu41  1  0.81927508  0.70506404  0.10246427  1
  Cu  Cu42  1  0.65819080  0.31548689  0.92254557  1
  Cu  Cu43  1  0.65729610  0.34180920  0.58921257  1
  Cu  Cu44  1  0.68451311  0.34270390  0.25587957  1
  Cu  Cu45  1  0.87675557  0.23990032  0.09388274  1
  Cu  Cu46  1  0.90376111  0.22690117  0.42251053  1
  Cu  Cu47  1  0.88578895  0.18072492  0.76913027  1
  P  P48  1  0.09552541  0.79035581  0.79059439  1
  P  P49  1  0.08012046  0.75997081  0.46523101  1
  P  P50  1  0.13517987  0.77395061  0.13812295  1
  P  P51  1  0.29122325  0.65035480  0.29633337  1
  P  P52  1  0.35913155  0.70877675  0.96300037  1
  P  P53  1  0.34964520  0.64086845  0.62966637  1
  P  P54  1  0.22604939  0.36122926  0.47145595  1
  P  P55  1  0.20964419  0.30516960  0.12392739  1
  P  P56  1  0.24002919  0.32014964  0.79856501  1
  P  P57  1  0.63877074  0.86482013  0.80478895  1
  P  P58  1  0.67985036  0.91987954  0.13189801  1
  P  P59  1  0.69483040  0.90447459  0.45726039  1
  P  P60  1  0.30516960  0.09552541  0.95726039  1
  P  P61  1  0.32014964  0.08012046  0.63189801  1
  P  P62  1  0.36122926  0.13517987  0.30478895  1
  P  P63  1  0.75997081  0.67985036  0.29856501  1
  P  P64  1  0.79035581  0.69483040  0.62392739  1
  P  P65  1  0.77395061  0.63877074  0.97145595  1
  P  P66  1  0.65035480  0.35913155  0.12966637  1
  P  P67  1  0.64086845  0.29122325  0.46300037  1
  P  P68  1  0.70877675  0.34964520  0.79633337  1
  P  P69  1  0.86482013  0.22604939  0.63812295  1
  P  P70  1  0.91987954  0.24002919  0.96523101  1
  P  P71  1  0.90447459  0.20964419  0.29059439  1
  O  O72  1  0.03821035  0.77363579  0.08634044  1
  O  O73  1  0.09033872  0.92178288  0.46722206  1
  O  O74  1  0.01590087  0.70116004  0.84586077  1
  O  O75  1  0.14202945  0.99074079  0.92876382  1
  O  O76  1  0.03693897  0.74873137  0.19205782  1
  O  O77  1  0.01291590  0.67371318  0.52205602  1
  O  O78  1  0.24947774  0.93893410  0.80828080  1
  O  O79  1  0.13770853  0.65563729  0.30445685  1
  O  O80  1  0.11611631  0.67920934  0.75126807  1
  O  O81  1  0.31162057  0.96820924  0.58369164  1
  O  O82  1  0.29517947  0.92647142  0.14068420  1
  O  O83  1  0.16226649  0.63297803  0.13207673  1
  O  O84  1  0.24832965  0.79028537  0.45698789  1
  O  O85  1  0.18078251  0.60420960  0.61850950  1
  O  O86  1  0.07352858  0.36870805  0.47401720  1
  O  O87  1  0.26900829  0.72875418  0.91321668  1
  O  O88  1  0.03179076  0.34341133  0.91702564  1
  O  O89  1  0.06106590  0.31054364  0.14161380  1
  O  O90  1  0.00925921  0.15128866  0.26209782  1
  O  O91  1  0.07821712  0.16855584  0.80055606  1
  O  O92  1  0.25996188  0.67688070  0.01756237  1
  O  O93  1  0.27124582  0.54025410  0.24654968  1
  O  O94  1  0.32311930  0.58308118  0.35089537  1
  O  O95  1  0.20971463  0.45804427  0.79032089  1
  O  O96  1  0.41691882  0.74003812  0.68422837  1
  O  O97  1  0.42342709  0.81921749  0.28517550  1
  O  O98  1  0.47071154  0.83773351  0.79874273  1
  O  O99  1  0.32079066  0.43690696  0.08460107  1
  O  O100  1  0.34436271  0.48207124  0.63779085  1
  O  O101  1  0.36702197  0.52928846  0.46540973  1
  O  O102  1  0.25126863  0.28820861  0.52539182  1
  O  O103  1  0.39579040  0.57657291  0.95184250  1
  O  O104  1  0.45974590  0.73099171  0.57988268  1
  O  O105  1  0.51792876  0.86229147  0.97112385  1
  O  O106  1  0.56309304  0.88388369  0.41793407  1
  O  O107  1  0.15128866  0.14202945  0.09543082  1
  O  O108  1  0.22636421  0.26457455  0.41967344  1
  O  O109  1  0.29883996  0.31474083  0.17919477  1
  O  O110  1  0.16855584  0.09033872  0.63388906  1
  O  O111  1  0.32628682  0.33920173  0.85538902  1
  O  O112  1  0.54195573  0.75167035  0.12365489  1
  O  O113  1  0.31054364  0.24947774  0.97494680  1
  O  O114  1  0.66079827  0.98708410  0.18872202  1
  O  O115  1  0.34341133  0.31162057  0.75035864  1
  O  O116  1  0.36870805  0.29517947  0.30735120  1
  O  O117  1  0.68525917  0.98409913  0.51252777  1
  O  O118  1  0.71179139  0.96306103  0.85872482  1
  O  O119  1  0.26457455  0.03821035  0.25300744  1
  O  O120  1  0.73542545  0.96178965  0.75300744  1
  O  O121  1  0.28820861  0.03693897  0.35872482  1
  O  O122  1  0.31474083  0.01590087  0.01252777  1
  O  O123  1  0.63129195  0.70482053  0.80735120  1
  O  O124  1  0.65658867  0.68837943  0.25035864  1
  O  O125  1  0.33920173  0.01291590  0.68872202  1
  O  O126  1  0.68945636  0.75052226  0.47494680  1
  O  O127  1  0.45804427  0.24832965  0.62365489  1
  O  O128  1  0.67371318  0.66079827  0.35538902  1
  O  O129  1  0.83144416  0.90966128  0.13388906  1
  O  O130  1  0.70116004  0.68525917  0.67919477  1
  O  O131  1  0.77363579  0.73542545  0.91967344  1
  O  O132  1  0.84871134  0.85797055  0.59543082  1
  O  O133  1  0.43690696  0.11611631  0.91793407  1
  O  O134  1  0.48207124  0.13770853  0.47112385  1
  O  O135  1  0.54025410  0.26900829  0.07988268  1
  O  O136  1  0.60420960  0.42342709  0.45184250  1
  O  O137  1  0.74873137  0.71179139  0.02539182  1
  O  O138  1  0.63297803  0.47071154  0.96540973  1
  O  O139  1  0.65563729  0.51792876  0.13779085  1
  O  O140  1  0.67920934  0.56309304  0.58460107  1
  O  O141  1  0.52928846  0.16226649  0.29874273  1
  O  O142  1  0.57657291  0.18078251  0.78517550  1
  O  O143  1  0.58308118  0.25996188  0.18422837  1
  O  O144  1  0.79028537  0.54195573  0.29032089  1
  O  O145  1  0.67688070  0.41691882  0.85089537  1
  O  O146  1  0.72875418  0.45974590  0.74654968  1
  O  O147  1  0.74003812  0.32311930  0.51756237  1
  O  O148  1  0.92178288  0.83144416  0.30055606  1
  O  O149  1  0.99074079  0.84871134  0.76209782  1
  O  O150  1  0.93893410  0.68945636  0.64161380  1
  O  O151  1  0.96820924  0.65658867  0.41702564  1
  O  O152  1  0.73099171  0.27124582  0.41321668  1
  O  O153  1  0.92647142  0.63129195  0.97401720  1
  O  O154  1  0.81921749  0.39579040  0.11850950  1
  O  O155  1  0.75167035  0.20971463  0.95698789  1
  O  O156  1  0.83773351  0.36702197  0.63207673  1
  O  O157  1  0.70482053  0.07352858  0.64068420  1
  O  O158  1  0.68837943  0.03179076  0.08369164  1
  O  O159  1  0.88388369  0.32079066  0.25126807  1
  O  O160  1  0.86229147  0.34436271  0.80445685  1
  O  O161  1  0.75052226  0.06106590  0.30828080  1
  O  O162  1  0.98708410  0.32628682  0.02205602  1
  O  O163  1  0.96306103  0.25126863  0.69205782  1
  O  O164  1  0.85797055  0.00925921  0.42876382  1
  O  O165  1  0.98409913  0.29883996  0.34586077  1
  O  O166  1  0.90966128  0.07821712  0.96722206  1
  O  O167  1  0.96178965  0.22636421  0.58634044  1
