# generated using pymatgen
data_CaLa3Mn4O12
_symmetry_space_group_name_H-M   'P 1'
_cell_length_a   5.54622182
_cell_length_b   5.54385295
_cell_length_c   7.85192308
_cell_angle_alpha   90.00000000
_cell_angle_beta   90.00000000
_cell_angle_gamma   89.44820844
_symmetry_Int_Tables_number   1
_chemical_formula_structural   CaLa3Mn4O12
_chemical_formula_sum   'Ca1 La3 Mn4 O12'
_cell_volume   241.41532348
_cell_formula_units_Z   1
loop_
 _symmetry_equiv_pos_site_id
 _symmetry_equiv_pos_as_xyz
  1  'x, y, z'
loop_
 _atom_site_type_symbol
 _atom_site_label
 _atom_site_symmetry_multiplicity
 _atom_site_fract_x
 _atom_site_fract_y
 _atom_site_fract_z
 _atom_site_occupancy
  Ca  Ca0  1  0.47022049  0.49235415  0.75000000  1
  La  La1  1  0.97228875  0.00647204  0.75000000  1
  La  La2  1  0.52629716  0.50604445  0.25000000  1
  La  La3  1  0.02809438  0.99491921  0.25000000  1
  Mn  Mn4  1  0.00034391  0.50017966  0.99673058  1
  Mn  Mn5  1  0.50005296  0.00021579  0.50372790  1
  Mn  Mn6  1  0.00034391  0.50017966  0.50326942  1
  Mn  Mn7  1  0.50005296  0.00021579  0.99627210  1
  O  O8  1  0.21697141  0.21821741  0.96439901  1
  O  O9  1  0.71880837  0.27823142  0.53966003  1
  O  O10  1  0.78152028  0.77973710  0.46056088  1
  O  O11  1  0.27832318  0.72564492  0.04154250  1
  O  O12  1  0.78152028  0.77973710  0.03943912  1
  O  O13  1  0.27832318  0.72564492  0.45845750  1
  O  O14  1  0.21697141  0.21821741  0.53560099  1
  O  O15  1  0.71880837  0.27823142  0.96033997  1
  O  O16  1  0.01756677  0.57301290  0.75000000  1
  O  O17  1  0.51320653  0.92055811  0.75000000  1
  O  O18  1  0.98927964  0.43096026  0.25000000  1
  O  O19  1  0.49100605  0.07122631  0.25000000  1
