# generated using pymatgen
data_Bi3Sb
_symmetry_space_group_name_H-M   'P 1'
_cell_length_a   4.55786344
_cell_length_b   4.55786281
_cell_length_c   8.37594730
_cell_angle_alpha   74.21189412
_cell_angle_beta   90.00000308
_cell_angle_gamma   120.00000192
_symmetry_Int_Tables_number   1
_chemical_formula_structural   Bi3Sb
_chemical_formula_sum   'Bi3 Sb1'
_cell_volume   143.06088551
_cell_formula_units_Z   1
loop_
 _symmetry_equiv_pos_site_id
 _symmetry_equiv_pos_as_xyz
  1  'x, y, z'
loop_
 _atom_site_type_symbol
 _atom_site_label
 _atom_site_symmetry_multiplicity
 _atom_site_fract_x
 _atom_site_fract_y
 _atom_site_fract_z
 _atom_site_occupancy
  Bi  Bi0  1  0.11622785  0.23245571  0.65131644  1
  Bi  Bi1  1  0.88602894  0.77205789  0.34191317  1
  Bi  Bi2  1  0.38133948  0.76267896  0.85598157  1
  Sb  Sb3  1  0.61640372  0.23280745  0.15078883  1
