# generated using pymatgen
data_Ca5Bi6(Cl3O2)4
_symmetry_space_group_name_H-M   'P 1'
_cell_length_a   5.57015077
_cell_length_b   12.74200473
_cell_length_c   11.20941651
_cell_angle_alpha   116.09499928
_cell_angle_beta   90.00000000
_cell_angle_gamma   77.37468854
_symmetry_Int_Tables_number   1
_chemical_formula_structural   Ca5Bi6(Cl3O2)4
_chemical_formula_sum   'Ca5 Bi6 Cl12 O8'
_cell_volume   693.00508983
_cell_formula_units_Z   1
loop_
 _symmetry_equiv_pos_site_id
 _symmetry_equiv_pos_as_xyz
  1  'x, y, z'
loop_
 _atom_site_type_symbol
 _atom_site_label
 _atom_site_symmetry_multiplicity
 _atom_site_fract_x
 _atom_site_fract_y
 _atom_site_fract_z
 _atom_site_occupancy
  Ca  Ca0  1  0.69193458  0.61613084  0.55806542  1
  Ca  Ca1  1  0.30806542  0.38386916  0.94193458  1
  Ca  Ca2  1  0.50000000  -0.00000000  0.48077409  1
  Ca  Ca3  1  -0.00000000  -0.00000000  0.75000000  1
  Ca  Ca4  1  0.50000000  -0.00000000  0.01922591  1
  Bi  Bi5  1  0.19640856  0.60718288  0.80946436  1
  Bi  Bi6  1  0.69796032  0.60407936  0.05203968  1
  Bi  Bi7  1  0.19640856  0.60718288  0.29771852  1
  Bi  Bi8  1  0.80359144  0.39281712  0.20228148  1
  Bi  Bi9  1  0.30203968  0.39592064  0.44796032  1
  Bi  Bi10  1  0.80359144  0.39281712  0.69053564  1
  Cl  Cl11  1  0.86869973  0.26260055  0.38130027  1
  Cl  Cl12  1  0.37769528  0.24460944  0.63762374  1
  Cl  Cl13  1  0.87547876  0.24904249  0.87452124  1
  Cl  Cl14  1  0.37769528  0.24460944  0.10698570  1
  Cl  Cl15  1  0.62230472  0.75539056  0.39301430  1
  Cl  Cl16  1  0.12452124  0.75095751  0.62547876  1
  Cl  Cl17  1  0.62230472  0.75539056  0.86237626  1
  Cl  Cl18  1  0.13130027  0.73739945  0.11869973  1
  Cl  Cl19  1  0.00000000  -0.00000000  0.98862676  1
  Cl  Cl20  1  0.50000000  -0.00000000  0.25000000  1
  Cl  Cl21  1  -0.00000000  -0.00000000  0.51137324  1
  Cl  Cl22  1  0.50000000  -0.00000000  0.75000000  1
  O  O23  1  0.00524235  0.50173295  0.37311968  1
  O  O24  1  0.49302470  0.50173295  0.62861327  1
  O  O25  1  0.99475765  0.49826705  0.87138673  1
  O  O26  1  0.50697530  0.49826705  0.12688032  1
  O  O27  1  0.49302470  0.50173295  0.37311968  1
  O  O28  1  0.00524235  0.50173295  0.62861327  1
  O  O29  1  0.50697530  0.49826705  0.87138673  1
  O  O30  1  0.99475765  0.49826705  0.12688032  1
