# generated using pymatgen
data_CaY2(GeO3)4
_symmetry_space_group_name_H-M   'P 1'
_cell_length_a   5.11646159
_cell_length_b   10.13563631
_cell_length_c   10.13563631
_cell_angle_alpha   90.12987674
_cell_angle_beta   90.00000000
_cell_angle_gamma   90.00000000
_symmetry_Int_Tables_number   1
_chemical_formula_structural   CaY2(GeO3)4
_chemical_formula_sum   'Ca2 Y4 Ge8 O24'
_cell_volume   525.61849662
_cell_formula_units_Z   2
loop_
 _symmetry_equiv_pos_site_id
 _symmetry_equiv_pos_as_xyz
  1  'x, y, z'
loop_
 _atom_site_type_symbol
 _atom_site_label
 _atom_site_symmetry_multiplicity
 _atom_site_fract_x
 _atom_site_fract_y
 _atom_site_fract_z
 _atom_site_occupancy
  Ca  Ca0  1  0.50000000  0.50000000  0.50000000  1
  Ca  Ca1  1  0.50000000  0.00000000  0.00000000  1
  Y  Y2  1  0.50000000  0.00000000  0.50000000  1
  Y  Y3  1  0.50000000  0.50000000  0.00000000  1
  Y  Y4  1  0.50000000  0.75000000  0.75000000  1
  Y  Y5  1  0.50000000  0.25000000  0.25000000  1
  Ge  Ge6  1  0.99798926  0.75087188  0.02113344  1
  Ge  Ge7  1  0.00201074  0.24912812  0.97886656  1
  Ge  Ge8  1  0.00201074  0.25087188  0.52113344  1
  Ge  Ge9  1  0.99798926  0.74912812  0.47886656  1
  Ge  Ge10  1  0.00201074  0.02113344  0.75087188  1
  Ge  Ge11  1  0.99798926  0.97886656  0.24912812  1
  Ge  Ge12  1  0.99798926  0.52113344  0.25087188  1
  Ge  Ge13  1  0.00201074  0.47886656  0.74912812  1
  O  O14  1  0.25467962  0.56671916  0.67762832  1
  O  O15  1  0.25898162  0.05844308  0.32718331  1
  O  O16  1  0.25898162  0.44155692  0.17281669  1
  O  O17  1  0.25467962  0.93328084  0.82237168  1
  O  O18  1  0.74532038  0.43328084  0.32237168  1
  O  O19  1  0.74101838  0.94155692  0.67281669  1
  O  O20  1  0.74101838  0.55844308  0.82718331  1
  O  O21  1  0.74532038  0.06671916  0.17762832  1
  O  O22  1  0.74532038  0.67762832  0.56671916  1
  O  O23  1  0.74101838  0.32718331  0.05844308  1
  O  O24  1  0.74101838  0.17281669  0.44155692  1
  O  O25  1  0.74532038  0.82237168  0.93328084  1
  O  O26  1  0.25467962  0.32237168  0.43328084  1
  O  O27  1  0.25898162  0.67281669  0.94155692  1
  O  O28  1  0.25898162  0.82718331  0.55844308  1
  O  O29  1  0.25467962  0.17762832  0.06671916  1
  O  O30  1  0.15319185  0.87123515  0.12876485  1
  O  O31  1  0.16162616  0.37596230  0.87596230  1
  O  O32  1  0.16162616  0.12403770  0.62403770  1
  O  O33  1  0.15319185  0.62876485  0.37123515  1
  O  O34  1  0.84680815  0.12876485  0.87123515  1
  O  O35  1  0.83837384  0.62403770  0.12403770  1
  O  O36  1  0.83837384  0.87596230  0.37596230  1
  O  O37  1  0.84680815  0.37123515  0.62876485  1
