# generated using pymatgen
data_CaTm2(GeO3)4
_symmetry_space_group_name_H-M   'P 1'
_cell_length_a   5.07496711
_cell_length_b   10.05279323
_cell_length_c   10.05279323
_cell_angle_alpha   90.17390423
_cell_angle_beta   90.00000000
_cell_angle_gamma   90.00000000
_symmetry_Int_Tables_number   1
_chemical_formula_structural   CaTm2(GeO3)4
_chemical_formula_sum   'Ca2 Tm4 Ge8 O24'
_cell_volume   512.86697092
_cell_formula_units_Z   2
loop_
 _symmetry_equiv_pos_site_id
 _symmetry_equiv_pos_as_xyz
  1  'x, y, z'
loop_
 _atom_site_type_symbol
 _atom_site_label
 _atom_site_symmetry_multiplicity
 _atom_site_fract_x
 _atom_site_fract_y
 _atom_site_fract_z
 _atom_site_occupancy
  Ca  Ca0  1  0.50000000  0.50000000  0.50000000  1
  Ca  Ca1  1  0.50000000  0.00000000  -0.00000000  1
  Tm  Tm2  1  0.50000000  0.00000000  0.50000000  1
  Tm  Tm3  1  0.50000000  0.50000000  -0.00000000  1
  Tm  Tm4  1  0.50000000  0.75000000  0.75000000  1
  Tm  Tm5  1  0.50000000  0.25000000  0.25000000  1
  Ge  Ge6  1  0.99702701  0.74964669  0.01943144  1
  Ge  Ge7  1  0.00297299  0.25035331  0.98056856  1
  Ge  Ge8  1  0.00297299  0.24964669  0.51943144  1
  Ge  Ge9  1  0.99702701  0.75035331  0.48056856  1
  Ge  Ge10  1  0.00297299  0.01943144  0.74964669  1
  Ge  Ge11  1  0.99702701  0.98056856  0.25035331  1
  Ge  Ge12  1  0.99702701  0.51943144  0.24964669  1
  Ge  Ge13  1  0.00297299  0.48056856  0.75035331  1
  O  O14  1  0.25349482  0.57152863  0.67717760  1
  O  O15  1  0.26257293  0.05869044  0.32899712  1
  O  O16  1  0.26257293  0.44130956  0.17100288  1
  O  O17  1  0.25349482  0.92847137  0.82282240  1
  O  O18  1  0.74650518  0.42847137  0.32282240  1
  O  O19  1  0.73742707  0.94130956  0.67100288  1
  O  O20  1  0.73742707  0.55869044  0.82899712  1
  O  O21  1  0.74650518  0.07152863  0.17717760  1
  O  O22  1  0.74650518  0.67717760  0.57152863  1
  O  O23  1  0.73742707  0.32899712  0.05869044  1
  O  O24  1  0.73742707  0.17100288  0.44130956  1
  O  O25  1  0.74650518  0.82282240  0.92847137  1
  O  O26  1  0.25349482  0.32282240  0.42847137  1
  O  O27  1  0.26257293  0.67100288  0.94130956  1
  O  O28  1  0.26257293  0.82899712  0.55869044  1
  O  O29  1  0.25349482  0.17717760  0.07152863  1
  O  O30  1  0.15126475  0.87029066  0.12970934  1
  O  O31  1  0.16875871  0.37744375  0.87744375  1
  O  O32  1  0.16875871  0.12255625  0.62255625  1
  O  O33  1  0.15126475  0.62970934  0.37029066  1
  O  O34  1  0.84873525  0.12970934  0.87029066  1
  O  O35  1  0.83124129  0.62255625  0.12255625  1
  O  O36  1  0.83124129  0.87744375  0.37744375  1
  O  O37  1  0.84873525  0.37029066  0.62970934  1
