# generated using pymatgen
data_Ca2MgFe(CO3)4
_symmetry_space_group_name_H-M   'P 1'
_cell_length_a   6.08969321
_cell_length_b   7.86959934
_cell_length_c   9.76106137
_cell_angle_alpha   90.17782172
_cell_angle_beta   89.07551407
_cell_angle_gamma   73.18412797
_symmetry_Int_Tables_number   1
_chemical_formula_structural   Ca2MgFe(CO3)4
_chemical_formula_sum   'Ca4 Mg2 Fe2 C8 O24'
_cell_volume   447.70793295
_cell_formula_units_Z   2
loop_
 _symmetry_equiv_pos_site_id
 _symmetry_equiv_pos_as_xyz
  1  'x, y, z'
loop_
 _atom_site_type_symbol
 _atom_site_label
 _atom_site_symmetry_multiplicity
 _atom_site_fract_x
 _atom_site_fract_y
 _atom_site_fract_z
 _atom_site_occupancy
  Ca  Ca0  1  0.23267059  0.26501119  0.38066400  1
  Ca  Ca1  1  0.23267059  0.26501119  0.88066400  1
  Ca  Ca2  1  0.76328599  0.73493137  0.11982974  1
  Ca  Ca3  1  0.76328599  0.73493137  0.61982974  1
  Mg  Mg4  1  0.24971815  0.75810083  0.38280529  1
  Mg  Mg5  1  0.24971815  0.75810083  0.88280529  1
  Fe  Fe6  1  0.74936702  0.23944983  0.11763956  1
  Fe  Fe7  1  0.74936702  0.23944983  0.61763956  1
  C  C8  1  0.24212433  0.98988883  0.13152854  1
  C  C9  1  0.24212433  0.98988883  0.63152854  1
  C  C10  1  0.75983929  0.00523109  0.37029816  1
  C  C11  1  0.75983929  0.00523109  0.87029816  1
  C  C12  1  0.26241504  0.51047700  0.13636522  1
  C  C13  1  0.26241504  0.51047700  0.63636522  1
  C  C14  1  0.73647390  0.49476946  0.36201869  1
  C  C15  1  0.73647390  0.49476946  0.86201869  1
  O  O16  1  0.89809792  0.87217481  0.43250954  1
  O  O17  1  0.89809792  0.87217481  0.93250954  1
  O  O18  1  0.11108745  0.12779532  0.06999148  1
  O  O19  1  0.11108745  0.12779532  0.56999148  1
  O  O20  1  0.24103970  0.53273410  0.00480045  1
  O  O21  1  0.24103970  0.53273410  0.50480045  1
  O  O22  1  0.77257778  0.47261829  0.49191452  1
  O  O23  1  0.77257778  0.47261829  0.99191452  1
  O  O24  1  0.24790153  0.98513512  0.26406960  1
  O  O25  1  0.24790153  0.98513512  0.76406960  1
  O  O26  1  0.74666679  0.00570999  0.23825006  1
  O  O27  1  0.74666679  0.00570999  0.73825006  1
  O  O28  1  0.13720300  0.62971755  0.21975380  1
  O  O29  1  0.13720300  0.62971755  0.71975380  1
  O  O30  1  0.86065520  0.37712100  0.27620884  1
  O  O31  1  0.86065520  0.37712100  0.77620884  1
  O  O32  1  0.39829718  0.36530681  0.18470495  1
  O  O33  1  0.39829718  0.36530681  0.68470495  1
  O  O34  1  0.59067377  0.63677080  0.31664981  1
  O  O35  1  0.59067377  0.63677080  0.81664981  1
  O  O36  1  0.36988812  0.85928724  0.05796212  1
  O  O37  1  0.36988812  0.85928724  0.55796212  1
  O  O38  1  0.63001725  0.13776935  0.44203564  1
  O  O39  1  0.63001725  0.13776935  0.94203564  1
