# generated using pymatgen
data_BiSb3(PO4)6
_symmetry_space_group_name_H-M   'P 1'
_cell_length_a   12.34247586
_cell_length_b   12.34247625
_cell_length_c   12.34247585
_cell_angle_alpha   89.35792355
_cell_angle_beta   89.35791993
_cell_angle_gamma   89.35792359
_symmetry_Int_Tables_number   1
_chemical_formula_structural   BiSb3(PO4)6
_chemical_formula_sum   'Bi4 Sb12 P24 O96'
_cell_volume   1879.86067270
_cell_formula_units_Z   4
loop_
 _symmetry_equiv_pos_site_id
 _symmetry_equiv_pos_as_xyz
  1  'x, y, z'
loop_
 _atom_site_type_symbol
 _atom_site_label
 _atom_site_symmetry_multiplicity
 _atom_site_fract_x
 _atom_site_fract_y
 _atom_site_fract_z
 _atom_site_occupancy
  Bi  Bi0  1  0.00003613  0.49992674  0.49996868  1
  Bi  Bi1  1  0.49992674  0.49996868  0.00003613  1
  Bi  Bi2  1  0.49996868  0.00003613  0.49992674  1
  Bi  Bi3  1  0.99759569  0.99759569  0.99759569  1
  Sb  Sb4  1  0.78732112  0.25316328  0.24811921  1
  Sb  Sb5  1  0.25316328  0.24811921  0.78732112  1
  Sb  Sb6  1  0.24811921  0.78732112  0.25316328  1
  Sb  Sb7  1  0.21278676  0.74697125  0.75171725  1
  Sb  Sb8  1  0.74697125  0.75171725  0.21278676  1
  Sb  Sb9  1  0.75171725  0.21278676  0.74697125  1
  Sb  Sb10  1  0.49998808  0.49998808  0.49998808  1
  Sb  Sb11  1  0.71762284  0.71762284  0.71762284  1
  Sb  Sb12  1  0.28234799  0.28234799  0.28234799  1
  Sb  Sb13  1  0.49978672  0.99995078  0.99993250  1
  Sb  Sb14  1  0.99995078  0.99993250  0.49978672  1
  Sb  Sb15  1  0.99993250  0.49978672  0.99995078  1
  P  P16  1  0.97163517  0.76800163  0.64006445  1
  P  P17  1  0.76800163  0.64006445  0.97163517  1
  P  P18  1  0.64006445  0.97163517  0.76800163  1
  P  P19  1  0.02838142  0.23201031  0.35991584  1
  P  P20  1  0.23201031  0.35991584  0.02838142  1
  P  P21  1  0.35991584  0.02838142  0.23201031  1
  P  P22  1  0.24907650  0.86895806  0.51145835  1
  P  P23  1  0.86895806  0.51145835  0.24907650  1
  P  P24  1  0.51145835  0.24907650  0.86895806  1
  P  P25  1  0.75092667  0.13110175  0.48854415  1
  P  P26  1  0.13110175  0.48854415  0.75092667  1
  P  P27  1  0.48854415  0.75092667  0.13110175  1
  P  P28  1  0.73380323  0.46282237  0.63585111  1
  P  P29  1  0.46282237  0.63585111  0.73380323  1
  P  P30  1  0.63585111  0.73380323  0.46282237  1
  P  P31  1  0.26619519  0.53718988  0.36410655  1
  P  P32  1  0.53718988  0.36410655  0.26619519  1
  P  P33  1  0.36410655  0.26619519  0.53718988  1
  P  P34  1  0.26665298  0.98759090  0.87270487  1
  P  P35  1  0.98759090  0.87270487  0.26665298  1
  P  P36  1  0.87270487  0.26665298  0.98759090  1
  P  P37  1  0.73207031  0.01235270  0.12779504  1
  P  P38  1  0.01235270  0.12779504  0.73207031  1
  P  P39  1  0.12779504  0.73207031  0.01235270  1
  O  O40  1  0.56034064  0.40527588  0.38335253  1
  O  O41  1  0.40527588  0.38335253  0.56034064  1
  O  O42  1  0.38335253  0.56034064  0.40527588  1
  O  O43  1  0.43968029  0.59471594  0.61662725  1
  O  O44  1  0.59471594  0.61662725  0.43968029  1
  O  O45  1  0.61662725  0.43968029  0.59471594  1
  O  O46  1  0.19672445  0.70844959  0.90799619  1
  O  O47  1  0.70844959  0.90799619  0.19672445  1
  O  O48  1  0.90799619  0.19672445  0.70844959  1
  O  O49  1  0.80376827  0.29127686  0.09183950  1
  O  O50  1  0.29127686  0.09183950  0.80376827  1
  O  O51  1  0.09183950  0.80376827  0.29127686  1
  O  O52  1  0.32572041  0.95497948  0.54839841  1
  O  O53  1  0.95497948  0.54839841  0.32572041  1
  O  O54  1  0.54839841  0.32572041  0.95497948  1
  O  O55  1  0.67429872  0.04504069  0.45162699  1
  O  O56  1  0.04504069  0.45162699  0.67429872  1
  O  O57  1  0.45162699  0.67429872  0.04504069  1
  O  O58  1  0.03764799  0.81269120  0.99269294  1
  O  O59  1  0.81269120  0.99269294  0.03764799  1
  O  O60  1  0.99269294  0.03764799  0.81269120  1
  O  O61  1  0.96166965  0.18446682  0.00649842  1
  O  O62  1  0.18446682  0.00649842  0.96166965  1
  O  O63  1  0.00649842  0.96166965  0.18446682  1
  O  O64  1  0.72487213  0.55758263  0.71901671  1
  O  O65  1  0.55758263  0.71901671  0.72487213  1
  O  O66  1  0.71901671  0.72487213  0.55758263  1
  O  O67  1  0.27513019  0.44240753  0.28098725  1
  O  O68  1  0.44240753  0.28098725  0.27513019  1
  O  O69  1  0.28098725  0.27513019  0.44240753  1
  O  O70  1  0.44770263  0.99613209  0.31066253  1
  O  O71  1  0.99613209  0.31066253  0.44770263  1
  O  O72  1  0.31066253  0.44770263  0.99613209  1
  O  O73  1  0.55231300  0.00388960  0.68933202  1
  O  O74  1  0.00388960  0.68933202  0.55231300  1
  O  O75  1  0.68933202  0.55231300  0.00388960  1
  O  O76  1  0.28995007  0.81211256  0.40617735  1
  O  O77  1  0.81211256  0.40617735  0.28995007  1
  O  O78  1  0.40617735  0.28995007  0.81211256  1
  O  O79  1  0.71011569  0.18788985  0.59386983  1
  O  O80  1  0.18788985  0.59386983  0.71011569  1
  O  O81  1  0.59386983  0.71011569  0.18788985  1
  O  O82  1  0.08150562  0.62270654  0.05801856  1
  O  O83  1  0.62270654  0.05801856  0.08150562  1
  O  O84  1  0.05801856  0.08150562  0.62270654  1
  O  O85  1  0.91877911  0.37636764  0.94229509  1
  O  O86  1  0.37636764  0.94229509  0.91877911  1
  O  O87  1  0.94229509  0.91877911  0.37636764  1
  O  O88  1  0.23867666  0.77382623  0.59471773  1
  O  O89  1  0.77382623  0.59471773  0.23867666  1
  O  O90  1  0.59471773  0.23867666  0.77382623  1
  O  O91  1  0.76133029  0.22611755  0.40515218  1
  O  O92  1  0.22611755  0.40515218  0.76133029  1
  O  O93  1  0.40515218  0.76133029  0.22611755  1
  O  O94  1  0.18552715  0.51779809  0.45454132  1
  O  O95  1  0.51779809  0.45454132  0.18552715  1
  O  O96  1  0.45454132  0.18552715  0.51779809  1
  O  O97  1  0.81447444  0.48223845  0.54542220  1
  O  O98  1  0.48223845  0.54542220  0.81447444  1
  O  O99  1  0.54542220  0.81447444  0.48223845  1
  O  O100  1  0.36803864  0.71339702  0.76742554  1
  O  O101  1  0.71339702  0.76742554  0.36803864  1
  O  O102  1  0.76742554  0.36803864  0.71339702  1
  O  O103  1  0.63200709  0.28656438  0.23258424  1
  O  O104  1  0.28656438  0.23258424  0.63200709  1
  O  O105  1  0.23258424  0.63200709  0.28656438  1
  O  O106  1  0.88418801  0.59755521  0.93857109  1
  O  O107  1  0.59755521  0.93857109  0.88418801  1
  O  O108  1  0.93857109  0.88418801  0.59755521  1
  O  O109  1  0.11587597  0.40238615  0.06149301  1
  O  O110  1  0.40238615  0.06149301  0.11587597  1
  O  O111  1  0.06149301  0.11587597  0.40238615  1
  O  O112  1  0.87613106  0.72651366  0.71218383  1
  O  O113  1  0.72651366  0.71218383  0.87613106  1
  O  O114  1  0.71218383  0.87613106  0.72651366  1
  O  O115  1  0.12386412  0.27360231  0.28784347  1
  O  O116  1  0.27360231  0.28784347  0.12386412  1
  O  O117  1  0.28784347  0.12386412  0.27360231  1
  O  O118  1  0.94112449  0.21472371  0.26946515  1
  O  O119  1  0.21472371  0.26946515  0.94112449  1
  O  O120  1  0.26946515  0.94112449  0.21472371  1
  O  O121  1  0.05885187  0.78528008  0.73058827  1
  O  O122  1  0.78528008  0.73058827  0.05885187  1
  O  O123  1  0.73058827  0.05885187  0.78528008  1
  O  O124  1  0.08274256  0.51396462  0.86421974  1
  O  O125  1  0.51396462  0.86421974  0.08274256  1
  O  O126  1  0.86421974  0.08274256  0.51396462  1
  O  O127  1  0.91726707  0.48610128  0.13579935  1
  O  O128  1  0.48610128  0.13579935  0.91726707  1
  O  O129  1  0.13579935  0.91726707  0.48610128  1
  O  O130  1  0.76594002  0.09731387  0.21368022  1
  O  O131  1  0.09731387  0.21368022  0.76594002  1
  O  O132  1  0.21368022  0.76594002  0.09731387  1
  O  O133  1  0.23411779  0.90264687  0.78618617  1
  O  O134  1  0.90264687  0.78618617  0.23411779  1
  O  O135  1  0.78618617  0.23411779  0.90264687  1
