# generated using pymatgen
data_BaInCuF7
_symmetry_space_group_name_H-M   'P 1'
_cell_length_a   6.84671509
_cell_length_b   6.84671512
_cell_length_c   8.08304827
_cell_angle_alpha   66.47644606
_cell_angle_beta   63.14018770
_cell_angle_gamma   89.73693566
_symmetry_Int_Tables_number   1
_chemical_formula_structural   BaInCuF7
_chemical_formula_sum   'Ba2 In2 Cu2 F14'
_cell_volume   302.70437001
_cell_formula_units_Z   2
loop_
 _symmetry_equiv_pos_site_id
 _symmetry_equiv_pos_as_xyz
  1  'x, y, z'
loop_
 _atom_site_type_symbol
 _atom_site_label
 _atom_site_symmetry_multiplicity
 _atom_site_fract_x
 _atom_site_fract_y
 _atom_site_fract_z
 _atom_site_occupancy
  Ba  Ba0  1  0.36571474  0.61571474  0.25000000  1
  Ba  Ba1  1  0.63428526  0.38428526  0.75000000  1
  In  In2  1  -0.00000000  0.00000000  -0.00000000  1
  In  In3  1  0.50000000  0.00000000  0.50000000  1
  Cu  Cu4  1  -0.00000000  0.00000000  0.50000000  1
  Cu  Cu5  1  -0.00000000  0.50000000  -0.00000000  1
  F  F6  1  0.67045392  0.91254905  0.67477481  1
  F  F7  1  0.91267614  0.65477127  0.17477481  1
  F  F8  1  0.32954608  0.08745095  0.32522519  1
  F  F9  1  0.08732386  0.34522873  0.82522519  1
  F  F10  1  0.15385917  0.90385917  0.75000000  1
  F  F11  1  0.84614083  0.09614083  0.25000000  1
  F  F12  1  0.99712555  0.27277173  0.50580173  1
  F  F13  1  0.00287445  0.72722827  0.49419827  1
  F  F14  1  0.72142654  0.49707272  0.00580173  1
  F  F15  1  0.70005244  0.99586308  0.00338352  1
  F  F16  1  0.50075340  0.29656403  0.50338352  1
  F  F17  1  0.49924660  0.70343597  0.49661648  1
  F  F18  1  0.27857346  0.50292728  0.99419827  1
  F  F19  1  0.29994756  0.00413692  0.99661648  1
