# generated using pymatgen
data_Ba3Sr9Al4(O4F)4
_symmetry_space_group_name_H-M   'P 1'
_cell_length_a   6.95229892
_cell_length_b   6.95229892
_cell_length_c   11.29053241
_cell_angle_alpha   90.00000000
_cell_angle_beta   90.00000000
_cell_angle_gamma   90.00000000
_symmetry_Int_Tables_number   1
_chemical_formula_structural   Ba3Sr9Al4(O4F)4
_chemical_formula_sum   'Ba3 Sr9 Al4 O16 F4'
_cell_volume   545.72179023
_cell_formula_units_Z   1
loop_
 _symmetry_equiv_pos_site_id
 _symmetry_equiv_pos_as_xyz
  1  'x, y, z'
loop_
 _atom_site_type_symbol
 _atom_site_label
 _atom_site_symmetry_multiplicity
 _atom_site_fract_x
 _atom_site_fract_y
 _atom_site_fract_z
 _atom_site_occupancy
  Ba  Ba0  1  -0.00000000  0.00000000  0.75000000  1
  Ba  Ba1  1  -0.00000000  0.00000000  0.25000000  1
  Ba  Ba2  1  0.50000000  0.50000000  0.75000000  1
  Sr  Sr3  1  0.33099301  0.17015677  0.49946799  1
  Sr  Sr4  1  0.82984323  0.66900699  0.00053201  1
  Sr  Sr5  1  0.17015677  0.33099301  0.00053201  1
  Sr  Sr6  1  0.66900699  0.82984323  0.49946799  1
  Sr  Sr7  1  0.66900699  0.17015677  0.00053201  1
  Sr  Sr8  1  0.17015677  0.66900699  0.49946799  1
  Sr  Sr9  1  0.33099301  0.82984323  0.00053201  1
  Sr  Sr10  1  0.82984323  0.33099301  0.49946799  1
  Sr  Sr11  1  0.50000000  0.50000000  0.25000000  1
  Al  Al12  1  -0.00000000  0.50000000  0.25000000  1
  Al  Al13  1  0.50000000  0.00000000  0.75000000  1
  Al  Al14  1  0.50000000  0.00000000  0.25000000  1
  Al  Al15  1  -0.00000000  0.50000000  0.75000000  1
  O  O16  1  0.36349938  0.14134621  0.14713003  1
  O  O17  1  0.86172229  0.63795113  0.64626540  1
  O  O18  1  0.63650062  0.85865379  0.14713003  1
  O  O19  1  0.13827771  0.36204887  0.64626540  1
  O  O20  1  0.14134621  0.63650062  0.14713003  1
  O  O21  1  0.63795113  0.13827771  0.64626540  1
  O  O22  1  0.85865379  0.36349938  0.14713003  1
  O  O23  1  0.36204887  0.86172229  0.64626540  1
  O  O24  1  0.14134621  0.36349938  0.35286997  1
  O  O25  1  0.63795113  0.86172229  0.85373460  1
  O  O26  1  0.85865379  0.63650062  0.35286997  1
  O  O27  1  0.36204887  0.13827771  0.85373460  1
  O  O28  1  0.36349938  0.85865379  0.35286997  1
  O  O29  1  0.86172229  0.36204887  0.85373460  1
  O  O30  1  0.63650062  0.14134621  0.35286997  1
  O  O31  1  0.13827771  0.63795113  0.85373460  1
  F  F32  1  -0.00000000  0.00000000  0.49970465  1
  F  F33  1  0.50000000  0.50000000  0.00327687  1
  F  F34  1  -0.00000000  0.00000000  0.00029535  1
  F  F35  1  0.50000000  0.50000000  0.49672313  1
