# generated using pymatgen
data_BaNa4Ti2Si10(BO15)2
_symmetry_space_group_name_H-M   'P 1'
_cell_length_a   7.30254169
_cell_length_b   9.88105796
_cell_length_c   9.87698119
_cell_angle_alpha   119.72762283
_cell_angle_beta   91.42145364
_cell_angle_gamma   91.62634263
_symmetry_Int_Tables_number   1
_chemical_formula_structural   BaNa4Ti2Si10(BO15)2
_chemical_formula_sum   'Ba1 Na4 Ti2 Si10 B2 O30'
_cell_volume   618.02600353
_cell_formula_units_Z   1
loop_
 _symmetry_equiv_pos_site_id
 _symmetry_equiv_pos_as_xyz
  1  'x, y, z'
loop_
 _atom_site_type_symbol
 _atom_site_label
 _atom_site_symmetry_multiplicity
 _atom_site_fract_x
 _atom_site_fract_y
 _atom_site_fract_z
 _atom_site_occupancy
  Ba  Ba0  1  0.00000000  0.00000000  0.00000000  1
  Na  Na1  1  0.49412872  0.27792909  0.72331968  1
  Na  Na2  1  0.50587128  0.72207091  0.27668032  1
  Na  Na3  1  0.49788267  0.30265707  0.30169711  1
  Na  Na4  1  0.50211733  0.69734293  0.69830289  1
  Ti  Ti5  1  0.49569254  0.91417926  0.08431686  1
  Ti  Ti6  1  0.50430746  0.08582074  0.91568314  1
  Si  Si7  1  0.19166301  0.07500253  0.37902770  1
  Si  Si8  1  0.19011354  0.37163816  0.06346329  1
  Si  Si9  1  0.80833699  0.92499747  0.62097230  1
  Si  Si10  1  0.80988646  0.62836184  0.93653671  1
  Si  Si11  1  0.76642907  0.07574731  0.41103333  1
  Si  Si12  1  0.76633775  0.41767152  0.08945946  1
  Si  Si13  1  0.23357093  0.92425269  0.58896667  1
  Si  Si14  1  0.23366225  0.58232848  0.91054054  1
  Si  Si15  1  0.19828704  0.57312104  0.41195604  1
  Si  Si16  1  0.80171296  0.42687896  0.58804396  1
  B  B17  1  0.21139810  0.40541530  0.57785145  1
  B  B18  1  0.78860190  0.59458470  0.42214855  1
  O  O19  1  0.21854332  0.94356037  0.43314514  1
  O  O20  1  0.21728037  0.42924441  0.93614688  1
  O  O21  1  0.78145668  0.05643963  0.56685486  1
  O  O22  1  0.78271963  0.57075559  0.06385312  1
  O  O23  1  0.01631246  0.41126816  0.58652858  1
  O  O24  1  0.98368754  0.58873184  0.41347142  1
  O  O25  1  0.26847250  0.24384832  0.52314455  1
  O  O26  1  0.26986294  0.51566589  0.23477020  1
  O  O27  1  0.73152750  0.75615168  0.47685545  1
  O  O28  1  0.73013706  0.48433411  0.76522980  1
  O  O29  1  0.96838299  0.07006547  0.33691395  1
  O  O30  1  0.96824852  0.33815839  0.07157506  1
  O  O31  1  0.03161701  0.92993453  0.66308605  1
  O  O32  1  0.03175148  0.66184161  0.92842494  1
  O  O33  1  0.30417924  0.51283520  0.73283536  1
  O  O34  1  0.30540956  0.74515476  0.52243813  1
  O  O35  1  0.69582076  0.48716480  0.26716464  1
  O  O36  1  0.69459044  0.25484524  0.47756187  1
  O  O37  1  0.27787970  0.45480737  0.46632686  1
  O  O38  1  0.72212030  0.54519263  0.53367314  1
  O  O39  1  0.62436148  0.09205558  0.09254290  1
  O  O40  1  0.37563852  0.90794442  0.90745710  1
  O  O41  1  0.28690185  0.02978681  0.21603153  1
  O  O42  1  0.28547326  0.21260542  0.02666013  1
  O  O43  1  0.71309815  0.97021319  0.78396847  1
  O  O44  1  0.71452674  0.78739458  0.97333987  1
  O  O45  1  0.62039972  0.95132774  0.28381846  1
  O  O46  1  0.62212994  0.28857248  0.96113294  1
  O  O47  1  0.37960028  0.04867226  0.71618154  1
  O  O48  1  0.37787006  0.71142752  0.03886706  1
