# generated using pymatgen
data_BaBe2(PO4)2
_symmetry_space_group_name_H-M   'P 1'
_cell_length_a   5.10916808
_cell_length_b   5.10917423
_cell_length_c   7.50023940
_cell_angle_alpha   90.00036005
_cell_angle_beta   89.99928200
_cell_angle_gamma   119.99924302
_symmetry_Int_Tables_number   1
_chemical_formula_structural   BaBe2(PO4)2
_chemical_formula_sum   'Ba1 Be2 P2 O8'
_cell_volume   169.55475473
_cell_formula_units_Z   1
loop_
 _symmetry_equiv_pos_site_id
 _symmetry_equiv_pos_as_xyz
  1  'x, y, z'
loop_
 _atom_site_type_symbol
 _atom_site_label
 _atom_site_symmetry_multiplicity
 _atom_site_fract_x
 _atom_site_fract_y
 _atom_site_fract_z
 _atom_site_occupancy
  Ba  Ba0  1  0.99999485  -0.00000082  0.00000068  1
  Be  Be1  1  0.33331591  0.66667072  0.70248206  1
  Be  Be2  1  0.66667476  0.33332854  0.29751538  1
  P  P3  1  0.66663330  0.33332223  0.70797417  1
  P  P4  1  0.33335304  0.66667853  0.29202386  1
  O  O5  1  0.33332011  0.66669121  0.49237775  1
  O  O6  1  0.66662005  0.33330761  0.50762352  1
  O  O7  1  0.50419122  0.49579009  0.78840091  1
  O  O8  1  0.99156599  0.49578858  0.78839999  1
  O  O9  1  0.50419600  0.00842304  0.78840999  1
  O  O10  1  0.49580509  0.50421618  0.21160556  1
  O  O11  1  0.00842541  0.50420726  0.21159508  1
  O  O12  1  0.49580426  0.99157683  0.21159106  1
