# generated using pymatgen
data_Ca2ScP3Pt7
_symmetry_space_group_name_H-M   'P 1'
_cell_length_a   4.06824040
_cell_length_b   4.06824040
_cell_length_c   14.05309310
_cell_angle_alpha   81.67746749
_cell_angle_beta   81.67746749
_cell_angle_gamma   90.00000000
_symmetry_Int_Tables_number   1
_chemical_formula_structural   Ca2ScP3Pt7
_chemical_formula_sum   'Ca2 Sc1 P3 Pt7'
_cell_volume   227.66171885
_cell_formula_units_Z   1
loop_
 _symmetry_equiv_pos_site_id
 _symmetry_equiv_pos_as_xyz
  1  'x, y, z'
loop_
 _atom_site_type_symbol
 _atom_site_label
 _atom_site_symmetry_multiplicity
 _atom_site_fract_x
 _atom_site_fract_y
 _atom_site_fract_z
 _atom_site_occupancy
  Ca  Ca0  1  0.33340623  0.33340623  0.33318754  1
  Ca  Ca1  1  0.66659377  0.66659377  0.66681246  1
  Sc  Sc2  1  0.50000000  0.50000000  0.00000000  1
  P  P3  1  0.12285348  0.12285348  0.75429304  1
  P  P4  1  0.87714652  0.87714652  0.24570696  1
  P  P5  1  0.75000000  0.25000000  0.50000000  1
  Pt  Pt6  1  0.57270416  0.07270416  0.85459168  1
  Pt  Pt7  1  0.07427927  0.57427927  0.85144146  1
  Pt  Pt8  1  0.42572073  0.92572073  0.14855854  1
  Pt  Pt9  1  0.92729584  0.42729584  0.14540832  1
  Pt  Pt10  1  0.20662168  0.20662168  0.58675664  1
  Pt  Pt11  1  0.79337832  0.79337832  0.41324336  1
  Pt  Pt12  1  -0.00000000  -0.00000000  0.00000000  1
