# generated using pymatgen
data_Nb3O2F5
_symmetry_space_group_name_H-M   'P 1'
_cell_length_a   8.15371446
_cell_length_b   13.41134155
_cell_length_c   6.06923941
_cell_angle_alpha   90.00000000
_cell_angle_beta   90.00000000
_cell_angle_gamma   90.00000000
_symmetry_Int_Tables_number   1
_chemical_formula_structural   Nb3O2F5
_chemical_formula_sum   'Nb12 O8 F20'
_cell_volume   663.68498238
_cell_formula_units_Z   4
loop_
 _symmetry_equiv_pos_site_id
 _symmetry_equiv_pos_as_xyz
  1  'x, y, z'
loop_
 _atom_site_type_symbol
 _atom_site_label
 _atom_site_symmetry_multiplicity
 _atom_site_fract_x
 _atom_site_fract_y
 _atom_site_fract_z
 _atom_site_occupancy
  Nb  Nb0  1  0.01980482  0.12851695  0.00000000  1
  Nb  Nb1  1  0.23790185  0.23767224  0.21966190  1
  Nb  Nb2  1  0.23790185  0.23767224  0.78033810  1
  Nb  Nb3  1  0.26209815  0.73767224  0.28033810  1
  Nb  Nb4  1  0.26209815  0.73767224  0.71966190  1
  Nb  Nb5  1  0.48019518  0.62851695  0.50000000  1
  Nb  Nb6  1  0.51980482  0.37148305  0.50000000  1
  Nb  Nb7  1  0.73790185  0.26232776  0.28033810  1
  Nb  Nb8  1  0.73790185  0.26232776  0.71966190  1
  Nb  Nb9  1  0.76209815  0.76232776  0.21966190  1
  Nb  Nb10  1  0.76209815  0.76232776  0.78033810  1
  Nb  Nb11  1  0.98019518  0.87148305  0.00000000  1
  O  O12  1  0.01111309  0.76906795  0.24386900  1
  O  O13  1  0.01111309  0.76906795  0.75613100  1
  O  O14  1  0.48888691  0.26906795  0.25613100  1
  O  O15  1  0.48888691  0.26906795  0.74386900  1
  O  O16  1  0.51111309  0.73093205  0.25613100  1
  O  O17  1  0.51111309  0.73093205  0.74386900  1
  O  O18  1  0.98888691  0.23093205  0.24386900  1
  O  O19  1  0.98888691  0.23093205  0.75613100  1
  F  F20  1  0.00000000  0.00000000  0.20776606  1
  F  F21  1  0.00000000  0.00000000  0.79223394  1
  F  F22  1  0.20390799  0.61271007  0.50000000  1
  F  F23  1  0.24132367  0.34932942  0.50000000  1
  F  F24  1  0.21186558  0.35684408  0.00000000  1
  F  F25  1  0.23056516  0.64333365  0.00000000  1
  F  F26  1  0.26943484  0.14333365  0.50000000  1
  F  F27  1  0.28813442  0.85684408  0.50000000  1
  F  F28  1  0.25867633  0.84932942  0.00000000  1
  F  F29  1  0.29609201  0.11271007  0.00000000  1
  F  F30  1  0.50000000  0.50000000  0.29223394  1
  F  F31  1  0.50000000  0.50000000  0.70776606  1
  F  F32  1  0.70390799  0.88728993  0.00000000  1
  F  F33  1  0.74132367  0.15067058  0.00000000  1
  F  F34  1  0.71186558  0.14315592  0.50000000  1
  F  F35  1  0.73056516  0.85666635  0.50000000  1
  F  F36  1  0.76943484  0.35666635  0.00000000  1
  F  F37  1  0.78813442  0.64315592  0.00000000  1
  F  F38  1  0.75867633  0.65067058  0.50000000  1
  F  F39  1  0.79609201  0.38728993  0.50000000  1
