# generated using pymatgen
data_BeTlPO4
_symmetry_space_group_name_H-M   'P 1'
_cell_length_a   4.92747392
_cell_length_b   8.18597374
_cell_length_c   9.45452132
_cell_angle_alpha   90.00000000
_cell_angle_beta   90.00000000
_cell_angle_gamma   90.00000000
_symmetry_Int_Tables_number   1
_chemical_formula_structural   BeTlPO4
_chemical_formula_sum   'Be4 Tl4 P4 O16'
_cell_volume   381.35919922
_cell_formula_units_Z   4
loop_
 _symmetry_equiv_pos_site_id
 _symmetry_equiv_pos_as_xyz
  1  'x, y, z'
loop_
 _atom_site_type_symbol
 _atom_site_label
 _atom_site_symmetry_multiplicity
 _atom_site_fract_x
 _atom_site_fract_y
 _atom_site_fract_z
 _atom_site_occupancy
  Be  Be0  1  0.96564562  0.11545187  0.14824136  1
  Be  Be1  1  0.46564562  0.88454813  0.85175864  1
  Be  Be2  1  0.46564562  0.61545187  0.35175864  1
  Be  Be3  1  0.96564562  0.38454813  0.64824136  1
  Tl  Tl4  1  0.97156376  0.84392004  0.46712904  1
  Tl  Tl5  1  0.47156376  0.15607996  0.53287096  1
  Tl  Tl6  1  0.47156376  0.34392004  0.03287096  1
  Tl  Tl7  1  0.97156376  0.65607996  0.96712904  1
  P  P8  1  0.46593681  0.91959872  0.17084594  1
  P  P9  1  0.96593681  0.08040128  0.82915406  1
  P  P10  1  0.96593681  0.41959872  0.32915406  1
  P  P11  1  0.46593681  0.58040128  0.67084594  1
  O  O12  1  0.55286914  0.79048935  0.28091979  1
  O  O13  1  0.05286914  0.20951065  0.71908021  1
  O  O14  1  0.05286914  0.29048935  0.21908021  1
  O  O15  1  0.55286914  0.70951065  0.78091979  1
  O  O16  1  0.49577387  0.84364747  0.02139925  1
  O  O17  1  0.99577387  0.15635253  0.97860075  1
  O  O18  1  0.99577387  0.34364747  0.47860075  1
  O  O19  1  0.49577387  0.65635253  0.52139925  1
  O  O20  1  0.16846403  0.97024133  0.19998731  1
  O  O21  1  0.66846403  0.02975867  0.80001269  1
  O  O22  1  0.66846403  0.47024133  0.30001269  1
  O  O23  1  0.16846403  0.52975867  0.69998731  1
  O  O24  1  0.65074678  0.07220068  0.18592760  1
  O  O25  1  0.15074678  0.92779932  0.81407240  1
  O  O26  1  0.15074678  0.57220068  0.31407240  1
  O  O27  1  0.65074678  0.42779932  0.68592760  1
