# generated using pymatgen
data_Ca3Ti(FeO4)2
_symmetry_space_group_name_H-M   'P 1'
_cell_length_a   5.50621325
_cell_length_b   5.57129625
_cell_length_c   11.33664721
_cell_angle_alpha   89.96017776
_cell_angle_beta   90.00000000
_cell_angle_gamma   90.00000000
_symmetry_Int_Tables_number   1
_chemical_formula_structural   Ca3Ti(FeO4)2
_chemical_formula_sum   'Ca6 Ti2 Fe4 O16'
_cell_volume   347.77135455
_cell_formula_units_Z   2
loop_
 _symmetry_equiv_pos_site_id
 _symmetry_equiv_pos_as_xyz
  1  'x, y, z'
loop_
 _atom_site_type_symbol
 _atom_site_label
 _atom_site_symmetry_multiplicity
 _atom_site_fract_x
 _atom_site_fract_y
 _atom_site_fract_z
 _atom_site_occupancy
  Ca  Ca0  1  0.03189538  0.77371363  0.18704744  1
  Ca  Ca1  1  0.03166004  0.77288223  0.81345456  1
  Ca  Ca2  1  0.53189538  0.22628637  0.81295256  1
  Ca  Ca3  1  0.53166004  0.22711777  0.18654544  1
  Ca  Ca4  1  0.98044067  0.76990597  0.50016161  1
  Ca  Ca5  1  0.48044067  0.23009403  0.49983839  1
  Ti  Ti6  1  0.50354156  0.73462255  0.66293099  1
  Ti  Ti7  1  0.00354156  0.26537745  0.33706901  1
  Fe  Fe8  1  0.55590963  0.68738895  0.99906211  1
  Fe  Fe9  1  0.05590963  0.31261105  0.00093789  1
  Fe  Fe10  1  0.50331730  0.74393249  0.32858093  1
  Fe  Fe11  1  0.00331730  0.25606751  0.67141907  1
  O  O12  1  0.73128819  0.02409651  0.35367364  1
  O  O13  1  0.72465212  0.01778503  0.64636794  1
  O  O14  1  0.23128819  0.97590349  0.64632636  1
  O  O15  1  0.22465212  0.98221497  0.35363206  1
  O  O16  1  0.77601085  0.51835217  0.29712069  1
  O  O17  1  0.77014326  0.52881153  0.70218495  1
  O  O18  1  0.27601085  0.48164783  0.70287931  1
  O  O19  1  0.27014326  0.47118847  0.29781505  1
  O  O20  1  0.90763558  0.63085346  0.00030290  1
  O  O21  1  0.40763558  0.36914654  0.99969710  1
  O  O22  1  0.46848993  0.82638554  0.14441767  1
  O  O23  1  0.47109317  0.82623810  0.85459938  1
  O  O24  1  0.96848993  0.17361446  0.85558233  1
  O  O25  1  0.97109317  0.17376190  0.14540062  1
  O  O26  1  0.51192231  0.66148192  0.50224834  1
  O  O27  1  0.01192231  0.33851808  0.49775166  1
