# generated using pymatgen
data_Ba6Y2Ru3PtO18
_symmetry_space_group_name_H-M   'P 1'
_cell_length_a   5.97113956
_cell_length_b   5.97036136
_cell_length_c   14.78236011
_cell_angle_alpha   90.00694570
_cell_angle_beta   90.00961835
_cell_angle_gamma   60.00794909
_symmetry_Int_Tables_number   1
_chemical_formula_structural   Ba6Y2Ru3PtO18
_chemical_formula_sum   'Ba6 Y2 Ru3 Pt1 O18'
_cell_volume   456.42247762
_cell_formula_units_Z   1
loop_
 _symmetry_equiv_pos_site_id
 _symmetry_equiv_pos_as_xyz
  1  'x, y, z'
loop_
 _atom_site_type_symbol
 _atom_site_label
 _atom_site_symmetry_multiplicity
 _atom_site_fract_x
 _atom_site_fract_y
 _atom_site_fract_z
 _atom_site_occupancy
  Ba  Ba0  1  0.33335266  0.33332361  0.40835798  1
  Ba  Ba1  1  0.66665325  0.66667287  0.59577999  1
  Ba  Ba2  1  0.66662668  0.66667719  0.90463112  1
  Ba  Ba3  1  0.33339670  0.33331596  0.09721145  1
  Ba  Ba4  1  0.99999520  0.00000412  0.74720278  1
  Ba  Ba5  1  0.99995169  0.00001232  0.25065822  1
  Y  Y6  1  0.00000243  0.99999483  0.49972838  1
  Y  Y7  1  0.00002837  0.99998412  0.00273030  1
  Ru  Ru8  1  0.66671336  0.66662050  0.33464236  1
  Ru  Ru9  1  0.66660930  0.66669933  0.16480549  1
  Ru  Ru10  1  0.33334022  0.33333084  0.84288462  1
  Pt  Pt11  1  0.33333566  0.33334077  0.66084760  1
  O  O12  1  0.17500441  0.65003729  0.91364215  1
  O  O13  1  0.65003680  0.17496018  0.91364435  1
  O  O14  1  0.17495246  0.17501249  0.91363617  1
  O  O15  1  0.82355128  0.35286207  0.08845664  1
  O  O16  1  0.35273862  0.82364833  0.08841998  1
  O  O17  1  0.82361131  0.82355352  0.08845980  1
  O  O18  1  0.82342136  0.35308263  0.40904659  1
  O  O19  1  0.35307859  0.82348026  0.40902384  1
  O  O20  1  0.82348303  0.82345090  0.40904301  1
  O  O21  1  0.17390346  0.65225024  0.58371913  1
  O  O22  1  0.65226423  0.17384406  0.58372680  1
  O  O23  1  0.17384923  0.17389403  0.58371643  1
  O  O24  1  0.48530246  0.02940381  0.75224171  1
  O  O25  1  0.02939183  0.48531810  0.75223343  1
  O  O26  1  0.48533767  0.48528321  0.75225734  1
  O  O27  1  0.51043392  0.97927118  0.24974173  1
  O  O28  1  0.97924270  0.51036179  0.24977997  1
  O  O29  1  0.51039114  0.51030944  0.24973063  1
