# generated using pymatgen
data_Ba3YbIrRuO9
_symmetry_space_group_name_H-M   'P 1'
_cell_length_a   5.94918577
_cell_length_b   5.94912878
_cell_length_c   14.62862495
_cell_angle_alpha   90.00000000
_cell_angle_beta   90.00000000
_cell_angle_gamma   60.00032214
_symmetry_Int_Tables_number   1
_chemical_formula_structural   Ba3YbIrRuO9
_chemical_formula_sum   'Ba6 Yb2 Ir2 Ru2 O18'
_cell_volume   448.38022214
_cell_formula_units_Z   2
loop_
 _symmetry_equiv_pos_site_id
 _symmetry_equiv_pos_as_xyz
  1  'x, y, z'
loop_
 _atom_site_type_symbol
 _atom_site_label
 _atom_site_symmetry_multiplicity
 _atom_site_fract_x
 _atom_site_fract_y
 _atom_site_fract_z
 _atom_site_occupancy
  Ba  Ba0  1  0.33335012  0.33332494  0.40855266  1
  Ba  Ba1  1  0.66666161  0.66666919  0.59262345  1
  Ba  Ba2  1  0.66664988  0.66667506  0.90855266  1
  Ba  Ba3  1  0.33333839  0.33333081  0.09262345  1
  Ba  Ba4  1  0.99998850  0.00000575  0.74928753  1
  Ba  Ba5  1  0.00001150  0.99999425  0.24928753  1
  Yb  Yb6  1  0.00000214  0.99999893  0.50093229  1
  Yb  Yb7  1  0.99999786  0.00000107  0.00093229  1
  Ir  Ir8  1  0.33333985  0.33333007  0.66369170  1
  Ir  Ir9  1  0.66666015  0.66666993  0.16369170  1
  Ru  Ru10  1  0.66666125  0.66666937  0.33881322  1
  Ru  Ru11  1  0.33333875  0.33333063  0.83881322  1
  O  O12  1  0.48917168  0.02167396  0.74994612  1
  O  O13  1  0.02168803  0.48915598  0.74994708  1
  O  O14  1  0.48917168  0.48915436  0.74994612  1
  O  O15  1  0.51082832  0.97832604  0.24994612  1
  O  O16  1  0.97831197  0.51084402  0.24994708  1
  O  O17  1  0.51082832  0.51084564  0.24994612  1
  O  O18  1  0.17749416  0.64502729  0.91030920  1
  O  O19  1  0.64502536  0.17748732  0.91031366  1
  O  O20  1  0.17749416  0.17747855  0.91030920  1
  O  O21  1  0.82280960  0.35436486  0.08844283  1
  O  O22  1  0.35435913  0.82282044  0.08844213  1
  O  O23  1  0.82280960  0.82282553  0.08844283  1
  O  O24  1  0.82250584  0.35497271  0.41030920  1
  O  O25  1  0.35497464  0.82251268  0.41031366  1
  O  O26  1  0.82250584  0.82252145  0.41030920  1
  O  O27  1  0.17719040  0.64563514  0.58844283  1
  O  O28  1  0.64564087  0.17717956  0.58844213  1
  O  O29  1  0.17719040  0.17717447  0.58844283  1
