# generated using pymatgen
data_Ba3ZnIrRuO9
_symmetry_space_group_name_H-M   'P 1'
_cell_length_a   5.85388920
_cell_length_b   5.85388920
_cell_length_c   14.34760251
_cell_angle_alpha   90.00269727
_cell_angle_beta   89.99730273
_cell_angle_gamma   119.99400023
_symmetry_Int_Tables_number   1
_chemical_formula_structural   Ba3ZnIrRuO9
_chemical_formula_sum   'Ba6 Zn2 Ir2 Ru2 O18'
_cell_volume   425.81917753
_cell_formula_units_Z   2
loop_
 _symmetry_equiv_pos_site_id
 _symmetry_equiv_pos_as_xyz
  1  'x, y, z'
loop_
 _atom_site_type_symbol
 _atom_site_label
 _atom_site_symmetry_multiplicity
 _atom_site_fract_x
 _atom_site_fract_y
 _atom_site_fract_z
 _atom_site_occupancy
  Ba  Ba0  1  0.00001083  0.99998917  0.75101639  1
  Ba  Ba1  1  0.99998917  0.00001083  0.24898361  1
  Ba  Ba2  1  0.66667049  0.33332951  0.41350735  1
  Ba  Ba3  1  0.33332951  0.66667049  0.58649265  1
  Ba  Ba4  1  0.33333174  0.66666826  0.91501848  1
  Ba  Ba5  1  0.66666826  0.33333174  0.08498152  1
  Zn  Zn6  1  0.00000000  0.00000000  0.50000000  1
  Zn  Zn7  1  0.00000000  0.00000000  -0.00000000  1
  Ir  Ir8  1  0.33334108  0.66665892  0.16010841  1
  Ir  Ir9  1  0.66665892  0.33334108  0.83989159  1
  Ru  Ru10  1  0.66667681  0.33332319  0.65751672  1
  Ru  Ru11  1  0.33332319  0.66667681  0.34248328  1
  O  O12  1  0.51171629  0.02341389  0.74969881  1
  O  O13  1  0.51170594  0.48829406  0.74970761  1
  O  O14  1  0.97658611  0.48828371  0.74969881  1
  O  O15  1  0.48828371  0.97658611  0.25030119  1
  O  O16  1  0.48829406  0.51170594  0.25029239  1
  O  O17  1  0.02341389  0.51171629  0.25030119  1
  O  O18  1  0.82786528  0.65574903  0.91604601  1
  O  O19  1  0.82787327  0.17212673  0.91603074  1
  O  O20  1  0.34425097  0.17213472  0.91604601  1
  O  O21  1  0.17213472  0.34425097  0.08395399  1
  O  O22  1  0.17212673  0.82787327  0.08396926  1
  O  O23  1  0.65574903  0.82786528  0.08395399  1
  O  O24  1  0.17246723  0.34493181  0.41579422  1
  O  O25  1  0.17246102  0.82753898  0.41579082  1
  O  O26  1  0.65506819  0.82753277  0.41579422  1
  O  O27  1  0.82753277  0.65506819  0.58420578  1
  O  O28  1  0.82753898  0.17246102  0.58420918  1
  O  O29  1  0.34493181  0.17246723  0.58420578  1
