# generated using pymatgen
data_TiHgO3
_symmetry_space_group_name_H-M   'P 1'
_cell_length_a   5.57751058
_cell_length_b   5.57751058
_cell_length_c   5.57751058
_cell_angle_alpha   58.45234937
_cell_angle_beta   58.45234939
_cell_angle_gamma   58.45234934
_symmetry_Int_Tables_number   1
_chemical_formula_structural   TiHgO3
_chemical_formula_sum   'Ti2 Hg2 O6'
_cell_volume   118.34433816
_cell_formula_units_Z   2
loop_
 _symmetry_equiv_pos_site_id
 _symmetry_equiv_pos_as_xyz
  1  'x, y, z'
loop_
 _atom_site_type_symbol
 _atom_site_label
 _atom_site_symmetry_multiplicity
 _atom_site_fract_x
 _atom_site_fract_y
 _atom_site_fract_z
 _atom_site_occupancy
  O  O0  1  0.16796753  0.75000000  0.33203247  1
  O  O1  1  0.75000000  0.33203247  0.16796753  1
  O  O2  1  0.33203247  0.16796753  0.75000000  1
  O  O3  1  0.83203247  0.25000000  0.66796753  1
  O  O4  1  0.66796753  0.83203247  0.25000000  1
  O  O5  1  0.25000000  0.66796753  0.83203247  1
  Ti  Ti6  1  0.50000000  0.50000000  0.50000000  1
  Ti  Ti7  1  0.00000000  0.00000000  0.00000000  1
  Hg  Hg8  1  0.75000000  0.75000000  0.75000000  1
  Hg  Hg9  1  0.25000000  0.25000000  0.25000000  1
