# generated using pymatgen
data_Ba4Bi(PbO4)3
_symmetry_space_group_name_H-M   'P 1'
_cell_length_a   6.16323953
_cell_length_b   6.17422216
_cell_length_c   10.70465480
_cell_angle_alpha   73.62859345
_cell_angle_beta   89.99999998
_cell_angle_gamma   119.94116997
_symmetry_Int_Tables_number   1
_chemical_formula_structural   Ba4Bi(PbO4)3
_chemical_formula_sum   'Ba4 Bi1 Pb3 O12'
_cell_volume   333.78610672
_cell_formula_units_Z   1
loop_
 _symmetry_equiv_pos_site_id
 _symmetry_equiv_pos_as_xyz
  1  'x, y, z'
loop_
 _atom_site_type_symbol
 _atom_site_label
 _atom_site_symmetry_multiplicity
 _atom_site_fract_x
 _atom_site_fract_y
 _atom_site_fract_z
 _atom_site_occupancy
  Ba  Ba0  1  0.87254306  0.74508611  0.37886231  1
  Ba  Ba1  1  0.37285442  0.74570885  0.87581792  1
  Ba  Ba2  1  0.62745694  0.25491389  0.12113769  1
  Ba  Ba3  1  0.12714558  0.25429115  0.62418208  1
  Bi  Bi4  1  0.25000000  0.50000000  0.25000000  1
  Pb  Pb5  1  0.75000000  0.50000000  0.75000000  1
  Pb  Pb6  1  0.00098940  0.00197881  0.99833547  1
  Pb  Pb7  1  0.49901060  0.99802119  0.50166453  1
  O  O8  1  0.89225949  0.28289097  0.38889323  1
  O  O9  1  0.39391174  0.28648997  0.89338780  1
  O  O10  1  0.10936853  0.71710903  0.11110677  1
  O  O11  1  0.60742177  0.71351003  0.60661220  1
  O  O12  1  0.39063147  0.28289097  0.38889323  1
  O  O13  1  0.89257823  0.28648997  0.89338780  1
  O  O14  1  0.60774051  0.71710903  0.11110677  1
  O  O15  1  0.10608826  0.71351003  0.60661220  1
  O  O16  1  0.09571698  0.19143396  0.15629587  1
  O  O17  1  0.59393065  0.18786131  0.65620295  1
  O  O18  1  0.40428302  0.80856604  0.34370413  1
  O  O19  1  0.90606935  0.81213869  0.84379705  1
