# generated using pymatgen
data_Ba3Co3Te(PO7)2
_symmetry_space_group_name_H-M   'P 1'
_cell_length_a   5.38264717
_cell_length_b   8.56443645
_cell_length_c   8.56443653
_cell_angle_alpha   60.00000029
_cell_angle_beta   90.00000000
_cell_angle_gamma   90.00000000
_symmetry_Int_Tables_number   1
_chemical_formula_structural   Ba3Co3Te(PO7)2
_chemical_formula_sum   'Ba3 Co3 Te1 P2 O14'
_cell_volume   341.91970689
_cell_formula_units_Z   1
loop_
 _symmetry_equiv_pos_site_id
 _symmetry_equiv_pos_as_xyz
  1  'x, y, z'
loop_
 _atom_site_type_symbol
 _atom_site_label
 _atom_site_symmetry_multiplicity
 _atom_site_fract_x
 _atom_site_fract_y
 _atom_site_fract_z
 _atom_site_occupancy
  Ba  Ba0  1  -0.00000000  0.43888978  -0.00000000  1
  Ba  Ba1  1  -0.00000000  0.56111022  0.43888978  1
  Ba  Ba2  1  -0.00000000  0.00000000  0.56111022  1
  Co  Co3  1  0.50000000  0.76531763  -0.00000000  1
  Co  Co4  1  0.50000000  0.23468237  0.76531763  1
  Co  Co5  1  0.50000000  0.00000000  0.23468237  1
  Te  Te6  1  -0.00000000  0.00000000  -0.00000000  1
  P  P7  1  0.53818444  0.66666600  0.66666700  1
  P  P8  1  0.46181556  0.33333400  0.33333300  1
  O  O9  1  0.25210029  0.66666600  0.66666700  1
  O  O10  1  0.74789971  0.33333400  0.33333300  1
  O  O11  1  0.79009844  0.12159168  0.09441499  1
  O  O12  1  0.79009844  0.78399334  0.12159168  1
  O  O13  1  0.79009844  0.09441499  0.78399334  1
  O  O14  1  0.20990156  0.87840832  0.21600666  1
  O  O15  1  0.20990156  0.90558501  0.87840832  1
  O  O16  1  0.20990156  0.21600666  0.90558501  1
  O  O17  1  0.35165730  0.19551304  0.28228724  1
  O  O18  1  0.35165730  0.52219972  0.19551304  1
  O  O19  1  0.35165730  0.28228724  0.52219972  1
  O  O20  1  0.64834270  0.80448696  0.47780028  1
  O  O21  1  0.64834270  0.71771276  0.80448696  1
  O  O22  1  0.64834270  0.47780028  0.71771276  1
