# generated using pymatgen
data_Ba3Fe2TeO9
_symmetry_space_group_name_H-M   'P 1'
_cell_length_a   5.86328180
_cell_length_b   5.86995549
_cell_length_c   14.46009821
_cell_angle_alpha   90.00000000
_cell_angle_beta   90.00000000
_cell_angle_gamma   59.96234097
_symmetry_Int_Tables_number   1
_chemical_formula_structural   Ba3Fe2TeO9
_chemical_formula_sum   'Ba6 Fe4 Te2 O18'
_cell_volume   430.83653068
_cell_formula_units_Z   2
loop_
 _symmetry_equiv_pos_site_id
 _symmetry_equiv_pos_as_xyz
  1  'x, y, z'
loop_
 _atom_site_type_symbol
 _atom_site_label
 _atom_site_symmetry_multiplicity
 _atom_site_fract_x
 _atom_site_fract_y
 _atom_site_fract_z
 _atom_site_occupancy
  Ba  Ba0  1  0.33293466  0.33353267  0.58584856  1
  Ba  Ba1  1  0.66871411  0.66564294  0.40533143  1
  Ba  Ba2  1  0.66706534  0.66646733  0.08584856  1
  Ba  Ba3  1  0.33128589  0.33435706  0.90533143  1
  Ba  Ba4  1  0.99877002  0.00061499  0.75343506  1
  Ba  Ba5  1  0.00122998  0.99938501  0.25343506  1
  Fe  Fe6  1  0.00096638  0.99951681  0.49156363  1
  Fe  Fe7  1  0.99903362  0.00048319  0.99156363  1
  Fe  Fe8  1  0.33418028  0.33290986  0.35512319  1
  Fe  Fe9  1  0.66581972  0.66709014  0.85512319  1
  Te  Te10  1  0.66557656  0.66721172  0.65905075  1
  Te  Te11  1  0.33442344  0.33278828  0.15905075  1
  O  O12  1  0.51494040  0.96822044  0.74510183  1
  O  O13  1  0.96773685  0.51613157  0.74476153  1
  O  O14  1  0.51494040  0.51683916  0.74510183  1
  O  O15  1  0.48505960  0.03177956  0.24510183  1
  O  O16  1  0.03226315  0.48386843  0.24476153  1
  O  O17  1  0.48505960  0.48316084  0.24510183  1
  O  O18  1  0.82571528  0.34614874  0.58450983  1
  O  O19  1  0.34281834  0.82859083  0.58475035  1
  O  O20  1  0.82571528  0.82813597  0.58450983  1
  O  O21  1  0.16394520  0.67061639  0.42025213  1
  O  O22  1  0.67113704  0.16443148  0.42040792  1
  O  O23  1  0.16394520  0.16543841  0.42025213  1
  O  O24  1  0.17428472  0.65385126  0.08450983  1
  O  O25  1  0.65718166  0.17140917  0.08475035  1
  O  O26  1  0.17428472  0.17186403  0.08450983  1
  O  O27  1  0.83605480  0.32938361  0.92025213  1
  O  O28  1  0.32886296  0.83556852  0.92040792  1
  O  O29  1  0.83605480  0.83456159  0.92025213  1
