# generated using pymatgen
data_Al5FeNi
_symmetry_space_group_name_H-M   'P 1'
_cell_length_a   7.66770228
_cell_length_b   7.69832429
_cell_length_c   7.69773401
_cell_angle_alpha   60.00923098
_cell_angle_beta   90.00000000
_cell_angle_gamma   90.00000000
_symmetry_Int_Tables_number   1
_chemical_formula_structural   Al5FeNi
_chemical_formula_sum   'Al20 Fe4 Ni4'
_cell_volume   393.54587513
_cell_formula_units_Z   4
loop_
 _symmetry_equiv_pos_site_id
 _symmetry_equiv_pos_as_xyz
  1  'x, y, z'
loop_
 _atom_site_type_symbol
 _atom_site_label
 _atom_site_symmetry_multiplicity
 _atom_site_fract_x
 _atom_site_fract_y
 _atom_site_fract_z
 _atom_site_occupancy
  Al  Al0  1  0.56096917  0.80733733  0.80213554  1
  Al  Al1  1  0.56099093  0.80736024  0.39051913  1
  Al  Al2  1  0.56420193  0.38536764  0.80733331  1
  Al  Al3  1  0.44684725  0.19706067  0.19646698  1
  Al  Al4  1  0.44681892  0.19705420  0.60648676  1
  Al  Al5  1  0.44162978  0.60772076  0.19614486  1
  Al  Al6  1  0.05315275  0.19706067  0.19646698  1
  Al  Al7  1  0.05318108  0.19705420  0.60648676  1
  Al  Al8  1  0.05837022  0.60772076  0.19614486  1
  Al  Al9  1  0.93903083  0.80733733  0.80213554  1
  Al  Al10  1  0.93900907  0.80736024  0.39051913  1
  Al  Al11  1  0.93579807  0.38536764  0.80733331  1
  Al  Al12  1  0.50393527  0.00118786  0.99943297  1
  Al  Al13  1  0.99606473  0.00118786  0.99943297  1
  Al  Al14  1  0.75000000  0.46847343  0.47187187  1
  Al  Al15  1  0.75000000  0.46840255  0.05967759  1
  Al  Al16  1  0.75000000  0.06596701  0.46693658  1
  Al  Al17  1  0.25000000  0.53013658  0.52977665  1
  Al  Al18  1  0.25000000  0.53012323  0.94009970  1
  Al  Al19  1  0.25000000  0.93958733  0.53020078  1
  Fe  Fe20  1  0.75000000  0.66467365  0.66765811  1
  Fe  Fe21  1  0.25000000  0.33011802  0.33493840  1
  Fe  Fe22  1  0.75000000  0.12492506  0.12914773  1
  Fe  Fe23  1  0.75000000  0.12492841  0.74591492  1
  Ni  Ni24  1  0.75000000  0.74605926  0.12690904  1
  Ni  Ni25  1  0.25000000  0.87272483  0.87621531  1
  Ni  Ni26  1  0.25000000  0.87275803  0.25106782  1
  Ni  Ni27  1  0.25000000  0.25494519  0.87254638  1
