# generated using pymatgen
data_Ba3HfTa4O15
_symmetry_space_group_name_H-M   'P 1'
_cell_length_a   4.02685121
_cell_length_b   12.83205411
_cell_length_c   12.82928136
_cell_angle_alpha   90.00000000
_cell_angle_beta   90.00000000
_cell_angle_gamma   89.87856090
_symmetry_Int_Tables_number   1
_chemical_formula_structural   Ba3HfTa4O15
_chemical_formula_sum   'Ba6 Hf2 Ta8 O30'
_cell_volume   662.92304867
_cell_formula_units_Z   2
loop_
 _symmetry_equiv_pos_site_id
 _symmetry_equiv_pos_as_xyz
  1  'x, y, z'
loop_
 _atom_site_type_symbol
 _atom_site_label
 _atom_site_symmetry_multiplicity
 _atom_site_fract_x
 _atom_site_fract_y
 _atom_site_fract_z
 _atom_site_occupancy
  Ba  Ba0  1  0.62257654  0.82780541  0.32564132  1
  Ba  Ba1  1  0.62125775  0.16901662  0.67278118  1
  Ba  Ba2  1  0.62125775  0.66901662  0.82721882  1
  Ba  Ba3  1  0.62257654  0.32780541  0.17435868  1
  Ba  Ba4  1  0.61703323  0.49649463  0.49895569  1
  Ba  Ba5  1  0.61703323  0.99649463  0.00104431  1
  Hf  Hf6  1  0.12129630  0.28226002  0.42072285  1
  Hf  Hf7  1  0.12129630  0.78226002  0.07927715  1
  Ta  Ta8  1  0.11127519  0.71138975  0.57456871  1
  Ta  Ta9  1  0.11127519  0.21138975  0.92543129  1
  Ta  Ta10  1  0.11236702  0.42152693  0.71134983  1
  Ta  Ta11  1  0.11126007  0.57449214  0.28676059  1
  Ta  Ta12  1  0.11236702  0.92152693  0.78865017  1
  Ta  Ta13  1  0.11126007  0.07449214  0.21323941  1
  Ta  Ta14  1  0.14369041  0.00037611  0.50217509  1
  Ta  Ta15  1  0.14369041  0.50037611  0.99782491  1
  O  O16  1  0.11659223  0.49960990  0.15490000  1
  O  O17  1  0.11933259  0.50216391  0.84449484  1
  O  O18  1  0.11933259  0.00216391  0.65550516  1
  O  O19  1  0.11659223  0.99960990  0.34510000  1
  O  O20  1  0.11456154  0.15257732  0.51316031  1
  O  O21  1  0.11608237  0.84338812  0.49760908  1
  O  O22  1  0.11456154  0.65257732  0.98683969  1
  O  O23  1  0.11608237  0.34338812  0.00239092  1
  O  O24  1  0.61869184  0.99710190  0.49825306  1
  O  O25  1  0.61869184  0.49710190  0.00174694  1
  O  O26  1  0.62152604  0.30092915  0.41224040  1
  O  O27  1  0.62080144  0.70372396  0.58267768  1
  O  O28  1  0.62080144  0.20372396  0.91732232  1
  O  O29  1  0.62152604  0.80092915  0.08775960  1
  O  O30  1  0.62168437  0.42107042  0.70777414  1
  O  O31  1  0.61972498  0.58271483  0.29635345  1
  O  O32  1  0.62168437  0.92107042  0.79222586  1
  O  O33  1  0.61972498  0.08271483  0.20364655  1
  O  O34  1  0.12170886  0.44033703  0.35898633  1
  O  O35  1  0.12288937  0.56808272  0.64542618  1
  O  O36  1  0.12288937  0.06808272  0.85457382  1
  O  O37  1  0.12170886  0.94033703  0.14101367  1
  O  O38  1  0.12417182  0.36013579  0.57182458  1
  O  O39  1  0.12147291  0.64227654  0.43715627  1
  O  O40  1  0.12417182  0.86013579  0.92817542  1
  O  O41  1  0.12147291  0.14227654  0.06284373  1
  O  O42  1  0.12176620  0.71994535  0.22861119  1
  O  O43  1  0.12323696  0.28258146  0.78254771  1
  O  O44  1  0.12323696  0.78258146  0.71745229  1
  O  O45  1  0.12176620  0.21994535  0.27138881  1
