# generated using pymatgen
data_Ba2NbP2O9F
_symmetry_space_group_name_H-M   'P 1'
_cell_length_a   7.19516458
_cell_length_b   7.28321756
_cell_length_c   9.16346370
_cell_angle_alpha   90.00000000
_cell_angle_beta   91.19816580
_cell_angle_gamma   90.00000000
_symmetry_Int_Tables_number   1
_chemical_formula_structural   Ba2NbP2O9F
_chemical_formula_sum   'Ba4 Nb2 P4 O18 F2'
_cell_volume   480.09669031
_cell_formula_units_Z   2
loop_
 _symmetry_equiv_pos_site_id
 _symmetry_equiv_pos_as_xyz
  1  'x, y, z'
loop_
 _atom_site_type_symbol
 _atom_site_label
 _atom_site_symmetry_multiplicity
 _atom_site_fract_x
 _atom_site_fract_y
 _atom_site_fract_z
 _atom_site_occupancy
  Ba  Ba0  1  0.67103450  0.36395468  0.81761384  1
  Ba  Ba1  1  0.32896550  0.86395468  0.68238616  1
  Ba  Ba2  1  0.32809394  0.64017538  0.17817084  1
  Ba  Ba3  1  0.67190606  0.14017538  0.32182916  1
  Nb  Nb4  1  0.02356046  0.50622611  0.49850434  1
  Nb  Nb5  1  0.97643954  0.00622611  0.00149566  1
  P  P6  1  0.19499960  0.35572851  0.82337454  1
  P  P7  1  0.80500040  0.85572851  0.67662546  1
  P  P8  1  0.80420699  0.64346696  0.17703813  1
  P  P9  1  0.19579301  0.14346696  0.32296187  1
  O  O10  1  0.67727409  0.71885710  0.75067187  1
  O  O11  1  0.32272591  0.21885710  0.74932813  1
  O  O12  1  0.32270721  0.28153910  0.24946597  1
  O  O13  1  0.67729279  0.78153910  0.25053403  1
  O  O14  1  0.04201935  0.43389931  0.71202226  1
  O  O15  1  0.95798065  0.93389931  0.78797774  1
  O  O16  1  0.95532419  0.56465792  0.28850558  1
  O  O17  1  0.04467581  0.06465792  0.21149442  1
  O  O18  1  0.06769595  0.25991214  0.93852394  1
  O  O19  1  0.93230405  0.75991214  0.56147606  1
  O  O20  1  0.93313186  0.73865689  0.06155303  1
  O  O21  1  0.06686814  0.23865689  0.43844697  1
  O  O22  1  0.69349607  0.48345956  0.10978683  1
  O  O23  1  0.30650393  0.98345956  0.39021317  1
  O  O24  1  0.30592581  0.51589005  0.89002586  1
  O  O25  1  0.69407419  0.01589005  0.60997414  1
  O  O26  1  0.25984672  0.58036063  0.48217670  1
  O  O27  1  0.74015328  0.08036063  0.01782330  1
  F  F28  1  0.74009812  0.41521565  0.51803743  1
  F  F29  1  0.25990188  0.91521565  0.98196257  1
