# generated using pymatgen
data_AlTlSiO4
_symmetry_space_group_name_H-M   'P 1'
_cell_length_a   9.07157962
_cell_length_b   9.07157962
_cell_length_c   9.07157962
_cell_angle_alpha   90.55971869
_cell_angle_beta   89.44028131
_cell_angle_gamma   89.44028131
_symmetry_Int_Tables_number   1
_chemical_formula_structural   AlTlSiO4
_chemical_formula_sum   'Al6 Tl6 Si6 O24'
_cell_volume   746.42498766
_cell_formula_units_Z   6
loop_
 _symmetry_equiv_pos_site_id
 _symmetry_equiv_pos_as_xyz
  1  'x, y, z'
loop_
 _atom_site_type_symbol
 _atom_site_label
 _atom_site_symmetry_multiplicity
 _atom_site_fract_x
 _atom_site_fract_y
 _atom_site_fract_z
 _atom_site_occupancy
  Al  Al0  1  0.99584645  0.25121132  0.49844266  1
  Al  Al1  1  0.74878868  0.49844266  0.00415355  1
  Al  Al2  1  0.50155734  0.00415355  0.25121132  1
  Al  Al3  1  0.24878868  0.50415355  0.99844266  1
  Al  Al4  1  0.49584645  0.99844266  0.75121132  1
  Al  Al5  1  0.00155734  0.75121132  0.50415355  1
  Tl  Tl6  1  0.35184315  0.35042031  0.64776769  1
  Tl  Tl7  1  0.35223231  0.64815685  0.35042031  1
  Tl  Tl8  1  0.64957969  0.64776769  0.64815685  1
  Tl  Tl9  1  0.85184315  0.14776769  0.85042031  1
  Tl  Tl10  1  0.85223231  0.85042031  0.14815685  1
  Tl  Tl11  1  0.14957969  0.14815685  0.14776769  1
  Si  Si12  1  0.50044721  0.25116677  0.00140325  1
  Si  Si13  1  0.74883323  0.00140325  0.49955279  1
  Si  Si14  1  0.99859675  0.49955279  0.25116677  1
  Si  Si15  1  0.24883323  0.99955279  0.50140325  1
  Si  Si16  1  0.00044721  0.50140325  0.75116677  1
  Si  Si17  1  0.49859675  0.75116677  0.99955279  1
  O  O18  1  0.94781088  0.36008202  0.34933595  1
  O  O19  1  0.63991798  0.34933595  0.05218912  1
  O  O20  1  0.65066405  0.05218912  0.36008202  1
  O  O21  1  0.05581820  0.35900848  0.64939339  1
  O  O22  1  0.35923012  0.35006285  0.94407056  1
  O  O23  1  0.35136167  0.05993445  0.63728798  1
  O  O24  1  0.05592944  0.64076988  0.35006285  1
  O  O25  1  0.36271202  0.64863833  0.05993445  1
  O  O26  1  0.35060661  0.94418180  0.35900848  1
  O  O27  1  0.94006555  0.63728798  0.64863833  1
  O  O28  1  0.64099152  0.64939339  0.94418180  1
  O  O29  1  0.64993715  0.94407056  0.64076988  1
  O  O30  1  0.85923012  0.44407056  0.85006285  1
  O  O31  1  0.85136167  0.13728798  0.55993445  1
  O  O32  1  0.55581820  0.14939339  0.85900848  1
  O  O33  1  0.86271202  0.55993445  0.14863833  1
  O  O34  1  0.85060661  0.85900848  0.44418180  1
  O  O35  1  0.55592944  0.85006285  0.14076988  1
  O  O36  1  0.13991798  0.55218912  0.84933595  1
  O  O37  1  0.15066405  0.86008202  0.55218912  1
  O  O38  1  0.44781088  0.84933595  0.86008202  1
  O  O39  1  0.14099152  0.44418180  0.14939339  1
  O  O40  1  0.14993715  0.14076988  0.44407056  1
  O  O41  1  0.44006555  0.14863833  0.13728798  1
