# generated using pymatgen
data_AlCuGeSe4
_symmetry_space_group_name_H-M   'P 1'
_cell_length_a   5.58485986
_cell_length_b   5.58485986
_cell_length_c   6.67538163
_cell_angle_alpha   65.27158107
_cell_angle_beta   65.27158107
_cell_angle_gamma   90.00000000
_symmetry_Int_Tables_number   1
_chemical_formula_structural   AlCuGeSe4
_chemical_formula_sum   'Al1 Cu1 Ge1 Se4'
_cell_volume   167.86658321
_cell_formula_units_Z   1
loop_
 _symmetry_equiv_pos_site_id
 _symmetry_equiv_pos_as_xyz
  1  'x, y, z'
loop_
 _atom_site_type_symbol
 _atom_site_label
 _atom_site_symmetry_multiplicity
 _atom_site_fract_x
 _atom_site_fract_y
 _atom_site_fract_z
 _atom_site_occupancy
  Al  Al0  1  0.25000000  0.75000000  0.50000000  1
  Cu  Cu1  1  -0.00000000  0.00000000  -0.00000000  1
  Ge  Ge2  1  0.50000000  0.50000000  0.00000000  1
  Se  Se3  1  0.39436179  0.89336178  0.73578183  1
  Se  Se4  1  0.86985638  0.37085640  0.73578183  1
  Se  Se5  1  0.10663822  0.13014362  0.26421817  1
  Se  Se6  1  0.62914360  0.60563821  0.26421817  1
