# generated using pymatgen
data_LiTi2O4
_symmetry_space_group_name_H-M   'P 1'
_cell_length_a   8.93800041
_cell_length_b   8.90499292
_cell_length_c   10.45198532
_cell_angle_alpha   89.93083445
_cell_angle_beta   90.15645864
_cell_angle_gamma   60.10537819
_symmetry_Int_Tables_number   1
_chemical_formula_structural   LiTi2O4
_chemical_formula_sum   'Li9 Ti18 O36'
_cell_volume   721.20715790
_cell_formula_units_Z   9
loop_
 _symmetry_equiv_pos_site_id
 _symmetry_equiv_pos_as_xyz
  1  'x, y, z'
loop_
 _atom_site_type_symbol
 _atom_site_label
 _atom_site_symmetry_multiplicity
 _atom_site_fract_x
 _atom_site_fract_y
 _atom_site_fract_z
 _atom_site_occupancy
  Li  Li0  1  0.22807164  0.88469238  0.23074293  1
  Li  Li1  1  0.60427071  0.61186165  0.72644019  1
  Li  Li2  1  0.88997980  0.55380266  0.23112678  1
  Li  Li3  1  0.04892243  0.55413649  0.75109748  1
  Li  Li4  1  0.38433237  0.40011550  0.26681081  1
  Li  Li5  1  0.11245692  0.10331949  0.77081550  1
  Li  Li6  1  0.44487929  0.10456934  0.77327301  1
  Li  Li7  1  0.77310576  0.11118948  0.77607610  1
  Li  Li8  1  0.73515413  0.04664143  0.27642267  1
  Ti  Ti9  1  0.33454894  0.00063775  0.00722974  1
  Ti  Ti10  1  0.50105690  0.83352253  0.48839014  1
  Ti  Ti11  1  0.16721856  0.82643243  0.51266048  1
  Ti  Ti12  1  0.83282515  0.83120538  0.51223896  1
  Ti  Ti13  1  0.33203697  0.66702522  0.98249252  1
  Ti  Ti14  1  0.99930776  0.67289927  0.00884692  1
  Ti  Ti15  1  0.66490553  0.67334140  0.00250677  1
  Ti  Ti16  1  0.16785376  0.49851895  0.49445067  1
  Ti  Ti17  1  0.50094010  0.49953045  0.49721537  1
  Ti  Ti18  1  0.83539434  0.49820553  0.50674805  1
  Ti  Ti19  1  0.32662496  0.33412316  0.99433693  1
  Ti  Ti20  1  0.00265963  0.33430886  0.99651052  1
  Ti  Ti21  1  0.67007443  0.33633426  0.00569694  1
  Ti  Ti22  1  0.16709253  0.17389712  0.48856678  1
  Ti  Ti23  1  0.83568501  0.17046787  0.49727156  1
  Ti  Ti24  1  0.49921315  0.16811810  0.50291919  1
  Ti  Ti25  1  0.99629394  0.00225422  0.00674352  1
  Ti  Ti26  1  0.66511268  0.99549710  0.00509207  1
  O  O27  1  0.61849228  0.94715857  0.40195524  1
  O  O28  1  0.27351308  0.94154167  0.40104509  1
  O  O29  1  0.94085117  0.94433299  0.40659975  1
  O  O30  1  0.55006851  0.89605601  0.89808124  1
  O  O31  1  0.21630377  0.89790944  0.89829756  1
  O  O32  1  0.88359075  0.89653080  0.90354798  1
  O  O33  1  0.43838572  0.77654491  0.09699695  1
  O  O34  1  0.12145944  0.77708268  0.10059498  1
  O  O35  1  0.78278178  0.77186553  0.11033139  1
  O  O36  1  0.39699617  0.71937303  0.59959123  1
  O  O37  1  0.05640029  0.71347410  0.60756375  1
  O  O38  1  0.71448191  0.72072992  0.60535000  1
  O  O39  1  0.27984462  0.61017959  0.39610270  1
  O  O40  1  0.61525819  0.60983310  0.40139526  1
  O  O41  1  0.94062482  0.61272563  0.40200279  1
  O  O42  1  0.21118356  0.55731965  0.89575361  1
  O  O43  1  0.55957451  0.55595771  0.89735550  1
  O  O44  1  0.89130341  0.55884706  0.89971661  1
  O  O45  1  0.10871431  0.44752886  0.10389197  1
  O  O46  1  0.44092527  0.44478089  0.09187329  1
  O  O47  1  0.78149835  0.44646538  0.09981210  1
  O  O48  1  0.05779630  0.38968341  0.60336853  1
  O  O49  1  0.38839414  0.38869115  0.59581378  1
  O  O50  1  0.71924367  0.39236921  0.60394305  1
  O  O51  1  0.28649787  0.27806779  0.39185318  1
  O  O52  1  0.94156624  0.28255935  0.40099029  1
  O  O53  1  0.60984641  0.27249602  0.39202726  1
  O  O54  1  0.22559152  0.21267827  0.88725344  1
  O  O55  1  0.89004304  0.21498560  0.89389777  1
  O  O56  1  0.55995605  0.21426649  0.89677359  1
  O  O57  1  0.11494181  0.10538463  0.10270636  1
  O  O58  1  0.77553585  0.11119932  0.10607858  1
  O  O59  1  0.44322993  0.11536714  0.09965151  1
  O  O60  1  0.05607150  0.05908358  0.60023044  1
  O  O61  1  0.72085894  0.06024063  0.60642229  1
  O  O62  1  0.38812145  0.05726082  0.59853233  1
