# generated using pymatgen
data_Ba10Nd4Y(MoO6)5
_symmetry_space_group_name_H-M   'P 1'
_cell_length_a   6.06181579
_cell_length_b   6.11592682
_cell_length_c   25.09114995
_cell_angle_alpha   96.05791660
_cell_angle_beta   96.99956742
_cell_angle_gamma   60.25539685
_symmetry_Int_Tables_number   1
_chemical_formula_structural   Ba10Nd4Y(MoO6)5
_chemical_formula_sum   'Ba10 Nd4 Y1 Mo5 O30'
_cell_volume   800.54252369
_cell_formula_units_Z   1
loop_
 _symmetry_equiv_pos_site_id
 _symmetry_equiv_pos_as_xyz
  1  'x, y, z'
loop_
 _atom_site_type_symbol
 _atom_site_label
 _atom_site_symmetry_multiplicity
 _atom_site_fract_x
 _atom_site_fract_y
 _atom_site_fract_z
 _atom_site_occupancy
  Ba  Ba0  1  0.35026590  0.34752659  0.04895562  1
  Ba  Ba1  1  0.55110522  0.55046987  0.65251940  1
  Ba  Ba2  1  0.74698287  0.75075099  0.25003801  1
  Ba  Ba3  1  0.94861731  0.95136735  0.84831402  1
  Ba  Ba4  1  0.15439704  0.14744768  0.45005425  1
  Ba  Ba5  1  0.64889478  0.64953013  0.94748060  1
  Ba  Ba6  1  0.84973410  0.85247341  0.55104438  1
  Ba  Ba7  1  0.04560296  0.05255232  0.14994575  1
  Ba  Ba8  1  0.25138269  0.24863265  0.75168598  1
  Ba  Ba9  1  0.45301713  0.44924901  0.34996199  1
  Nd  Nd10  1  0.99687634  0.00028059  0.99869493  1
  Nd  Nd11  1  0.40214865  0.40010716  0.20007227  1
  Nd  Nd12  1  0.79785135  0.79989284  0.39992773  1
  Nd  Nd13  1  0.20312366  0.19971941  0.60130507  1
  Y  Y14  1  0.60000000  0.60000000  0.80000000  1
  Mo  Mo15  1  0.29964186  0.29988714  0.89797927  1
  Mo  Mo16  1  0.50136187  0.49971395  0.50053012  1
  Mo  Mo17  1  0.69863813  0.70028605  0.09946988  1
  Mo  Mo18  1  0.90035814  0.90011286  0.70202073  1
  Mo  Mo19  1  0.10000000  0.10000000  0.30000000  1
  O  O20  1  0.84126980  0.37064957  0.05301496  1
  O  O21  1  0.04047341  0.57489213  0.65476001  1
  O  O22  1  0.23729129  0.77268038  0.25309725  1
  O  O23  1  0.44182329  0.96677976  0.85129518  1
  O  O24  1  0.64321131  0.17284707  0.45344044  1
  O  O25  1  0.15952659  0.62510787  0.94523999  1
  O  O26  1  0.35873020  0.82935043  0.54698504  1
  O  O27  1  0.55678869  0.02715293  0.14655956  1
  O  O28  1  0.75817671  0.23322024  0.74870482  1
  O  O29  1  0.96270871  0.42731962  0.34690275  1
  O  O30  1  0.61730541  0.53645288  0.15451995  1
  O  O31  1  0.02194290  0.94090268  0.35317488  1
  O  O32  1  0.42006987  0.33438753  0.55525589  1
  O  O33  1  0.79891562  0.74252457  0.75386543  1
  O  O34  1  0.20557337  0.14369894  0.95037187  1
  O  O35  1  0.77993013  0.86561247  0.04474411  1
  O  O36  1  0.17805710  0.25909732  0.24682512  1
  O  O37  1  0.58269459  0.66354712  0.44548005  1
  O  O38  1  0.99442663  0.05630106  0.64962813  1
  O  O39  1  0.40108438  0.45747543  0.84613457  1
  O  O40  1  0.03677606  0.58345257  0.13827668  1
  O  O41  1  0.45034767  0.98360937  0.33908626  1
  O  O42  1  0.84038689  0.38234340  0.53930393  1
  O  O43  1  0.24633572  0.78151514  0.74095845  1
  O  O44  1  0.64222159  0.18761328  0.93625492  1
  O  O45  1  0.95366428  0.41848486  0.85904155  1
  O  O46  1  0.35961311  0.81765660  0.06069607  1
  O  O47  1  0.74965233  0.21639063  0.26091374  1
  O  O48  1  0.16322394  0.61654743  0.46172332  1
  O  O49  1  0.55777841  0.01238672  0.66374508  1
