# generated using pymatgen
data_Ba20Ga5Ru7O44
_symmetry_space_group_name_H-M   'P 1'
_cell_length_a   5.89772470
_cell_length_b   11.26774488
_cell_length_c   19.09295483
_cell_angle_alpha   90.23340438
_cell_angle_beta   90.00000000
_cell_angle_gamma   90.00000000
_symmetry_Int_Tables_number   1
_chemical_formula_structural   Ba20Ga5Ru7O44
_chemical_formula_sum   'Ba20 Ga5 Ru7 O44'
_cell_volume   1268.79378646
_cell_formula_units_Z   1
loop_
 _symmetry_equiv_pos_site_id
 _symmetry_equiv_pos_as_xyz
  1  'x, y, z'
loop_
 _atom_site_type_symbol
 _atom_site_label
 _atom_site_symmetry_multiplicity
 _atom_site_fract_x
 _atom_site_fract_y
 _atom_site_fract_z
 _atom_site_occupancy
  Ba  Ba0  1  0.25000000  0.12967693  0.74530772  1
  Ba  Ba1  1  0.25000000  0.36920715  0.25335062  1
  Ba  Ba2  1  0.75000000  0.86985733  0.24999362  1
  Ba  Ba3  1  0.75000000  0.62976361  0.74895810  1
  Ba  Ba4  1  0.25000000  0.45101696  0.66723906  1
  Ba  Ba5  1  0.25000000  0.04767500  0.17078521  1
  Ba  Ba6  1  0.75000000  0.54540893  0.33005985  1
  Ba  Ba7  1  0.75000000  0.95538682  0.83016270  1
  Ba  Ba8  1  0.25000000  0.89267695  0.97346226  1
  Ba  Ba9  1  0.25000000  0.59879738  0.47325857  1
  Ba  Ba10  1  0.75000000  0.10495634  0.02649615  1
  Ba  Ba11  1  0.75000000  0.38467098  0.52542160  1
  Ba  Ba12  1  0.25000000  0.81579595  0.63652871  1
  Ba  Ba13  1  0.25000000  0.69081709  0.13795824  1
  Ba  Ba14  1  0.75000000  0.19221074  0.36367709  1
  Ba  Ba15  1  0.75000000  0.30815814  0.86177921  1
  Ba  Ba16  1  0.25000000  0.52812443  0.93268810  1
  Ba  Ba17  1  0.25000000  0.98057332  0.43782656  1
  Ba  Ba18  1  0.75000000  0.47332070  0.06759138  1
  Ba  Ba19  1  0.75000000  0.03642362  0.56705531  1
  Ga  Ga20  1  0.25000000  0.76149959  0.80990976  1
  Ga  Ga21  1  0.25000000  0.73887214  0.31156901  1
  Ga  Ga22  1  0.75000000  0.23809600  0.18840585  1
  Ga  Ga23  1  0.75000000  0.26355528  0.68930735  1
  Ga  Ga24  1  0.25000000  0.19786226  0.56756970  1
  Ru  Ru25  1  0.25000000  0.20893949  0.93626041  1
  Ru  Ru26  1  0.25000000  0.29328579  0.43311323  1
  Ru  Ru27  1  0.75000000  0.79312006  0.06758571  1
  Ru  Ru28  1  0.75000000  0.70644255  0.56664251  1
  Ru  Ru29  1  0.25000000  0.29440558  0.05915159  1
  Ru  Ru30  1  0.75000000  0.79616154  0.43815491  1
  Ru  Ru31  1  0.75000000  0.70340531  0.93758187  1
  O  O32  1  0.25000000  0.03391873  0.59088698  1
  O  O33  1  0.25000000  0.45672505  0.08874222  1
  O  O34  1  0.75000000  0.95767364  0.40983518  1
  O  O35  1  0.75000000  0.53884357  0.91244762  1
  O  O36  1  0.25000000  0.30637324  0.85250231  1
  O  O37  1  0.25000000  0.19023793  0.34944110  1
  O  O38  1  0.75000000  0.69071243  0.15063548  1
  O  O39  1  0.75000000  0.80831126  0.64883031  1
  O  O40  1  0.25000000  0.90986888  0.77112195  1
  O  O41  1  0.25000000  0.59115167  0.27057290  1
  O  O42  1  0.75000000  0.08975830  0.22790824  1
  O  O43  1  0.75000000  0.41082851  0.73198298  1
  O  O44  1  0.25000000  0.63680727  0.74903227  1
  O  O45  1  0.25000000  0.86041397  0.24873542  1
  O  O46  1  0.75000000  0.36158185  0.25038869  1
  O  O47  1  0.75000000  0.14054193  0.75252239  1
  O  O48  1  0.25000000  0.37648102  0.52759584  1
  O  O49  1  0.25000000  0.11758644  0.03023351  1
  O  O50  1  0.75000000  0.62198602  0.47092290  1
  O  O51  1  0.75000000  0.87949803  0.97062834  1
  O  O52  1  0.01351723  0.32389369  0.98407098  1
  O  O53  1  0.47876772  0.18295056  0.48277007  1
  O  O54  1  0.51738941  0.67902156  0.01485514  1
  O  O55  1  0.97884110  0.81935360  0.51443440  1
  O  O56  1  0.98261059  0.67902156  0.01485514  1
  O  O57  1  0.52115890  0.81935360  0.51443440  1
  O  O58  1  0.48648277  0.32389369  0.98407098  1
  O  O59  1  0.02123228  0.18295056  0.48277007  1
  O  O60  1  0.01559879  0.10674939  0.90209688  1
  O  O61  1  0.48596736  0.39695799  0.39918815  1
  O  O62  1  0.51098454  0.89421030  0.09962288  1
  O  O63  1  0.98538412  0.60642459  0.59950868  1
  O  O64  1  0.98901546  0.89421030  0.09962288  1
  O  O65  1  0.51461588  0.60642459  0.59950868  1
  O  O66  1  0.48440121  0.10674939  0.90209688  1
  O  O67  1  0.01403264  0.39695799  0.39918815  1
  O  O68  1  0.00587219  0.24959601  0.63295815  1
  O  O69  1  0.49051347  0.25159450  0.13207794  1
  O  O70  1  0.51083466  0.75096725  0.36687974  1
  O  O71  1  0.99110444  0.74854872  0.86662768  1
  O  O72  1  0.98916534  0.75096725  0.36687974  1
  O  O73  1  0.50889556  0.74854872  0.86662768  1
  O  O74  1  0.49412781  0.24959601  0.63295815  1
  O  O75  1  0.00948653  0.25159450  0.13207794  1
