# generated using pymatgen
data_Ba(BiS2)2
_symmetry_space_group_name_H-M   'P 1'
_cell_length_a   4.18172083
_cell_length_b   22.06426798
_cell_length_c   22.06428029
_cell_angle_alpha   119.99984173
_cell_angle_beta   90.00000000
_cell_angle_gamma   90.00000000
_symmetry_Int_Tables_number   1
_chemical_formula_structural   Ba(BiS2)2
_chemical_formula_sum   'Ba9 Bi18 S36'
_cell_volume   1763.05414425
_cell_formula_units_Z   9
loop_
 _symmetry_equiv_pos_site_id
 _symmetry_equiv_pos_as_xyz
  1  'x, y, z'
loop_
 _atom_site_type_symbol
 _atom_site_label
 _atom_site_symmetry_multiplicity
 _atom_site_fract_x
 _atom_site_fract_y
 _atom_site_fract_z
 _atom_site_occupancy
  Ba  Ba0  1  0.75000000  0.66666928  0.33333433  1
  Ba  Ba1  1  0.25000000  0.33333179  0.66666659  1
  Ba  Ba2  1  0.75000000  0.00000058  0.00000053  1
  Ba  Ba3  1  0.75000000  0.41580992  0.17914710  1
  Ba  Ba4  1  0.75000000  0.82084259  0.23665972  1
  Ba  Ba5  1  0.75000000  0.76333576  0.58418033  1
  Ba  Ba6  1  0.25000000  0.58375137  0.82088285  1
  Ba  Ba7  1  0.25000000  0.17912418  0.76286940  1
  Ba  Ba8  1  0.25000000  0.23713503  0.41625655  1
  Bi  Bi9  1  0.75000000  0.43755206  0.55431305  1
  Bi  Bi10  1  0.75000000  0.44569044  0.88324242  1
  Bi  Bi11  1  0.75000000  0.11676844  0.56245233  1
  Bi  Bi12  1  0.25000000  0.56229465  0.44559598  1
  Bi  Bi13  1  0.25000000  0.55440156  0.11669599  1
  Bi  Bi14  1  0.25000000  0.88329290  0.43770059  1
  Bi  Bi15  1  0.75000000  0.65710212  0.03119509  1
  Bi  Bi16  1  0.75000000  0.96880761  0.62590917  1
  Bi  Bi17  1  0.75000000  0.37409023  0.34289649  1
  Bi  Bi18  1  0.25000000  0.34286993  0.96796415  1
  Bi  Bi19  1  0.25000000  0.03203558  0.37490519  1
  Bi  Bi20  1  0.25000000  0.62509799  0.65713265  1
  Bi  Bi21  1  0.25000000  0.99362498  0.79827766  1
  Bi  Bi22  1  0.25000000  0.20171965  0.19535044  1
  Bi  Bi23  1  0.25000000  0.80465214  0.00637320  1
  Bi  Bi24  1  0.75000000  0.00736494  0.20097218  1
  Bi  Bi25  1  0.75000000  0.79902795  0.80639214  1
  Bi  Bi26  1  0.75000000  0.19360723  0.99263315  1
  S  S27  1  0.75000000  0.83806208  0.48537831  1
  S  S28  1  0.75000000  0.51461783  0.35268684  1
  S  S29  1  0.75000000  0.64731229  0.16193525  1
  S  S30  1  0.25000000  0.16185801  0.51459498  1
  S  S31  1  0.25000000  0.48540778  0.64726084  1
  S  S32  1  0.25000000  0.35274251  0.83814430  1
  S  S33  1  0.75000000  0.93368272  0.83102909  1
  S  S34  1  0.75000000  0.16897185  0.10265467  1
  S  S35  1  0.75000000  0.89734797  0.06631997  1
  S  S36  1  0.25000000  0.05597420  0.14827700  1
  S  S37  1  0.25000000  0.85172558  0.90770067  1
  S  S38  1  0.25000000  0.09230061  0.94401949  1
  S  S39  1  0.75000000  0.06480232  0.76382419  1
  S  S40  1  0.75000000  0.23617082  0.30097799  1
  S  S41  1  0.75000000  0.69902617  0.93519532  1
  S  S42  1  0.25000000  0.93767480  0.23606068  1
  S  S43  1  0.25000000  0.76394513  0.70161727  1
  S  S44  1  0.25000000  0.29838271  0.06232567  1
  S  S45  1  0.75000000  0.24581400  0.89608225  1
  S  S46  1  0.75000000  0.10391671  0.34973333  1
  S  S47  1  0.75000000  0.65026937  0.75418570  1
  S  S48  1  0.25000000  0.75426682  0.10330197  1
  S  S49  1  0.25000000  0.89669892  0.65096548  1
  S  S50  1  0.25000000  0.34903136  0.24573323  1
  S  S51  1  0.75000000  0.60082883  0.55788963  1
  S  S52  1  0.75000000  0.44210820  0.04293521  1
  S  S53  1  0.75000000  0.95706070  0.39917141  1
  S  S54  1  0.25000000  0.39961464  0.44238903  1
  S  S55  1  0.25000000  0.55760995  0.95723036  1
  S  S56  1  0.25000000  0.04277369  0.60038231  1
  S  S57  1  0.75000000  0.22823946  0.68450130  1
  S  S58  1  0.75000000  0.31550731  0.54373397  1
  S  S59  1  0.75000000  0.45627491  0.77177759  1
  S  S60  1  0.25000000  0.77186190  0.31539817  1
  S  S61  1  0.25000000  0.68459689  0.45646920  1
  S  S62  1  0.25000000  0.54352009  0.22811805  1
