# generated using pymatgen
data_Ba(B2Pt3)2
_symmetry_space_group_name_H-M   'P 1'
_cell_length_a   5.30280852
_cell_length_b   6.25883276
_cell_length_c   6.25533829
_cell_angle_alpha   59.98151870
_cell_angle_beta   90.00056277
_cell_angle_gamma   90.00000000
_symmetry_Int_Tables_number   1
_chemical_formula_structural   Ba(B2Pt3)2
_chemical_formula_sum   'Ba1 B4 Pt6'
_cell_volume   179.76279710
_cell_formula_units_Z   1
loop_
 _symmetry_equiv_pos_site_id
 _symmetry_equiv_pos_as_xyz
  1  'x, y, z'
loop_
 _atom_site_type_symbol
 _atom_site_label
 _atom_site_symmetry_multiplicity
 _atom_site_fract_x
 _atom_site_fract_y
 _atom_site_fract_z
 _atom_site_occupancy
  Ba  Ba0  1  0.50000000  0.00000000  0.00000000  1
  B  B1  1  0.57417515  0.66668597  0.66662805  1
  B  B2  1  0.42582485  0.33331403  0.33337195  1
  B  B3  1  0.07250392  0.33325789  0.33348422  1
  B  B4  1  0.92749608  0.66674211  0.66651578  1
  Pt  Pt5  1  0.75149511  0.48244843  0.48251950  1
  Pt  Pt6  1  0.75151842  0.48238065  0.03523870  1
  Pt  Pt7  1  0.75149511  0.03503207  0.48251950  1
  Pt  Pt8  1  0.24850489  0.51755157  0.51748050  1
  Pt  Pt9  1  0.24848158  0.51761935  0.96476130  1
  Pt  Pt10  1  0.24850489  0.96496793  0.51748050  1
