# generated using pymatgen
data_Al4Ge2W3
_symmetry_space_group_name_H-M   'P 1'
_cell_length_a   4.86055425
_cell_length_b   4.85537808
_cell_length_c   6.72284635
_cell_angle_alpha   90.41574500
_cell_angle_beta   89.78002349
_cell_angle_gamma   119.96423368
_symmetry_Int_Tables_number   1
_chemical_formula_structural   Al4Ge2W3
_chemical_formula_sum   'Al4 Ge2 W3'
_cell_volume   137.44774783
_cell_formula_units_Z   1
loop_
 _symmetry_equiv_pos_site_id
 _symmetry_equiv_pos_as_xyz
  1  'x, y, z'
loop_
 _atom_site_type_symbol
 _atom_site_label
 _atom_site_symmetry_multiplicity
 _atom_site_fract_x
 _atom_site_fract_y
 _atom_site_fract_z
 _atom_site_occupancy
  Al  Al0  1  0.32653222  0.16320691  0.83332706  1
  Al  Al1  1  0.16418056  0.32891103  0.16390492  1
  Al  Al2  1  0.16408965  0.83532122  0.50276921  1
  Al  Al3  1  0.66094883  0.83037077  0.83332319  1
  Ge  Ge4  1  0.84067000  0.67718716  0.16288173  1
  Ge  Ge5  1  0.84050437  0.16344002  0.50381090  1
  W  W6  1  0.50577431  0.01130764  0.17407675  1
  W  W7  1  0.50564413  0.49448104  0.49256024  1
  W  W8  1  0.99165592  0.49577421  0.83334599  1
