# generated using pymatgen
data_Zn2Hg2OF6
_symmetry_space_group_name_H-M   'P 1'
_cell_length_a   7.51796091
_cell_length_b   7.51796091
_cell_length_c   7.51796091
_cell_angle_alpha   60.00000004
_cell_angle_beta   60.00000002
_cell_angle_gamma   60.00000001
_symmetry_Int_Tables_number   1
_chemical_formula_structural   Zn2Hg2OF6
_chemical_formula_sum   'Zn4 Hg4 O2 F12'
_cell_volume   300.45898226
_cell_formula_units_Z   2
loop_
 _symmetry_equiv_pos_site_id
 _symmetry_equiv_pos_as_xyz
  1  'x, y, z'
loop_
 _atom_site_type_symbol
 _atom_site_label
 _atom_site_symmetry_multiplicity
 _atom_site_fract_x
 _atom_site_fract_y
 _atom_site_fract_z
 _atom_site_occupancy
  O  O0  1  0.62500000  0.62500000  0.62500000  1
  O  O1  1  0.37500000  0.37500000  0.37500000  1
  F  F2  1  0.32552246  0.92447754  0.92447754  1
  F  F3  1  0.07552246  0.67447754  0.67447754  1
  F  F4  1  0.92447754  0.32552246  0.92447754  1
  F  F5  1  0.92447754  0.92447754  0.32552246  1
  F  F6  1  0.32552246  0.32552246  0.92447754  1
  F  F7  1  0.32552246  0.92447754  0.32552246  1
  F  F8  1  0.92447754  0.32552246  0.32552246  1
  F  F9  1  0.67447754  0.67447754  0.07552246  1
  F  F10  1  0.07552246  0.07552246  0.67447754  1
  F  F11  1  0.67447754  0.07552246  0.07552246  1
  F  F12  1  0.67447754  0.07552246  0.67447754  1
  F  F13  1  0.07552246  0.67447754  0.07552246  1
  Zn  Zn14  1  0.00000000  0.50000000  0.00000000  1
  Zn  Zn15  1  0.50000000  0.00000000  0.00000000  1
  Zn  Zn16  1  0.00000000  0.00000000  0.50000000  1
  Zn  Zn17  1  0.00000000  0.00000000  0.00000000  1
  Hg  Hg18  1  0.50000000  0.00000000  0.50000000  1
  Hg  Hg19  1  0.00000000  0.50000000  0.50000000  1
  Hg  Hg20  1  0.50000000  0.50000000  0.00000000  1
  Hg  Hg21  1  0.50000000  0.50000000  0.50000000  1
