# generated using pymatgen
data_LuPS4
_symmetry_space_group_name_H-M   'P 1'
_cell_length_a   6.51049352
_cell_length_b   8.69401055
_cell_length_c   11.06441904
_cell_angle_alpha   102.08976811
_cell_angle_beta   90.00000000
_cell_angle_gamma   90.00000000
_symmetry_Int_Tables_number   1
_chemical_formula_structural   LuPS4
_chemical_formula_sum   'Lu4 P4 S16'
_cell_volume   612.38126565
_cell_formula_units_Z   4
loop_
 _symmetry_equiv_pos_site_id
 _symmetry_equiv_pos_as_xyz
  1  'x, y, z'
loop_
 _atom_site_type_symbol
 _atom_site_label
 _atom_site_symmetry_multiplicity
 _atom_site_fract_x
 _atom_site_fract_y
 _atom_site_fract_z
 _atom_site_occupancy
  P  P0  1  0.77008758  0.27640333  0.96065432  1
  P  P1  1  0.27008758  0.22359667  0.53934568  1
  P  P2  1  0.22991242  0.72359667  0.03934568  1
  P  P3  1  0.72991242  0.77640333  0.46065432  1
  S  S4  1  0.77166879  0.99261827  0.41250473  1
  S  S5  1  0.27166879  0.50738173  0.08749527  1
  S  S6  1  0.22833121  0.00738173  0.58749527  1
  S  S7  1  0.72833121  0.49261827  0.91250473  1
  S  S8  1  0.74506620  0.80283734  0.64522598  1
  S  S9  1  0.24506620  0.69716266  0.85477402  1
  S  S10  1  0.25493380  0.19716266  0.35477402  1
  S  S11  1  0.75493380  0.30283734  0.14522598  1
  S  S12  1  0.46100622  0.66961615  0.38483900  1
  S  S13  1  0.96100622  0.83038385  0.11516100  1
  S  S14  1  0.53899378  0.33038385  0.61516100  1
  S  S15  1  0.03899378  0.16961615  0.88483900  1
  S  S16  1  0.94912457  0.62853005  0.36386899  1
  S  S17  1  0.44912457  0.87146995  0.13613101  1
  S  S18  1  0.05087543  0.37146995  0.63613101  1
  S  S19  1  0.55087543  0.12853005  0.86386899  1
  Lu  Lu20  1  0.67772903  0.60930123  0.16442850  1
  Lu  Lu21  1  0.17772903  0.89069877  0.33557150  1
  Lu  Lu22  1  0.32227097  0.39069877  0.83557150  1
  Lu  Lu23  1  0.82227097  0.10930123  0.66442850  1
