# generated using pymatgen
data_CsRb2Au7
_symmetry_space_group_name_H-M   'P 1'
_cell_length_a   5.71586105
_cell_length_b   7.47355067
_cell_length_c   7.40242739
_cell_angle_alpha   90.00000000
_cell_angle_beta   90.00000000
_cell_angle_gamma   67.51720503
_symmetry_Int_Tables_number   1
_chemical_formula_structural   CsRb2Au7
_chemical_formula_sum   'Cs1 Rb2 Au7'
_cell_volume   292.18111589
_cell_formula_units_Z   1
loop_
 _symmetry_equiv_pos_site_id
 _symmetry_equiv_pos_as_xyz
  1  'x, y, z'
loop_
 _atom_site_type_symbol
 _atom_site_label
 _atom_site_symmetry_multiplicity
 _atom_site_fract_x
 _atom_site_fract_y
 _atom_site_fract_z
 _atom_site_occupancy
  Cs  Cs0  1  0.66111786  0.67776427  0.50000000  1
  Rb  Rb1  1  0.49993612  0.00012775  0.00000000  1
  Rb  Rb2  1  0.33939484  0.32121032  0.50000000  1
  Au  Au3  1  0.10678020  0.78643961  0.19496729  1
  Au  Au4  1  0.89297892  0.21404215  0.19481326  1
  Au  Au5  1  0.89297892  0.21404215  0.80518674  1
  Au  Au6  1  0.10678020  0.78643961  0.80503271  1
  Au  Au7  1  0.49980585  0.49883498  -0.00000000  1
  Au  Au8  1  0.00135917  0.49883498  -0.00000000  1
  Au  Au9  1  0.99886791  0.00226418  0.50000000  1
