# generated using pymatgen
data_Li4Co2Cu3Sb3O16
_symmetry_space_group_name_H-M   'P 1'
_cell_length_a   6.05033396
_cell_length_b   6.08244919
_cell_length_c   9.69335660
_cell_angle_alpha   90.14064899
_cell_angle_beta   89.21438242
_cell_angle_gamma   119.94108114
_symmetry_Int_Tables_number   1
_chemical_formula_structural   Li4Co2Cu3Sb3O16
_chemical_formula_sum   'Li4 Co2 Cu3 Sb3 O16'
_cell_volume   309.08205947
_cell_formula_units_Z   1
loop_
 _symmetry_equiv_pos_site_id
 _symmetry_equiv_pos_as_xyz
  1  'x, y, z'
loop_
 _atom_site_type_symbol
 _atom_site_label
 _atom_site_symmetry_multiplicity
 _atom_site_fract_x
 _atom_site_fract_y
 _atom_site_fract_z
 _atom_site_occupancy
  Li  Li0  1  0.34073903  0.66987440  0.89772017  1
  Li  Li1  1  0.02401419  0.01198421  0.00602178  1
  Li  Li2  1  0.04989433  0.02512407  0.48680225  1
  Li  Li3  1  0.66155444  0.33013321  0.38386070  1
  Co  Co4  1  0.28896405  0.64408936  0.47533233  1
  Co  Co5  1  0.64743105  0.32450313  0.00072177  1
  Cu  Cu6  1  0.16356738  0.82652178  0.21108904  1
  Cu  Cu7  1  0.16587108  0.33799622  0.21055018  1
  Cu  Cu8  1  0.33409668  0.16706980  0.72048496  1
  Sb  Sb9  1  0.65624407  0.82852360  0.21534888  1
  Sb  Sb10  1  0.82748612  0.66062749  0.71365875  1
  Sb  Sb11  1  0.82746285  0.16623663  0.71398147  1
  O  O12  1  0.15235940  0.83211006  0.60491105  1
  O  O13  1  0.03426361  0.50985878  0.35447440  1
  O  O14  1  0.32717496  0.66300828  0.10757182  1
  O  O15  1  0.00492327  0.00392646  0.30242515  1
  O  O16  1  0.97292062  0.98580826  0.82202145  1
  O  O17  1  0.15342884  0.31862103  0.60597489  1
  O  O18  1  0.48151219  0.96195828  0.34051162  1
  O  O19  1  0.48854998  0.52515697  0.34235623  1
  O  O20  1  0.35172419  0.18453826  0.08988200  1
  O  O21  1  0.68458731  0.84246833  0.59833903  1
  O  O22  1  0.52360106  0.48761592  0.83533610  1
  O  O23  1  0.52251679  0.03603774  0.83553291  1
  O  O24  1  0.68805965  0.34360813  0.59669106  1
  O  O25  1  0.83314983  0.67817690  0.09979538  1
  O  O26  1  0.96581696  0.48241332  0.83763425  1
  O  O27  1  0.82808406  0.15230938  0.09881038  1
