# generated using pymatgen
data_LuBi2BrO4
_symmetry_space_group_name_H-M   'P 1'
_cell_length_a   3.87733441
_cell_length_b   3.87684320
_cell_length_c   9.27629058
_cell_angle_alpha   90.00000000
_cell_angle_beta   90.00000000
_cell_angle_gamma   90.00000000
_symmetry_Int_Tables_number   1
_chemical_formula_structural   LuBi2BrO4
_chemical_formula_sum   'Lu1 Bi2 Br1 O4'
_cell_volume   139.43950746
_cell_formula_units_Z   1
loop_
 _symmetry_equiv_pos_site_id
 _symmetry_equiv_pos_as_xyz
  1  'x, y, z'
loop_
 _atom_site_type_symbol
 _atom_site_label
 _atom_site_symmetry_multiplicity
 _atom_site_fract_x
 _atom_site_fract_y
 _atom_site_fract_z
 _atom_site_occupancy
  Bi  Bi0  1  0.50000000  0.50000000  0.73267026  1
  O  O1  1  0.50000000  0.00000000  0.85552557  1
  O  O2  1  0.00000000  0.50000000  0.85554441  1
  Bi  Bi3  1  0.50000000  0.50000000  0.26727346  1
  Lu  Lu4  1  0.00000000  0.00000000  0.99999472  1
  O  O5  1  0.50000000  0.00000000  0.14450456  1
  Br  Br6  1  0.00000000  0.00000000  0.50000965  1
  O  O7  1  0.00000000  0.50000000  0.14447735  1
