# generated using pymatgen
data_Cs2Sn(AuS2)2
_symmetry_space_group_name_H-M   'P 1'
_cell_length_a   6.26178206
_cell_length_b   8.06981900
_cell_length_c   13.21945411
_cell_angle_alpha   84.72777112
_cell_angle_beta   76.29991147
_cell_angle_gamma   67.17142445
_symmetry_Int_Tables_number   1
_chemical_formula_structural   Cs2Sn(AuS2)2
_chemical_formula_sum   'Cs4 Sn2 Au4 S8'
_cell_volume   598.15702223
_cell_formula_units_Z   2
loop_
 _symmetry_equiv_pos_site_id
 _symmetry_equiv_pos_as_xyz
  1  'x, y, z'
loop_
 _atom_site_type_symbol
 _atom_site_label
 _atom_site_symmetry_multiplicity
 _atom_site_fract_x
 _atom_site_fract_y
 _atom_site_fract_z
 _atom_site_occupancy
  Cs  Cs0  1  0.44492918  0.75000000  0.11014164  1
  Cs  Cs1  1  0.55507082  0.25000000  0.88985836  1
  Cs  Cs2  1  0.80507082  0.75000000  0.38985836  1
  Cs  Cs3  1  0.19492918  0.25000000  0.61014164  1
  Sn  Sn4  1  0.37500000  0.25000000  0.25000000  1
  Sn  Sn5  1  0.62500000  0.75000000  0.75000000  1
  Au  Au6  1  0.18632635  0.75000000  0.62734729  1
  Au  Au7  1  0.93632635  0.25000000  0.12734729  1
  Au  Au8  1  0.81367365  0.25000000  0.37265271  1
  Au  Au9  1  0.06367365  0.75000000  0.87265271  1
  S  S10  1  0.57152372  0.55482348  0.63464847  1
  S  S11  1  0.73900433  0.05482348  0.13464847  1
  S  S12  1  0.87365280  0.55482348  0.86535153  1
  S  S13  1  0.12634720  0.44517652  0.13464847  1
  S  S14  1  0.20617219  0.05482348  0.36535153  1
  S  S15  1  0.42847628  0.44517652  0.36535153  1
  S  S16  1  0.26099567  0.94517652  0.86535153  1
  S  S17  1  0.79382781  0.94517652  0.63464847  1
