# generated using pymatgen
data_CsTaI6
_symmetry_space_group_name_H-M   'P 1'
_cell_length_a   7.43749972
_cell_length_b   7.98633677
_cell_length_c   14.38164611
_cell_angle_alpha   100.18236508
_cell_angle_beta   90.00000000
_cell_angle_gamma   117.75158482
_symmetry_Int_Tables_number   1
_chemical_formula_structural   CsTaI6
_chemical_formula_sum   'Cs2 Ta2 I12'
_cell_volume   740.74965341
_cell_formula_units_Z   2
loop_
 _symmetry_equiv_pos_site_id
 _symmetry_equiv_pos_as_xyz
  1  'x, y, z'
loop_
 _atom_site_type_symbol
 _atom_site_label
 _atom_site_symmetry_multiplicity
 _atom_site_fract_x
 _atom_site_fract_y
 _atom_site_fract_z
 _atom_site_occupancy
  Cs  Cs0  1  0.41098643  0.50000000  0.75000000  1
  Cs  Cs1  1  0.58901357  0.50000000  0.25000000  1
  Ta  Ta2  1  0.00000000  0.00000000  0.00000000  1
  Ta  Ta3  1  0.50000000  0.00000000  0.50000000  1
  I  I4  1  0.18428020  0.65947528  0.39806600  1
  I  I5  1  0.97519507  0.65947528  0.89806600  1
  I  I6  1  0.02480493  0.34052472  0.10193400  1
  I  I7  1  0.30533198  0.92704934  0.66397003  1
  I  I8  1  0.69466802  0.07295066  0.33602997  1
  I  I9  1  0.29247942  0.19782932  0.46565918  1
  I  I10  1  0.70752058  0.80217068  0.53434082  1
  I  I11  1  0.81571980  0.34052472  0.60193400  1
  I  I12  1  0.40534989  0.19782932  0.96565918  1
  I  I13  1  0.87828264  0.07295066  0.83602997  1
  I  I14  1  0.12171736  0.92704934  0.16397003  1
  I  I15  1  0.59465011  0.80217068  0.03434082  1
