# generated using pymatgen
data_Cu3BiSe2ClO8
_symmetry_space_group_name_H-M   'P 1'
_cell_length_a   6.42135639
_cell_length_b   7.32124977
_cell_length_c   9.75914609
_cell_angle_alpha   90.00000000
_cell_angle_beta   90.00000000
_cell_angle_gamma   90.00000000
_symmetry_Int_Tables_number   1
_chemical_formula_structural   Cu3BiSe2ClO8
_chemical_formula_sum   'Cu6 Bi2 Se4 Cl2 O16'
_cell_volume   458.80043066
_cell_formula_units_Z   2
loop_
 _symmetry_equiv_pos_site_id
 _symmetry_equiv_pos_as_xyz
  1  'x, y, z'
loop_
 _atom_site_type_symbol
 _atom_site_label
 _atom_site_symmetry_multiplicity
 _atom_site_fract_x
 _atom_site_fract_y
 _atom_site_fract_z
 _atom_site_occupancy
  Bi  Bi0  1  0.75000000  0.75239045  0.75000000  1
  Bi  Bi1  1  0.25000000  0.24760955  0.25000000  1
  Cu  Cu2  1  0.00000000  0.00000000  0.00000000  1
  Cu  Cu3  1  0.50000000  0.00000000  0.00000000  1
  Cu  Cu4  1  0.50000000  0.00000000  0.50000000  1
  Cu  Cu5  1  0.00000000  0.00000000  0.50000000  1
  Cu  Cu6  1  0.75000000  0.20649320  0.75000000  1
  Cu  Cu7  1  0.25000000  0.79350680  0.25000000  1
  Se  Se8  1  0.75000000  0.39105954  0.44281031  1
  Se  Se9  1  0.25000000  0.60894046  0.55718969  1
  Se  Se10  1  0.75000000  0.39105954  0.05718969  1
  Se  Se11  1  0.25000000  0.60894046  0.94281031  1
  Cl  Cl12  1  0.75000000  0.84884329  0.25000000  1
  Cl  Cl13  1  0.25000000  0.15115671  0.75000000  1
  O  O14  1  0.75000000  0.00875826  0.88635656  1
  O  O15  1  0.25000000  0.99124174  0.11364344  1
  O  O16  1  0.75000000  0.00875826  0.61364344  1
  O  O17  1  0.25000000  0.99124174  0.38635656  1
  O  O18  1  0.96137487  0.24533844  0.41591644  1
  O  O19  1  0.46137487  0.75466156  0.58408356  1
  O  O20  1  0.53862513  0.24533844  0.08408356  1
  O  O21  1  0.03862513  0.75466156  0.91591644  1
  O  O22  1  0.03862513  0.75466156  0.58408356  1
  O  O23  1  0.53862513  0.24533844  0.41591644  1
  O  O24  1  0.46137487  0.75466156  0.91591644  1
  O  O25  1  0.96137487  0.24533844  0.08408356  1
  O  O26  1  0.75000000  0.41236408  0.88206452  1
  O  O27  1  0.25000000  0.58763592  0.11793548  1
  O  O28  1  0.75000000  0.41236408  0.61793548  1
  O  O29  1  0.25000000  0.58763592  0.38206452  1
