# generated using pymatgen
data_TaBO4
_symmetry_space_group_name_H-M   'P 1'
_cell_length_a   5.23162832
_cell_length_b   5.23162831
_cell_length_c   5.23162831
_cell_angle_alpha   106.20071236
_cell_angle_beta   106.20071239
_cell_angle_gamma   116.23116976
_symmetry_Int_Tables_number   1
_chemical_formula_structural   TaBO4
_chemical_formula_sum   'Ta2 B2 O8'
_cell_volume   109.06327692
_cell_formula_units_Z   2
loop_
 _symmetry_equiv_pos_site_id
 _symmetry_equiv_pos_as_xyz
  1  'x, y, z'
loop_
 _atom_site_type_symbol
 _atom_site_label
 _atom_site_symmetry_multiplicity
 _atom_site_fract_x
 _atom_site_fract_y
 _atom_site_fract_z
 _atom_site_occupancy
  B  B0  1  0.62500000  0.37500000  0.25000000  1
  B  B1  1  0.37500000  0.62500000  0.75000000  1
  O  O2  1  0.80078705  0.37288421  0.07209715  1
  O  O3  1  0.72868990  0.80078705  0.92790285  1
  O  O4  1  0.27131010  0.19921295  0.07209715  1
  O  O5  1  0.19921295  0.62711579  0.92790285  1
  O  O6  1  0.19921295  0.27131010  0.57209715  1
  O  O7  1  0.62711579  0.19921295  0.42790285  1
  O  O8  1  0.80078705  0.72868990  0.42790285  1
  O  O9  1  0.37288421  0.80078705  0.57209715  1
  Ta  Ta10  1  0.12500000  0.87500000  0.25000000  1
  Ta  Ta11  1  0.87500000  0.12500000  0.75000000  1
