# generated using pymatgen
data_Y2C(NO)2
_symmetry_space_group_name_H-M   'P 1'
_cell_length_a   3.74459901
_cell_length_b   3.74459874
_cell_length_c   8.22846809
_cell_angle_alpha   90.00000000
_cell_angle_beta   90.00000000
_cell_angle_gamma   120.00000244
_symmetry_Int_Tables_number   1
_chemical_formula_structural   Y2C(NO)2
_chemical_formula_sum   'Y2 C1 N2 O2'
_cell_volume   99.92179240
_cell_formula_units_Z   1
loop_
 _symmetry_equiv_pos_site_id
 _symmetry_equiv_pos_as_xyz
  1  'x, y, z'
loop_
 _atom_site_type_symbol
 _atom_site_label
 _atom_site_symmetry_multiplicity
 _atom_site_fract_x
 _atom_site_fract_y
 _atom_site_fract_z
 _atom_site_occupancy
  Y  Y0  1  0.33333300  0.66666700  0.67753590  1
  O  O1  1  0.33333300  0.66666700  0.39649259  1
  O  O2  1  0.66666700  0.33333300  0.60351856  1
  C  C3  1  0.00000000  0.00000000  -0.00001621  1
  N  N4  1  0.00000000  0.00000000  0.15022844  1
  N  N5  1  0.00000000  0.00000000  0.84976714  1
  Y  Y6  1  0.66666700  0.33333300  0.32247358  1
