# generated using pymatgen
data_CsGeBr3
_symmetry_space_group_name_H-M   'P 1'
_cell_length_a   8.15739206
_cell_length_b   5.72807903
_cell_length_c   5.78863132
_cell_angle_alpha   91.80325647
_cell_angle_beta   134.79761593
_cell_angle_gamma   87.44033155
_symmetry_Int_Tables_number   1
_chemical_formula_structural   CsGeBr3
_chemical_formula_sum   'Cs1 Ge1 Br3'
_cell_volume   191.74159545
_cell_formula_units_Z   1
loop_
 _symmetry_equiv_pos_site_id
 _symmetry_equiv_pos_as_xyz
  1  'x, y, z'
loop_
 _atom_site_type_symbol
 _atom_site_label
 _atom_site_symmetry_multiplicity
 _atom_site_fract_x
 _atom_site_fract_y
 _atom_site_fract_z
 _atom_site_occupancy
  Cs  Cs0  1  0.10101712  0.59346063  1.00000000  1
  Ge  Ge1  1  0.63091763  0.12967402  0.00000000  1
  Br  Br2  1  0.59120713  0.57835465  0.00000000  1
  Br  Br3  1  0.07539195  0.10280535  0.45972577  1
  Br  Br4  1  0.61566618  0.10280535  0.54027422  1
