# generated using pymatgen
data_NaSr3IrO6
_symmetry_space_group_name_H-M   'P 1'
_cell_length_a   6.83199883
_cell_length_b   6.83199883
_cell_length_c   6.83199883
_cell_angle_alpha   90.78646236
_cell_angle_beta   90.78646237
_cell_angle_gamma   90.78646237
_symmetry_Int_Tables_number   1
_chemical_formula_structural   NaSr3IrO6
_chemical_formula_sum   'Na2 Sr6 Ir2 O12'
_cell_volume   318.80084150
_cell_formula_units_Z   2
loop_
 _symmetry_equiv_pos_site_id
 _symmetry_equiv_pos_as_xyz
  1  'x, y, z'
loop_
 _atom_site_type_symbol
 _atom_site_label
 _atom_site_symmetry_multiplicity
 _atom_site_fract_x
 _atom_site_fract_y
 _atom_site_fract_z
 _atom_site_occupancy
  O  O0  1  0.77935117  0.44432813  0.57678027  1
  O  O1  1  0.44432813  0.57678027  0.77935117  1
  O  O2  1  0.57678027  0.77935117  0.44432813  1
  O  O3  1  0.92321973  0.05567187  0.72064883  1
  O  O4  1  0.05567187  0.72064883  0.92321973  1
  O  O5  1  0.72064883  0.92321973  0.05567187  1
  O  O6  1  0.22064883  0.55567187  0.42321973  1
  O  O7  1  0.55567187  0.42321973  0.22064883  1
  O  O8  1  0.42321973  0.22064883  0.55567187  1
  O  O9  1  0.07678027  0.94432813  0.27935117  1
  O  O10  1  0.27935117  0.07678027  0.94432813  1
  O  O11  1  0.94432813  0.27935117  0.07678027  1
  Na  Na12  1  0.25000000  0.25000000  0.25000000  1
  Na  Na13  1  0.75000000  0.75000000  0.75000000  1
  Sr  Sr14  1  0.39213437  0.75000000  0.10786563  1
  Sr  Sr15  1  0.75000000  0.10786563  0.39213437  1
  Sr  Sr16  1  0.10786563  0.39213437  0.75000000  1
  Sr  Sr17  1  0.60786563  0.25000000  0.89213437  1
  Sr  Sr18  1  0.25000000  0.89213437  0.60786563  1
  Sr  Sr19  1  0.89213437  0.60786563  0.25000000  1
  Ir  Ir20  1  0.00000000  0.00000000  0.00000000  1
  Ir  Ir21  1  0.50000000  0.50000000  0.50000000  1
