# generated using pymatgen
data_CsTiZnOF5
_symmetry_space_group_name_H-M   'P 1'
_cell_length_a   7.49328805
_cell_length_b   7.45381017
_cell_length_c   7.49328824
_cell_angle_alpha   60.17412980
_cell_angle_beta   58.31261697
_cell_angle_gamma   60.17413002
_symmetry_Int_Tables_number   1
_chemical_formula_structural   CsTiZnOF5
_chemical_formula_sum   'Cs2 Ti2 Zn2 O2 F10'
_cell_volume   292.73335319
_cell_formula_units_Z   2
loop_
 _symmetry_equiv_pos_site_id
 _symmetry_equiv_pos_as_xyz
  1  'x, y, z'
loop_
 _atom_site_type_symbol
 _atom_site_label
 _atom_site_symmetry_multiplicity
 _atom_site_fract_x
 _atom_site_fract_y
 _atom_site_fract_z
 _atom_site_occupancy
  Cs  Cs0  1  0.37620588  0.37379412  0.37620588  1
  Cs  Cs1  1  0.62379412  0.62620588  0.62379412  1
  Ti  Ti2  1  0.50000000  0.00000000  0.00000000  1
  Ti  Ti3  1  0.00000000  0.00000000  0.50000000  1
  Zn  Zn4  1  0.00000000  0.00000000  0.00000000  1
  Zn  Zn5  1  0.00000000  0.50000000  0.00000000  1
  O  O6  1  0.28978678  0.96021322  0.28978678  1
  O  O7  1  0.71021322  0.03978678  0.71021322  1
  F  F8  1  0.08358580  0.06324314  0.66591675  1
  F  F9  1  0.07078353  0.67921647  0.07078353  1
  F  F10  1  0.66591675  0.06324314  0.08358580  1
  F  F11  1  0.08358580  0.68725431  0.66591675  1
  F  F12  1  0.33408325  0.31274569  0.91641420  1
  F  F13  1  0.66591675  0.68725431  0.08358580  1
  F  F14  1  0.91641420  0.31274569  0.33408325  1
  F  F15  1  0.33408325  0.93675686  0.91641420  1
  F  F16  1  0.92921647  0.32078353  0.92921647  1
  F  F17  1  0.91641420  0.93675686  0.33408325  1
