# generated using pymatgen
data_BaMg2FeH8
_symmetry_space_group_name_H-M   'P 1'
_cell_length_a   4.55656607
_cell_length_b   4.55653686
_cell_length_c   6.96986560
_cell_angle_alpha   90.00000001
_cell_angle_beta   90.00146055
_cell_angle_gamma   119.99978611
_symmetry_Int_Tables_number   1
_chemical_formula_structural   BaMg2FeH8
_chemical_formula_sum   'Ba1 Mg2 Fe1 H8'
_cell_volume   125.32235033
_cell_formula_units_Z   1
loop_
 _symmetry_equiv_pos_site_id
 _symmetry_equiv_pos_as_xyz
  1  'x, y, z'
loop_
 _atom_site_type_symbol
 _atom_site_label
 _atom_site_symmetry_multiplicity
 _atom_site_fract_x
 _atom_site_fract_y
 _atom_site_fract_z
 _atom_site_occupancy
  Ba  Ba0  1  0.00000000  0.00000000  0.50000000  1
  Mg  Mg1  1  0.66666571  0.33333286  0.88804227  1
  Mg  Mg2  1  0.33333429  0.66666714  0.11195773  1
  Fe  Fe3  1  0.00000000  0.00000000  0.00000000  1
  H  H4  1  0.31884272  0.15942136  0.13641989  1
  H  H5  1  0.84058477  0.68115851  0.13641523  1
  H  H6  1  0.84058477  0.15942626  0.13641523  1
  H  H7  1  0.68115728  0.84057864  0.86358011  1
  H  H8  1  0.15941523  0.31884149  0.86358477  1
  H  H9  1  0.15941523  0.84057374  0.86358477  1
  H  H10  1  0.66662982  0.33331491  0.60919735  1
  H  H11  1  0.33337018  0.66668509  0.39080265  1
