# generated using pymatgen
data_Ba2Fe3P6HO22
_symmetry_space_group_name_H-M   'P 1'
_cell_length_a   4.91970080
_cell_length_b   8.00249307
_cell_length_c   11.42330260
_cell_angle_alpha   89.27073239
_cell_angle_beta   89.28493493
_cell_angle_gamma   87.13515212
_symmetry_Int_Tables_number   1
_chemical_formula_structural   Ba2Fe3P6HO22
_chemical_formula_sum   'Ba2 Fe3 P6 H1 O22'
_cell_volume   449.10391280
_cell_formula_units_Z   1
loop_
 _symmetry_equiv_pos_site_id
 _symmetry_equiv_pos_as_xyz
  1  'x, y, z'
loop_
 _atom_site_type_symbol
 _atom_site_label
 _atom_site_symmetry_multiplicity
 _atom_site_fract_x
 _atom_site_fract_y
 _atom_site_fract_z
 _atom_site_occupancy
  Ba  Ba0  1  0.73252458  0.00477134  0.17539930  1
  Ba  Ba1  1  0.26747542  0.99522866  0.82460070  1
  Fe  Fe2  1  0.00000000  0.00000000  0.50000000  1
  Fe  Fe3  1  0.72464528  0.49353991  0.20508029  1
  Fe  Fe4  1  0.27535472  0.50646009  0.79491971  1
  P  P5  1  0.18447123  0.70408295  0.05124108  1
  P  P6  1  0.81552877  0.29591705  0.94875892  1
  P  P7  1  0.23714085  0.30083740  0.34344363  1
  P  P8  1  0.76285915  0.69916260  0.65655637  1
  P  P9  1  0.52545841  0.75715241  0.42450876  1
  P  P10  1  0.47454159  0.24284759  0.57549124  1
  H  H11  1  0.50000000  0.50000000  0.00000000  1
  O  O12  1  0.92135511  0.68113245  0.12363787  1
  O  O13  1  0.07864489  0.31886755  0.87636213  1
  O  O14  1  0.40851141  0.56514237  0.08701976  1
  O  O15  1  0.59148859  0.43485763  0.91298024  1
  O  O16  1  0.27142591  0.88443334  0.07042673  1
  O  O17  1  0.72857409  0.11556666  0.92957327  1
  O  O18  1  0.14102144  0.67884441  0.91788472  1
  O  O19  1  0.85897856  0.32115559  0.08211528  1
  O  O20  1  0.13152993  0.12204853  0.34881875  1
  O  O21  1  0.86847007  0.87795147  0.65118125  1
  O  O22  1  0.02077151  0.43437988  0.31010489  1
  O  O23  1  0.97922849  0.56562012  0.68989511  1
  O  O24  1  0.67325723  0.64675834  0.52686057  1
  O  O25  1  0.32674277  0.35324166  0.47313943  1
  O  O26  1  0.49156683  0.30046567  0.26349567  1
  O  O27  1  0.50843317  0.69953433  0.73650433  1
  O  O28  1  0.69129158  0.91510630  0.40720270  1
  O  O29  1  0.30870842  0.08489370  0.59279730  1
  O  O30  1  0.23104481  0.79672872  0.46033153  1
  O  O31  1  0.76895519  0.20327128  0.53966847  1
  O  O32  1  0.54434881  0.65552171  0.31266137  1
  O  O33  1  0.45565119  0.34447829  0.68733863  1
