# generated using pymatgen
data_KBaFe2(PO4)3
_symmetry_space_group_name_H-M   'P 1'
_cell_length_a   10.02330121
_cell_length_b   10.02330121
_cell_length_c   10.02330121
_cell_angle_alpha   90.00000000
_cell_angle_beta   90.00000000
_cell_angle_gamma   90.00000000
_symmetry_Int_Tables_number   1
_chemical_formula_structural   KBaFe2(PO4)3
_chemical_formula_sum   'K4 Ba4 Fe8 P12 O48'
_cell_volume   1007.00666404
_cell_formula_units_Z   4
loop_
 _symmetry_equiv_pos_site_id
 _symmetry_equiv_pos_as_xyz
  1  'x, y, z'
loop_
 _atom_site_type_symbol
 _atom_site_label
 _atom_site_symmetry_multiplicity
 _atom_site_fract_x
 _atom_site_fract_y
 _atom_site_fract_z
 _atom_site_occupancy
  K  K0  1  0.20247911  0.70247911  0.79752089  1
  K  K1  1  0.29752089  0.29752089  0.29752089  1
  K  K2  1  0.70247911  0.79752089  0.20247911  1
  K  K3  1  0.79752089  0.20247911  0.70247911  1
  Ba  Ba4  1  0.06752011  0.06752011  0.06752011  1
  Ba  Ba5  1  0.43247989  0.93247989  0.56752011  1
  Ba  Ba6  1  0.56752011  0.43247989  0.93247989  1
  Ba  Ba7  1  0.93247989  0.56752011  0.43247989  1
  Fe  Fe8  1  0.08576823  0.91423177  0.41423177  1
  Fe  Fe9  1  0.14866683  0.35133317  0.64866683  1
  Fe  Fe10  1  0.35133317  0.64866683  0.14866683  1
  Fe  Fe11  1  0.41423177  0.08576823  0.91423177  1
  Fe  Fe12  1  0.58576823  0.58576823  0.58576823  1
  Fe  Fe13  1  0.64866683  0.14866683  0.35133317  1
  Fe  Fe14  1  0.85133317  0.85133317  0.85133317  1
  Fe  Fe15  1  0.91423177  0.41423177  0.08576823  1
  P  P16  1  0.03863674  0.72718920  0.12686537  1
  P  P17  1  0.12686537  0.03863674  0.72718920  1
  P  P18  1  0.22718920  0.37313463  0.96136326  1
  P  P19  1  0.27281080  0.62686537  0.46136326  1
  P  P20  1  0.37313463  0.96136326  0.22718920  1
  P  P21  1  0.46136326  0.27281080  0.62686537  1
  P  P22  1  0.53863674  0.77281080  0.87313463  1
  P  P23  1  0.62686537  0.46136326  0.27281080  1
  P  P24  1  0.72718920  0.12686537  0.03863674  1
  P  P25  1  0.77281080  0.87313463  0.53863674  1
  P  P26  1  0.87313463  0.53863674  0.77281080  1
  P  P27  1  0.96136326  0.22718920  0.37313463  1
  O  O28  1  0.99956469  0.08019001  0.34690004  1
  O  O29  1  0.01542909  0.80136277  0.26144008  1
  O  O30  1  0.02446322  0.94759649  0.79857222  1
  O  O31  1  0.05240351  0.29857222  0.47553678  1
  O  O32  1  0.07906574  0.18506513  0.73970613  1
  O  O33  1  0.08019001  0.34690004  0.99956469  1
  O  O34  1  0.15309996  0.00043531  0.58019001  1
  O  O35  1  0.18506513  0.73970613  0.07906574  1
  O  O36  1  0.19863723  0.76144008  0.48457091  1
  O  O37  1  0.20142778  0.52446322  0.55240351  1
  O  O38  1  0.23855992  0.98457091  0.30136277  1
  O  O39  1  0.23970613  0.42093426  0.81493487  1
  O  O40  1  0.26029387  0.57906574  0.31493487  1
  O  O41  1  0.26144008  0.01542909  0.80136277  1
  O  O42  1  0.29857222  0.47553678  0.05240351  1
  O  O43  1  0.30136277  0.23855992  0.98457091  1
  O  O44  1  0.31493487  0.26029387  0.57906574  1
  O  O45  1  0.34690004  0.99956469  0.08019001  1
  O  O46  1  0.41980999  0.65309996  0.49956469  1
  O  O47  1  0.42093426  0.81493487  0.23970613  1
  O  O48  1  0.44759649  0.70142778  0.97553678  1
  O  O49  1  0.47553678  0.05240351  0.29857222  1
  O  O50  1  0.48457091  0.19863723  0.76144008  1
  O  O51  1  0.50043531  0.91980999  0.84690004  1
  O  O52  1  0.49956469  0.41980999  0.65309996  1
  O  O53  1  0.51542909  0.69863723  0.73855992  1
  O  O54  1  0.52446322  0.55240351  0.20142778  1
  O  O55  1  0.55240351  0.20142778  0.52446322  1
  O  O56  1  0.57906574  0.31493487  0.26029387  1
  O  O57  1  0.58019001  0.15309996  0.00043531  1
  O  O58  1  0.65309996  0.49956469  0.41980999  1
  O  O59  1  0.68506513  0.76029387  0.92093426  1
  O  O60  1  0.69863723  0.73855992  0.51542909  1
  O  O61  1  0.70142778  0.97553678  0.44759649  1
  O  O62  1  0.73855992  0.51542909  0.69863723  1
  O  O63  1  0.73970613  0.07906574  0.18506513  1
  O  O64  1  0.76029387  0.92093426  0.68506513  1
  O  O65  1  0.76144008  0.48457091  0.19863723  1
  O  O66  1  0.79857222  0.02446322  0.94759649  1
  O  O67  1  0.80136277  0.26144008  0.01542909  1
  O  O68  1  0.81493487  0.23970613  0.42093426  1
  O  O69  1  0.84690004  0.50043531  0.91980999  1
  O  O70  1  0.91980999  0.84690004  0.50043531  1
  O  O71  1  0.92093426  0.68506513  0.76029387  1
  O  O72  1  0.94759649  0.79857222  0.02446322  1
  O  O73  1  0.97553678  0.44759649  0.70142778  1
  O  O74  1  0.98457091  0.30136277  0.23855992  1
  O  O75  1  0.00043531  0.58019001  0.15309996  1
