# generated using pymatgen
data_Li2CrSiO4
_symmetry_space_group_name_H-M   'P 1'
_cell_length_a   10.58641896
_cell_length_b   5.11513727
_cell_length_c   13.09494799
_cell_angle_alpha   90.00000000
_cell_angle_beta   90.00000000
_cell_angle_gamma   90.00000000
_symmetry_Int_Tables_number   1
_chemical_formula_structural   Li2CrSiO4
_chemical_formula_sum   'Li16 Cr8 Si8 O32'
_cell_volume   709.10434761
_cell_formula_units_Z   8
loop_
 _symmetry_equiv_pos_site_id
 _symmetry_equiv_pos_as_xyz
  1  'x, y, z'
loop_
 _atom_site_type_symbol
 _atom_site_label
 _atom_site_symmetry_multiplicity
 _atom_site_fract_x
 _atom_site_fract_y
 _atom_site_fract_z
 _atom_site_occupancy
  Li  Li0  1  0.01725929  0.48207819  0.95278514  1
  Li  Li1  1  0.96624697  0.04766537  0.56566535  1
  Li  Li2  1  0.16370722  0.60409501  0.31183772  1
  Li  Li3  1  0.21464283  0.01787091  0.21367544  1
  Li  Li4  1  0.28535717  0.01787091  0.71367544  1
  Li  Li5  1  0.33629278  0.60409501  0.81183772  1
  Li  Li6  1  0.53375303  0.04766537  0.06566535  1
  Li  Li7  1  0.48274071  0.48207819  0.45278514  1
  Li  Li8  1  0.51725929  0.51792181  0.95278514  1
  Li  Li9  1  0.46624697  0.95233463  0.56566535  1
  Li  Li10  1  0.66370722  0.39590499  0.31183772  1
  Li  Li11  1  0.71464283  0.98212909  0.21367544  1
  Li  Li12  1  0.78535717  0.98212909  0.71367544  1
  Li  Li13  1  0.83629278  0.39590499  0.81183772  1
  Li  Li14  1  0.03375303  0.95233463  0.06566535  1
  Li  Li15  1  0.98274071  0.51792181  0.45278514  1
  Cr  Cr16  1  0.05666145  0.47181080  0.69881998  1
  Cr  Cr17  1  0.28053915  0.04213524  0.98167525  1
  Cr  Cr18  1  0.21946085  0.04213524  0.48167525  1
  Cr  Cr19  1  0.44333855  0.47181080  0.19881998  1
  Cr  Cr20  1  0.55666145  0.52818920  0.69881998  1
  Cr  Cr21  1  0.78053915  0.95786476  0.98167525  1
  Cr  Cr22  1  0.71946085  0.95786476  0.48167525  1
  Cr  Cr23  1  0.94333855  0.52818920  0.19881998  1
  Si  Si24  1  0.02259987  0.98979695  0.82697731  1
  Si  Si25  1  0.23847466  0.50121806  0.07912275  1
  Si  Si26  1  0.26152534  0.50121806  0.57912275  1
  Si  Si27  1  0.47740013  0.98979695  0.32697731  1
  Si  Si28  1  0.52259987  0.01020305  0.82697731  1
  Si  Si29  1  0.73847466  0.49878194  0.07912275  1
  Si  Si30  1  0.76152534  0.49878194  0.57912275  1
  Si  Si31  1  0.97740013  0.01020305  0.32697731  1
  O  O32  1  0.04176255  0.86437695  0.22496665  1
  O  O33  1  0.01476482  0.32670891  0.31971865  1
  O  O34  1  0.05515454  0.88287936  0.42645448  1
  O  O35  1  0.15433276  0.23179231  0.08618799  1
  O  O36  1  0.22799772  0.64817232  0.68756400  1
  O  O37  1  0.17167066  0.07459297  0.83168728  1
  O  O38  1  0.11930583  0.37258432  0.54640549  1
  O  O39  1  0.17168408  0.69945047  0.99865851  1
  O  O40  1  0.32831592  0.69945047  0.49865851  1
  O  O41  1  0.38069417  0.37258432  0.04640549  1
  O  O42  1  0.32832934  0.07459297  0.33168728  1
  O  O43  1  0.27200228  0.64817232  0.18756400  1
  O  O44  1  0.34566724  0.23179231  0.58618799  1
  O  O45  1  0.44484546  0.88287936  0.92645448  1
  O  O46  1  0.48523518  0.32670891  0.81971865  1
  O  O47  1  0.45823745  0.86437695  0.72496665  1
  O  O48  1  0.54176255  0.13562305  0.22496665  1
  O  O49  1  0.51476482  0.67329109  0.31971865  1
  O  O50  1  0.55515454  0.11712064  0.42645448  1
  O  O51  1  0.65433276  0.76820769  0.08618799  1
  O  O52  1  0.72799772  0.35182768  0.68756400  1
  O  O53  1  0.67167066  0.92540703  0.83168728  1
  O  O54  1  0.61930583  0.62741568  0.54640549  1
  O  O55  1  0.67168408  0.30054953  0.99865851  1
  O  O56  1  0.82831592  0.30054953  0.49865851  1
  O  O57  1  0.88069417  0.62741568  0.04640549  1
  O  O58  1  0.82832934  0.92540703  0.33168728  1
  O  O59  1  0.77200228  0.35182768  0.18756400  1
  O  O60  1  0.84566724  0.76820769  0.58618799  1
  O  O61  1  0.94484546  0.11712064  0.92645448  1
  O  O62  1  0.98523518  0.67329109  0.81971865  1
  O  O63  1  0.95823745  0.13562305  0.72496665  1
