# generated using pymatgen
data_CsAg5Te3
_symmetry_space_group_name_H-M   'P 1'
_cell_length_a   4.65454507
_cell_length_b   14.91878425
_cell_length_c   14.91878425
_cell_angle_alpha   90.00000000
_cell_angle_beta   90.00000000
_cell_angle_gamma   90.00000000
_symmetry_Int_Tables_number   1
_chemical_formula_structural   CsAg5Te3
_chemical_formula_sum   'Cs4 Ag20 Te12'
_cell_volume   1035.96267106
_cell_formula_units_Z   4
loop_
 _symmetry_equiv_pos_site_id
 _symmetry_equiv_pos_as_xyz
  1  'x, y, z'
loop_
 _atom_site_type_symbol
 _atom_site_label
 _atom_site_symmetry_multiplicity
 _atom_site_fract_x
 _atom_site_fract_y
 _atom_site_fract_z
 _atom_site_occupancy
  Ag  Ag0  1  0.00000000  0.32179272  0.67820728  1
  Ag  Ag1  1  0.50000000  0.82179272  0.82179272  1
  Ag  Ag2  1  0.50000000  0.17820728  0.17820728  1
  Ag  Ag3  1  0.00000000  0.67820728  0.32179272  1
  Ag  Ag4  1  0.50000000  0.98265335  0.39605246  1
  Ag  Ag5  1  0.50000000  0.01734665  0.60394754  1
  Ag  Ag6  1  0.00000000  0.89605246  0.51734665  1
  Ag  Ag7  1  0.00000000  0.10394754  0.48265335  1
  Ag  Ag8  1  0.50000000  0.39605246  0.98265335  1
  Ag  Ag9  1  0.00000000  0.51734665  0.89605246  1
  Ag  Ag10  1  0.00000000  0.48265335  0.10394754  1
  Ag  Ag11  1  0.50000000  0.60394754  0.01734665  1
  Ag  Ag12  1  0.50000000  0.78757726  0.42061170  1
  Ag  Ag13  1  0.50000000  0.21242274  0.57938830  1
  Ag  Ag14  1  0.00000000  0.92061170  0.71242274  1
  Ag  Ag15  1  0.00000000  0.07938830  0.28757726  1
  Ag  Ag16  1  0.50000000  0.57938830  0.21242274  1
  Ag  Ag17  1  0.00000000  0.28757726  0.07938830  1
  Ag  Ag18  1  0.00000000  0.71242274  0.92061170  1
  Ag  Ag19  1  0.50000000  0.42061170  0.78757726  1
  Te  Te20  1  0.00000000  0.10155193  0.10155193  1
  Te  Te21  1  0.50000000  0.39844807  0.60155193  1
  Te  Te22  1  0.50000000  0.60155193  0.39844807  1
  Te  Te23  1  0.00000000  0.89844807  0.89844807  1
  Te  Te24  1  0.00000000  0.88300443  0.32862733  1
  Te  Te25  1  0.00000000  0.11699557  0.67137267  1
  Te  Te26  1  0.50000000  0.82862733  0.61699557  1
  Te  Te27  1  0.50000000  0.17137267  0.38300443  1
  Te  Te28  1  0.00000000  0.32862733  0.88300443  1
  Te  Te29  1  0.50000000  0.61699557  0.82862733  1
  Te  Te30  1  0.50000000  0.38300443  0.17137267  1
  Te  Te31  1  0.00000000  0.67137267  0.11699557  1
  Cs  Cs32  1  0.50000000  0.11253005  0.88746995  1
  Cs  Cs33  1  0.00000000  0.61253005  0.61253005  1
  Cs  Cs34  1  0.00000000  0.38746995  0.38746995  1
  Cs  Cs35  1  0.50000000  0.88746995  0.11253005  1
