# generated using pymatgen
data_CaHo(MoO3)2
_symmetry_space_group_name_H-M   'P 1'
_cell_length_a   5.47916902
_cell_length_b   5.79150233
_cell_length_c   8.02201984
_cell_angle_alpha   90.04418479
_cell_angle_beta   90.57548815
_cell_angle_gamma   90.06452513
_symmetry_Int_Tables_number   1
_chemical_formula_structural   CaHo(MoO3)2
_chemical_formula_sum   'Ca2 Ho2 Mo4 O12'
_cell_volume   254.54662830
_cell_formula_units_Z   2
loop_
 _symmetry_equiv_pos_site_id
 _symmetry_equiv_pos_as_xyz
  1  'x, y, z'
loop_
 _atom_site_type_symbol
 _atom_site_label
 _atom_site_symmetry_multiplicity
 _atom_site_fract_x
 _atom_site_fract_y
 _atom_site_fract_z
 _atom_site_occupancy
  Ca  Ca0  1  0.48726836  0.44525615  0.75076325  1
  Ca  Ca1  1  0.98794720  0.05417797  0.25190436  1
  Ho  Ho2  1  0.02325805  0.93448106  0.74897679  1
  Ho  Ho3  1  0.52366449  0.56650632  0.25043838  1
  Mo  Mo4  1  0.00053054  0.49779166  0.00002372  1
  Mo  Mo5  1  0.00149706  0.49692529  0.50047544  1
  Mo  Mo6  1  0.50063385  0.00245783  0.50021518  1
  Mo  Mo7  1  0.50162730  0.00303344  0.00064832  1
  O  O8  1  0.13476972  0.44814823  0.25486363  1
  O  O9  1  0.19111739  0.18426481  0.93513069  1
  O  O10  1  0.17433589  0.19013585  0.56233441  1
  O  O11  1  0.30694055  0.70983348  0.93409020  1
  O  O12  1  0.29362281  0.69907528  0.56350228  1
  O  O13  1  0.38602635  0.93738352  0.24594280  1
  O  O14  1  0.63563660  0.05213017  0.75471762  1
  O  O15  1  0.69064863  0.31631965  0.43623465  1
  O  O16  1  0.67450953  0.30889396  0.06343301  1
  O  O17  1  0.79177228  0.79945548  0.06516475  1
  O  O18  1  0.80755183  0.79149737  0.43562102  1
  O  O19  1  0.88663957  0.56223350  0.74551751  1
