# generated using pymatgen
data_MnCoN2
_symmetry_space_group_name_H-M   'P 1'
_cell_length_a   3.01258453
_cell_length_b   5.19078085
_cell_length_c   17.97322169
_cell_angle_alpha   15.87749393
_cell_angle_beta   119.80689963
_cell_angle_gamma   106.53908283
_symmetry_Int_Tables_number   1
_chemical_formula_structural   MnCoN2
_chemical_formula_sum   'Mn1 Co1 N2'
_cell_volume   38.67210345
_cell_formula_units_Z   1
loop_
 _symmetry_equiv_pos_site_id
 _symmetry_equiv_pos_as_xyz
  1  'x, y, z'
loop_
 _atom_site_type_symbol
 _atom_site_label
 _atom_site_symmetry_multiplicity
 _atom_site_fract_x
 _atom_site_fract_y
 _atom_site_fract_z
 _atom_site_occupancy
  Mn  Mn0  1  1.00000000  0.85682727  0.06581237  1
  Co  Co1  1  0.00000000  0.88854207  0.56040754  1
  N  N2  1  0.00000000  0.14024516  0.18474578  1
  N  N3  1  0.00000000  0.11428550  0.68903431  1
