# generated using pymatgen
data_Co11CuO16
_symmetry_space_group_name_H-M   'P 1'
_cell_length_a   5.91538516
_cell_length_b   5.88045273
_cell_length_c   8.32196977
_cell_angle_alpha   89.80185038
_cell_angle_beta   90.00000000
_cell_angle_gamma   90.00000000
_symmetry_Int_Tables_number   1
_chemical_formula_structural   Co11CuO16
_chemical_formula_sum   'Co11 Cu1 O16'
_cell_volume   289.47917585
_cell_formula_units_Z   1
loop_
 _symmetry_equiv_pos_site_id
 _symmetry_equiv_pos_as_xyz
  1  'x, y, z'
loop_
 _atom_site_type_symbol
 _atom_site_label
 _atom_site_symmetry_multiplicity
 _atom_site_fract_x
 _atom_site_fract_y
 _atom_site_fract_z
 _atom_site_occupancy
  Co  Co0  1  0.00000000  0.00213668  0.00149904  1
  Co  Co1  1  0.75025126  0.49756813  0.12608140  1
  Co  Co2  1  0.24974874  0.49756813  0.12608140  1
  Co  Co3  1  0.50000000  0.00022763  0.25432609  1
  Co  Co4  1  0.00000000  0.25000000  0.37500000  1
  Co  Co5  1  0.50000000  0.49977237  0.49567391  1
  Co  Co6  1  0.75025126  0.00243187  0.62391860  1
  Co  Co7  1  0.24974874  0.00243187  0.62391860  1
  Co  Co8  1  0.00000000  0.49786332  0.74850096  1
  Co  Co9  1  0.50000000  0.25000000  0.87500000  1
  Co  Co10  1  0.50000000  0.75000000  0.87500000  1
  Cu  Cu11  1  0.00000000  0.75000000  0.37500000  1
  O  O12  1  0.50000000  0.72671263  0.11926275  1
  O  O13  1  0.50000000  0.26646696  0.11992634  1
  O  O14  1  0.00000000  0.27048050  0.14341761  1
  O  O15  1  0.00000000  0.73132957  0.13296502  1
  O  O16  1  0.77578940  0.48984575  0.36426488  1
  O  O17  1  0.22421060  0.48984575  0.36426488  1
  O  O18  1  0.77578940  0.01015425  0.38573512  1
  O  O19  1  0.22421060  0.01015425  0.38573512  1
  O  O20  1  0.00000000  0.22951950  0.60658239  1
  O  O21  1  0.00000000  0.76867043  0.61703498  1
  O  O22  1  0.50000000  0.23353304  0.63007366  1
  O  O23  1  0.50000000  0.77328737  0.63073725  1
  O  O24  1  0.73217981  0.00059256  0.86402945  1
  O  O25  1  0.26782019  0.00059256  0.86402945  1
  O  O26  1  0.26782019  0.49940744  0.88597055  1
  O  O27  1  0.73217981  0.49940744  0.88597055  1
