# generated using pymatgen
data_Cr3Co3(SbO8)2
_symmetry_space_group_name_H-M   'P 1'
_cell_length_a   5.78734181
_cell_length_b   5.79427042
_cell_length_c   9.21241332
_cell_angle_alpha   89.20391408
_cell_angle_beta   89.41236196
_cell_angle_gamma   120.28776365
_symmetry_Int_Tables_number   1
_chemical_formula_structural   Cr3Co3(SbO8)2
_chemical_formula_sum   'Cr3 Co3 Sb2 O16'
_cell_volume   266.67760869
_cell_formula_units_Z   1
loop_
 _symmetry_equiv_pos_site_id
 _symmetry_equiv_pos_as_xyz
  1  'x, y, z'
loop_
 _atom_site_type_symbol
 _atom_site_label
 _atom_site_symmetry_multiplicity
 _atom_site_fract_x
 _atom_site_fract_y
 _atom_site_fract_z
 _atom_site_occupancy
  Cr  Cr0  1  0.15927584  0.82630492  0.20632980  1
  Cr  Cr1  1  0.16499894  0.33818034  0.22355303  1
  Cr  Cr2  1  0.32928513  0.16366485  0.71737117  1
  Co  Co3  1  0.65285253  0.82577104  0.21162585  1
  Co  Co4  1  0.82755044  0.65982708  0.71048628  1
  Co  Co5  1  0.83010250  0.17256518  0.71133658  1
  Sb  Sb6  1  0.34394398  0.67503811  0.49347374  1
  Sb  Sb7  1  0.67481126  0.32962104  0.98856636  1
  O  O8  1  0.16392834  0.84022976  0.60222308  1
  O  O9  1  0.03705177  0.52259792  0.34183372  1
  O  O10  1  0.32963597  0.65647720  0.10569201  1
  O  O11  1  0.98732069  0.99772723  0.30433691  1
  O  O12  1  0.98737085  0.98948409  0.80539795  1
  O  O13  1  0.16793893  0.33073734  0.60375916  1
  O  O14  1  0.48084101  0.96162570  0.33195212  1
  O  O15  1  0.48367197  0.52056407  0.33996536  1
  O  O16  1  0.33542320  0.16242669  0.10538607  1
  O  O17  1  0.68547324  0.84485541  0.60019480  1
  O  O18  1  0.52427223  0.48724208  0.83753237  1
  O  O19  1  0.51751251  0.03732955  0.83502670  1
  O  O20  1  0.67428598  0.34443715  0.61021252  1
  O  O21  1  0.83706044  0.66767857  0.10358520  1
  O  O22  1  0.96595765  0.48523579  0.82782366  1
  O  O23  1  0.83943561  0.16057989  0.09805657  1
