# generated using pymatgen
data_MgNi(PO3)4
_symmetry_space_group_name_H-M   'P 1'
_cell_length_a   7.25658671
_cell_length_b   7.25506488
_cell_length_c   9.83292824
_cell_angle_alpha   98.64614696
_cell_angle_beta   110.02773123
_cell_angle_gamma   109.52225361
_symmetry_Int_Tables_number   1
_chemical_formula_structural   MgNi(PO3)4
_chemical_formula_sum   'Mg2 Ni2 P8 O24'
_cell_volume   437.43629720
_cell_formula_units_Z   2
loop_
 _symmetry_equiv_pos_site_id
 _symmetry_equiv_pos_as_xyz
  1  'x, y, z'
loop_
 _atom_site_type_symbol
 _atom_site_label
 _atom_site_symmetry_multiplicity
 _atom_site_fract_x
 _atom_site_fract_y
 _atom_site_fract_z
 _atom_site_occupancy
  Mg  Mg0  1  0.70356323  0.95269439  0.75126314  1
  Mg  Mg1  1  0.29975324  0.04946622  0.25045236  1
  Ni  Ni2  1  0.50110304  0.50124208  0.49997631  1
  Ni  Ni3  1  0.50164863  0.00096986  0.00029764  1
  P  P4  1  0.50995396  0.31407970  0.80385325  1
  P  P5  1  0.01147809  0.70692951  0.69617602  1
  P  P6  1  0.49429375  0.68778412  0.19618590  1
  P  P7  1  0.98980344  0.29446361  0.30479134  1
  P  P8  1  0.77099109  0.73120428  0.02218124  1
  P  P9  1  0.20841683  0.74593480  0.47709812  1
  P  P10  1  0.23390508  0.27084130  0.97830738  1
  P  P11  1  0.79193322  0.25469013  0.52343294  1
  O  O12  1  0.31853407  0.31670839  0.84987132  1
  O  O13  1  0.96790324  0.46918735  0.65002163  1
  O  O14  1  0.68570533  0.68476849  0.15015700  1
  O  O15  1  0.03126948  0.53148049  0.35089417  1
  O  O16  1  0.72315913  0.50453987  0.93211415  1
  O  O17  1  0.07511887  0.79158497  0.56863929  1
  O  O18  1  0.28115340  0.49773127  0.06749207  1
  O  O19  1  0.92561664  0.20917925  0.43207848  1
  O  O20  1  0.45978839  0.34473302  0.65220457  1
  O  O21  1  0.19309751  0.80908813  0.84830720  1
  O  O22  1  0.54426689  0.65671573  0.34771624  1
  O  O23  1  0.80940238  0.19233383  0.15216050  1
  O  O24  1  0.54517865  0.12367307  0.82606880  1
  O  O25  1  0.79883250  0.72008805  0.67329768  1
  O  O26  1  0.45917439  0.87837783  0.17450204  1
  O  O27  1  0.20297575  0.28240952  0.32786984  1
  O  O28  1  0.63219227  0.81447477  0.91777657  1
  O  O29  1  0.39710970  0.71262239  0.58105900  1
  O  O30  1  0.37339255  0.18884593  0.08347616  1
  O  O31  1  0.60341782  0.28779640  0.41893769  1
  O  O32  1  0.00730812  0.84871161  0.09600680  1
  O  O33  1  0.25050037  0.90609750  0.40128558  1
  O  O34  1  0.99773704  0.15234709  0.90467040  1
  O  O35  1  0.74929692  0.09432105  0.59897419  1
