# generated using pymatgen
data_CaNi(PO3)4
_symmetry_space_group_name_H-M   'P 1'
_cell_length_a   7.49582488
_cell_length_b   7.49405624
_cell_length_c   10.09446884
_cell_angle_alpha   97.95831130
_cell_angle_beta   111.54652749
_cell_angle_gamma   108.57838051
_symmetry_Int_Tables_number   1
_chemical_formula_structural   CaNi(PO3)4
_chemical_formula_sum   'Ca2 Ni2 P8 O24'
_cell_volume   478.49116478
_cell_formula_units_Z   2
loop_
 _symmetry_equiv_pos_site_id
 _symmetry_equiv_pos_as_xyz
  1  'x, y, z'
loop_
 _atom_site_type_symbol
 _atom_site_label
 _atom_site_symmetry_multiplicity
 _atom_site_fract_x
 _atom_site_fract_y
 _atom_site_fract_z
 _atom_site_occupancy
  Ca  Ca0  1  0.70251044  0.95169569  0.74963592  1
  Ca  Ca1  1  0.29838712  0.04828466  0.25031990  1
  Ni  Ni2  1  0.50046509  0.50024459  0.49985775  1
  Ni  Ni3  1  0.50120919  0.00050954  0.00034937  1
  P  P4  1  0.50201020  0.31842897  0.80516895  1
  P  P5  1  0.01373220  0.69543334  0.69531292  1
  P  P6  1  0.49743889  0.68128742  0.19417274  1
  P  P7  1  0.98739382  0.30457098  0.30489817  1
  P  P8  1  0.75202884  0.71919969  0.02516924  1
  P  P9  1  0.19495859  0.72728952  0.47536733  1
  P  P10  1  0.24887283  0.28034231  0.97518091  1
  P  P11  1  0.80587010  0.27288956  0.52459633  1
  O  O12  1  0.31235649  0.32435532  0.84285617  1
  O  O13  1  0.98191494  0.46800344  0.65767312  1
  O  O14  1  0.68703805  0.67462616  0.15678328  1
  O  O15  1  0.01905227  0.53190036  0.34245861  1
  O  O16  1  0.70321885  0.50355890  0.93282359  1
  O  O17  1  0.07087526  0.76894952  0.56754747  1
  O  O18  1  0.29615637  0.49610857  0.06652240  1
  O  O19  1  0.93002960  0.23088446  0.43254025  1
  O  O20  1  0.46250067  0.34693577  0.65576313  1
  O  O21  1  0.19165980  0.80532735  0.84466031  1
  O  O22  1  0.53635696  0.65329609  0.34365541  1
  O  O23  1  0.80959820  0.19469556  0.15549141  1
  O  O24  1  0.53690105  0.13556119  0.83404073  1
  O  O25  1  0.80196516  0.70139982  0.66629855  1
  O  O26  1  0.46336445  0.86445797  0.16529527  1
  O  O27  1  0.19903173  0.29852035  0.33370798  1
  O  O28  1  0.61251139  0.80565179  0.92873338  1
  O  O29  1  0.37715669  0.68300750  0.57133618  1
  O  O30  1  0.39028978  0.19584463  0.07212803  1
  O  O31  1  0.62408697  0.31761277  0.42853326  1
  O  O32  1  0.98120617  0.83061259  0.08923716  1
  O  O33  1  0.24343385  0.89417632  0.41307904  1
  O  O34  1  0.02007105  0.16714208  0.91204509  1
  O  O35  1  0.75669993  0.10593121  0.58673364  1
