# generated using pymatgen
data_BaMgVF7
_symmetry_space_group_name_H-M   'P 1'
_cell_length_a   5.66080163
_cell_length_b   9.72827811
_cell_length_c   10.03027860
_cell_angle_alpha   90.00000000
_cell_angle_beta   90.00000000
_cell_angle_gamma   92.97060881
_symmetry_Int_Tables_number   1
_chemical_formula_structural   BaMgVF7
_chemical_formula_sum   'Ba4 Mg4 V4 F28'
_cell_volume   551.62372238
_cell_formula_units_Z   4
loop_
 _symmetry_equiv_pos_site_id
 _symmetry_equiv_pos_as_xyz
  1  'x, y, z'
loop_
 _atom_site_type_symbol
 _atom_site_label
 _atom_site_symmetry_multiplicity
 _atom_site_fract_x
 _atom_site_fract_y
 _atom_site_fract_z
 _atom_site_occupancy
  Ba  Ba0  1  0.26445469  0.49878366  0.32077569  1
  Ba  Ba1  1  0.73554531  0.00121634  0.82077569  1
  Ba  Ba2  1  0.73554531  0.50121634  0.67922431  1
  Ba  Ba3  1  0.26445469  0.99878366  0.17922431  1
  Mg  Mg4  1  0.69372524  0.81053347  0.39589331  1
  Mg  Mg5  1  0.30627476  0.68946653  0.89589331  1
  Mg  Mg6  1  0.69372524  0.31053347  0.10410669  1
  Mg  Mg7  1  0.30627476  0.18946653  0.60410669  1
  V  V8  1  0.19332200  0.81201925  0.61211270  1
  V  V9  1  0.80667800  0.18798075  0.38788730  1
  V  V10  1  0.19332200  0.31201925  0.88788730  1
  V  V11  1  0.80667800  0.68798075  0.11211270  1
  F  F12  1  0.11529904  0.12541981  0.44820496  1
  F  F13  1  0.37204509  0.36950784  0.05236315  1
  F  F14  1  0.47465576  0.75080691  0.71301432  1
  F  F15  1  0.52534424  0.24919309  0.28698568  1
  F  F16  1  0.88806341  0.36816690  0.45765175  1
  F  F17  1  0.25764402  0.49910032  0.81056464  1
  F  F18  1  0.02662369  0.75038942  0.78195037  1
  F  F19  1  0.11193659  0.13183310  0.95765175  1
  F  F20  1  0.37204509  0.86950784  0.44763685  1
  F  F21  1  0.52534424  0.74919309  0.21301432  1
  F  F22  1  0.11529904  0.62541981  0.05179504  1
  F  F23  1  0.88470096  0.87458019  0.55179504  1
  F  F24  1  0.97337631  0.74961058  0.28195037  1
  F  F25  1  0.38630472  0.87345826  0.95825210  1
  F  F26  1  0.11193659  0.63183310  0.54234825  1
  F  F27  1  0.88806341  0.86816690  0.04234825  1
  F  F28  1  0.97337631  0.24961058  0.21804963  1
  F  F29  1  0.88470096  0.37458019  0.94820496  1
  F  F30  1  0.61369528  0.62654174  0.45825210  1
  F  F31  1  0.62795491  0.63049216  0.94763685  1
  F  F32  1  0.61369528  0.12654174  0.04174790  1
  F  F33  1  0.02662369  0.25038942  0.71804963  1
  F  F34  1  0.38630472  0.37345826  0.54174790  1
  F  F35  1  0.74235598  0.00089968  0.31056464  1
  F  F36  1  0.74235598  0.50089968  0.18943536  1
  F  F37  1  0.25764402  0.99910032  0.68943536  1
  F  F38  1  0.62795491  0.13049216  0.55236315  1
  F  F39  1  0.47465576  0.25080691  0.78698568  1
