# generated using pymatgen
data_CaTiNiP2O9
_symmetry_space_group_name_H-M   'P 1'
_cell_length_a   6.49133954
_cell_length_b   7.51922163
_cell_length_c   14.28101011
_cell_angle_alpha   90.00001194
_cell_angle_beta   90.00002020
_cell_angle_gamma   90.00002004
_symmetry_Int_Tables_number   1
_chemical_formula_structural   CaTiNiP2O9
_chemical_formula_sum   'Ca4 Ti4 Ni4 P8 O36'
_cell_volume   697.05354255
_cell_formula_units_Z   4
loop_
 _symmetry_equiv_pos_site_id
 _symmetry_equiv_pos_as_xyz
  1  'x, y, z'
loop_
 _atom_site_type_symbol
 _atom_site_label
 _atom_site_symmetry_multiplicity
 _atom_site_fract_x
 _atom_site_fract_y
 _atom_site_fract_z
 _atom_site_occupancy
  Ca  Ca0  1  0.75000100  0.88218169  0.78088878  1
  Ca  Ca1  1  0.75000100  0.61781931  0.28088878  1
  Ca  Ca2  1  0.24999900  0.11781931  0.21911122  1
  Ca  Ca3  1  0.25000000  0.38217969  0.71911122  1
  Ti  Ti4  1  0.75000000  0.34446852  0.88331118  1
  Ti  Ti5  1  0.25000000  0.65553248  0.11668882  1
  Ti  Ti6  1  0.25000000  0.84446852  0.61668782  1
  Ti  Ti7  1  0.75000000  0.15553248  0.38331118  1
  Ni  Ni8  1  0.50000000  0.00000100  0.00000100  1
  Ni  Ni9  1  0.50000000  0.50000100  0.50000100  1
  Ni  Ni10  1  0.00000100  0.50000000  0.50000000  1
  Ni  Ni11  1  0.00000100  0.00000300  0.00000000  1
  P  P12  1  0.25000000  0.35021503  0.93759369  1
  P  P13  1  0.75000000  0.64978497  0.06240631  1
  P  P14  1  0.75000000  0.85021503  0.56240631  1
  P  P15  1  0.25000000  0.14978597  0.43759269  1
  P  P16  1  0.75000000  0.39143168  0.69167083  1
  P  P17  1  0.25000000  0.60856732  0.30833017  1
  P  P18  1  0.25000000  0.89143168  0.80832917  1
  P  P19  1  0.75000000  0.10856732  0.19167083  1
  O  O20  1  0.05188682  0.60682956  0.36776212  1
  O  O21  1  0.55188683  0.39316944  0.63223788  1
  O  O22  1  0.94811318  0.10682956  0.13223788  1
  O  O23  1  0.44811317  0.89317044  0.86776212  1
  O  O24  1  0.94811318  0.39316944  0.63223788  1
  O  O25  1  0.44811317  0.60682956  0.36776212  1
  O  O26  1  0.05188682  0.89316944  0.86776212  1
  O  O27  1  0.55188583  0.10682856  0.13223788  1
  O  O28  1  0.25000000  0.33299195  0.48478952  1
  O  O29  1  0.75000000  0.66700805  0.51521048  1
  O  O30  1  0.75000000  0.83299195  0.01521048  1
  O  O31  1  0.25000000  0.16700805  0.98478952  1
  O  O32  1  0.75000000  0.14109947  0.94184706  1
  O  O33  1  0.25000000  0.85890053  0.05815194  1
  O  O34  1  0.25000000  0.64110047  0.55815294  1
  O  O35  1  0.75000000  0.35890153  0.44184806  1
  O  O36  1  0.75000000  0.21965882  0.75590662  1
  O  O37  1  0.25000000  0.78034118  0.24409338  1
  O  O38  1  0.25000000  0.71965782  0.74409238  1
  O  O39  1  0.75000000  0.28034118  0.25590762  1
  O  O40  1  0.43825944  0.12987784  0.37094578  1
  O  O41  1  0.93825843  0.87012116  0.62905322  1
  O  O42  1  0.56174156  0.62987784  0.12905322  1
  O  O43  1  0.06174056  0.37012117  0.87094678  1
  O  O44  1  0.56174056  0.87012216  0.62905322  1
  O  O45  1  0.06174057  0.12987884  0.37094678  1
  O  O46  1  0.43825844  0.37012116  0.87094678  1
  O  O47  1  0.93825944  0.62987783  0.12905322  1
  O  O48  1  0.75000000  0.95790052  0.26727847  1
  O  O49  1  0.24999900  0.04209848  0.73272053  1
  O  O50  1  0.25000000  0.45790052  0.23272153  1
  O  O51  1  0.75000000  0.54209948  0.76727847  1
  O  O52  1  0.75000000  0.99404578  0.48657780  1
  O  O53  1  0.25000000  0.00595522  0.51342120  1
  O  O54  1  0.25000000  0.49404578  0.01342220  1
  O  O55  1  0.75000000  0.50595322  0.98657880  1
