# generated using pymatgen
data_Dy2CoGe2
_symmetry_space_group_name_H-M   'P 1'
_cell_length_a   4.22885545
_cell_length_b   5.63167094
_cell_length_c   9.22015461
_cell_angle_alpha   82.22403737
_cell_angle_beta   76.74256441
_cell_angle_gamma   67.94768656
_symmetry_Int_Tables_number   1
_chemical_formula_structural   Dy2CoGe2
_chemical_formula_sum   'Dy4 Co2 Ge4'
_cell_volume   197.79977334
_cell_formula_units_Z   2
loop_
 _symmetry_equiv_pos_site_id
 _symmetry_equiv_pos_as_xyz
  1  'x, y, z'
loop_
 _atom_site_type_symbol
 _atom_site_label
 _atom_site_symmetry_multiplicity
 _atom_site_fract_x
 _atom_site_fract_y
 _atom_site_fract_z
 _atom_site_occupancy
  Dy  Dy0  1  0.18477003  0.74086578  0.88959416  1
  Dy  Dy1  1  0.81522997  0.25913422  0.11040584  1
  Dy  Dy2  1  0.00458247  0.32400492  0.66683015  1
  Dy  Dy3  1  0.99541753  0.67599508  0.33316985  1
  Co  Co4  1  0.27169469  0.10025022  0.35636039  1
  Co  Co5  1  0.72830531  0.89974978  0.64363961  1
  Ge  Ge6  1  0.48660306  0.15288138  0.87391251  1
  Ge  Ge7  1  0.51339694  0.84711862  0.12608749  1
  Ge  Ge8  1  0.34432551  0.74579130  0.56555768  1
  Ge  Ge9  1  0.65567449  0.25420870  0.43444232  1
