# generated using pymatgen
data_Ti2(InCl3)3
_symmetry_space_group_name_H-M   'P 1'
_cell_length_a   7.06024586
_cell_length_b   7.06024587
_cell_length_c   17.39659834
_cell_angle_alpha   90.00000000
_cell_angle_beta   90.00000000
_cell_angle_gamma   119.99999997
_symmetry_Int_Tables_number   1
_chemical_formula_structural   Ti2(InCl3)3
_chemical_formula_sum   'Ti4 In6 Cl18'
_cell_volume   750.99080278
_cell_formula_units_Z   2
loop_
 _symmetry_equiv_pos_site_id
 _symmetry_equiv_pos_as_xyz
  1  'x, y, z'
loop_
 _atom_site_type_symbol
 _atom_site_label
 _atom_site_symmetry_multiplicity
 _atom_site_fract_x
 _atom_site_fract_y
 _atom_site_fract_z
 _atom_site_occupancy
  Ti  Ti0  1  0.33333300  0.66666700  0.82989504  1
  Ti  Ti1  1  0.33333300  0.66666700  0.66685254  1
  Ti  Ti2  1  0.66666700  0.33333300  0.32989504  1
  Ti  Ti3  1  0.66666700  0.33333300  0.16685254  1
  In  In4  1  0.33333300  0.66666700  0.06733865  1
  In  In5  1  0.33333300  0.66666700  0.43643719  1
  In  In6  1  -0.00000000  -0.00000000  0.27026883  1
  In  In7  1  0.00000000  -0.00000000  0.77026883  1
  In  In8  1  0.66666700  0.33333300  0.93643719  1
  In  In9  1  0.66666700  0.33333300  0.56733865  1
  Cl  Cl10  1  0.17402012  0.82597988  0.58910256  1
  Cl  Cl11  1  0.17301371  0.82698629  0.90923657  1
  Cl  Cl12  1  0.00640025  0.50320013  0.74986346  1
  Cl  Cl13  1  0.49679987  0.99359975  0.74986346  1
  Cl  Cl14  1  0.17301371  0.34602742  0.90923657  1
  Cl  Cl15  1  0.17402012  0.34804025  0.58910256  1
  Cl  Cl16  1  0.49679987  0.50320013  0.74986346  1
  Cl  Cl17  1  0.65397258  0.82698629  0.90923657  1
  Cl  Cl18  1  0.65195975  0.82597988  0.58910256  1
  Cl  Cl19  1  0.34602742  0.17301371  0.40923657  1
  Cl  Cl20  1  0.34804025  0.17402012  0.08910256  1
  Cl  Cl21  1  0.50320013  0.49679987  0.24986346  1
  Cl  Cl22  1  0.82597988  0.65195975  0.08910256  1
  Cl  Cl23  1  0.82698629  0.65397258  0.40923657  1
  Cl  Cl24  1  0.50320013  0.00640025  0.24986346  1
  Cl  Cl25  1  0.99359975  0.49679987  0.24986346  1
  Cl  Cl26  1  0.82597988  0.17402012  0.08910256  1
  Cl  Cl27  1  0.82698629  0.17301371  0.40923657  1
