# generated using pymatgen
data_Fe3Co3(TeO8)2
_symmetry_space_group_name_H-M   'P 1'
_cell_length_a   5.93573409
_cell_length_b   5.98396284
_cell_length_c   9.20579398
_cell_angle_alpha   90.71502332
_cell_angle_beta   91.32920496
_cell_angle_gamma   120.32562661
_symmetry_Int_Tables_number   1
_chemical_formula_structural   Fe3Co3(TeO8)2
_chemical_formula_sum   'Fe3 Co3 Te2 O16'
_cell_volume   282.05461707
_cell_formula_units_Z   1
loop_
 _symmetry_equiv_pos_site_id
 _symmetry_equiv_pos_as_xyz
  1  'x, y, z'
loop_
 _atom_site_type_symbol
 _atom_site_label
 _atom_site_symmetry_multiplicity
 _atom_site_fract_x
 _atom_site_fract_y
 _atom_site_fract_z
 _atom_site_occupancy
  Fe  Fe0  1  0.66698535  0.83967516  0.20647119  1
  Fe  Fe1  1  0.84150845  0.66721767  0.70837774  1
  Fe  Fe2  1  0.84154191  0.17302354  0.70791917  1
  Co  Co3  1  0.17954991  0.84575409  0.20557271  1
  Co  Co4  1  0.17766341  0.34954935  0.21624203  1
  Co  Co5  1  0.34951535  0.17618183  0.71626678  1
  Te  Te6  1  0.32983542  0.66159788  0.48856013  1
  Te  Te7  1  0.66691461  0.33626678  0.98965453  1
  O  O8  1  0.17222791  0.82500565  0.59659262  1
  O  O9  1  0.03600647  0.49719287  0.34024854  1
  O  O10  1  0.31727271  0.64418226  0.10779839  1
  O  O11  1  0.01851135  0.02832101  0.29678075  1
  O  O12  1  0.02702426  0.01472508  0.79999521  1
  O  O13  1  0.17833790  0.34477485  0.60040719  1
  O  O14  1  0.46773878  0.94772330  0.34905447  1
  O  O15  1  0.46707143  0.50777278  0.34210236  1
  O  O16  1  0.34714835  0.18103167  0.10270735  1
  O  O17  1  0.65485666  0.82379624  0.59715250  1
  O  O18  1  0.50397276  0.46431696  0.84175318  1
  O  O19  1  0.50243217  0.04162307  0.84158065  1
  O  O20  1  0.64510632  0.32043563  0.60927192  1
  O  O21  1  0.82862328  0.65836330  0.10043627  1
  O  O22  1  0.95317597  0.47865474  0.85328580  1
  O  O23  1  0.82698127  0.17301327  0.09748651  1
