# generated using pymatgen
data_Tb3TaO7
_symmetry_space_group_name_H-M   'P 1'
_cell_length_a   6.50575012
_cell_length_b   6.50575012
_cell_length_c   7.52495455
_cell_angle_alpha   90.00000000
_cell_angle_beta   90.00000000
_cell_angle_gamma   109.13037702
_symmetry_Int_Tables_number   1
_chemical_formula_structural   Tb3TaO7
_chemical_formula_sum   'Tb6 Ta2 O14'
_cell_volume   300.90344917
_cell_formula_units_Z   2
loop_
 _symmetry_equiv_pos_site_id
 _symmetry_equiv_pos_as_xyz
  1  'x, y, z'
loop_
 _atom_site_type_symbol
 _atom_site_label
 _atom_site_symmetry_multiplicity
 _atom_site_fract_x
 _atom_site_fract_y
 _atom_site_fract_z
 _atom_site_occupancy
  Tb  Tb0  1  0.99981404  0.46501970  0.49536090  1
  Tb  Tb1  1  0.53498030  0.00018596  0.50463910  1
  Tb  Tb2  1  0.47341643  0.47341643  0.75000000  1
  Tb  Tb3  1  0.52658357  0.52658357  0.25000000  1
  Tb  Tb4  1  0.00018596  0.53498030  0.99536090  1
  Tb  Tb5  1  0.46501970  0.99981404  0.00463910  1
  Ta  Ta6  1  0.00253507  0.00253507  0.25000000  1
  Ta  Ta7  1  0.99746493  0.99746493  0.75000000  1
  O  O8  1  0.06621990  0.93378010  0.00000000  1
  O  O9  1  0.36201297  0.63798703  0.00000000  1
  O  O10  1  0.05817646  0.31255393  0.21191221  1
  O  O11  1  0.68744607  0.94182354  0.78808779  1
  O  O12  1  0.37064612  0.62935388  0.50000000  1
  O  O13  1  0.67479575  0.91973892  0.22233964  1
  O  O14  1  0.08026108  0.32520425  0.77766036  1
  O  O15  1  0.32520425  0.08026108  0.72233964  1
  O  O16  1  0.91973892  0.67479575  0.27766036  1
  O  O17  1  0.62935388  0.37064612  0.00000000  1
  O  O18  1  0.94182354  0.68744607  0.71191221  1
  O  O19  1  0.31255393  0.05817646  0.28808779  1
  O  O20  1  0.63798703  0.36201297  0.50000000  1
  O  O21  1  0.93378010  0.06621990  0.50000000  1
