# generated using pymatgen
data_Tm2TeO2
_symmetry_space_group_name_H-M   'P 1'
_cell_length_a   3.85265519
_cell_length_b   3.85285115
_cell_length_c   14.24656885
_cell_angle_alpha   89.99998656
_cell_angle_beta   90.00014335
_cell_angle_gamma   119.99940326
_symmetry_Int_Tables_number   1
_chemical_formula_structural   Tm2TeO2
_chemical_formula_sum   'Tm4 Te2 O4'
_cell_volume   183.14113334
_cell_formula_units_Z   2
loop_
 _symmetry_equiv_pos_site_id
 _symmetry_equiv_pos_as_xyz
  1  'x, y, z'
loop_
 _atom_site_type_symbol
 _atom_site_label
 _atom_site_symmetry_multiplicity
 _atom_site_fract_x
 _atom_site_fract_y
 _atom_site_fract_z
 _atom_site_occupancy
  Tm  Tm0  1  0.33338245  0.66676828  0.90294305  1
  Tm  Tm1  1  0.33339066  0.66676747  0.59705681  1
  Tm  Tm2  1  0.66659925  0.33328916  0.40294385  1
  Tm  Tm3  1  0.66660877  0.33330183  0.09705681  1
  Te  Te4  1  0.99983686  0.99974863  0.25000068  1
  Te  Te5  1  0.00021158  0.00017553  0.74999989  1
  O  O6  1  0.33330832  0.66668126  0.06023236  1
  O  O7  1  0.33330069  0.66667098  0.43976819  1
  O  O8  1  0.66667623  0.33339561  0.93976751  1
  O  O9  1  0.66668520  0.33339925  0.56023286  1
