# generated using pymatgen
data_Li4Cu7(PO4)6
_symmetry_space_group_name_H-M   'P 1'
_cell_length_a   8.90643929
_cell_length_b   8.90643929
_cell_length_c   6.25427736
_cell_angle_alpha   80.92774432
_cell_angle_beta   99.07225568
_cell_angle_gamma   76.90576851
_symmetry_Int_Tables_number   1
_chemical_formula_structural   Li4Cu7(PO4)6
_chemical_formula_sum   'Li4 Cu7 P6 O24'
_cell_volume   467.42733278
_cell_formula_units_Z   1
loop_
 _symmetry_equiv_pos_site_id
 _symmetry_equiv_pos_as_xyz
  1  'x, y, z'
loop_
 _atom_site_type_symbol
 _atom_site_label
 _atom_site_symmetry_multiplicity
 _atom_site_fract_x
 _atom_site_fract_y
 _atom_site_fract_z
 _atom_site_occupancy
  Li  Li0  1  0.27008405  0.72991595  0.52752340  1
  Li  Li1  1  0.45894742  0.28720963  0.53119949  1
  Li  Li2  1  0.71279037  0.54105258  0.53119949  1
  Li  Li3  1  0.94401766  0.05598234  0.51308046  1
  Cu  Cu4  1  0.01472426  0.36011536  0.18148671  1
  Cu  Cu5  1  0.63988464  0.98527574  0.18148671  1
  Cu  Cu6  1  0.37405180  0.37571124  0.99792471  1
  Cu  Cu7  1  0.62428876  0.62594820  0.99792471  1
  Cu  Cu8  1  0.99262476  0.00737524  0.00069830  1
  Cu  Cu9  1  0.34961902  0.00691457  0.81659386  1
  Cu  Cu10  1  0.99308543  0.65038098  0.81659386  1
  P  P11  1  0.71480366  0.90436237  0.71176590  1
  P  P12  1  0.09563763  0.28519634  0.71176590  1
  P  P13  1  0.32837150  0.67162850  0.07167772  1
  P  P14  1  0.67913246  0.32086754  0.92320621  1
  P  P15  1  0.28481499  0.08530727  0.29172718  1
  P  P16  1  0.91469273  0.71518501  0.29172718  1
  O  O17  1  0.41050251  0.76700908  0.91163172  1
  O  O18  1  0.23299092  0.58949749  0.91163172  1
  O  O19  1  0.23088480  0.76911520  0.19940786  1
  O  O20  1  0.02457111  0.38867019  0.86665140  1
  O  O21  1  0.61132981  0.97542889  0.86665140  1
  O  O22  1  0.89619666  0.90142533  0.77202112  1
  O  O23  1  0.09857467  0.10380334  0.77202112  1
  O  O24  1  0.27429385  0.28204004  0.73319659  1
  O  O25  1  0.71795996  0.72570615  0.73319659  1
  O  O26  1  0.46591476  0.53408524  0.21574640  1
  O  O27  1  0.56025664  0.43974336  0.72724732  1
  O  O28  1  0.88989063  0.90023894  0.21725361  1
  O  O29  1  0.09976106  0.11010937  0.21725361  1
  O  O30  1  0.30438200  0.25329063  0.29502105  1
  O  O31  1  0.74670937  0.69561800  0.29502105  1
  O  O32  1  0.33511005  0.96929369  0.51703165  1
  O  O33  1  0.03070631  0.66488995  0.51703165  1
  O  O34  1  0.79473390  0.20526610  0.83685711  1
  O  O35  1  0.38515142  0.01348097  0.13258524  1
  O  O36  1  0.98651903  0.61484858  0.13258524  1
  O  O37  1  0.58312468  0.23535770  0.07087280  1
  O  O38  1  0.76464230  0.41687532  0.07087280  1
  O  O39  1  0.98721073  0.34798533  0.48247658  1
  O  O40  1  0.65201467  0.01278927  0.48247658  1
