# generated using pymatgen
data_DyGa4Ni
_symmetry_space_group_name_H-M   'P 1'
_cell_length_a   4.12481075
_cell_length_b   6.57903637
_cell_length_c   7.91008447
_cell_angle_alpha   90.00000000
_cell_angle_beta   105.11345003
_cell_angle_gamma   90.00000000
_symmetry_Int_Tables_number   1
_chemical_formula_structural   DyGa4Ni
_chemical_formula_sum   'Dy2 Ga8 Ni2'
_cell_volume   207.23346190
_cell_formula_units_Z   2
loop_
 _symmetry_equiv_pos_site_id
 _symmetry_equiv_pos_as_xyz
  1  'x, y, z'
loop_
 _atom_site_type_symbol
 _atom_site_label
 _atom_site_symmetry_multiplicity
 _atom_site_fract_x
 _atom_site_fract_y
 _atom_site_fract_z
 _atom_site_occupancy
  Dy  Dy0  1  0.38173316  0.75000000  0.76346632  1
  Dy  Dy1  1  0.61826684  0.25000000  0.23653368  1
  Ga  Ga2  1  -0.00000000  0.50000000  -0.00000000  1
  Ga  Ga3  1  -0.00000000  0.00000000  -0.00000000  1
  Ga  Ga4  1  0.57229944  0.75000000  0.14459889  1
  Ga  Ga5  1  0.42770056  0.25000000  0.85540111  1
  Ga  Ga6  1  0.18640878  0.55103465  0.37281757  1
  Ga  Ga7  1  0.81359122  0.44896535  0.62718243  1
  Ga  Ga8  1  0.18640878  0.94896535  0.37281757  1
  Ga  Ga9  1  0.81359122  0.05103465  0.62718243  1
  Ni  Ni10  1  0.72462047  0.75000000  0.44924093  1
  Ni  Ni11  1  0.27537953  0.25000000  0.55075907  1
