# generated using pymatgen
data_NdGaPd
_symmetry_space_group_name_H-M   'P 1'
_cell_length_a   4.52264615
_cell_length_b   7.12724573
_cell_length_c   7.91209775
_cell_angle_alpha   90.00000000
_cell_angle_beta   90.00000000
_cell_angle_gamma   90.00000000
_symmetry_Int_Tables_number   1
_chemical_formula_structural   NdGaPd
_chemical_formula_sum   'Nd4 Ga4 Pd4'
_cell_volume   255.03864164
_cell_formula_units_Z   4
loop_
 _symmetry_equiv_pos_site_id
 _symmetry_equiv_pos_as_xyz
  1  'x, y, z'
loop_
 _atom_site_type_symbol
 _atom_site_label
 _atom_site_symmetry_multiplicity
 _atom_site_fract_x
 _atom_site_fract_y
 _atom_site_fract_z
 _atom_site_occupancy
  Nd  Nd0  1  0.75000000  0.47621897  0.80358293  1
  Nd  Nd1  1  0.75000000  0.97621897  0.69641707  1
  Nd  Nd2  1  0.25000000  0.52378103  0.19641707  1
  Nd  Nd3  1  0.25000000  0.02378103  0.30358293  1
  Ga  Ga4  1  0.75000000  0.33177820  0.42788635  1
  Ga  Ga5  1  0.75000000  0.83177820  0.07211365  1
  Ga  Ga6  1  0.25000000  0.66822180  0.57211365  1
  Ga  Ga7  1  0.25000000  0.16822180  0.92788635  1
  Pd  Pd8  1  0.75000000  0.22043738  0.10128064  1
  Pd  Pd9  1  0.75000000  0.72043738  0.39871936  1
  Pd  Pd10  1  0.25000000  0.77956262  0.89871936  1
  Pd  Pd11  1  0.25000000  0.27956262  0.60128064  1
