# generated using pymatgen
data_FeB2
_symmetry_space_group_name_H-M   'P 1'
_cell_length_a   3.74180435
_cell_length_b   4.80804780
_cell_length_c   4.82040336
_cell_angle_alpha   90.00000000
_cell_angle_beta   90.00000000
_cell_angle_gamma   90.00000000
_symmetry_Int_Tables_number   1
_chemical_formula_structural   FeB2
_chemical_formula_sum   'Fe4 B8'
_cell_volume   86.72278827
_cell_formula_units_Z   4
loop_
 _symmetry_equiv_pos_site_id
 _symmetry_equiv_pos_as_xyz
  1  'x, y, z'
loop_
 _atom_site_type_symbol
 _atom_site_label
 _atom_site_symmetry_multiplicity
 _atom_site_fract_x
 _atom_site_fract_y
 _atom_site_fract_z
 _atom_site_occupancy
  Fe  Fe0  1  0.12404762  0.75000000  0.01956666  1
  Fe  Fe1  1  0.37595238  0.75000000  0.51956666  1
  Fe  Fe2  1  0.87595238  0.25000000  0.98043334  1
  Fe  Fe3  1  0.62404762  0.25000000  0.48043334  1
  B  B4  1  0.39339780  0.43071613  0.83909235  1
  B  B5  1  0.10660220  0.06928387  0.33909235  1
  B  B6  1  0.60660220  0.93071613  0.16090765  1
  B  B7  1  0.89339780  0.56928387  0.66090765  1
  B  B8  1  0.60660220  0.56928387  0.16090765  1
  B  B9  1  0.89339780  0.93071613  0.66090765  1
  B  B10  1  0.39339780  0.06928387  0.83909235  1
  B  B11  1  0.10660220  0.43071613  0.33909235  1
