# generated using pymatgen
data_TiFeP
_symmetry_space_group_name_H-M   'P 1'
_cell_length_a   3.61758550
_cell_length_b   6.00227968
_cell_length_c   6.79504572
_cell_angle_alpha   90.00000000
_cell_angle_beta   90.00000000
_cell_angle_gamma   90.00000000
_symmetry_Int_Tables_number   1
_chemical_formula_structural   TiFeP
_chemical_formula_sum   'Ti4 Fe4 P4'
_cell_volume   147.54599153
_cell_formula_units_Z   4
loop_
 _symmetry_equiv_pos_site_id
 _symmetry_equiv_pos_as_xyz
  1  'x, y, z'
loop_
 _atom_site_type_symbol
 _atom_site_label
 _atom_site_symmetry_multiplicity
 _atom_site_fract_x
 _atom_site_fract_y
 _atom_site_fract_z
 _atom_site_occupancy
  Ti  Ti0  1  0.75000000  0.47954639  0.68277644  1
  Ti  Ti1  1  0.75000000  0.97954639  0.81722356  1
  Ti  Ti2  1  0.25000000  0.52045361  0.31722356  1
  Ti  Ti3  1  0.25000000  0.02045361  0.18277644  1
  Fe  Fe4  1  0.75000000  0.35100496  0.06249100  1
  Fe  Fe5  1  0.75000000  0.85100496  0.43750900  1
  Fe  Fe6  1  0.25000000  0.64899504  0.93750900  1
  Fe  Fe7  1  0.25000000  0.14899504  0.56249100  1
  P  P8  1  0.75000000  0.72406901  0.11939589  1
  P  P9  1  0.75000000  0.22406901  0.38060411  1
  P  P10  1  0.25000000  0.27593099  0.88060411  1
  P  P11  1  0.25000000  0.77593099  0.61939589  1
