# generated using pymatgen
data_PrGaPt
_symmetry_space_group_name_H-M   'P 1'
_cell_length_a   4.52490679
_cell_length_b   7.18107096
_cell_length_c   7.95797808
_cell_angle_alpha   90.00000000
_cell_angle_beta   90.00000000
_cell_angle_gamma   90.00000000
_symmetry_Int_Tables_number   1
_chemical_formula_structural   PrGaPt
_chemical_formula_sum   'Pr4 Ga4 Pt4'
_cell_volume   258.58396729
_cell_formula_units_Z   4
loop_
 _symmetry_equiv_pos_site_id
 _symmetry_equiv_pos_as_xyz
  1  'x, y, z'
loop_
 _atom_site_type_symbol
 _atom_site_label
 _atom_site_symmetry_multiplicity
 _atom_site_fract_x
 _atom_site_fract_y
 _atom_site_fract_z
 _atom_site_occupancy
  Pr  Pr0  1  0.75000000  0.47205001  0.81031618  1
  Pr  Pr1  1  0.75000000  0.97205001  0.68968382  1
  Pr  Pr2  1  0.25000000  0.52794999  0.18968382  1
  Pr  Pr3  1  0.25000000  0.02794999  0.31031618  1
  Ga  Ga4  1  0.75000000  0.34314136  0.43189262  1
  Ga  Ga5  1  0.75000000  0.84314136  0.06810738  1
  Ga  Ga6  1  0.25000000  0.65685864  0.56810738  1
  Ga  Ga7  1  0.25000000  0.15685864  0.93189262  1
  Pt  Pt8  1  0.75000000  0.22033459  0.10804168  1
  Pt  Pt9  1  0.75000000  0.72033459  0.39195832  1
  Pt  Pt10  1  0.25000000  0.77966541  0.89195832  1
  Pt  Pt11  1  0.25000000  0.27966541  0.60804168  1
