# generated using pymatgen
data_Li4Ce3Ge4
_symmetry_space_group_name_H-M   'P 1'
_cell_length_a   4.48546032
_cell_length_b   6.80663834
_cell_length_c   8.34232799
_cell_angle_alpha   114.07662189
_cell_angle_beta   105.59510280
_cell_angle_gamma   90.00000000
_symmetry_Int_Tables_number   1
_chemical_formula_structural   Li4Ce3Ge4
_chemical_formula_sum   'Li4 Ce3 Ge4'
_cell_volume   222.23063573
_cell_formula_units_Z   1
loop_
 _symmetry_equiv_pos_site_id
 _symmetry_equiv_pos_as_xyz
  1  'x, y, z'
loop_
 _atom_site_type_symbol
 _atom_site_label
 _atom_site_symmetry_multiplicity
 _atom_site_fract_x
 _atom_site_fract_y
 _atom_site_fract_z
 _atom_site_occupancy
  Li  Li0  1  0.67043632  0.98112050  0.34087265  1
  Li  Li1  1  0.32956368  0.01887950  0.65912735  1
  Li  Li2  1  0.32956368  0.64024785  0.65912735  1
  Li  Li3  1  0.67043632  0.35975215  0.34087265  1
  Ce  Ce4  1  -0.00000000  -0.00000000  0.00000000  1
  Ce  Ce5  1  0.13031984  0.63031984  0.26063967  1
  Ce  Ce6  1  0.86968016  0.36968016  0.73936033  1
  Ge  Ge7  1  0.50000000  0.68829234  0.00000000  1
  Ge  Ge8  1  0.50000000  0.31170766  -0.00000000  1
  Ge  Ge9  1  0.78619124  0.78619124  0.57238248  1
  Ge  Ge10  1  0.21380876  0.21380876  0.42761752  1
