# generated using pymatgen
data_HoTlS2O9
_symmetry_space_group_name_H-M   'P 1'
_cell_length_a   8.31937105
_cell_length_b   10.26769833
_cell_length_c   9.95767636
_cell_angle_alpha   120.26833128
_cell_angle_beta   90.00000000
_cell_angle_gamma   90.00000000
_symmetry_Int_Tables_number   1
_chemical_formula_structural   HoTlS2O9
_chemical_formula_sum   'Ho4 Tl4 S8 O36'
_cell_volume   734.63495664
_cell_formula_units_Z   4
loop_
 _symmetry_equiv_pos_site_id
 _symmetry_equiv_pos_as_xyz
  1  'x, y, z'
loop_
 _atom_site_type_symbol
 _atom_site_label
 _atom_site_symmetry_multiplicity
 _atom_site_fract_x
 _atom_site_fract_y
 _atom_site_fract_z
 _atom_site_occupancy
  Ho  Ho0  1  0.31378593  0.94983621  0.68168119  1
  Ho  Ho1  1  0.68621407  0.05016379  0.31831881  1
  Ho  Ho2  1  0.81378593  0.55016379  0.81831881  1
  Ho  Ho3  1  0.18621407  0.44983621  0.18168119  1
  Tl  Tl4  1  0.39412202  0.74856912  0.96542861  1
  Tl  Tl5  1  0.60587798  0.25143088  0.03457139  1
  Tl  Tl6  1  0.89412202  0.75143088  0.53457139  1
  Tl  Tl7  1  0.10587798  0.24856912  0.46542861  1
  S  S8  1  0.12809060  0.32272236  0.84608518  1
  S  S9  1  0.87190940  0.67727764  0.15391482  1
  S  S10  1  0.62809060  0.17727764  0.65391482  1
  S  S11  1  0.37190940  0.82272236  0.34608518  1
  S  S12  1  0.21444421  0.57849003  0.60266927  1
  S  S13  1  0.78555579  0.42150997  0.39733073  1
  S  S14  1  0.71444421  0.92150997  0.89733073  1
  S  S15  1  0.28555579  0.07849003  0.10266927  1
  O  O16  1  0.78797358  0.07849428  0.94483526  1
  O  O17  1  0.21202642  0.92150572  0.05516474  1
  O  O18  1  0.28797358  0.42150572  0.55516474  1
  O  O19  1  0.71202642  0.57849428  0.44483526  1
  O  O20  1  0.20279046  0.17635203  0.73887317  1
  O  O21  1  0.79720954  0.82364797  0.26112683  1
  O  O22  1  0.70279046  0.32364797  0.76112683  1
  O  O23  1  0.29720954  0.67635203  0.23887317  1
  O  O24  1  0.34522247  0.69037999  0.65710193  1
  O  O25  1  0.65477753  0.30962001  0.34289807  1
  O  O26  1  0.84522247  0.80962001  0.84289807  1
  O  O27  1  0.15477753  0.19037999  0.15710193  1
  O  O28  1  0.35639883  0.06062909  0.95510680  1
  O  O29  1  0.64360117  0.93937091  0.04489320  1
  O  O30  1  0.85639883  0.43937091  0.54489320  1
  O  O31  1  0.14360117  0.56062909  0.45510680  1
  O  O32  1  0.06736992  0.89070469  0.65889312  1
  O  O33  1  0.93263008  0.10929531  0.34110688  1
  O  O34  1  0.56736992  0.60929531  0.84110688  1
  O  O35  1  0.43263008  0.39070469  0.15889312  1
  O  O36  1  0.25009346  0.43992649  0.93862345  1
  O  O37  1  0.74990654  0.56007351  0.06137655  1
  O  O38  1  0.75009346  0.06007351  0.56137655  1
  O  O39  1  0.24990654  0.93992649  0.43862345  1
  O  O40  1  0.02380240  0.31430110  0.96384685  1
  O  O41  1  -0.02380240  0.68569890  0.03615315  1
  O  O42  1  0.52380240  0.18569890  0.53615315  1
  O  O43  1  0.47619760  0.81430110  0.46384685  1
  O  O44  1  0.03003480  0.36588892  0.74765289  1
  O  O45  1  0.96996520  0.63411108  0.25234711  1
  O  O46  1  0.53003480  0.13411108  0.75234711  1
  O  O47  1  0.46996520  0.86588892  0.24765289  1
  O  O48  1  0.59547785  0.88141602  0.77535265  1
  O  O49  1  0.40452215  0.11858398  0.22464735  1
  O  O50  1  0.09547785  0.61858398  0.72464735  1
  O  O51  1  0.90452215  0.38141602  0.27535265  1
