# generated using pymatgen
data_PuSn2
_symmetry_space_group_name_H-M   'P 1'
_cell_length_a   4.62762137
_cell_length_b   4.62762137
_cell_length_c   14.79778038
_cell_angle_alpha   98.99579502
_cell_angle_beta   98.99579502
_cell_angle_gamma   90.00000000
_symmetry_Int_Tables_number   1
_chemical_formula_structural   PuSn2
_chemical_formula_sum   'Pu4 Sn8'
_cell_volume   309.04785227
_cell_formula_units_Z   4
loop_
 _symmetry_equiv_pos_site_id
 _symmetry_equiv_pos_as_xyz
  1  'x, y, z'
loop_
 _atom_site_type_symbol
 _atom_site_label
 _atom_site_symmetry_multiplicity
 _atom_site_fract_x
 _atom_site_fract_y
 _atom_site_fract_z
 _atom_site_occupancy
  Pu  Pu0  1  0.32672255  0.82672255  0.65344510  1
  Pu  Pu1  1  0.92327745  0.92327745  0.84655490  1
  Pu  Pu2  1  0.17327745  0.67327745  0.34655490  1
  Pu  Pu3  1  0.07672255  0.07672255  0.15344510  1
  Sn  Sn4  1  0.50078748  0.00078748  0.00157496  1
  Sn  Sn5  1  0.74921252  0.74921252  0.49842504  1
  Sn  Sn6  1  0.99921252  0.49921252  0.99842504  1
  Sn  Sn7  1  0.25078748  0.25078748  0.50157496  1
  Sn  Sn8  1  0.66286543  0.16286543  0.32573086  1
  Sn  Sn9  1  0.58713457  0.58713457  0.17426914  1
  Sn  Sn10  1  0.83713457  0.33713457  0.67426914  1
  Sn  Sn11  1  0.41286543  0.41286543  0.82573086  1
