# generated using pymatgen
data_HfP2
_symmetry_space_group_name_H-M   'P 1'
_cell_length_a   3.50932221
_cell_length_b   6.46013141
_cell_length_c   8.68729814
_cell_angle_alpha   90.00000000
_cell_angle_beta   90.00000000
_cell_angle_gamma   90.00000000
_symmetry_Int_Tables_number   1
_chemical_formula_structural   HfP2
_chemical_formula_sum   'Hf4 P8'
_cell_volume   196.94697910
_cell_formula_units_Z   4
loop_
 _symmetry_equiv_pos_site_id
 _symmetry_equiv_pos_as_xyz
  1  'x, y, z'
loop_
 _atom_site_type_symbol
 _atom_site_label
 _atom_site_symmetry_multiplicity
 _atom_site_fract_x
 _atom_site_fract_y
 _atom_site_fract_z
 _atom_site_occupancy
  Hf  Hf0  1  0.75000000  0.22291997  0.66421212  1
  Hf  Hf1  1  0.75000000  0.72291997  0.83578788  1
  Hf  Hf2  1  0.25000000  0.77708003  0.33578788  1
  Hf  Hf3  1  0.25000000  0.27708003  0.16421212  1
  P  P4  1  0.75000000  0.61069967  0.53937930  1
  P  P5  1  0.75000000  0.11069967  0.96062070  1
  P  P6  1  0.25000000  0.38930033  0.46062070  1
  P  P7  1  0.25000000  0.88930033  0.03937930  1
  P  P8  1  0.75000000  0.59279069  0.14245787  1
  P  P9  1  0.75000000  0.09279069  0.35754213  1
  P  P10  1  0.25000000  0.40720931  0.85754213  1
  P  P11  1  0.25000000  0.90720931  0.64245787  1
