# generated using pymatgen
data_HgPt2Se3
_symmetry_space_group_name_H-M   'P 1'
_cell_length_a   5.50448891
_cell_length_b   7.55642145
_cell_length_c   7.55534448
_cell_angle_alpha   119.99528654
_cell_angle_beta   90.00000001
_cell_angle_gamma   90.00839986
_symmetry_Int_Tables_number   1
_chemical_formula_structural   HgPt2Se3
_chemical_formula_sum   'Hg2 Pt4 Se6'
_cell_volume   272.16902298
_cell_formula_units_Z   2
loop_
 _symmetry_equiv_pos_site_id
 _symmetry_equiv_pos_as_xyz
  1  'x, y, z'
loop_
 _atom_site_type_symbol
 _atom_site_label
 _atom_site_symmetry_multiplicity
 _atom_site_fract_x
 _atom_site_fract_y
 _atom_site_fract_z
 _atom_site_occupancy
  Hg  Hg0  1  0.34562598  0.33327636  0.66663818  1
  Hg  Hg1  1  0.65437402  0.66672364  0.33336182  1
  Pt  Pt2  1  0.00000000  -0.00000000  0.00000000  1
  Pt  Pt3  1  0.00000000  0.50000000  0.50000000  1
  Pt  Pt4  1  0.00000000  0.50000000  0.00000000  1
  Pt  Pt5  1  0.00000000  -0.00000000  0.50000000  1
  Se  Se6  1  0.22834989  0.34266133  0.17133066  1
  Se  Se7  1  0.22835541  0.82863763  0.17137046  1
  Se  Se8  1  0.22835541  0.82863763  0.65726717  1
  Se  Se9  1  0.77165011  0.65733867  0.82866934  1
  Se  Se10  1  0.77164459  0.17136237  0.82862954  1
  Se  Se11  1  0.77164459  0.17136237  0.34273283  1
