# generated using pymatgen
data_NbPRh
_symmetry_space_group_name_H-M   'P 1'
_cell_length_a   3.79260639
_cell_length_b   6.36870914
_cell_length_c   7.22188959
_cell_angle_alpha   90.00000000
_cell_angle_beta   90.00000000
_cell_angle_gamma   90.00000000
_symmetry_Int_Tables_number   1
_chemical_formula_structural   NbPRh
_chemical_formula_sum   'Nb4 P4 Rh4'
_cell_volume   174.43757157
_cell_formula_units_Z   4
loop_
 _symmetry_equiv_pos_site_id
 _symmetry_equiv_pos_as_xyz
  1  'x, y, z'
loop_
 _atom_site_type_symbol
 _atom_site_label
 _atom_site_symmetry_multiplicity
 _atom_site_fract_x
 _atom_site_fract_y
 _atom_site_fract_z
 _atom_site_occupancy
  Nb  Nb0  1  0.75000000  0.46986432  0.66768574  1
  Nb  Nb1  1  0.75000000  0.96986432  0.83231426  1
  Nb  Nb2  1  0.25000000  0.53013568  0.33231426  1
  Nb  Nb3  1  0.25000000  0.03013568  0.16768574  1
  P  P4  1  0.75000000  0.73539874  0.12501812  1
  P  P5  1  0.75000000  0.23539874  0.37498188  1
  P  P6  1  0.25000000  0.26460126  0.87498188  1
  P  P7  1  0.25000000  0.76460126  0.62501812  1
  Rh  Rh8  1  0.75000000  0.35109272  0.06185316  1
  Rh  Rh9  1  0.75000000  0.85109272  0.43814684  1
  Rh  Rh10  1  0.25000000  0.64890728  0.93814684  1
  Rh  Rh11  1  0.25000000  0.14890728  0.56185316  1
