# generated using pymatgen
data_BaGaGe
_symmetry_space_group_name_H-M   'P 1'
_cell_length_a   4.40105084
_cell_length_b   4.40105084
_cell_length_c   20.47163660
_cell_angle_alpha   90.00000000
_cell_angle_beta   90.00000000
_cell_angle_gamma   119.98919367
_symmetry_Int_Tables_number   1
_chemical_formula_structural   BaGaGe
_chemical_formula_sum   'Ba4 Ga4 Ge4'
_cell_volume   343.43396789
_cell_formula_units_Z   4
loop_
 _symmetry_equiv_pos_site_id
 _symmetry_equiv_pos_as_xyz
  1  'x, y, z'
loop_
 _atom_site_type_symbol
 _atom_site_label
 _atom_site_symmetry_multiplicity
 _atom_site_fract_x
 _atom_site_fract_y
 _atom_site_fract_z
 _atom_site_occupancy
  Ba  Ba0  1  0.00000000  0.00000000  0.50000000  1
  Ba  Ba1  1  0.00000000  0.00000000  -0.00000000  1
  Ba  Ba2  1  0.00000685  0.99999315  0.75000000  1
  Ba  Ba3  1  0.99999315  0.00000685  0.25000000  1
  Ga  Ga4  1  0.66666007  0.33333993  0.63499933  1
  Ga  Ga5  1  0.33333993  0.66666007  0.36500067  1
  Ga  Ga6  1  0.33333993  0.66666007  0.13499933  1
  Ga  Ga7  1  0.66666007  0.33333993  0.86500067  1
  Ge  Ge8  1  0.66665925  0.33334075  0.11628084  1
  Ge  Ge9  1  0.33334075  0.66665925  0.88371916  1
  Ge  Ge10  1  0.33334075  0.66665925  0.61628084  1
  Ge  Ge11  1  0.66665925  0.33334075  0.38371916  1
