# generated using pymatgen
data_FePS
_symmetry_space_group_name_H-M   'P 1'
_cell_length_a   5.51968219
_cell_length_b   5.55182794
_cell_length_c   5.59021823
_cell_angle_alpha   111.51219954
_cell_angle_beta   90.00000000
_cell_angle_gamma   90.00000000
_symmetry_Int_Tables_number   1
_chemical_formula_structural   FePS
_chemical_formula_sum   'Fe4 P4 S4'
_cell_volume   159.37503721
_cell_formula_units_Z   4
loop_
 _symmetry_equiv_pos_site_id
 _symmetry_equiv_pos_as_xyz
  1  'x, y, z'
loop_
 _atom_site_type_symbol
 _atom_site_label
 _atom_site_symmetry_multiplicity
 _atom_site_fract_x
 _atom_site_fract_y
 _atom_site_fract_z
 _atom_site_occupancy
  Fe  Fe0  1  0.49976760  0.72363681  0.20944806  1
  Fe  Fe1  1  0.99976760  0.27636319  0.29055194  1
  Fe  Fe2  1  0.50023240  0.27636319  0.79055194  1
  Fe  Fe3  1  0.00023240  0.72363681  0.70944806  1
  P  P4  1  0.12670227  0.85280651  0.13000861  1
  P  P5  1  0.62670227  0.14719349  0.36999139  1
  P  P6  1  0.87329773  0.14719349  0.86999139  1
  P  P7  1  0.37329773  0.85280651  0.63000861  1
  S  S8  1  0.87166616  0.66048578  0.31881631  1
  S  S9  1  0.37166616  0.33951422  0.18118369  1
  S  S10  1  0.12833384  0.33951422  0.68118369  1
  S  S11  1  0.62833384  0.66048578  0.81881631  1
