# generated using pymatgen
data_LiNiPO4
_symmetry_space_group_name_H-M   'P 1'
_cell_length_a   7.55336348
_cell_length_b   7.55457720
_cell_length_c   9.60789705
_cell_angle_alpha   89.99604404
_cell_angle_beta   90.00198073
_cell_angle_gamma   120.00531049
_symmetry_Int_Tables_number   1
_chemical_formula_structural   LiNiPO4
_chemical_formula_sum   'Li6 Ni6 P6 O24'
_cell_volume   474.77328823
_cell_formula_units_Z   6
loop_
 _symmetry_equiv_pos_site_id
 _symmetry_equiv_pos_as_xyz
  1  'x, y, z'
loop_
 _atom_site_type_symbol
 _atom_site_label
 _atom_site_symmetry_multiplicity
 _atom_site_fract_x
 _atom_site_fract_y
 _atom_site_fract_z
 _atom_site_occupancy
  Li  Li0  1  0.06901000  0.59207652  0.47941783  1
  Li  Li1  1  0.52301126  0.93096127  0.47940592  1
  Li  Li2  1  0.40797968  0.47689665  0.47945308  1
  Li  Li3  1  0.47698874  0.40795001  0.97940592  1
  Li  Li4  1  0.59202032  0.06891597  0.97945308  1
  Li  Li5  1  0.93099000  0.52306551  0.97941783  1
  Ni  Ni6  1  0.23388444  0.97666714  0.25780736  1
  Ni  Ni7  1  0.02324460  0.25709238  0.25777106  1
  Ni  Ni8  1  0.25720246  0.02332774  0.75777978  1
  Ni  Ni9  1  0.74279754  0.76612528  0.25777978  1
  Ni  Ni10  1  0.76611556  0.74278269  0.75780736  1
  Ni  Ni11  1  0.97675540  0.23384778  0.75777106  1
  P  P12  1  0.33328406  0.66664776  0.19541359  1
  P  P13  1  0.00000568  0.00001465  0.99098133  1
  P  P14  1  -0.00000568  0.00000797  0.49098133  1
  P  P15  1  0.33332402  0.66667643  0.78155193  1
  P  P16  1  0.66671594  0.33336470  0.69541359  1
  P  P17  1  0.66667598  0.33335241  0.28155193  1
  O  O18  1  0.08747362  0.86609629  0.43894695  1
  O  O19  1  0.20151871  0.75725888  0.13893438  1
  O  O20  1  0.37646795  0.87654922  0.83993708  1
  O  O21  1  0.12338930  0.49991243  0.83989950  1
  O  O22  1  0.24264063  0.44430264  0.13892328  1
  O  O23  1  0.33333283  0.66666824  0.35530542  1
  O  O24  1  0.99999342  0.99998419  0.15743972  1
  O  O25  1  0.00000658  0.99999076  0.65743972  1
  O  O26  1  0.33336344  0.66671355  0.62148073  1
  O  O27  1  0.13392161  0.22140431  0.43895246  1
  O  O28  1  0.22142501  0.13394442  0.93894436  1
  O  O29  1  0.55566651  0.79840309  0.13889475  1
  O  O30  1  0.50007744  0.62351106  0.83992750  1
  O  O31  1  0.77857499  0.91251941  0.43894436  1
  O  O32  1  0.44433349  0.24273658  0.63889475  1
  O  O33  1  0.49992256  0.12343463  0.33992750  1
  O  O34  1  0.62353205  0.50008126  0.33993708  1
  O  O35  1  0.79848129  0.55574017  0.63893438  1
  O  O36  1  0.66666717  0.33333541  0.85530542  1
  O  O37  1  0.66663656  0.33335111  0.12148073  1
  O  O38  1  0.91252638  0.77862367  0.93894795  1
  O  O39  1  0.75735937  0.20166200  0.63892328  1
  O  O40  1  0.87661070  0.37652313  0.33989950  1
  O  O41  1  0.86607839  0.08748370  0.93895246  1
