# generated using pymatgen
data_Nd2Au
_symmetry_space_group_name_H-M   'P 1'
_cell_length_a   5.07869066
_cell_length_b   7.33022761
_cell_length_c   9.35631629
_cell_angle_alpha   90.00000000
_cell_angle_beta   90.00000000
_cell_angle_gamma   90.00000000
_symmetry_Int_Tables_number   1
_chemical_formula_structural   Nd2Au
_chemical_formula_sum   'Nd8 Au4'
_cell_volume   348.31655454
_cell_formula_units_Z   4
loop_
 _symmetry_equiv_pos_site_id
 _symmetry_equiv_pos_as_xyz
  1  'x, y, z'
loop_
 _atom_site_type_symbol
 _atom_site_label
 _atom_site_symmetry_multiplicity
 _atom_site_fract_x
 _atom_site_fract_y
 _atom_site_fract_z
 _atom_site_occupancy
  Nd  Nd0  1  0.75000000  0.65129737  0.58533597  1
  Nd  Nd1  1  0.75000000  0.15129737  0.91466403  1
  Nd  Nd2  1  0.25000000  0.34870263  0.41466403  1
  Nd  Nd3  1  0.25000000  0.84870263  0.08533597  1
  Nd  Nd4  1  0.75000000  0.00758593  0.32427914  1
  Nd  Nd5  1  0.75000000  0.50758593  0.17572086  1
  Nd  Nd6  1  0.25000000  0.99241407  0.67572086  1
  Nd  Nd7  1  0.25000000  0.49241407  0.82427914  1
  Au  Au8  1  0.75000000  0.24289668  0.59652472  1
  Au  Au9  1  0.75000000  0.74289668  0.90347528  1
  Au  Au10  1  0.25000000  0.75710332  0.40347528  1
  Au  Au11  1  0.25000000  0.25710332  0.09652472  1
