# generated using pymatgen
data_CaNi3
_symmetry_space_group_name_H-M   'P 1'
_cell_length_a   4.97714000
_cell_length_b   4.97714000
_cell_length_c   8.49766410
_cell_angle_alpha   72.97113603
_cell_angle_beta   72.97113603
_cell_angle_gamma   59.99999812
_symmetry_Int_Tables_number   1
_chemical_formula_structural   CaNi3
_chemical_formula_sum   'Ca3 Ni9'
_cell_volume   171.56186403
_cell_formula_units_Z   3
loop_
 _symmetry_equiv_pos_site_id
 _symmetry_equiv_pos_as_xyz
  1  'x, y, z'
loop_
 _atom_site_type_symbol
 _atom_site_label
 _atom_site_symmetry_multiplicity
 _atom_site_fract_x
 _atom_site_fract_y
 _atom_site_fract_z
 _atom_site_occupancy
  Ca  Ca0  1  0.14030543  0.14030543  0.57908371  1
  Ca  Ca1  1  0.85969457  0.85969457  0.42091629  1
  Ca  Ca2  1  0.00000000  -0.00000000  0.00000000  1
  Ni  Ni3  1  0.08265462  0.58019952  0.75694633  1
  Ni  Ni4  1  0.58019952  0.58019952  0.75694633  1
  Ni  Ni5  1  0.58019952  0.08265462  0.75694633  1
  Ni  Ni6  1  0.91734538  0.41980048  0.24305367  1
  Ni  Ni7  1  0.41980048  0.41980048  0.24305367  1
  Ni  Ni8  1  0.41980048  0.91734538  0.24305367  1
  Ni  Ni9  1  0.33253337  0.33253337  0.00239988  1
  Ni  Ni10  1  0.66746663  0.66746663  0.99760012  1
  Ni  Ni11  1  0.50000000  0.50000000  0.50000000  1
