# generated using pymatgen
data_ScSiPd
_symmetry_space_group_name_H-M   'P 1'
_cell_length_a   4.09824790
_cell_length_b   6.59283692
_cell_length_c   7.48080985
_cell_angle_alpha   90.00000000
_cell_angle_beta   90.00000000
_cell_angle_gamma   90.00000000
_symmetry_Int_Tables_number   1
_chemical_formula_structural   ScSiPd
_chemical_formula_sum   'Sc4 Si4 Pd4'
_cell_volume   202.12460027
_cell_formula_units_Z   4
loop_
 _symmetry_equiv_pos_site_id
 _symmetry_equiv_pos_as_xyz
  1  'x, y, z'
loop_
 _atom_site_type_symbol
 _atom_site_label
 _atom_site_symmetry_multiplicity
 _atom_site_fract_x
 _atom_site_fract_y
 _atom_site_fract_z
 _atom_site_occupancy
  Sc  Sc0  1  0.75000000  0.49075122  0.19346019  1
  Sc  Sc1  1  0.75000000  0.99075122  0.30653981  1
  Sc  Sc2  1  0.25000000  0.50924878  0.80653981  1
  Sc  Sc3  1  0.25000000  0.00924878  0.69346019  1
  Si  Si4  1  0.75000000  0.21799441  0.89217590  1
  Si  Si5  1  0.75000000  0.71799441  0.60782410  1
  Si  Si6  1  0.25000000  0.78200559  0.10782410  1
  Si  Si7  1  0.25000000  0.28200559  0.39217590  1
  Pd  Pd8  1  0.75000000  0.32814828  0.57215681  1
  Pd  Pd9  1  0.75000000  0.82814828  0.92784319  1
  Pd  Pd10  1  0.25000000  0.67185172  0.42784319  1
  Pd  Pd11  1  0.25000000  0.17185172  0.07215681  1
