# generated using pymatgen
data_TmFe4B
_symmetry_space_group_name_H-M   'P 1'
_cell_length_a   5.03323972
_cell_length_b   5.03076599
_cell_length_c   7.02387461
_cell_angle_alpha   90.00000000
_cell_angle_beta   90.00000000
_cell_angle_gamma   120.01626348
_symmetry_Int_Tables_number   1
_chemical_formula_structural   TmFe4B
_chemical_formula_sum   'Tm2 Fe8 B2'
_cell_volume   153.99900581
_cell_formula_units_Z   2
loop_
 _symmetry_equiv_pos_site_id
 _symmetry_equiv_pos_as_xyz
  1  'x, y, z'
loop_
 _atom_site_type_symbol
 _atom_site_label
 _atom_site_symmetry_multiplicity
 _atom_site_fract_x
 _atom_site_fract_y
 _atom_site_fract_z
 _atom_site_occupancy
  Tm  Tm0  1  0.99997609  0.00000000  0.00000000  1
  Tm  Tm1  1  0.99998843  1.00000000  0.50000000  1
  Fe  Fe2  1  0.33324699  0.66653836  0.00000000  1
  Fe  Fe3  1  0.66670862  0.33346164  -0.00000000  1
  Fe  Fe4  1  0.49998490  0.00000000  0.28607338  1
  Fe  Fe5  1  0.49998468  0.50000101  0.28602155  1
  Fe  Fe6  1  0.99998368  0.49999899  0.28602155  1
  Fe  Fe7  1  0.49998490  0.00000000  0.71392662  1
  Fe  Fe8  1  0.49998468  0.50000101  0.71397845  1
  Fe  Fe9  1  0.99998368  0.49999899  0.71397845  1
  B  B10  1  0.33342584  0.66687833  0.50000000  1
  B  B11  1  0.66654750  0.33312167  0.50000000  1
