# generated using pymatgen
data_NiP2(H8O5)2
_symmetry_space_group_name_H-M   'P 1'
_cell_length_a   7.26666881
_cell_length_b   7.26666881
_cell_length_c   10.41016147
_cell_angle_alpha   88.21788147
_cell_angle_beta   91.78211853
_cell_angle_gamma   89.94145066
_symmetry_Int_Tables_number   1
_chemical_formula_structural   NiP2(H8O5)2
_chemical_formula_sum   'Ni2 P4 H32 O20'
_cell_volume   549.17039122
_cell_formula_units_Z   2
loop_
 _symmetry_equiv_pos_site_id
 _symmetry_equiv_pos_as_xyz
  1  'x, y, z'
loop_
 _atom_site_type_symbol
 _atom_site_label
 _atom_site_symmetry_multiplicity
 _atom_site_fract_x
 _atom_site_fract_y
 _atom_site_fract_z
 _atom_site_occupancy
  Ni  Ni0  1  0.73416967  0.73416967  0.75000000  1
  Ni  Ni1  1  0.26583033  0.26583033  0.25000000  1
  P  P2  1  0.22097752  0.74952635  0.50980483  1
  P  P3  1  0.25047365  0.77902248  0.00980483  1
  P  P4  1  0.74952635  0.22097752  0.99019517  1
  P  P5  1  0.77902248  0.25047365  0.49019517  1
  H  H6  1  0.04504866  0.93443125  0.69623438  1
  H  H7  1  0.06556875  0.95495134  0.19623438  1
  H  H8  1  0.24915799  0.94625658  0.93674539  1
  H  H9  1  0.05374342  0.75084201  0.43674539  1
  H  H10  1  0.04846540  0.54048588  0.69529244  1
  H  H11  1  0.42668900  0.93841677  0.69367648  1
  H  H12  1  0.45951412  0.95153460  0.19529244  1
  H  H13  1  0.06158323  0.57331100  0.19367648  1
  H  H14  1  0.24255785  0.64107575  0.91727448  1
  H  H15  1  0.35892425  0.75744215  0.41727448  1
  H  H16  1  0.63844937  0.73255734  0.99629440  1
  H  H17  1  0.42484375  0.54104953  0.69285474  1
  H  H18  1  0.73967573  0.86123999  0.50514351  1
  H  H19  1  0.26744266  0.36155063  0.49629440  1
  H  H20  1  0.45895047  0.57515625  0.19285474  1
  H  H21  1  0.13876001  0.26032427  0.00514351  1
  H  H22  1  0.86123999  0.73967573  0.99485649  1
  H  H23  1  0.54104953  0.42484375  0.80714526  1
  H  H24  1  0.73255734  0.63844937  0.50370560  1
  H  H25  1  0.26032427  0.13876001  0.49485649  1
  H  H26  1  0.57515625  0.45895047  0.30714526  1
  H  H27  1  0.36155063  0.26744266  0.00370560  1
  H  H28  1  0.64107575  0.24255785  0.58272552  1
  H  H29  1  0.75744215  0.35892425  0.08272552  1
  H  H30  1  0.93841677  0.42668900  0.80632352  1
  H  H31  1  0.54048588  0.04846540  0.80470756  1
  H  H32  1  0.57331100  0.06158323  0.30632352  1
  H  H33  1  0.95153460  0.45951412  0.30470756  1
  H  H34  1  0.94625658  0.24915799  0.56325461  1
  H  H35  1  0.75084201  0.05374342  0.06325461  1
  H  H36  1  0.93443125  0.04504866  0.80376562  1
  H  H37  1  0.95495134  0.06556875  0.30376562  1
  O  O38  1  0.22980263  0.92463484  0.58865472  1
  O  O39  1  0.07536516  0.77019737  0.08865472  1
  O  O40  1  0.53062286  0.93273046  0.75763590  1
  O  O41  1  0.06726954  0.46937714  0.25763590  1
  O  O42  1  0.23506749  0.56614012  0.58698353  1
  O  O43  1  0.43385988  0.76493251  0.08698353  1
  O  O44  1  0.70208816  0.74831241  0.55278265  1
  O  O45  1  0.53617859  0.53617859  0.75000000  1
  O  O46  1  0.93488103  0.93488103  0.75000000  1
  O  O47  1  0.25168759  0.29791184  0.05278265  1
  O  O48  1  0.74831241  0.70208816  0.94721735  1
  O  O49  1  0.06511897  0.06511897  0.25000000  1
  O  O50  1  0.46382141  0.46382141  0.25000000  1
  O  O51  1  0.29791184  0.25168759  0.44721735  1
  O  O52  1  0.56614012  0.23506749  0.91301647  1
  O  O53  1  0.76493251  0.43385988  0.41301647  1
  O  O54  1  0.93273046  0.53062286  0.74236410  1
  O  O55  1  0.46937714  0.06726954  0.24236410  1
  O  O56  1  0.92463484  0.22980263  0.91134528  1
  O  O57  1  0.77019737  0.07536516  0.41134528  1
