# generated using pymatgen
data_ScGaPt
_symmetry_space_group_name_H-M   'P 1'
_cell_length_a   4.34670899
_cell_length_b   6.50739647
_cell_length_c   7.53189465
_cell_angle_alpha   90.00000000
_cell_angle_beta   90.00000000
_cell_angle_gamma   90.00000000
_symmetry_Int_Tables_number   1
_chemical_formula_structural   ScGaPt
_chemical_formula_sum   'Sc4 Ga4 Pt4'
_cell_volume   213.04535491
_cell_formula_units_Z   4
loop_
 _symmetry_equiv_pos_site_id
 _symmetry_equiv_pos_as_xyz
  1  'x, y, z'
loop_
 _atom_site_type_symbol
 _atom_site_label
 _atom_site_symmetry_multiplicity
 _atom_site_fract_x
 _atom_site_fract_y
 _atom_site_fract_z
 _atom_site_occupancy
  Sc  Sc0  1  0.75000000  0.47700451  0.18718383  1
  Sc  Sc1  1  0.75000000  0.97700451  0.31281617  1
  Sc  Sc2  1  0.25000000  0.52299549  0.81281617  1
  Sc  Sc3  1  0.25000000  0.02299549  0.68718383  1
  Ga  Ga4  1  0.75000000  0.33937540  0.56324362  1
  Ga  Ga5  1  0.75000000  0.83937540  0.93675638  1
  Ga  Ga6  1  0.25000000  0.66062460  0.43675638  1
  Ga  Ga7  1  0.25000000  0.16062460  0.06324362  1
  Pt  Pt8  1  0.75000000  0.23781448  0.88832390  1
  Pt  Pt9  1  0.75000000  0.73781448  0.61167610  1
  Pt  Pt10  1  0.25000000  0.76218552  0.11167610  1
  Pt  Pt11  1  0.25000000  0.26218552  0.38832390  1
