# generated using pymatgen
data_SrCdPt
_symmetry_space_group_name_H-M   'P 1'
_cell_length_a   4.56130554
_cell_length_b   7.59582939
_cell_length_c   8.71319766
_cell_angle_alpha   90.00000000
_cell_angle_beta   90.00000000
_cell_angle_gamma   90.00000000
_symmetry_Int_Tables_number   1
_chemical_formula_structural   SrCdPt
_chemical_formula_sum   'Sr4 Cd4 Pt4'
_cell_volume   301.88527648
_cell_formula_units_Z   4
loop_
 _symmetry_equiv_pos_site_id
 _symmetry_equiv_pos_as_xyz
  1  'x, y, z'
loop_
 _atom_site_type_symbol
 _atom_site_label
 _atom_site_symmetry_multiplicity
 _atom_site_fract_x
 _atom_site_fract_y
 _atom_site_fract_z
 _atom_site_occupancy
  Sr  Sr0  1  0.75000000  0.47022872  0.18049240  1
  Sr  Sr1  1  0.75000000  0.97022872  0.31950760  1
  Sr  Sr2  1  0.25000000  0.52977128  0.81950760  1
  Sr  Sr3  1  0.25000000  0.02977128  0.68049240  1
  Cd  Cd4  1  0.75000000  0.35503332  0.56561032  1
  Cd  Cd5  1  0.75000000  0.85503332  0.93438968  1
  Cd  Cd6  1  0.25000000  0.64496668  0.43438968  1
  Cd  Cd7  1  0.25000000  0.14496668  0.06561032  1
  Pt  Pt8  1  0.75000000  0.23035122  0.87701914  1
  Pt  Pt9  1  0.75000000  0.73035122  0.62298086  1
  Pt  Pt10  1  0.25000000  0.76964878  0.12298086  1
  Pt  Pt11  1  0.25000000  0.26964878  0.37701914  1
