# generated using pymatgen
data_YFe3
_symmetry_space_group_name_H-M   'P 1'
_cell_length_a   5.14693485
_cell_length_b   5.14693485
_cell_length_c   8.63263340
_cell_angle_alpha   72.65592624
_cell_angle_beta   72.65592624
_cell_angle_gamma   60.00000909
_symmetry_Int_Tables_number   1
_chemical_formula_structural   YFe3
_chemical_formula_sum   'Y3 Fe9'
_cell_volume   185.94495654
_cell_formula_units_Z   3
loop_
 _symmetry_equiv_pos_site_id
 _symmetry_equiv_pos_as_xyz
  1  'x, y, z'
loop_
 _atom_site_type_symbol
 _atom_site_label
 _atom_site_symmetry_multiplicity
 _atom_site_fract_x
 _atom_site_fract_y
 _atom_site_fract_z
 _atom_site_occupancy
  Y  Y0  1  0.14198032  0.14198032  0.57405904  1
  Y  Y1  1  0.85801968  0.85801968  0.42594096  1
  Y  Y2  1  -0.00000000  0.00000000  -0.00000000  1
  Fe  Fe3  1  0.08231448  0.58024910  0.75718731  1
  Fe  Fe4  1  0.58024910  0.58024910  0.75718731  1
  Fe  Fe5  1  0.58024910  0.08231448  0.75718731  1
  Fe  Fe6  1  0.91768552  0.41975090  0.24281269  1
  Fe  Fe7  1  0.41975090  0.41975090  0.24281269  1
  Fe  Fe8  1  0.41975090  0.91768552  0.24281269  1
  Fe  Fe9  1  0.33259514  0.33259514  0.00221458  1
  Fe  Fe10  1  0.66740486  0.66740486  0.99778542  1
  Fe  Fe11  1  0.50000000  0.50000000  0.50000000  1
