# generated using pymatgen
data_MgNiGe
_symmetry_space_group_name_H-M   'P 1'
_cell_length_a   4.10650389
_cell_length_b   6.47975496
_cell_length_c   6.93888134
_cell_angle_alpha   90.00000000
_cell_angle_beta   90.00000000
_cell_angle_gamma   90.00000000
_symmetry_Int_Tables_number   1
_chemical_formula_structural   MgNiGe
_chemical_formula_sum   'Mg4 Ni4 Ge4'
_cell_volume   184.63765773
_cell_formula_units_Z   4
loop_
 _symmetry_equiv_pos_site_id
 _symmetry_equiv_pos_as_xyz
  1  'x, y, z'
loop_
 _atom_site_type_symbol
 _atom_site_label
 _atom_site_symmetry_multiplicity
 _atom_site_fract_x
 _atom_site_fract_y
 _atom_site_fract_z
 _atom_site_occupancy
  Mg  Mg0  1  0.75000000  0.49762790  0.18772126  1
  Mg  Mg1  1  0.75000000  0.99762790  0.31227874  1
  Mg  Mg2  1  0.25000000  0.50237210  0.81227874  1
  Mg  Mg3  1  0.25000000  0.00237210  0.68772126  1
  Ni  Ni4  1  0.75000000  0.15415206  0.94561799  1
  Ni  Ni5  1  0.75000000  0.65415206  0.55438201  1
  Ni  Ni6  1  0.25000000  0.84584794  0.05438201  1
  Ni  Ni7  1  0.25000000  0.34584794  0.44561799  1
  Ge  Ge8  1  0.75000000  0.28971302  0.61834299  1
  Ge  Ge9  1  0.75000000  0.78971302  0.88165701  1
  Ge  Ge10  1  0.25000000  0.71028698  0.38165701  1
  Ge  Ge11  1  0.25000000  0.21028698  0.11834299  1
