# generated using pymatgen
data_CeGaRh
_symmetry_space_group_name_H-M   'P 1'
_cell_length_a   4.64615769
_cell_length_b   7.42406341
_cell_length_c   6.91441119
_cell_angle_alpha   90.00000000
_cell_angle_beta   90.00000000
_cell_angle_gamma   90.00000000
_symmetry_Int_Tables_number   1
_chemical_formula_structural   CeGaRh
_chemical_formula_sum   'Ce4 Ga4 Rh4'
_cell_volume   238.50133869
_cell_formula_units_Z   4
loop_
 _symmetry_equiv_pos_site_id
 _symmetry_equiv_pos_as_xyz
  1  'x, y, z'
loop_
 _atom_site_type_symbol
 _atom_site_label
 _atom_site_symmetry_multiplicity
 _atom_site_fract_x
 _atom_site_fract_y
 _atom_site_fract_z
 _atom_site_occupancy
  Ce  Ce0  1  0.75000000  0.02906791  0.82402019  1
  Ce  Ce1  1  0.75000000  0.52906791  0.67597981  1
  Ce  Ce2  1  0.25000000  0.97093209  0.17597981  1
  Ce  Ce3  1  0.25000000  0.47093209  0.32402019  1
  Ga  Ga4  1  0.75000000  0.69256061  0.10929677  1
  Ga  Ga5  1  0.75000000  0.19256061  0.39070323  1
  Ga  Ga6  1  0.25000000  0.30743939  0.89070323  1
  Ga  Ga7  1  0.25000000  0.80743939  0.60929677  1
  Rh  Rh8  1  0.75000000  0.34807185  0.06113492  1
  Rh  Rh9  1  0.75000000  0.84807185  0.43886508  1
  Rh  Rh10  1  0.25000000  0.65192815  0.93886508  1
  Rh  Rh11  1  0.25000000  0.15192815  0.56113492  1
