# generated using pymatgen
data_DyNiGe
_symmetry_space_group_name_H-M   'P 1'
_cell_length_a   4.22515938
_cell_length_b   6.91572497
_cell_length_c   7.28816940
_cell_angle_alpha   90.00000000
_cell_angle_beta   90.00000000
_cell_angle_gamma   90.00000000
_symmetry_Int_Tables_number   1
_chemical_formula_structural   DyNiGe
_chemical_formula_sum   'Dy4 Ni4 Ge4'
_cell_volume   212.96060305
_cell_formula_units_Z   4
loop_
 _symmetry_equiv_pos_site_id
 _symmetry_equiv_pos_as_xyz
  1  'x, y, z'
loop_
 _atom_site_type_symbol
 _atom_site_label
 _atom_site_symmetry_multiplicity
 _atom_site_fract_x
 _atom_site_fract_y
 _atom_site_fract_z
 _atom_site_occupancy
  Dy  Dy0  1  0.75000000  0.50681112  0.20555689  1
  Dy  Dy1  1  0.75000000  0.00681112  0.29444311  1
  Dy  Dy2  1  0.25000000  0.49318888  0.79444311  1
  Dy  Dy3  1  0.25000000  0.99318888  0.70555689  1
  Ni  Ni4  1  0.75000000  0.30640556  0.58411634  1
  Ni  Ni5  1  0.75000000  0.80640556  0.91588366  1
  Ni  Ni6  1  0.25000000  0.69359444  0.41588366  1
  Ni  Ni7  1  0.25000000  0.19359444  0.08411634  1
  Ge  Ge8  1  0.75000000  0.19599627  0.91210338  1
  Ge  Ge9  1  0.75000000  0.69599627  0.58789662  1
  Ge  Ge10  1  0.25000000  0.80400373  0.08789662  1
  Ge  Ge11  1  0.25000000  0.30400373  0.41210338  1
