# generated using pymatgen
data_SmAlPd
_symmetry_space_group_name_H-M   'P 1'
_cell_length_a   4.53197845
_cell_length_b   7.01024861
_cell_length_c   7.90701826
_cell_angle_alpha   90.00000000
_cell_angle_beta   90.00000000
_cell_angle_gamma   90.00000000
_symmetry_Int_Tables_number   1
_chemical_formula_structural   SmAlPd
_chemical_formula_sum   'Sm4 Al4 Pd4'
_cell_volume   251.20830767
_cell_formula_units_Z   4
loop_
 _symmetry_equiv_pos_site_id
 _symmetry_equiv_pos_as_xyz
  1  'x, y, z'
loop_
 _atom_site_type_symbol
 _atom_site_label
 _atom_site_symmetry_multiplicity
 _atom_site_fract_x
 _atom_site_fract_y
 _atom_site_fract_z
 _atom_site_occupancy
  Sm  Sm0  1  0.75000000  0.46194019  0.17858693  1
  Sm  Sm1  1  0.75000000  0.96194019  0.32141307  1
  Sm  Sm2  1  0.25000000  0.53805981  0.82141307  1
  Sm  Sm3  1  0.25000000  0.03805981  0.67858693  1
  Al  Al4  1  0.75000000  0.35709981  0.56199735  1
  Al  Al5  1  0.75000000  0.85709981  0.93800265  1
  Al  Al6  1  0.25000000  0.64290019  0.43800265  1
  Al  Al7  1  0.25000000  0.14290019  0.06199735  1
  Pd  Pd8  1  0.75000000  0.22277109  0.88210447  1
  Pd  Pd9  1  0.75000000  0.72277109  0.61789553  1
  Pd  Pd10  1  0.25000000  0.77722891  0.11789553  1
  Pd  Pd11  1  0.25000000  0.27722891  0.38210447  1
