# generated using pymatgen
data_DyNi4B
_symmetry_space_group_name_H-M   'P 1'
_cell_length_a   4.98063214
_cell_length_b   4.99232070
_cell_length_c   6.95596355
_cell_angle_alpha   90.00000000
_cell_angle_beta   90.00000000
_cell_angle_gamma   119.92257623
_symmetry_Int_Tables_number   1
_chemical_formula_structural   DyNi4B
_chemical_formula_sum   'Dy2 Ni8 B2'
_cell_volume   149.90398161
_cell_formula_units_Z   2
loop_
 _symmetry_equiv_pos_site_id
 _symmetry_equiv_pos_as_xyz
  1  'x, y, z'
loop_
 _atom_site_type_symbol
 _atom_site_label
 _atom_site_symmetry_multiplicity
 _atom_site_fract_x
 _atom_site_fract_y
 _atom_site_fract_z
 _atom_site_occupancy
  Dy  Dy0  1  0.99998231  0.00000000  0.00000000  1
  Dy  Dy1  1  0.99998576  0.00000000  0.50000000  1
  Ni  Ni2  1  0.33330302  0.66665806  0.00000000  1
  Ni  Ni3  1  0.66664496  0.33334194  0.00000000  1
  Ni  Ni4  1  0.49997547  0.00000000  0.29291700  1
  Ni  Ni5  1  0.49998317  0.49999215  0.29263899  1
  Ni  Ni6  1  0.99999102  0.50000785  0.29263899  1
  Ni  Ni7  1  0.49997547  0.00000000  0.70708300  1
  Ni  Ni8  1  0.49998317  0.49999215  0.70736101  1
  Ni  Ni9  1  0.99999102  0.50000785  0.70736101  1
  B  B10  1  0.33333291  0.66668119  0.50000000  1
  B  B11  1  0.66665172  0.33331881  0.50000000  1
