# generated using pymatgen
data_YGeIr
_symmetry_space_group_name_H-M   'P 1'
_cell_length_a   4.30677863
_cell_length_b   6.87469724
_cell_length_c   7.68204706
_cell_angle_alpha   90.00000000
_cell_angle_beta   90.00000000
_cell_angle_gamma   90.00000000
_symmetry_Int_Tables_number   1
_chemical_formula_structural   YGeIr
_chemical_formula_sum   'Y4 Ge4 Ir4'
_cell_volume   227.44850650
_cell_formula_units_Z   4
loop_
 _symmetry_equiv_pos_site_id
 _symmetry_equiv_pos_as_xyz
  1  'x, y, z'
loop_
 _atom_site_type_symbol
 _atom_site_label
 _atom_site_symmetry_multiplicity
 _atom_site_fract_x
 _atom_site_fract_y
 _atom_site_fract_z
 _atom_site_occupancy
  Y  Y0  1  0.75000000  0.49269092  0.19080652  1
  Y  Y1  1  0.75000000  0.99269092  0.30919348  1
  Y  Y2  1  0.25000000  0.50730908  0.80919348  1
  Y  Y3  1  0.25000000  0.00730908  0.69080652  1
  Ge  Ge4  1  0.75000000  0.20869492  0.88791248  1
  Ge  Ge5  1  0.75000000  0.70869492  0.61208752  1
  Ge  Ge6  1  0.25000000  0.79130508  0.11208752  1
  Ge  Ge7  1  0.25000000  0.29130508  0.38791248  1
  Ir  Ir8  1  0.75000000  0.33982968  0.56390762  1
  Ir  Ir9  1  0.75000000  0.83982968  0.93609238  1
  Ir  Ir10  1  0.25000000  0.66017032  0.43609238  1
  Ir  Ir11  1  0.25000000  0.16017032  0.06390762  1
