# generated using pymatgen
data_HfCoGe
_symmetry_space_group_name_H-M   'P 1'
_cell_length_a   3.90794331
_cell_length_b   6.52739209
_cell_length_c   7.24325772
_cell_angle_alpha   90.00000000
_cell_angle_beta   90.00000000
_cell_angle_gamma   90.00000000
_symmetry_Int_Tables_number   1
_chemical_formula_structural   HfCoGe
_chemical_formula_sum   'Hf4 Co4 Ge4'
_cell_volume   184.76593066
_cell_formula_units_Z   4
loop_
 _symmetry_equiv_pos_site_id
 _symmetry_equiv_pos_as_xyz
  1  'x, y, z'
loop_
 _atom_site_type_symbol
 _atom_site_label
 _atom_site_symmetry_multiplicity
 _atom_site_fract_x
 _atom_site_fract_y
 _atom_site_fract_z
 _atom_site_occupancy
  Hf  Hf0  1  0.75000000  0.48864388  0.69837065  1
  Hf  Hf1  1  0.75000000  0.98864388  0.80162935  1
  Hf  Hf2  1  0.25000000  0.51135612  0.30162935  1
  Hf  Hf3  1  0.25000000  0.01135612  0.19837065  1
  Co  Co4  1  0.75000000  0.35889844  0.07061636  1
  Co  Co5  1  0.75000000  0.85889844  0.42938364  1
  Co  Co6  1  0.25000000  0.64110156  0.92938364  1
  Co  Co7  1  0.25000000  0.14110156  0.57061636  1
  Ge  Ge8  1  0.75000000  0.72787574  0.10650843  1
  Ge  Ge9  1  0.75000000  0.22787574  0.39349157  1
  Ge  Ge10  1  0.25000000  0.27212426  0.89349157  1
  Ge  Ge11  1  0.25000000  0.77212426  0.60650843  1
