# generated using pymatgen
data_HfFeSi
_symmetry_space_group_name_H-M   'P 1'
_cell_length_a   3.98172855
_cell_length_b   6.34715544
_cell_length_c   6.94226596
_cell_angle_alpha   90.00000000
_cell_angle_beta   90.00000000
_cell_angle_gamma   90.00000000
_symmetry_Int_Tables_number   1
_chemical_formula_structural   HfFeSi
_chemical_formula_sum   'Hf4 Fe4 Si4'
_cell_volume   175.44945800
_cell_formula_units_Z   4
loop_
 _symmetry_equiv_pos_site_id
 _symmetry_equiv_pos_as_xyz
  1  'x, y, z'
loop_
 _atom_site_type_symbol
 _atom_site_label
 _atom_site_symmetry_multiplicity
 _atom_site_fract_x
 _atom_site_fract_y
 _atom_site_fract_z
 _atom_site_occupancy
  Hf  Hf0  1  0.75000000  0.50594385  0.19904559  1
  Hf  Hf1  1  0.75000000  0.00594385  0.30095441  1
  Hf  Hf2  1  0.25000000  0.49405615  0.80095441  1
  Hf  Hf3  1  0.25000000  0.99405615  0.69904559  1
  Fe  Fe4  1  0.75000000  0.34299854  0.56106934  1
  Fe  Fe5  1  0.75000000  0.84299854  0.93893066  1
  Fe  Fe6  1  0.25000000  0.65700146  0.43893066  1
  Fe  Fe7  1  0.25000000  0.15700146  0.06106934  1
  Si  Si8  1  0.75000000  0.21013307  0.89298810  1
  Si  Si9  1  0.75000000  0.71013307  0.60701190  1
  Si  Si10  1  0.25000000  0.78986693  0.10701190  1
  Si  Si11  1  0.25000000  0.28986693  0.39298810  1
