# generated using pymatgen
data_LiCoSiO4
_symmetry_space_group_name_H-M   'P 1'
_cell_length_a   5.34021877
_cell_length_b   8.27583729
_cell_length_c   5.34021877
_cell_angle_alpha   98.54158988
_cell_angle_beta   53.70358790
_cell_angle_gamma   83.40962026
_symmetry_Int_Tables_number   1
_chemical_formula_structural   LiCoSiO4
_chemical_formula_sum   'Li2 Co2 Si2 O8'
_cell_volume   181.92142351
_cell_formula_units_Z   2
loop_
 _symmetry_equiv_pos_site_id
 _symmetry_equiv_pos_as_xyz
  1  'x, y, z'
loop_
 _atom_site_type_symbol
 _atom_site_label
 _atom_site_symmetry_multiplicity
 _atom_site_fract_x
 _atom_site_fract_y
 _atom_site_fract_z
 _atom_site_occupancy
  Li  Li0  1  0.70615517  0.13545202  0.64748742  1
  Li  Li1  1  0.01203540  0.63545202  0.84160718  1
  Co  Co2  1  0.35549735  0.49385615  0.99183836  1
  Co  Co3  1  0.99798221  0.99385615  0.84935350  1
  Si  Si4  1  0.36576653  0.25336781  0.41875151  1
  Si  Si5  1  0.66538470  0.75336781  0.61913333  1
  O  O6  1  0.37370205  0.30493857  0.12648133  1
  O  O7  1  0.70744334  0.11716814  0.27160614  1
  O  O8  1  0.08044215  0.15850486  0.61338653  1
  O  O9  1  0.32494694  0.42181246  0.65391619  1
  O  O10  1  0.32154176  0.80493857  0.67864062  1
  O  O11  1  0.65443800  0.61716814  0.82461148  1
  O  O12  1  0.95488167  0.65850486  0.23894701  1
  O  O13  1  0.73210373  0.92181246  0.74675940  1
