# generated using pymatgen
data_Ti3Co3(SbO8)2
_symmetry_space_group_name_H-M   'P 1'
_cell_length_a   5.79539091
_cell_length_b   5.84997527
_cell_length_c   9.32416805
_cell_angle_alpha   89.93965628
_cell_angle_beta   88.98210215
_cell_angle_gamma   120.28784163
_symmetry_Int_Tables_number   1
_chemical_formula_structural   Ti3Co3(SbO8)2
_chemical_formula_sum   'Ti3 Co3 Sb2 O16'
_cell_volume   272.90579412
_cell_formula_units_Z   1
loop_
 _symmetry_equiv_pos_site_id
 _symmetry_equiv_pos_as_xyz
  1  'x, y, z'
loop_
 _atom_site_type_symbol
 _atom_site_label
 _atom_site_symmetry_multiplicity
 _atom_site_fract_x
 _atom_site_fract_y
 _atom_site_fract_z
 _atom_site_occupancy
  Ti  Ti0  1  0.15798267  0.82633991  0.21370378  1
  Ti  Ti1  1  0.15903196  0.33148617  0.21373214  1
  Ti  Ti2  1  0.31440022  0.15182066  0.71122056  1
  Co  Co3  1  0.65156027  0.82505844  0.21106291  1
  Co  Co4  1  0.81989064  0.65450823  0.71453765  1
  Co  Co5  1  0.82762581  0.17175342  0.71181020  1
  Sb  Sb6  1  0.35103933  0.67200258  0.49088791  1
  Sb  Sb7  1  0.67469899  0.33499466  0.98508320  1
  O  O8  1  0.16989468  0.83633920  0.60022712  1
  O  O9  1  0.04177288  0.51992854  0.34400468  1
  O  O10  1  0.32537904  0.66249425  0.10422338  1
  O  O11  1  0.98861202  0.99377925  0.30882954  1
  O  O12  1  0.98151168  0.98729068  0.80894783  1
  O  O13  1  0.17245459  0.33415219  0.60146582  1
  O  O14  1  0.48741778  0.96161439  0.33763770  1
  O  O15  1  0.48838487  0.52356119  0.33713932  1
  O  O16  1  0.34352528  0.17188431  0.10474356  1
  O  O17  1  0.68433433  0.84328434  0.60150667  1
  O  O18  1  0.52446830  0.48992518  0.83680527  1
  O  O19  1  0.51951041  0.04093454  0.83719183  1
  O  O20  1  0.68112726  0.34950202  0.61238569  1
  O  O21  1  0.83459106  0.66497781  0.10062611  1
  O  O22  1  0.96521601  0.48406401  0.82753908  1
  O  O23  1  0.83556690  0.16850204  0.10041103  1
