# generated using pymatgen
data_SmGa4Ni
_symmetry_space_group_name_H-M   'P 1'
_cell_length_a   4.18250686
_cell_length_b   6.53712022
_cell_length_c   7.99346654
_cell_angle_alpha   90.00000000
_cell_angle_beta   105.16623194
_cell_angle_gamma   90.00000000
_symmetry_Int_Tables_number   1
_chemical_formula_structural   SmGa4Ni
_chemical_formula_sum   'Sm2 Ga8 Ni2'
_cell_volume   210.94172490
_cell_formula_units_Z   2
loop_
 _symmetry_equiv_pos_site_id
 _symmetry_equiv_pos_as_xyz
  1  'x, y, z'
loop_
 _atom_site_type_symbol
 _atom_site_label
 _atom_site_symmetry_multiplicity
 _atom_site_fract_x
 _atom_site_fract_y
 _atom_site_fract_z
 _atom_site_occupancy
  Sm  Sm0  1  0.88253971  0.75000000  0.76507943  1
  Sm  Sm1  1  0.11746029  0.25000000  0.23492057  1
  Ga  Ga2  1  0.50000000  0.50000000  -0.00000000  1
  Ga  Ga3  1  0.50000000  0.00000000  -0.00000000  1
  Ga  Ga4  1  0.07260330  0.75000000  0.14520661  1
  Ga  Ga5  1  0.92739670  0.25000000  0.85479339  1
  Ga  Ga6  1  0.68619476  0.55215054  0.37238953  1
  Ga  Ga7  1  0.31380524  0.44784946  0.62761047  1
  Ga  Ga8  1  0.68619476  0.94784946  0.37238953  1
  Ga  Ga9  1  0.31380524  0.05215054  0.62761047  1
  Ni  Ni10  1  0.22400820  0.75000000  0.44801641  1
  Ni  Ni11  1  0.77599180  0.25000000  0.55198359  1
