# generated using pymatgen
data_POsS
_symmetry_space_group_name_H-M   'P 1'
_cell_length_a   5.79868714
_cell_length_b   5.80383763
_cell_length_c   5.86902979
_cell_angle_alpha   90.00000000
_cell_angle_beta   110.74291869
_cell_angle_gamma   90.00000000
_symmetry_Int_Tables_number   1
_chemical_formula_structural   POsS
_chemical_formula_sum   'P4 Os4 S4'
_cell_volume   184.71662591
_cell_formula_units_Z   4
loop_
 _symmetry_equiv_pos_site_id
 _symmetry_equiv_pos_as_xyz
  1  'x, y, z'
loop_
 _atom_site_type_symbol
 _atom_site_label
 _atom_site_symmetry_multiplicity
 _atom_site_fract_x
 _atom_site_fract_y
 _atom_site_fract_z
 _atom_site_occupancy
  P  P0  1  0.14976945  0.87656879  0.87517604  1
  P  P1  1  0.85023055  0.37656879  0.62482396  1
  P  P2  1  0.85023055  0.12343121  0.12482396  1
  P  P3  1  0.14976945  0.62343121  0.37517604  1
  Os  Os4  1  0.27282127  0.50295065  0.79247394  1
  Os  Os5  1  0.72717873  0.00295065  0.70752606  1
  Os  Os6  1  0.72717873  0.49704935  0.20752606  1
  Os  Os7  1  0.27282127  0.99704935  0.29247394  1
  S  S8  1  0.33691586  0.12327090  0.69159777  1
  S  S9  1  0.66308414  0.62327090  0.80840223  1
  S  S10  1  0.66308414  0.87672910  0.30840223  1
  S  S11  1  0.33691586  0.37672910  0.19159777  1
