# generated using pymatgen
data_YSi2Rh3
_symmetry_space_group_name_H-M   'P 1'
_cell_length_a   5.55579461
_cell_length_b   6.62449175
_cell_length_c   6.62449175
_cell_angle_alpha   65.79071139
_cell_angle_beta   65.20723669
_cell_angle_gamma   65.20723669
_symmetry_Int_Tables_number   1
_chemical_formula_structural   YSi2Rh3
_chemical_formula_sum   'Y2 Si4 Rh6'
_cell_volume   192.65162573
_cell_formula_units_Z   2
loop_
 _symmetry_equiv_pos_site_id
 _symmetry_equiv_pos_as_xyz
  1  'x, y, z'
loop_
 _atom_site_type_symbol
 _atom_site_label
 _atom_site_symmetry_multiplicity
 _atom_site_fract_x
 _atom_site_fract_y
 _atom_site_fract_z
 _atom_site_occupancy
  Y  Y0  1  0.96048917  0.75000000  0.75000000  1
  Y  Y1  1  0.03951083  0.25000000  0.25000000  1
  Si  Si2  1  0.61669023  0.57895277  0.57895277  1
  Si  Si3  1  0.38330977  0.42104723  0.42104723  1
  Si  Si4  1  0.72540422  0.07895277  0.07895277  1
  Si  Si5  1  0.27459578  0.92104723  0.92104723  1
  Rh  Rh6  1  0.50000000  0.78524621  0.21475379  1
  Rh  Rh7  1  0.00000000  0.28524621  0.71475379  1
  Rh  Rh8  1  0.50000000  0.21475379  0.78524621  1
  Rh  Rh9  1  0.00000000  0.71475379  0.28524621  1
  Rh  Rh10  1  0.50000000  -0.00000000  0.50000000  1
  Rh  Rh11  1  0.50000000  0.50000000  -0.00000000  1
