# generated using pymatgen
data_ZrCoSi
_symmetry_space_group_name_H-M   'P 1'
_cell_length_a   3.87063171
_cell_length_b   6.48569888
_cell_length_c   7.14424211
_cell_angle_alpha   90.00000000
_cell_angle_beta   90.00000000
_cell_angle_gamma   90.00000000
_symmetry_Int_Tables_number   1
_chemical_formula_structural   ZrCoSi
_chemical_formula_sum   'Zr4 Co4 Si4'
_cell_volume   179.34728035
_cell_formula_units_Z   4
loop_
 _symmetry_equiv_pos_site_id
 _symmetry_equiv_pos_as_xyz
  1  'x, y, z'
loop_
 _atom_site_type_symbol
 _atom_site_label
 _atom_site_symmetry_multiplicity
 _atom_site_fract_x
 _atom_site_fract_y
 _atom_site_fract_z
 _atom_site_occupancy
  Zr  Zr0  1  0.75000000  0.49401870  0.19402967  1
  Zr  Zr1  1  0.75000000  0.99401870  0.30597033  1
  Zr  Zr2  1  0.25000000  0.50598130  0.80597033  1
  Zr  Zr3  1  0.25000000  0.00598130  0.69402967  1
  Co  Co4  1  0.75000000  0.35532941  0.56986330  1
  Co  Co5  1  0.75000000  0.85532941  0.93013670  1
  Co  Co6  1  0.25000000  0.64467059  0.43013670  1
  Co  Co7  1  0.25000000  0.14467059  0.06986330  1
  Si  Si8  1  0.75000000  0.21559126  0.89600539  1
  Si  Si9  1  0.75000000  0.71559126  0.60399461  1
  Si  Si10  1  0.25000000  0.78440874  0.10399461  1
  Si  Si11  1  0.25000000  0.28440874  0.39600539  1
