# generated using pymatgen
data_EuGa3Ni2
_symmetry_space_group_name_H-M   'P 1'
_cell_length_a   5.15288158
_cell_length_b   6.38058304
_cell_length_c   6.38058304
_cell_angle_alpha   104.42070963
_cell_angle_beta   90.00000000
_cell_angle_gamma   90.00000000
_symmetry_Int_Tables_number   1
_chemical_formula_structural   EuGa3Ni2
_chemical_formula_sum   'Eu2 Ga6 Ni4'
_cell_volume   203.17369145
_cell_formula_units_Z   2
loop_
 _symmetry_equiv_pos_site_id
 _symmetry_equiv_pos_as_xyz
  1  'x, y, z'
loop_
 _atom_site_type_symbol
 _atom_site_label
 _atom_site_symmetry_multiplicity
 _atom_site_fract_x
 _atom_site_fract_y
 _atom_site_fract_z
 _atom_site_occupancy
  Eu  Eu0  1  0.25000000  0.66167671  0.66167671  1
  Eu  Eu1  1  0.75000000  0.33832329  0.33832329  1
  Ga  Ga2  1  0.25000000  0.06103102  0.06103102  1
  Ga  Ga3  1  0.75000000  0.93896898  0.93896898  1
  Ga  Ga4  1  0.25000000  0.47440581  0.09114617  1
  Ga  Ga5  1  0.75000000  0.90885383  0.52559419  1
  Ga  Ga6  1  0.75000000  0.52559419  0.90885383  1
  Ga  Ga7  1  0.25000000  0.09114617  0.47440581  1
  Ni  Ni8  1  0.50000000  0.79871448  0.20128552  1
  Ni  Ni9  1  0.00000000  0.79871448  0.20128552  1
  Ni  Ni10  1  0.50000000  0.20128552  0.79871448  1
  Ni  Ni11  1  -0.00000000  0.20128552  0.79871448  1
