# generated using pymatgen
data_SrNiGe
_symmetry_space_group_name_H-M   'P 1'
_cell_length_a   4.18649252
_cell_length_b   5.74539610
_cell_length_c   11.40012761
_cell_angle_alpha   90.00000000
_cell_angle_beta   90.00000000
_cell_angle_gamma   90.00000000
_symmetry_Int_Tables_number   1
_chemical_formula_structural   SrNiGe
_chemical_formula_sum   'Sr4 Ni4 Ge4'
_cell_volume   274.20792830
_cell_formula_units_Z   4
loop_
 _symmetry_equiv_pos_site_id
 _symmetry_equiv_pos_as_xyz
  1  'x, y, z'
loop_
 _atom_site_type_symbol
 _atom_site_label
 _atom_site_symmetry_multiplicity
 _atom_site_fract_x
 _atom_site_fract_y
 _atom_site_fract_z
 _atom_site_occupancy
  Sr  Sr0  1  0.75000000  0.38034937  0.85637970  1
  Sr  Sr1  1  0.75000000  0.88034937  0.64362030  1
  Sr  Sr2  1  0.25000000  0.61965063  0.14362030  1
  Sr  Sr3  1  0.25000000  0.11965063  0.35637970  1
  Ni  Ni4  1  0.75000000  0.40000068  0.54359862  1
  Ni  Ni5  1  0.75000000  0.90000068  0.95640138  1
  Ni  Ni6  1  0.25000000  0.59999932  0.45640138  1
  Ni  Ni7  1  0.25000000  0.09999932  0.04359862  1
  Ge  Ge8  1  0.75000000  0.13506620  0.12836890  1
  Ge  Ge9  1  0.75000000  0.63506620  0.37163110  1
  Ge  Ge10  1  0.25000000  0.86493380  0.87163110  1
  Ge  Ge11  1  0.25000000  0.36493380  0.62836890  1
