# generated using pymatgen
data_ZrSiIr
_symmetry_space_group_name_H-M   'P 1'
_cell_length_a   3.98954567
_cell_length_b   6.59133330
_cell_length_c   7.45097636
_cell_angle_alpha   90.00000000
_cell_angle_beta   90.00000000
_cell_angle_gamma   90.00000000
_symmetry_Int_Tables_number   1
_chemical_formula_structural   ZrSiIr
_chemical_formula_sum   'Zr4 Si4 Ir4'
_cell_volume   195.93404272
_cell_formula_units_Z   4
loop_
 _symmetry_equiv_pos_site_id
 _symmetry_equiv_pos_as_xyz
  1  'x, y, z'
loop_
 _atom_site_type_symbol
 _atom_site_label
 _atom_site_symmetry_multiplicity
 _atom_site_fract_x
 _atom_site_fract_y
 _atom_site_fract_z
 _atom_site_occupancy
  Zr  Zr0  1  0.75000000  0.48141690  0.18206460  1
  Zr  Zr1  1  0.75000000  0.98141690  0.31793540  1
  Zr  Zr2  1  0.25000000  0.51858310  0.81793540  1
  Zr  Zr3  1  0.25000000  0.01858310  0.68206460  1
  Si  Si4  1  0.75000000  0.22139699  0.88159443  1
  Si  Si5  1  0.75000000  0.72139699  0.61840557  1
  Si  Si6  1  0.25000000  0.77860301  0.11840557  1
  Si  Si7  1  0.25000000  0.27860301  0.38159443  1
  Ir  Ir8  1  0.75000000  0.34802497  0.56504661  1
  Ir  Ir9  1  0.75000000  0.84802497  0.93495339  1
  Ir  Ir10  1  0.25000000  0.65197503  0.43495339  1
  Ir  Ir11  1  0.25000000  0.15197503  0.06504661  1
