# generated using pymatgen
data_HfNiGe
_symmetry_space_group_name_H-M   'P 1'
_cell_length_a   3.87347194
_cell_length_b   6.49594194
_cell_length_c   7.28600584
_cell_angle_alpha   90.00000000
_cell_angle_beta   90.00000000
_cell_angle_gamma   90.00000000
_symmetry_Int_Tables_number   1
_chemical_formula_structural   HfNiGe
_chemical_formula_sum   'Hf4 Ni4 Ge4'
_cell_volume   183.32937751
_cell_formula_units_Z   4
loop_
 _symmetry_equiv_pos_site_id
 _symmetry_equiv_pos_as_xyz
  1  'x, y, z'
loop_
 _atom_site_type_symbol
 _atom_site_label
 _atom_site_symmetry_multiplicity
 _atom_site_fract_x
 _atom_site_fract_y
 _atom_site_fract_z
 _atom_site_occupancy
  Hf  Hf0  1  0.75000000  0.48390225  0.31181953  1
  Hf  Hf1  1  0.75000000  0.98390225  0.18818047  1
  Hf  Hf2  1  0.25000000  0.51609775  0.68818047  1
  Hf  Hf3  1  0.25000000  0.01609775  0.81181953  1
  Ni  Ni4  1  0.75000000  0.35692833  0.93658969  1
  Ni  Ni5  1  0.75000000  0.85692833  0.56341031  1
  Ni  Ni6  1  0.25000000  0.64307167  0.06341031  1
  Ni  Ni7  1  0.25000000  0.14307167  0.43658969  1
  Ge  Ge8  1  0.75000000  0.73056036  0.88492273  1
  Ge  Ge9  1  0.75000000  0.23056036  0.61507727  1
  Ge  Ge10  1  0.25000000  0.26943964  0.11507727  1
  Ge  Ge11  1  0.25000000  0.76943964  0.38492273  1
