# generated using pymatgen
data_HfSiW
_symmetry_space_group_name_H-M   'P 1'
_cell_length_a   3.52704545
_cell_length_b   6.94484205
_cell_length_c   8.19564278
_cell_angle_alpha   90.00000000
_cell_angle_beta   90.00000000
_cell_angle_gamma   90.00000000
_symmetry_Int_Tables_number   1
_chemical_formula_structural   HfSiW
_chemical_formula_sum   'Hf4 Si4 W4'
_cell_volume   200.75041402
_cell_formula_units_Z   4
loop_
 _symmetry_equiv_pos_site_id
 _symmetry_equiv_pos_as_xyz
  1  'x, y, z'
loop_
 _atom_site_type_symbol
 _atom_site_label
 _atom_site_symmetry_multiplicity
 _atom_site_fract_x
 _atom_site_fract_y
 _atom_site_fract_z
 _atom_site_occupancy
  Hf  Hf0  1  0.25000000  0.54179328  0.83254621  1
  Hf  Hf1  1  0.25000000  0.04179328  0.66745379  1
  Hf  Hf2  1  0.75000000  0.45820672  0.16745379  1
  Hf  Hf3  1  0.75000000  0.95820672  0.33254621  1
  Si  Si4  1  0.25000000  0.75613178  0.13833171  1
  Si  Si5  1  0.25000000  0.25613178  0.36166829  1
  Si  Si6  1  0.75000000  0.24386822  0.86166829  1
  Si  Si7  1  0.75000000  0.74386822  0.63833171  1
  W  W8  1  0.25000000  0.63392810  0.43795204  1
  W  W9  1  0.25000000  0.13392810  0.06204796  1
  W  W10  1  0.75000000  0.36607190  0.56204796  1
  W  W11  1  0.75000000  0.86607190  0.93795204  1
