# generated using pymatgen
data_TbAlPt
_symmetry_space_group_name_H-M   'P 1'
_cell_length_a   4.44437467
_cell_length_b   6.92610260
_cell_length_c   7.76854320
_cell_angle_alpha   90.00000000
_cell_angle_beta   90.00000000
_cell_angle_gamma   90.00000000
_symmetry_Int_Tables_number   1
_chemical_formula_structural   TbAlPt
_chemical_formula_sum   'Tb4 Al4 Pt4'
_cell_volume   239.13281132
_cell_formula_units_Z   4
loop_
 _symmetry_equiv_pos_site_id
 _symmetry_equiv_pos_as_xyz
  1  'x, y, z'
loop_
 _atom_site_type_symbol
 _atom_site_label
 _atom_site_symmetry_multiplicity
 _atom_site_fract_x
 _atom_site_fract_y
 _atom_site_fract_z
 _atom_site_occupancy
  Tb  Tb0  1  0.75000000  0.47040600  0.81744302  1
  Tb  Tb1  1  0.75000000  0.97040600  0.68255698  1
  Tb  Tb2  1  0.25000000  0.52959400  0.18255698  1
  Tb  Tb3  1  0.25000000  0.02959400  0.31744302  1
  Al  Al4  1  0.75000000  0.35248606  0.43493122  1
  Al  Al5  1  0.75000000  0.85248606  0.06506878  1
  Al  Al6  1  0.25000000  0.64751394  0.56506878  1
  Al  Al7  1  0.25000000  0.14751394  0.93493122  1
  Pt  Pt8  1  0.75000000  0.22388861  0.11380750  1
  Pt  Pt9  1  0.75000000  0.72388861  0.38619250  1
  Pt  Pt10  1  0.25000000  0.77611139  0.88619250  1
  Pt  Pt11  1  0.25000000  0.27611139  0.61380750  1
