# generated using pymatgen
data_MnPd2
_symmetry_space_group_name_H-M   'P 1'
_cell_length_a   4.03499044
_cell_length_b   5.53871916
_cell_length_c   8.24127133
_cell_angle_alpha   90.00000000
_cell_angle_beta   90.00000000
_cell_angle_gamma   90.00000000
_symmetry_Int_Tables_number   1
_chemical_formula_structural   MnPd2
_chemical_formula_sum   'Mn4 Pd8'
_cell_volume   184.18152636
_cell_formula_units_Z   4
loop_
 _symmetry_equiv_pos_site_id
 _symmetry_equiv_pos_as_xyz
  1  'x, y, z'
loop_
 _atom_site_type_symbol
 _atom_site_label
 _atom_site_symmetry_multiplicity
 _atom_site_fract_x
 _atom_site_fract_y
 _atom_site_fract_z
 _atom_site_occupancy
  Mn  Mn0  1  0.75000000  0.34831741  0.59647608  1
  Mn  Mn1  1  0.75000000  0.84831741  0.90352392  1
  Mn  Mn2  1  0.25000000  0.65168259  0.40352392  1
  Mn  Mn3  1  0.25000000  0.15168259  0.09647608  1
  Pd  Pd4  1  0.75000000  0.35561794  0.92498732  1
  Pd  Pd5  1  0.75000000  0.85561794  0.57501268  1
  Pd  Pd6  1  0.25000000  0.64438206  0.07501268  1
  Pd  Pd7  1  0.25000000  0.14438206  0.42498732  1
  Pd  Pd8  1  0.75000000  0.40937243  0.26480558  1
  Pd  Pd9  1  0.75000000  0.90937243  0.23519442  1
  Pd  Pd10  1  0.25000000  0.59062757  0.73519442  1
  Pd  Pd11  1  0.25000000  0.09062757  0.76480558  1
