# generated using pymatgen
data_LiFeNiO4
_symmetry_space_group_name_H-M   'P 1'
_cell_length_a   5.92778453
_cell_length_b   5.92778396
_cell_length_c   5.86058551
_cell_angle_alpha   119.75027450
_cell_angle_beta   119.75027980
_cell_angle_gamma   91.18045575
_symmetry_Int_Tables_number   1
_chemical_formula_structural   LiFeNiO4
_chemical_formula_sum   'Li2 Fe2 Ni2 O8'
_cell_volume   145.17322414
_cell_formula_units_Z   2
loop_
 _symmetry_equiv_pos_site_id
 _symmetry_equiv_pos_as_xyz
  1  'x, y, z'
loop_
 _atom_site_type_symbol
 _atom_site_label
 _atom_site_symmetry_multiplicity
 _atom_site_fract_x
 _atom_site_fract_y
 _atom_site_fract_z
 _atom_site_occupancy
  Li  Li0  1  0.00000000  0.50000000  0.50000000  1
  Li  Li1  1  0.50000000  0.00000000  0.00000000  1
  Fe  Fe2  1  0.00000000  0.00000000  0.50000000  1
  Fe  Fe3  1  0.00000000  0.00000000  0.00000000  1
  Ni  Ni4  1  0.00000000  0.50000000  0.00000000  1
  Ni  Ni5  1  0.50000000  0.00000000  0.50000000  1
  O  O6  1  0.22347291  0.77714320  0.48988143  1
  O  O7  1  0.21820881  0.21904863  0.46968643  1
  O  O8  1  0.22285680  0.77652709  0.01011857  1
  O  O9  1  0.21904863  0.21820881  0.96968643  1
  O  O10  1  0.78095137  0.78179119  0.03031357  1
  O  O11  1  0.77714320  0.22347291  0.98988143  1
  O  O12  1  0.78179119  0.78095137  0.53031357  1
  O  O13  1  0.77652709  0.22285680  0.51011857  1
