# generated using pymatgen
data_HoAlPd
_symmetry_space_group_name_H-M   'P 1'
_cell_length_a   4.47294250
_cell_length_b   6.87758664
_cell_length_c   7.74257612
_cell_angle_alpha   90.00000000
_cell_angle_beta   90.00000000
_cell_angle_gamma   90.00000000
_symmetry_Int_Tables_number   1
_chemical_formula_structural   HoAlPd
_chemical_formula_sum   'Ho4 Al4 Pd4'
_cell_volume   238.18525305
_cell_formula_units_Z   4
loop_
 _symmetry_equiv_pos_site_id
 _symmetry_equiv_pos_as_xyz
  1  'x, y, z'
loop_
 _atom_site_type_symbol
 _atom_site_label
 _atom_site_symmetry_multiplicity
 _atom_site_fract_x
 _atom_site_fract_y
 _atom_site_fract_z
 _atom_site_occupancy
  Ho  Ho0  1  0.75000000  0.46733273  0.81968368  1
  Ho  Ho1  1  0.75000000  0.96733273  0.68031632  1
  Ho  Ho2  1  0.25000000  0.53266727  0.18031632  1
  Ho  Ho3  1  0.25000000  0.03266727  0.31968368  1
  Al  Al4  1  0.75000000  0.35363989  0.43781979  1
  Al  Al5  1  0.75000000  0.85363989  0.06218021  1
  Al  Al6  1  0.25000000  0.64636011  0.56218021  1
  Al  Al7  1  0.25000000  0.14636011  0.93781979  1
  Pd  Pd8  1  0.75000000  0.22663176  0.11717224  1
  Pd  Pd9  1  0.75000000  0.72663176  0.38282776  1
  Pd  Pd10  1  0.25000000  0.77336824  0.88282776  1
  Pd  Pd11  1  0.25000000  0.27336824  0.61717224  1
