# generated using pymatgen
data_LaSiRh
_symmetry_space_group_name_H-M   'P 1'
_cell_length_a   6.42052376
_cell_length_b   6.42052376
_cell_length_c   6.42052376
_cell_angle_alpha   90.00000000
_cell_angle_beta   90.00000000
_cell_angle_gamma   90.00000000
_symmetry_Int_Tables_number   1
_chemical_formula_structural   LaSiRh
_chemical_formula_sum   'La4 Si4 Rh4'
_cell_volume   264.67405579
_cell_formula_units_Z   4
loop_
 _symmetry_equiv_pos_site_id
 _symmetry_equiv_pos_as_xyz
  1  'x, y, z'
loop_
 _atom_site_type_symbol
 _atom_site_label
 _atom_site_symmetry_multiplicity
 _atom_site_fract_x
 _atom_site_fract_y
 _atom_site_fract_z
 _atom_site_occupancy
  La  La0  1  0.36645028  0.86645028  0.63354972  1
  La  La1  1  0.86645028  0.63354972  0.36645028  1
  La  La2  1  0.63354972  0.36645028  0.86645028  1
  La  La3  1  0.13354972  0.13354972  0.13354972  1
  Si  Si4  1  0.66158057  0.16158057  0.33841943  1
  Si  Si5  1  0.16158057  0.33841943  0.66158057  1
  Si  Si6  1  0.33841943  0.66158057  0.16158057  1
  Si  Si7  1  0.83841943  0.83841943  0.83841943  1
  Rh  Rh8  1  0.07701197  0.57701197  0.92298803  1
  Rh  Rh9  1  0.57701197  0.92298803  0.07701197  1
  Rh  Rh10  1  0.92298803  0.07701197  0.57701197  1
  Rh  Rh11  1  0.42298803  0.42298803  0.42298803  1
