# generated using pymatgen
data_ScCoP
_symmetry_space_group_name_H-M   'P 1'
_cell_length_a   3.75819640
_cell_length_b   6.27625209
_cell_length_c   7.02458168
_cell_angle_alpha   90.00000000
_cell_angle_beta   90.00000000
_cell_angle_gamma   90.00000000
_symmetry_Int_Tables_number   1
_chemical_formula_structural   ScCoP
_chemical_formula_sum   'Sc4 Co4 P4'
_cell_volume   165.69153370
_cell_formula_units_Z   4
loop_
 _symmetry_equiv_pos_site_id
 _symmetry_equiv_pos_as_xyz
  1  'x, y, z'
loop_
 _atom_site_type_symbol
 _atom_site_label
 _atom_site_symmetry_multiplicity
 _atom_site_fract_x
 _atom_site_fract_y
 _atom_site_fract_z
 _atom_site_occupancy
  Sc  Sc0  1  0.75000000  0.48144853  0.68370472  1
  Sc  Sc1  1  0.75000000  0.98144853  0.81629528  1
  Sc  Sc2  1  0.25000000  0.51855147  0.31629528  1
  Sc  Sc3  1  0.25000000  0.01855147  0.18370472  1
  Co  Co4  1  0.75000000  0.35305715  0.06029270  1
  Co  Co5  1  0.75000000  0.85305715  0.43970730  1
  Co  Co6  1  0.25000000  0.64694285  0.93970730  1
  Co  Co7  1  0.25000000  0.14694285  0.56029270  1
  P  P8  1  0.75000000  0.22083449  0.38384569  1
  P  P9  1  0.75000000  0.72083449  0.11615431  1
  P  P10  1  0.25000000  0.77916551  0.61615431  1
  P  P11  1  0.25000000  0.27916551  0.88384569  1
