# generated using pymatgen
data_Li2Mn5(FeO6)2
_symmetry_space_group_name_H-M   'P 1'
_cell_length_a   5.17032615
_cell_length_b   9.00640665
_cell_length_c   9.91459548
_cell_angle_alpha   89.99999852
_cell_angle_beta   102.91552271
_cell_angle_gamma   89.99999785
_symmetry_Int_Tables_number   1
_chemical_formula_structural   Li2Mn5(FeO6)2
_chemical_formula_sum   'Li4 Mn10 Fe4 O24'
_cell_volume   450.00336148
_cell_formula_units_Z   2
loop_
 _symmetry_equiv_pos_site_id
 _symmetry_equiv_pos_as_xyz
  1  'x, y, z'
loop_
 _atom_site_type_symbol
 _atom_site_label
 _atom_site_symmetry_multiplicity
 _atom_site_fract_x
 _atom_site_fract_y
 _atom_site_fract_z
 _atom_site_occupancy
  Li  Li0  1  0.74752591  0.08122664  0.51301781  1
  Li  Li1  1  0.50711489  0.42653491  0.73908348  1
  Li  Li2  1  0.75247409  0.58122664  0.98698219  1
  Li  Li3  1  0.99288511  0.92653491  0.76091652  1
  Mn  Mn4  1  0.00944681  0.06666050  0.25121441  1
  Mn  Mn5  1  0.49456267  0.08117610  0.74729975  1
  Mn  Mn6  1  0.24629689  0.26635107  0.50939929  1
  Mn  Mn7  1  0.99306970  0.41271723  0.24875668  1
  Mn  Mn8  1  0.74279977  0.25029006  0.99211950  1
  Mn  Mn9  1  0.00543733  0.58117610  0.75270025  1
  Mn  Mn10  1  0.49055319  0.56666050  0.24878559  1
  Mn  Mn11  1  0.25370311  0.76635107  0.99060071  1
  Mn  Mn12  1  0.75720023  0.75029006  0.50788050  1
  Mn  Mn13  1  0.50693030  0.91271723  0.25124332  1
  Fe  Fe14  1  0.02153127  0.26511925  0.76345077  1
  Fe  Fe15  1  0.48357699  0.24296714  0.23358567  1
  Fe  Fe16  1  0.01642301  0.74296714  0.26641433  1
  Fe  Fe17  1  0.47846873  0.76511925  0.73654923  1
  O  O18  1  0.13572552  0.11517374  0.63080488  1
  O  O19  1  0.37223203  0.06988708  0.35337858  1
  O  O20  1  0.08327351  0.25318782  0.13258214  1
  O  O21  1  0.39860572  0.23721148  0.86584734  1
  O  O22  1  0.65342174  0.06725699  0.14966904  1
  O  O23  1  0.84468617  0.10948319  0.86284587  1
  O  O24  1  0.12316053  0.42186726  0.65037320  1
  O  O25  1  0.59482688  0.23553049  0.62738147  1
  O  O26  1  0.34341970  0.40148955  0.36142789  1
  O  O27  1  0.90982523  0.24595998  0.36439784  1
  O  O28  1  0.65235421  0.40649830  0.12207980  1
  O  O29  1  0.12776797  0.56988708  0.14662142  1
  O  O30  1  0.87529746  0.42638726  0.85905943  1
  O  O31  1  0.36427448  0.61517374  0.86919512  1
  O  O32  1  0.10139428  0.73721148  0.63415266  1
  O  O33  1  0.65531383  0.60948319  0.63715413  1
  O  O34  1  0.41672649  0.75318782  0.36741786  1
  O  O35  1  0.84657826  0.56725699  0.35033096  1
  O  O36  1  0.15658030  0.90148955  0.13857211  1
  O  O37  1  0.59017477  0.74595998  0.13560216  1
  O  O38  1  0.90517312  0.73553049  0.87261853  1
  O  O39  1  0.37683947  0.92186726  0.84962680  1
  O  O40  1  0.62470254  0.92638726  0.64094057  1
  O  O41  1  0.84764579  0.90649830  0.37791920  1
