# generated using pymatgen
data_Sn2Rh
_symmetry_space_group_name_H-M   'P 1'
_cell_length_a   6.41609550
_cell_length_b   6.41029459
_cell_length_c   6.99808585
_cell_angle_alpha   90.00000000
_cell_angle_beta   117.28506886
_cell_angle_gamma   90.00000000
_symmetry_Int_Tables_number   1
_chemical_formula_structural   Sn2Rh
_chemical_formula_sum   'Sn8 Rh4'
_cell_volume   255.80038901
_cell_formula_units_Z   4
loop_
 _symmetry_equiv_pos_site_id
 _symmetry_equiv_pos_as_xyz
  1  'x, y, z'
loop_
 _atom_site_type_symbol
 _atom_site_label
 _atom_site_symmetry_multiplicity
 _atom_site_fract_x
 _atom_site_fract_y
 _atom_site_fract_z
 _atom_site_occupancy
  Sn  Sn0  1  0.21110579  0.83660665  0.75048341  1
  Sn  Sn1  1  0.53937762  0.16339335  0.75048341  1
  Sn  Sn2  1  0.71110579  0.66339335  0.75048341  1
  Sn  Sn3  1  0.03937762  0.33660665  0.75048341  1
  Sn  Sn4  1  0.37238081  0.75000336  0.25066145  1
  Sn  Sn5  1  0.87828064  0.24999664  0.25066145  1
  Sn  Sn6  1  0.87238081  0.74999664  0.25066145  1
  Sn  Sn7  1  0.37828064  0.25000336  0.25066145  1
  Rh  Rh8  1  0.49307385  0.50000000  0.98614769  1
  Rh  Rh9  1  0.99307385  0.00000000  0.98614769  1
  Rh  Rh10  1  0.25778130  0.50000000  0.51556260  1
  Rh  Rh11  1  0.75778130  0.00000000  0.51556260  1
