# generated using pymatgen
data_ScCoSi
_symmetry_space_group_name_H-M   'P 1'
_cell_length_a   3.97564224
_cell_length_b   6.39241484
_cell_length_c   6.86707809
_cell_angle_alpha   90.00000000
_cell_angle_beta   90.00000000
_cell_angle_gamma   90.00000000
_symmetry_Int_Tables_number   1
_chemical_formula_structural   ScCoSi
_chemical_formula_sum   'Sc4 Co4 Si4'
_cell_volume   174.51960981
_cell_formula_units_Z   4
loop_
 _symmetry_equiv_pos_site_id
 _symmetry_equiv_pos_as_xyz
  1  'x, y, z'
loop_
 _atom_site_type_symbol
 _atom_site_label
 _atom_site_symmetry_multiplicity
 _atom_site_fract_x
 _atom_site_fract_y
 _atom_site_fract_z
 _atom_site_occupancy
  Sc  Sc0  1  0.75000000  0.50413320  0.19519864  1
  Sc  Sc1  1  0.75000000  0.00413320  0.30480136  1
  Sc  Sc2  1  0.25000000  0.49586680  0.80480136  1
  Sc  Sc3  1  0.25000000  0.99586680  0.69519864  1
  Co  Co4  1  0.75000000  0.34724781  0.56035034  1
  Co  Co5  1  0.75000000  0.84724781  0.93964966  1
  Co  Co6  1  0.25000000  0.65275219  0.43964966  1
  Co  Co7  1  0.25000000  0.15275219  0.06035034  1
  Si  Si8  1  0.75000000  0.20720283  0.89024238  1
  Si  Si9  1  0.75000000  0.70720283  0.60975762  1
  Si  Si10  1  0.25000000  0.79279717  0.10975762  1
  Si  Si11  1  0.25000000  0.29279717  0.39024238  1
