# generated using pymatgen
data_GaHgCl4
_symmetry_space_group_name_H-M   'P 1'
_cell_length_a   6.67327361
_cell_length_b   6.93584752
_cell_length_c   9.76063722
_cell_angle_alpha   82.99475201
_cell_angle_beta   75.54840938
_cell_angle_gamma   61.42404066
_symmetry_Int_Tables_number   1
_chemical_formula_structural   GaHgCl4
_chemical_formula_sum   'Ga2 Hg2 Cl8'
_cell_volume   384.18141075
_cell_formula_units_Z   2
loop_
 _symmetry_equiv_pos_site_id
 _symmetry_equiv_pos_as_xyz
  1  'x, y, z'
loop_
 _atom_site_type_symbol
 _atom_site_label
 _atom_site_symmetry_multiplicity
 _atom_site_fract_x
 _atom_site_fract_y
 _atom_site_fract_z
 _atom_site_occupancy
  Ga  Ga0  1  0.37914332  0.85601279  0.75831266  1
  Ga  Ga1  1  0.62085668  0.14398721  0.24168734  1
  Hg  Hg2  1  0.93003959  0.51832488  0.88297732  1
  Hg  Hg3  1  0.06996041  0.48167512  0.11702268  1
  Cl  Cl4  1  0.74309632  0.56030012  0.67891541  1
  Cl  Cl5  1  0.25690368  0.43969988  0.32108459  1
  Cl  Cl6  1  0.33377761  0.82619841  0.98876914  1
  Cl  Cl7  1  0.66622239  0.17380159  0.01123086  1
  Cl  Cl8  1  0.13640793  0.80813825  0.67138934  1
  Cl  Cl9  1  0.86359207  0.19186175  0.32861066  1
  Cl  Cl10  1  0.39846932  0.15839194  0.68525033  1
  Cl  Cl11  1  0.60153068  0.84160806  0.31474967  1
