# generated using pymatgen
data_LiTi2Co3O10
_symmetry_space_group_name_H-M   'P 1'
_cell_length_a   4.91977109
_cell_length_b   4.97212616
_cell_length_c   7.80419143
_cell_angle_alpha   75.45696212
_cell_angle_beta   106.30606179
_cell_angle_gamma   97.30952544
_symmetry_Int_Tables_number   1
_chemical_formula_structural   LiTi2Co3O10
_chemical_formula_sum   'Li1 Ti2 Co3 O10'
_cell_volume   177.02337841
_cell_formula_units_Z   1
loop_
 _symmetry_equiv_pos_site_id
 _symmetry_equiv_pos_as_xyz
  1  'x, y, z'
loop_
 _atom_site_type_symbol
 _atom_site_label
 _atom_site_symmetry_multiplicity
 _atom_site_fract_x
 _atom_site_fract_y
 _atom_site_fract_z
 _atom_site_occupancy
  Li  Li0  1  0.67753746  0.49759911  0.54831448  1
  Ti  Ti1  1  0.12440437  0.00234348  0.68787730  1
  Ti  Ti2  1  0.89313262  0.01645391  0.32118938  1
  Co  Co3  1  0.00995589  0.49796446  0.00257136  1
  Co  Co4  1  0.70972893  0.98734439  0.90990992  1
  Co  Co5  1  0.30756411  0.00302175  0.09911777  1
  O  O6  1  0.04644216  0.20997055  0.88085342  1
  O  O7  1  0.09201678  0.77610801  0.52766692  1
  O  O8  1  0.36182124  0.79084270  0.94901942  1
  O  O9  1  0.19730135  0.25179346  0.20832305  1
  O  O10  1  0.48671466  0.17533746  0.69962813  1
  O  O11  1  0.53775257  0.82384264  0.30841193  1
  O  O12  1  0.81751140  0.74060618  0.79516640  1
  O  O13  1  0.65294790  0.20372868  0.05640106  1
  O  O14  1  0.89987578  0.23354684  0.48399994  1
  O  O15  1  0.96826977  0.78378438  0.12413151  1
