# generated using pymatgen
data_YGaIr
_symmetry_space_group_name_H-M   'P 1'
_cell_length_a   4.41207977
_cell_length_b   6.83966478
_cell_length_c   7.71259965
_cell_angle_alpha   90.00000000
_cell_angle_beta   90.00000000
_cell_angle_gamma   90.00000000
_symmetry_Int_Tables_number   1
_chemical_formula_structural   YGaIr
_chemical_formula_sum   'Y4 Ga4 Ir4'
_cell_volume   232.74425038
_cell_formula_units_Z   4
loop_
 _symmetry_equiv_pos_site_id
 _symmetry_equiv_pos_as_xyz
  1  'x, y, z'
loop_
 _atom_site_type_symbol
 _atom_site_label
 _atom_site_symmetry_multiplicity
 _atom_site_fract_x
 _atom_site_fract_y
 _atom_site_fract_z
 _atom_site_occupancy
  Y  Y0  1  0.75000000  0.51658903  0.19279430  1
  Y  Y1  1  0.75000000  0.01658903  0.30720570  1
  Y  Y2  1  0.25000000  0.48341097  0.80720570  1
  Y  Y3  1  0.25000000  0.98341097  0.69279430  1
  Ga  Ga4  1  0.75000000  0.16522698  0.92515161  1
  Ga  Ga5  1  0.75000000  0.66522698  0.57484839  1
  Ga  Ga6  1  0.25000000  0.83477302  0.07484839  1
  Ga  Ga7  1  0.25000000  0.33477302  0.42515161  1
  Ir  Ir8  1  0.75000000  0.27494360  0.60153317  1
  Ir  Ir9  1  0.75000000  0.77494360  0.89846683  1
  Ir  Ir10  1  0.25000000  0.72505640  0.39846683  1
  Ir  Ir11  1  0.25000000  0.22505640  0.10153317  1
