# generated using pymatgen
data_YSiPt
_symmetry_space_group_name_H-M   'P 1'
_cell_length_a   4.31523408
_cell_length_b   7.02064522
_cell_length_c   7.46906283
_cell_angle_alpha   90.00000000
_cell_angle_beta   90.00000000
_cell_angle_gamma   90.00000000
_symmetry_Int_Tables_number   1
_chemical_formula_structural   YSiPt
_chemical_formula_sum   'Y4 Si4 Pt4'
_cell_volume   226.28069230
_cell_formula_units_Z   4
loop_
 _symmetry_equiv_pos_site_id
 _symmetry_equiv_pos_as_xyz
  1  'x, y, z'
loop_
 _atom_site_type_symbol
 _atom_site_label
 _atom_site_symmetry_multiplicity
 _atom_site_fract_x
 _atom_site_fract_y
 _atom_site_fract_z
 _atom_site_occupancy
  Y  Y0  1  0.75000000  0.50226738  0.20187952  1
  Y  Y1  1  0.75000000  0.00226738  0.29812048  1
  Y  Y2  1  0.25000000  0.49773262  0.79812048  1
  Y  Y3  1  0.25000000  0.99773262  0.70187952  1
  Si  Si4  1  0.75000000  0.18654145  0.91258698  1
  Si  Si5  1  0.75000000  0.68654145  0.58741302  1
  Si  Si6  1  0.25000000  0.81345855  0.08741302  1
  Si  Si7  1  0.25000000  0.31345855  0.41258698  1
  Pt  Pt8  1  0.75000000  0.30077522  0.58493279  1
  Pt  Pt9  1  0.75000000  0.80077522  0.91506721  1
  Pt  Pt10  1  0.25000000  0.69922478  0.41506721  1
  Pt  Pt11  1  0.25000000  0.19922478  0.08493279  1
