# generated using pymatgen
data_TaPRu
_symmetry_space_group_name_H-M   'P 1'
_cell_length_a   3.73600548
_cell_length_b   6.33559570
_cell_length_c   7.20760799
_cell_angle_alpha   90.00000000
_cell_angle_beta   90.00000000
_cell_angle_gamma   90.00000000
_symmetry_Int_Tables_number   1
_chemical_formula_structural   TaPRu
_chemical_formula_sum   'Ta4 P4 Ru4'
_cell_volume   170.60278559
_cell_formula_units_Z   4
loop_
 _symmetry_equiv_pos_site_id
 _symmetry_equiv_pos_as_xyz
  1  'x, y, z'
loop_
 _atom_site_type_symbol
 _atom_site_label
 _atom_site_symmetry_multiplicity
 _atom_site_fract_x
 _atom_site_fract_y
 _atom_site_fract_z
 _atom_site_occupancy
  Ta  Ta0  1  0.75000000  0.47622050  0.67104202  1
  Ta  Ta1  1  0.75000000  0.97622050  0.82895798  1
  Ta  Ta2  1  0.25000000  0.52377950  0.32895798  1
  Ta  Ta3  1  0.25000000  0.02377950  0.17104202  1
  P  P4  1  0.75000000  0.73195514  0.12503209  1
  P  P5  1  0.75000000  0.23195514  0.37496791  1
  P  P6  1  0.25000000  0.26804486  0.87496791  1
  P  P7  1  0.25000000  0.76804486  0.62503209  1
  Ru  Ru8  1  0.75000000  0.35453022  0.06374674  1
  Ru  Ru9  1  0.75000000  0.85453022  0.43625326  1
  Ru  Ru10  1  0.25000000  0.64546978  0.93625326  1
  Ru  Ru11  1  0.25000000  0.14546978  0.56374674  1
