# generated using pymatgen
data_LuGaPd
_symmetry_space_group_name_H-M   'P 1'
_cell_length_a   4.33516965
_cell_length_b   6.71989599
_cell_length_c   7.89683310
_cell_angle_alpha   90.00000000
_cell_angle_beta   90.00000000
_cell_angle_gamma   90.00000000
_symmetry_Int_Tables_number   1
_chemical_formula_structural   LuGaPd
_chemical_formula_sum   'Lu4 Ga4 Pd4'
_cell_volume   230.04966648
_cell_formula_units_Z   4
loop_
 _symmetry_equiv_pos_site_id
 _symmetry_equiv_pos_as_xyz
  1  'x, y, z'
loop_
 _atom_site_type_symbol
 _atom_site_label
 _atom_site_symmetry_multiplicity
 _atom_site_fract_x
 _atom_site_fract_y
 _atom_site_fract_z
 _atom_site_occupancy
  Lu  Lu0  1  0.75000000  0.54136643  0.18072954  1
  Lu  Lu1  1  0.75000000  0.04136643  0.31927046  1
  Lu  Lu2  1  0.25000000  0.45863357  0.81927046  1
  Lu  Lu3  1  0.25000000  0.95863357  0.68072954  1
  Ga  Ga4  1  0.75000000  0.14535766  0.94348121  1
  Ga  Ga5  1  0.75000000  0.64535766  0.55651879  1
  Ga  Ga6  1  0.25000000  0.85464234  0.05651879  1
  Ga  Ga7  1  0.25000000  0.35464234  0.44348121  1
  Pd  Pd8  1  0.75000000  0.25758763  0.62846479  1
  Pd  Pd9  1  0.75000000  0.75758763  0.87153521  1
  Pd  Pd10  1  0.25000000  0.74241237  0.37153521  1
  Pd  Pd11  1  0.25000000  0.24241237  0.12846479  1
