# generated using pymatgen
data_ZrSiOs
_symmetry_space_group_name_H-M   'P 1'
_cell_length_a   4.08040590
_cell_length_b   6.43995797
_cell_length_c   7.50722069
_cell_angle_alpha   90.00000000
_cell_angle_beta   90.00000000
_cell_angle_gamma   90.00000000
_symmetry_Int_Tables_number   1
_chemical_formula_structural   ZrSiOs
_chemical_formula_sum   'Zr4 Si4 Os4'
_cell_volume   197.27206143
_cell_formula_units_Z   4
loop_
 _symmetry_equiv_pos_site_id
 _symmetry_equiv_pos_as_xyz
  1  'x, y, z'
loop_
 _atom_site_type_symbol
 _atom_site_label
 _atom_site_symmetry_multiplicity
 _atom_site_fract_x
 _atom_site_fract_y
 _atom_site_fract_z
 _atom_site_occupancy
  Zr  Zr0  1  0.75000000  0.48535006  0.68423142  1
  Zr  Zr1  1  0.75000000  0.98535006  0.81576858  1
  Zr  Zr2  1  0.25000000  0.51464994  0.31576858  1
  Zr  Zr3  1  0.25000000  0.01464994  0.18423142  1
  Si  Si4  1  0.75000000  0.71240313  0.12156469  1
  Si  Si5  1  0.75000000  0.21240313  0.37843531  1
  Si  Si6  1  0.25000000  0.28759687  0.87843531  1
  Si  Si7  1  0.25000000  0.78759687  0.62156469  1
  Os  Os8  1  0.75000000  0.33732065  0.05854996  1
  Os  Os9  1  0.75000000  0.83732065  0.44145004  1
  Os  Os10  1  0.25000000  0.66267935  0.94145004  1
  Os  Os11  1  0.25000000  0.16267935  0.55854996  1
