# generated using pymatgen
data_FeSbSe
_symmetry_space_group_name_H-M   'P 1'
_cell_length_a   6.13132753
_cell_length_b   6.25417542
_cell_length_c   6.26121196
_cell_angle_alpha   113.71511054
_cell_angle_beta   90.00000000
_cell_angle_gamma   90.00000000
_symmetry_Int_Tables_number   1
_chemical_formula_structural   FeSbSe
_chemical_formula_sum   'Fe4 Sb4 Se4'
_cell_volume   219.82048322
_cell_formula_units_Z   4
loop_
 _symmetry_equiv_pos_site_id
 _symmetry_equiv_pos_as_xyz
  1  'x, y, z'
loop_
 _atom_site_type_symbol
 _atom_site_label
 _atom_site_symmetry_multiplicity
 _atom_site_fract_x
 _atom_site_fract_y
 _atom_site_fract_z
 _atom_site_occupancy
  Fe  Fe0  1  0.50849114  0.70839658  0.20156891  1
  Fe  Fe1  1  0.00849114  0.29160342  0.29843109  1
  Fe  Fe2  1  0.49150886  0.29160342  0.79843109  1
  Fe  Fe3  1  0.99150886  0.70839658  0.70156891  1
  Sb  Sb4  1  0.13831804  0.85721515  0.12548580  1
  Sb  Sb5  1  0.63831804  0.14278485  0.37451420  1
  Sb  Sb6  1  0.86168196  0.14278485  0.87451420  1
  Sb  Sb7  1  0.36168196  0.85721515  0.62548580  1
  Se  Se8  1  0.85928515  0.64644017  0.32890980  1
  Se  Se9  1  0.35928515  0.35355983  0.17109020  1
  Se  Se10  1  0.14071485  0.35355983  0.67109020  1
  Se  Se11  1  0.64071485  0.64644017  0.82890980  1
