# generated using pymatgen
data_Cs2SiS3
_symmetry_space_group_name_H-M   'P 1'
_cell_length_a   7.28678156
_cell_length_b   7.90419138
_cell_length_c   9.04606344
_cell_angle_alpha   73.34059901
_cell_angle_beta   66.24917636
_cell_angle_gamma   62.55194852
_symmetry_Int_Tables_number   1
_chemical_formula_structural   Cs2SiS3
_chemical_formula_sum   'Cs4 Si2 S6'
_cell_volume   419.92035629
_cell_formula_units_Z   2
loop_
 _symmetry_equiv_pos_site_id
 _symmetry_equiv_pos_as_xyz
  1  'x, y, z'
loop_
 _atom_site_type_symbol
 _atom_site_label
 _atom_site_symmetry_multiplicity
 _atom_site_fract_x
 _atom_site_fract_y
 _atom_site_fract_z
 _atom_site_occupancy
  Cs  Cs0  1  0.91995119  0.30004643  0.86005118  1
  Cs  Cs1  1  0.08004881  0.69995357  0.13994882  1
  Cs  Cs2  1  0.69787939  0.91784076  0.68640046  1
  Cs  Cs3  1  0.30212061  0.08215924  0.31359954  1
  Si  Si4  1  0.61148560  0.44937369  0.32765511  1
  Si  Si5  1  0.38851440  0.55062631  0.67234489  1
  S  S6  1  0.72292135  0.50000000  0.50000000  1
  S  S7  1  0.27707865  0.50000000  0.50000000  1
  S  S8  1  0.60896079  0.65778704  0.12429137  1
  S  S9  1  0.39103921  0.34221296  0.87570863  1
  S  S10  1  0.77853843  0.16214092  0.28078222  1
  S  S11  1  0.22146157  0.83785908  0.71921778  1
