# generated using pymatgen
data_Li2MnV2O6
_symmetry_space_group_name_H-M   'P 1'
_cell_length_a   6.83021486
_cell_length_b   5.92326483
_cell_length_c   6.59936886
_cell_angle_alpha   64.46540815
_cell_angle_beta   107.65251749
_cell_angle_gamma   103.56936332
_symmetry_Int_Tables_number   1
_chemical_formula_structural   Li2MnV2O6
_chemical_formula_sum   'Li4 Mn2 V4 O12'
_cell_volume   227.88712553
_cell_formula_units_Z   2
loop_
 _symmetry_equiv_pos_site_id
 _symmetry_equiv_pos_as_xyz
  1  'x, y, z'
loop_
 _atom_site_type_symbol
 _atom_site_label
 _atom_site_symmetry_multiplicity
 _atom_site_fract_x
 _atom_site_fract_y
 _atom_site_fract_z
 _atom_site_occupancy
  Li  Li0  1  0.66684158  0.08427484  0.17012553  1
  Li  Li1  1  0.66649142  0.58239216  0.16320747  1
  Li  Li2  1  0.32788244  0.91943646  0.82116174  1
  Li  Li3  1  0.00545056  0.74723054  0.51217226  1
  Mn  Mn4  1  0.66666700  0.33333300  0.66666700  1
  Mn  Mn5  1  0.66666700  0.83333300  0.66666700  1
  V  V6  1  0.33018101  0.16342424  0.32393080  1
  V  V7  1  0.32489948  0.65273561  0.35040288  1
  V  V8  1  0.00843452  0.01393039  0.98293012  1
  V  V9  1  0.00315199  0.50324276  0.00940220  1
  O  O10  1  0.63547297  0.19414595  0.42150598  1
  O  O11  1  0.64655655  0.71512306  0.42715819  1
  O  O12  1  0.32756027  0.02210499  0.11025217  1
  O  O13  1  0.31370291  0.52430410  0.10545821  1
  O  O14  1  0.69786003  0.47252005  0.91182802  1
  O  O15  1  0.68677645  0.95154394  0.90617481  1
  O  O16  1  0.36303825  0.29243213  0.56470537  1
  O  O17  1  0.32443140  0.81637338  0.55756110  1
  O  O18  1  0.01963009  0.14236290  0.22787479  1
  O  O19  1  0.00577273  0.64456101  0.22308183  1
  O  O20  1  0.97029575  0.37423387  0.76862863  1
  O  O21  1  0.00890260  0.85029362  0.77577190  1
