# generated using pymatgen
data_ZrSiPd
_symmetry_space_group_name_H-M   'P 1'
_cell_length_a   3.90952980
_cell_length_b   6.67872267
_cell_length_c   7.67576958
_cell_angle_alpha   90.00000000
_cell_angle_beta   90.00000000
_cell_angle_gamma   90.00000000
_symmetry_Int_Tables_number   1
_chemical_formula_structural   ZrSiPd
_chemical_formula_sum   'Zr4 Si4 Pd4'
_cell_volume   200.41945046
_cell_formula_units_Z   4
loop_
 _symmetry_equiv_pos_site_id
 _symmetry_equiv_pos_as_xyz
  1  'x, y, z'
loop_
 _atom_site_type_symbol
 _atom_site_label
 _atom_site_symmetry_multiplicity
 _atom_site_fract_x
 _atom_site_fract_y
 _atom_site_fract_z
 _atom_site_occupancy
  Zr  Zr0  1  0.75000000  0.47416813  0.17993696  1
  Zr  Zr1  1  0.75000000  0.97416813  0.32006304  1
  Zr  Zr2  1  0.25000000  0.52583187  0.82006304  1
  Zr  Zr3  1  0.25000000  0.02583187  0.67993696  1
  Si  Si4  1  0.75000000  0.23689760  0.87734137  1
  Si  Si5  1  0.75000000  0.73689760  0.62265863  1
  Si  Si6  1  0.25000000  0.76310240  0.12265863  1
  Si  Si7  1  0.25000000  0.26310240  0.37734137  1
  Pd  Pd8  1  0.75000000  0.35627216  0.56164010  1
  Pd  Pd9  1  0.75000000  0.85627216  0.93835990  1
  Pd  Pd10  1  0.25000000  0.64372784  0.43835990  1
  Pd  Pd11  1  0.25000000  0.14372784  0.06164010  1
