# generated using pymatgen
data_SmGeRh
_symmetry_space_group_name_H-M   'P 1'
_cell_length_a   4.44309981
_cell_length_b   7.05778537
_cell_length_c   7.56353308
_cell_angle_alpha   90.00000000
_cell_angle_beta   90.00000000
_cell_angle_gamma   90.00000000
_symmetry_Int_Tables_number   1
_chemical_formula_structural   SmGeRh
_chemical_formula_sum   'Sm4 Ge4 Rh4'
_cell_volume   237.18063486
_cell_formula_units_Z   4
loop_
 _symmetry_equiv_pos_site_id
 _symmetry_equiv_pos_as_xyz
  1  'x, y, z'
loop_
 _atom_site_type_symbol
 _atom_site_label
 _atom_site_symmetry_multiplicity
 _atom_site_fract_x
 _atom_site_fract_y
 _atom_site_fract_z
 _atom_site_occupancy
  Sm  Sm0  1  0.75000000  0.51515071  0.20114917  1
  Sm  Sm1  1  0.75000000  0.01515071  0.29885083  1
  Sm  Sm2  1  0.25000000  0.48484929  0.79885083  1
  Sm  Sm3  1  0.25000000  0.98484929  0.70114917  1
  Ge  Ge4  1  0.75000000  0.18512021  0.91683332  1
  Ge  Ge5  1  0.75000000  0.68512021  0.58316668  1
  Ge  Ge6  1  0.25000000  0.81487979  0.08316668  1
  Ge  Ge7  1  0.25000000  0.31487979  0.41683332  1
  Rh  Rh8  1  0.75000000  0.80000360  0.91146111  1
  Rh  Rh9  1  0.75000000  0.30000360  0.58853889  1
  Rh  Rh10  1  0.25000000  0.19999640  0.08853889  1
  Rh  Rh11  1  0.25000000  0.69999640  0.41146111  1
