# generated using pymatgen
data_Tb2Al
_symmetry_space_group_name_H-M   'P 1'
_cell_length_a   5.13364685
_cell_length_b   6.57326685
_cell_length_c   9.44116000
_cell_angle_alpha   90.00000000
_cell_angle_beta   90.00000000
_cell_angle_gamma   90.00000000
_symmetry_Int_Tables_number   1
_chemical_formula_structural   Tb2Al
_chemical_formula_sum   'Tb8 Al4'
_cell_volume   318.59034542
_cell_formula_units_Z   4
loop_
 _symmetry_equiv_pos_site_id
 _symmetry_equiv_pos_as_xyz
  1  'x, y, z'
loop_
 _atom_site_type_symbol
 _atom_site_label
 _atom_site_symmetry_multiplicity
 _atom_site_fract_x
 _atom_site_fract_y
 _atom_site_fract_z
 _atom_site_occupancy
  Tb  Tb0  1  0.75000000  0.69268705  0.57197374  1
  Tb  Tb1  1  0.75000000  0.19268705  0.92802626  1
  Tb  Tb2  1  0.25000000  0.30731295  0.42802626  1
  Tb  Tb3  1  0.25000000  0.80731295  0.07197374  1
  Tb  Tb4  1  0.75000000  0.52746604  0.20926851  1
  Tb  Tb5  1  0.75000000  0.02746604  0.29073149  1
  Tb  Tb6  1  0.25000000  0.47253396  0.79073149  1
  Tb  Tb7  1  0.25000000  0.97253396  0.70926851  1
  Al  Al8  1  0.75000000  0.21263708  0.60353280  1
  Al  Al9  1  0.75000000  0.71263708  0.89646720  1
  Al  Al10  1  0.25000000  0.78736292  0.39646720  1
  Al  Al11  1  0.25000000  0.28736292  0.10353280  1
