# generated using pymatgen
data_SmAlPt
_symmetry_space_group_name_H-M   'P 1'
_cell_length_a   4.47092613
_cell_length_b   7.06609674
_cell_length_c   7.84197445
_cell_angle_alpha   90.00000000
_cell_angle_beta   90.00000000
_cell_angle_gamma   90.00000000
_symmetry_Int_Tables_number   1
_chemical_formula_structural   SmAlPt
_chemical_formula_sum   'Sm4 Al4 Pt4'
_cell_volume   247.74362979
_cell_formula_units_Z   4
loop_
 _symmetry_equiv_pos_site_id
 _symmetry_equiv_pos_as_xyz
  1  'x, y, z'
loop_
 _atom_site_type_symbol
 _atom_site_label
 _atom_site_symmetry_multiplicity
 _atom_site_fract_x
 _atom_site_fract_y
 _atom_site_fract_z
 _atom_site_occupancy
  Sm  Sm0  1  0.75000000  0.47024096  0.81791217  1
  Sm  Sm1  1  0.75000000  0.97024096  0.68208783  1
  Sm  Sm2  1  0.25000000  0.52975904  0.18208783  1
  Sm  Sm3  1  0.25000000  0.02975904  0.31791217  1
  Al  Al4  1  0.75000000  0.35326890  0.43408985  1
  Al  Al5  1  0.75000000  0.85326890  0.06591015  1
  Al  Al6  1  0.25000000  0.64673110  0.56591015  1
  Al  Al7  1  0.25000000  0.14673110  0.93408985  1
  Pt  Pt8  1  0.75000000  0.21992972  0.11201994  1
  Pt  Pt9  1  0.75000000  0.71992972  0.38798006  1
  Pt  Pt10  1  0.25000000  0.78007028  0.88798006  1
  Pt  Pt11  1  0.25000000  0.28007028  0.61201994  1
