# generated using pymatgen
data_LaAsS
_symmetry_space_group_name_H-M   'P 1'
_cell_length_a   4.04821343
_cell_length_b   3.98028633
_cell_length_c   17.76078659
_cell_angle_alpha   90.00000000
_cell_angle_beta   90.00000000
_cell_angle_gamma   90.00224482
_symmetry_Int_Tables_number   1
_chemical_formula_structural   LaAsS
_chemical_formula_sum   'La4 As4 S4'
_cell_volume   286.18041702
_cell_formula_units_Z   4
loop_
 _symmetry_equiv_pos_site_id
 _symmetry_equiv_pos_as_xyz
  1  'x, y, z'
loop_
 _atom_site_type_symbol
 _atom_site_label
 _atom_site_symmetry_multiplicity
 _atom_site_fract_x
 _atom_site_fract_y
 _atom_site_fract_z
 _atom_site_occupancy
  La  La0  1  0.21938097  0.25099908  0.85337262  1
  La  La1  1  0.28061903  0.24900092  0.35337262  1
  La  La2  1  0.78061903  0.74900092  0.14662738  1
  La  La3  1  0.71938097  0.75099908  0.64662738  1
  As  As4  1  0.20073403  0.75161230  0.50249615  1
  As  As5  1  0.29926597  0.74838770  0.00249615  1
  As  As6  1  0.79926597  0.24838770  0.49750385  1
  As  As7  1  0.70073403  0.25161230  0.99750385  1
  S  S8  1  0.21938809  0.25125537  0.68556178  1
  S  S9  1  0.28061191  0.24874463  0.18556178  1
  S  S10  1  0.78061191  0.74874463  0.31443822  1
  S  S11  1  0.71938809  0.75125537  0.81443822  1
