# generated using pymatgen
data_Cs2SnSe3
_symmetry_space_group_name_H-M   'P 1'
_cell_length_a   7.67593184
_cell_length_b   8.52599042
_cell_length_c   9.75287639
_cell_angle_alpha   73.03930614
_cell_angle_beta   66.82620835
_cell_angle_gamma   63.24675703
_symmetry_Int_Tables_number   1
_chemical_formula_structural   Cs2SnSe3
_chemical_formula_sum   'Cs4 Sn2 Se6'
_cell_volume   518.83640649
_cell_formula_units_Z   2
loop_
 _symmetry_equiv_pos_site_id
 _symmetry_equiv_pos_as_xyz
  1  'x, y, z'
loop_
 _atom_site_type_symbol
 _atom_site_label
 _atom_site_symmetry_multiplicity
 _atom_site_fract_x
 _atom_site_fract_y
 _atom_site_fract_z
 _atom_site_occupancy
  Cs  Cs0  1  0.68893537  0.93996788  0.68216138  1
  Cs  Cs1  1  0.31106463  0.06003212  0.31783862  1
  Cs  Cs2  1  0.91383557  0.30270274  0.86962612  1
  Cs  Cs3  1  0.08616443  0.69729726  0.13037388  1
  Sn  Sn4  1  0.62074053  0.44507551  0.31344343  1
  Sn  Sn5  1  0.37925947  0.55492449  0.68655657  1
  Se  Se6  1  0.61247979  0.68380006  0.09124036  1
  Se  Se7  1  0.38752021  0.31619994  0.90875964  1
  Se  Se8  1  0.80014927  0.12565760  0.27404386  1
  Se  Se9  1  0.19985073  0.87434240  0.72595614  1
  Se  Se10  1  0.75438033  0.50000000  0.50000000  1
  Se  Se11  1  0.24561967  0.50000000  0.50000000  1
