# generated using pymatgen
data_Na4Mg(GeSe3)2
_symmetry_space_group_name_H-M   'P 1'
_cell_length_a   7.15296940
_cell_length_b   7.19403580
_cell_length_c   7.19403580
_cell_angle_alpha   114.14906212
_cell_angle_beta   98.99070400
_cell_angle_gamma   98.99070400
_symmetry_Int_Tables_number   1
_chemical_formula_structural   Na4Mg(GeSe3)2
_chemical_formula_sum   'Na4 Mg1 Ge2 Se6'
_cell_volume   323.53546170
_cell_formula_units_Z   1
loop_
 _symmetry_equiv_pos_site_id
 _symmetry_equiv_pos_as_xyz
  1  'x, y, z'
loop_
 _atom_site_type_symbol
 _atom_site_label
 _atom_site_symmetry_multiplicity
 _atom_site_fract_x
 _atom_site_fract_y
 _atom_site_fract_z
 _atom_site_occupancy
  Na  Na0  1  -0.00000000  0.51930403  0.48069597  1
  Na  Na1  1  0.50000000  0.67230917  0.32769083  1
  Na  Na2  1  0.50000000  0.98116522  0.01883478  1
  Na  Na3  1  0.50000000  0.34786479  0.65213521  1
  Mg  Mg4  1  -0.00000000  0.15663076  0.84336924  1
  Ge  Ge5  1  0.94290608  0.66948691  0.00291606  1
  Ge  Ge6  1  0.05709392  0.99708394  0.33051309  1
  Se  Se7  1  0.76370546  0.77179767  0.76323242  1
  Se  Se8  1  0.23629454  0.23676758  0.22820233  1
  Se  Se9  1  0.22160827  0.55012837  0.90586709  1
  Se  Se10  1  0.77839173  0.09413291  0.44987163  1
  Se  Se11  1  0.74869908  0.40007378  0.05024512  1
  Se  Se12  1  0.25130092  0.94975488  0.59992622  1
