# generated using pymatgen
data_BaBClF4
_symmetry_space_group_name_H-M   'P 1'
_cell_length_a   4.79459669
_cell_length_b   5.32763661
_cell_length_c   9.51156279
_cell_angle_alpha   90.00000000
_cell_angle_beta   90.00000000
_cell_angle_gamma   90.00000000
_symmetry_Int_Tables_number   1
_chemical_formula_structural   BaBClF4
_chemical_formula_sum   'Ba2 B2 Cl2 F8'
_cell_volume   242.96211252
_cell_formula_units_Z   2
loop_
 _symmetry_equiv_pos_site_id
 _symmetry_equiv_pos_as_xyz
  1  'x, y, z'
loop_
 _atom_site_type_symbol
 _atom_site_label
 _atom_site_symmetry_multiplicity
 _atom_site_fract_x
 _atom_site_fract_y
 _atom_site_fract_z
 _atom_site_occupancy
  Ba  Ba0  1  0.47459283  0.50000000  0.29843859  1
  Ba  Ba1  1  0.97459283  0.00000000  0.70156141  1
  B  B2  1  0.88621395  0.00000000  0.13253132  1
  B  B3  1  0.38621395  0.50000000  0.86746868  1
  Cl  Cl4  1  0.48021711  0.00000000  0.47953357  1
  Cl  Cl5  1  0.98021711  0.50000000  0.52046643  1
  F  F6  1  0.59164501  0.00000000  0.14002121  1
  F  F7  1  0.09164501  0.50000000  0.85997879  1
  F  F8  1  0.98540175  0.78058437  0.20309145  1
  F  F9  1  0.98540175  0.21941563  0.20309145  1
  F  F10  1  0.48540175  0.71941563  0.79690855  1
  F  F11  1  0.48540175  0.28058437  0.79690855  1
  F  F12  1  0.97922759  0.00000000  0.99277053  1
  F  F13  1  0.47922759  0.50000000  0.00722947  1
