# generated using pymatgen
data_NdGaPt
_symmetry_space_group_name_H-M   'P 1'
_cell_length_a   4.52201554
_cell_length_b   7.16031702
_cell_length_c   7.90414069
_cell_angle_alpha   90.00000000
_cell_angle_beta   90.00000000
_cell_angle_gamma   90.00000000
_symmetry_Int_Tables_number   1
_chemical_formula_structural   NdGaPt
_chemical_formula_sum   'Nd4 Ga4 Pt4'
_cell_volume   255.92868387
_cell_formula_units_Z   4
loop_
 _symmetry_equiv_pos_site_id
 _symmetry_equiv_pos_as_xyz
  1  'x, y, z'
loop_
 _atom_site_type_symbol
 _atom_site_label
 _atom_site_symmetry_multiplicity
 _atom_site_fract_x
 _atom_site_fract_y
 _atom_site_fract_z
 _atom_site_occupancy
  Nd  Nd0  1  0.75000000  0.47343103  0.81378852  1
  Nd  Nd1  1  0.75000000  0.97343103  0.68621148  1
  Nd  Nd2  1  0.25000000  0.52656897  0.18621148  1
  Nd  Nd3  1  0.25000000  0.02656897  0.31378852  1
  Ga  Ga4  1  0.75000000  0.34705181  0.43309690  1
  Ga  Ga5  1  0.75000000  0.84705181  0.06690310  1
  Ga  Ga6  1  0.25000000  0.65294819  0.56690310  1
  Ga  Ga7  1  0.25000000  0.15294819  0.93309690  1
  Pt  Pt8  1  0.75000000  0.21967905  0.11125427  1
  Pt  Pt9  1  0.75000000  0.71967905  0.38874573  1
  Pt  Pt10  1  0.25000000  0.78032095  0.88874573  1
  Pt  Pt11  1  0.25000000  0.28032095  0.61125427  1
