# generated using pymatgen
data_Sr(NiP2)2
_symmetry_space_group_name_H-M   'P 1'
_cell_length_a   5.19413367
_cell_length_b   5.43947563
_cell_length_c   9.82918332
_cell_angle_alpha   82.75275515
_cell_angle_beta   74.67939264
_cell_angle_gamma   61.48114594
_symmetry_Int_Tables_number   1
_chemical_formula_structural   Sr(NiP2)2
_chemical_formula_sum   'Sr2 Ni4 P8'
_cell_volume   235.33894142
_cell_formula_units_Z   2
loop_
 _symmetry_equiv_pos_site_id
 _symmetry_equiv_pos_as_xyz
  1  'x, y, z'
loop_
 _atom_site_type_symbol
 _atom_site_label
 _atom_site_symmetry_multiplicity
 _atom_site_fract_x
 _atom_site_fract_y
 _atom_site_fract_z
 _atom_site_occupancy
  Sr  Sr0  1  0.62500000  0.25000000  0.75000000  1
  Sr  Sr1  1  0.37500000  0.75000000  0.25000000  1
  Ni  Ni2  1  0.00538063  0.25000000  0.98923875  1
  Ni  Ni3  1  0.24461937  0.25000000  0.51076125  1
  Ni  Ni4  1  0.99461937  0.75000000  0.01076125  1
  Ni  Ni5  1  0.75538063  0.75000000  0.48923875  1
  P  P6  1  0.32248336  0.86406763  0.86298877  1
  P  P7  1  0.04953976  0.63593237  0.63701123  1
  P  P8  1  0.31344901  0.86406763  0.63701123  1
  P  P9  1  0.81452787  0.63593237  0.86298877  1
  P  P10  1  0.67751664  0.13593237  0.13701123  1
  P  P11  1  0.95046024  0.36406763  0.36298877  1
  P  P12  1  0.68655099  0.13593237  0.36298877  1
  P  P13  1  0.18547213  0.36406763  0.13701123  1
