# generated using pymatgen
data_VFeP
_symmetry_space_group_name_H-M   'P 1'
_cell_length_a   3.49341827
_cell_length_b   5.88827430
_cell_length_c   6.69972940
_cell_angle_alpha   90.00000000
_cell_angle_beta   90.00000000
_cell_angle_gamma   90.00000000
_symmetry_Int_Tables_number   1
_chemical_formula_structural   VFeP
_chemical_formula_sum   'V4 Fe4 P4'
_cell_volume   137.81480733
_cell_formula_units_Z   4
loop_
 _symmetry_equiv_pos_site_id
 _symmetry_equiv_pos_as_xyz
  1  'x, y, z'
loop_
 _atom_site_type_symbol
 _atom_site_label
 _atom_site_symmetry_multiplicity
 _atom_site_fract_x
 _atom_site_fract_y
 _atom_site_fract_z
 _atom_site_occupancy
  V  V0  1  0.75000000  0.47437695  0.67358413  1
  V  V1  1  0.75000000  0.97437695  0.82641587  1
  V  V2  1  0.25000000  0.52562305  0.32641587  1
  V  V3  1  0.25000000  0.02562305  0.17358413  1
  Fe  Fe4  1  0.75000000  0.35669715  0.06153425  1
  Fe  Fe5  1  0.75000000  0.85669715  0.43846575  1
  Fe  Fe6  1  0.25000000  0.64330285  0.93846575  1
  Fe  Fe7  1  0.25000000  0.14330285  0.56153425  1
  P  P8  1  0.75000000  0.73034920  0.12467986  1
  P  P9  1  0.75000000  0.23034920  0.37532014  1
  P  P10  1  0.25000000  0.26965080  0.87532014  1
  P  P11  1  0.25000000  0.76965080  0.62467986  1
