# generated using pymatgen
data_Si7(Ni2Au)2
_symmetry_space_group_name_H-M   'P 1'
_cell_length_a   3.78653553
_cell_length_b   6.70413628
_cell_length_c   7.99665308
_cell_angle_alpha   109.03236433
_cell_angle_beta   90.00000000
_cell_angle_gamma   106.40367184
_symmetry_Int_Tables_number   1
_chemical_formula_structural   Si7(Ni2Au)2
_chemical_formula_sum   'Si7 Ni4 Au2'
_cell_volume   183.13874568
_cell_formula_units_Z   1
loop_
 _symmetry_equiv_pos_site_id
 _symmetry_equiv_pos_as_xyz
  1  'x, y, z'
loop_
 _atom_site_type_symbol
 _atom_site_label
 _atom_site_symmetry_multiplicity
 _atom_site_fract_x
 _atom_site_fract_y
 _atom_site_fract_z
 _atom_site_occupancy
  Si  Si0  1  0.16494952  0.32989905  0.42386901  1
  Si  Si1  1  0.83505048  0.67010095  0.57613099  1
  Si  Si2  1  0.49497502  0.98995004  0.66517268  1
  Si  Si3  1  0.50502498  0.01004996  0.33482732  1
  Si  Si4  1  0.15430310  0.30860620  0.75839404  1
  Si  Si5  1  0.84569690  0.69139380  0.24160596  1
  Si  Si6  1  0.50000000  0.00000000  0.00000000  1
  Ni  Ni7  1  0.34471902  0.68943804  0.41247846  1
  Ni  Ni8  1  0.65528098  0.31056196  0.58752154  1
  Ni  Ni9  1  0.00542932  0.01085864  0.16811113  1
  Ni  Ni10  1  0.99457068  0.98914136  0.83188887  1
  Au  Au11  1  0.19370564  0.38741129  0.09329477  1
  Au  Au12  1  0.80629436  0.61258871  0.90670523  1
