# generated using pymatgen
data_LuRe2
_symmetry_space_group_name_H-M   'P 1'
_cell_length_a   5.39400385
_cell_length_b   5.39400385
_cell_length_c   8.72074303
_cell_angle_alpha   90.00000000
_cell_angle_beta   90.00000000
_cell_angle_gamma   119.96098358
_symmetry_Int_Tables_number   1
_chemical_formula_structural   LuRe2
_chemical_formula_sum   'Lu4 Re8'
_cell_volume   219.82507828
_cell_formula_units_Z   4
loop_
 _symmetry_equiv_pos_site_id
 _symmetry_equiv_pos_as_xyz
  1  'x, y, z'
loop_
 _atom_site_type_symbol
 _atom_site_label
 _atom_site_symmetry_multiplicity
 _atom_site_fract_x
 _atom_site_fract_y
 _atom_site_fract_z
 _atom_site_occupancy
  Lu  Lu0  1  0.66660966  0.33339034  0.56295856  1
  Lu  Lu1  1  0.33339034  0.66660966  0.43704144  1
  Lu  Lu2  1  0.33339034  0.66660966  0.06295856  1
  Lu  Lu3  1  0.66660966  0.33339034  0.93704144  1
  Re  Re4  1  -0.00000000  0.00000000  0.50000000  1
  Re  Re5  1  -0.00000000  0.00000000  0.00000000  1
  Re  Re6  1  0.17192078  0.34410659  0.75000000  1
  Re  Re7  1  0.17232528  0.82767472  0.75000000  1
  Re  Re8  1  0.65589341  0.82807922  0.75000000  1
  Re  Re9  1  0.82807922  0.65589341  0.25000000  1
  Re  Re10  1  0.82767472  0.17232528  0.25000000  1
  Re  Re11  1  0.34410659  0.17192078  0.25000000  1
