# generated using pymatgen
data_SmSbS
_symmetry_space_group_name_H-M   'P 1'
_cell_length_a   4.14361289
_cell_length_b   4.12827348
_cell_length_c   17.67850823
_cell_angle_alpha   90.00000000
_cell_angle_beta   90.00000000
_cell_angle_gamma   90.00550875
_symmetry_Int_Tables_number   1
_chemical_formula_structural   SmSbS
_chemical_formula_sum   'Sm4 Sb4 S4'
_cell_volume   302.40798109
_cell_formula_units_Z   4
loop_
 _symmetry_equiv_pos_site_id
 _symmetry_equiv_pos_as_xyz
  1  'x, y, z'
loop_
 _atom_site_type_symbol
 _atom_site_label
 _atom_site_symmetry_multiplicity
 _atom_site_fract_x
 _atom_site_fract_y
 _atom_site_fract_z
 _atom_site_occupancy
  Sm  Sm0  1  0.77654820  0.25121300  0.15359183  1
  Sm  Sm1  1  0.72345180  0.24878700  0.65359183  1
  Sm  Sm2  1  0.22345180  0.74878700  0.84640817  1
  Sm  Sm3  1  0.27654820  0.75121300  0.34640817  1
  Sb  Sb4  1  0.75751355  0.74995871  0.49928345  1
  Sb  Sb5  1  0.74248645  0.75004129  0.99928345  1
  Sb  Sb6  1  0.24248645  0.25004129  0.50071655  1
  Sb  Sb7  1  0.25751355  0.24995871  0.00071655  1
  S  S8  1  0.77907176  0.25045304  0.31352766  1
  S  S9  1  0.72092824  0.24954696  0.81352766  1
  S  S10  1  0.22092824  0.74954696  0.68647234  1
  S  S11  1  0.27907176  0.75045304  0.18647234  1
