# generated using pymatgen
data_Lu3Pd4
_symmetry_space_group_name_H-M   'P 1'
_cell_length_a   5.67309613
_cell_length_b   7.73575097
_cell_length_c   7.73575144
_cell_angle_alpha   114.22768380
_cell_angle_beta   104.14954361
_cell_angle_gamma   104.14954447
_symmetry_Int_Tables_number   1
_chemical_formula_structural   Lu3Pd4
_chemical_formula_sum   'Lu6 Pd8'
_cell_volume   276.43664213
_cell_formula_units_Z   2
loop_
 _symmetry_equiv_pos_site_id
 _symmetry_equiv_pos_as_xyz
  1  'x, y, z'
loop_
 _atom_site_type_symbol
 _atom_site_label
 _atom_site_symmetry_multiplicity
 _atom_site_fract_x
 _atom_site_fract_y
 _atom_site_fract_z
 _atom_site_occupancy
  Lu  Lu0  1  0.40363689  0.12631974  0.37959489  1
  Lu  Lu1  1  0.02404200  0.62040511  0.74672486  1
  Lu  Lu2  1  0.27731714  0.25327514  0.87368026  1
  Lu  Lu3  1  0.59636311  0.87368026  0.62040511  1
  Lu  Lu4  1  0.97595800  0.37959489  0.25327514  1
  Lu  Lu5  1  0.72268286  0.74672486  0.12631974  1
  Pd  Pd6  1  0.00000000  0.00000000  0.00000000  1
  Pd  Pd7  1  0.50000000  0.00000000  0.00000000  1
  Pd  Pd8  1  0.22873424  0.67803815  0.16458241  1
  Pd  Pd9  1  0.06415184  0.83541759  0.51345575  1
  Pd  Pd10  1  0.55069609  0.48654425  0.32196185  1
  Pd  Pd11  1  0.77126576  0.32196185  0.83541759  1
  Pd  Pd12  1  0.93584816  0.16458241  0.48654425  1
  Pd  Pd13  1  0.44930391  0.51345575  0.67803815  1
