# generated using pymatgen
data_Ho3Pt4
_symmetry_space_group_name_H-M   'P 1'
_cell_length_a   5.70846772
_cell_length_b   7.85260078
_cell_length_c   7.85260061
_cell_angle_alpha   114.32571065
_cell_angle_beta   104.02336172
_cell_angle_gamma   104.02336140
_symmetry_Int_Tables_number   1
_chemical_formula_structural   Ho3Pt4
_chemical_formula_sum   'Ho6 Pt8'
_cell_volume   286.94395746
_cell_formula_units_Z   2
loop_
 _symmetry_equiv_pos_site_id
 _symmetry_equiv_pos_as_xyz
  1  'x, y, z'
loop_
 _atom_site_type_symbol
 _atom_site_label
 _atom_site_symmetry_multiplicity
 _atom_site_fract_x
 _atom_site_fract_y
 _atom_site_fract_z
 _atom_site_occupancy
  Ho  Ho0  1  0.40380092  0.12315116  0.37731225  1
  Ho  Ho1  1  0.02648866  0.62268775  0.74583891  1
  Ho  Ho2  1  0.28064976  0.25416109  0.87684884  1
  Ho  Ho3  1  0.59619908  0.87684884  0.62268775  1
  Ho  Ho4  1  0.97351134  0.37731225  0.25416109  1
  Ho  Ho5  1  0.71935024  0.74583891  0.12315116  1
  Pt  Pt6  1  -0.00000000  -0.00000000  0.00000000  1
  Pt  Pt7  1  0.50000000  -0.00000000  0.00000000  1
  Pt  Pt8  1  0.22566133  0.67280615  0.16438040  1
  Pt  Pt9  1  0.06128093  0.83561960  0.50842576  1
  Pt  Pt10  1  0.55285517  0.49157424  0.32719385  1
  Pt  Pt11  1  0.77433867  0.32719385  0.83561960  1
  Pt  Pt12  1  0.93871907  0.16438040  0.49157424  1
  Pt  Pt13  1  0.44714483  0.50842576  0.67280615  1
