# generated using pymatgen
data_Sr2Zn2As3
_symmetry_space_group_name_H-M   'P 1'
_cell_length_a   4.33047714
_cell_length_b   8.47555264
_cell_length_c   10.02394357
_cell_angle_alpha   81.14002392
_cell_angle_beta   77.52540748
_cell_angle_gamma   75.19863932
_symmetry_Int_Tables_number   1
_chemical_formula_structural   Sr2Zn2As3
_chemical_formula_sum   'Sr4 Zn4 As6'
_cell_volume   345.39606387
_cell_formula_units_Z   2
loop_
 _symmetry_equiv_pos_site_id
 _symmetry_equiv_pos_as_xyz
  1  'x, y, z'
loop_
 _atom_site_type_symbol
 _atom_site_label
 _atom_site_symmetry_multiplicity
 _atom_site_fract_x
 _atom_site_fract_y
 _atom_site_fract_z
 _atom_site_occupancy
  Sr  Sr0  1  0.26673456  0.12996098  0.33656991  1
  Sr  Sr1  1  0.73326544  0.87003902  0.66343009  1
  Sr  Sr2  1  0.39394775  0.26211615  0.94998836  1
  Sr  Sr3  1  0.60605225  0.73788385  0.05001164  1
  Zn  Zn4  1  0.03834842  0.23677610  0.68652706  1
  Zn  Zn5  1  0.96165158  0.76322390  0.31347294  1
  Zn  Zn6  1  0.41138452  0.52628114  0.65094982  1
  Zn  Zn7  1  0.58861548  0.47371886  0.34905018  1
  As  As8  1  0.07578073  0.97409519  0.87434335  1
  As  As9  1  0.92421927  0.02590481  0.12565665  1
  As  As10  1  0.15174358  0.49321383  0.20329902  1
  As  As11  1  0.84825642  0.50678617  0.79670098  1
  As  As12  1  0.39020819  0.76160455  0.45797907  1
  As  As13  1  0.60979181  0.23839545  0.54202093  1
