# generated using pymatgen
data_P4Os
_symmetry_space_group_name_H-M   'P 1'
_cell_length_a   4.75373538
_cell_length_b   7.21113083
_cell_length_c   7.60296258
_cell_angle_alpha   111.32997443
_cell_angle_beta   90.34488114
_cell_angle_gamma   100.43358510
_symmetry_Int_Tables_number   1
_chemical_formula_structural   P4Os
_chemical_formula_sum   'P12 Os3'
_cell_volume   238.02485907
_cell_formula_units_Z   3
loop_
 _symmetry_equiv_pos_site_id
 _symmetry_equiv_pos_as_xyz
  1  'x, y, z'
loop_
 _atom_site_type_symbol
 _atom_site_label
 _atom_site_symmetry_multiplicity
 _atom_site_fract_x
 _atom_site_fract_y
 _atom_site_fract_z
 _atom_site_occupancy
  P  P0  1  0.82197365  0.83746704  0.21449013  1
  P  P1  1  0.17802635  0.16253296  0.78550987  1
  P  P2  1  0.72801846  0.57313150  0.54862758  1
  P  P3  1  0.27198154  0.42686850  0.45137242  1
  P  P4  1  0.79460658  0.29600659  0.12399576  1
  P  P5  1  0.20539342  0.70399341  0.87600424  1
  P  P6  1  0.40065006  0.63317432  0.10032630  1
  P  P7  1  0.59934994  0.36682568  0.89967370  1
  P  P8  1  0.34083026  0.91414397  0.56133377  1
  P  P9  1  0.65916974  0.08585603  0.43866623  1
  P  P10  1  0.60845852  0.83086871  0.76876761  1
  P  P11  1  0.39154148  0.16913129  0.23123239  1
  Os  Os12  1  -0.00000000  -0.00000000  0.00000000  1
  Os  Os13  1  0.05912181  0.62751553  0.32795440  1
  Os  Os14  1  0.94087819  0.37248447  0.67204560  1
