# generated using pymatgen
data_Li2CoO3
_symmetry_space_group_name_H-M   'P 1'
_cell_length_a   9.10554266
_cell_length_b   9.10554679
_cell_length_c   3.27154984
_cell_angle_alpha   89.99995296
_cell_angle_beta   90.00007388
_cell_angle_gamma   89.99647141
_symmetry_Int_Tables_number   1
_chemical_formula_structural   Li2CoO3
_chemical_formula_sum   'Li8 Co4 O12'
_cell_volume   271.24728774
_cell_formula_units_Z   4
loop_
 _symmetry_equiv_pos_site_id
 _symmetry_equiv_pos_as_xyz
  1  'x, y, z'
loop_
 _atom_site_type_symbol
 _atom_site_label
 _atom_site_symmetry_multiplicity
 _atom_site_fract_x
 _atom_site_fract_y
 _atom_site_fract_z
 _atom_site_occupancy
  Li  Li0  1  0.11192756  0.32001505  0.50000005  1
  Li  Li1  1  0.17997673  0.61197556  0.00000043  1
  Li  Li2  1  0.31999071  0.11191816  0.49999965  1
  Li  Li3  1  0.38803752  0.82001571  -0.00000001  1
  Li  Li4  1  0.61196457  0.17996854  0.99999991  1
  Li  Li5  1  0.67998217  0.88806301  0.49999994  1
  Li  Li6  1  0.82002284  0.38804877  0.99999928  1
  Li  Li7  1  0.88807173  0.68000694  0.49999996  1
  Co  Co8  1  0.11028729  0.88971280  0.50000122  1
  Co  Co9  1  0.38971054  0.38970725  0.99999982  1
  Co  Co10  1  0.61029443  0.61029070  0.00000120  1
  Co  Co11  1  0.88971343  0.11028575  0.49999974  1
  O  O12  1  0.09354502  0.09354461  0.49999890  1
  O  O13  1  0.09826310  0.69969606  0.49999982  1
  O  O14  1  0.19970249  0.40175233  0.99999930  1
  O  O15  1  0.30030801  0.90173319  0.49999882  1
  O  O16  1  0.40174622  0.19969688  0.99999807  1
  O  O17  1  0.40645035  0.59354935  0.00000418  1
  O  O18  1  0.59355369  0.40644536  0.99999784  1
  O  O19  1  0.59825077  0.80029596  0.00000092  1
  O  O20  1  0.69970045  0.09825800  0.50000075  1
  O  O21  1  0.80030305  0.59825714  0.99999929  1
  O  O22  1  0.90173814  0.30030425  0.49999883  1
  O  O23  1  0.90645917  0.90645864  0.50000210  1
