# generated using pymatgen
data_CsMoO2F3
_symmetry_space_group_name_H-M   'P 1'
_cell_length_a   5.65081871
_cell_length_b   6.81276835
_cell_length_c   8.60738398
_cell_angle_alpha   113.31284232
_cell_angle_beta   109.16284256
_cell_angle_gamma   90.00000000
_symmetry_Int_Tables_number   1
_chemical_formula_structural   CsMoO2F3
_chemical_formula_sum   'Cs2 Mo2 O4 F6'
_cell_volume   284.20775061
_cell_formula_units_Z   2
loop_
 _symmetry_equiv_pos_site_id
 _symmetry_equiv_pos_as_xyz
  1  'x, y, z'
loop_
 _atom_site_type_symbol
 _atom_site_label
 _atom_site_symmetry_multiplicity
 _atom_site_fract_x
 _atom_site_fract_y
 _atom_site_fract_z
 _atom_site_occupancy
  Cs  Cs0  1  0.37259338  0.12259338  0.74518676  1
  Cs  Cs1  1  0.62740662  0.87740662  0.25481324  1
  Mo  Mo2  1  0.86234917  0.61234917  0.72469833  1
  Mo  Mo3  1  0.13765083  0.38765083  0.27530167  1
  O  O4  1  0.69882107  0.68632583  0.87265165  1
  O  O5  1  0.82616942  0.31367417  0.12734835  1
  O  O6  1  0.30117893  0.31367417  0.12734835  1
  O  O7  1  0.17383058  0.68632583  0.87265165  1
  F  F8  1  0.50000000  0.50000000  0.50000000  1
  F  F9  1  0.00000000  0.50000000  0.50000000  1
  F  F10  1  0.83429636  0.86467794  0.66859271  1
  F  F11  1  0.16570364  0.13532206  0.33140729  1
  F  F12  1  0.16570364  0.69608522  0.33140729  1
  F  F13  1  0.83429636  0.30391478  0.66859271  1
