# generated using pymatgen
data_Li6NbO6
_symmetry_space_group_name_H-M   'P 1'
_cell_length_a   6.03135449
_cell_length_b   5.62239840
_cell_length_c   9.02824609
_cell_angle_alpha   89.09545569
_cell_angle_beta   91.68659687
_cell_angle_gamma   122.43676636
_symmetry_Int_Tables_number   1
_chemical_formula_structural   Li6NbO6
_chemical_formula_sum   'Li12 Nb2 O12'
_cell_volume   258.27706316
_cell_formula_units_Z   2
loop_
 _symmetry_equiv_pos_site_id
 _symmetry_equiv_pos_as_xyz
  1  'x, y, z'
loop_
 _atom_site_type_symbol
 _atom_site_label
 _atom_site_symmetry_multiplicity
 _atom_site_fract_x
 _atom_site_fract_y
 _atom_site_fract_z
 _atom_site_occupancy
  Li  Li0  1  0.85708240  0.83452246  0.68462047  1
  Li  Li1  1  0.14291760  0.16547754  0.31537953  1
  Li  Li2  1  0.54576590  0.70876692  0.12998531  1
  Li  Li3  1  0.47744006  0.83452246  0.81537953  1
  Li  Li4  1  0.45423410  0.29123308  0.87001469  1
  Li  Li5  1  0.52255994  0.16547754  0.18462047  1
  Li  Li6  1  0.87749478  0.39185733  0.87077173  1
  Li  Li7  1  0.66300102  0.70876692  0.37001469  1
  Li  Li8  1  0.12250522  0.60814267  0.12922827  1
  Li  Li9  1  0.33699898  0.29123308  0.62998531  1
  Li  Li10  1  0.01436254  0.39185733  0.62922827  1
  Li  Li11  1  0.98563746  0.60814267  0.37077173  1
  Nb  Nb12  1  -0.00000000  -0.00000000  0.00000000  1
  Nb  Nb13  1  0.50000000  -0.00000000  0.50000000  1
  O  O14  1  0.72490799  0.66756827  0.88807335  1
  O  O15  1  0.27509201  0.33243173  0.11192665  1
  O  O16  1  0.74732659  0.12977903  0.04126382  1
  O  O17  1  0.44266028  0.66756827  0.61192665  1
  O  O18  1  0.25267341  0.87022097  0.95873618  1
  O  O19  1  0.55733972  0.33243173  0.38807335  1
  O  O20  1  0.09788439  0.22091151  0.80576127  1
  O  O21  1  0.88245244  0.12977903  0.45873618  1
  O  O22  1  0.90211561  0.77908849  0.19423873  1
  O  O23  1  0.11754756  0.87022097  0.54126382  1
  O  O24  1  0.62302712  0.22091151  0.69423873  1
  O  O25  1  0.37697288  0.77908849  0.30576127  1
