# generated using pymatgen
data_Y(VSn)6
_symmetry_space_group_name_H-M   'P 1'
_cell_length_a   5.51902306
_cell_length_b   5.51848514
_cell_length_c   9.23082417
_cell_angle_alpha   90.00000000
_cell_angle_beta   90.00000000
_cell_angle_gamma   120.00323606
_symmetry_Int_Tables_number   1
_chemical_formula_structural   Y(VSn)6
_chemical_formula_sum   'Y1 V6 Sn6'
_cell_volume   243.46639975
_cell_formula_units_Z   1
loop_
 _symmetry_equiv_pos_site_id
 _symmetry_equiv_pos_as_xyz
  1  'x, y, z'
loop_
 _atom_site_type_symbol
 _atom_site_label
 _atom_site_symmetry_multiplicity
 _atom_site_fract_x
 _atom_site_fract_y
 _atom_site_fract_z
 _atom_site_occupancy
  Y  Y0  1  0.99997375  1.00000000  -0.00000000  1
  V  V1  1  0.49998980  1.00000000  0.24884108  1
  V  V2  1  0.49998547  0.50000607  0.24885985  1
  V  V3  1  0.99997940  0.49999393  0.24885985  1
  V  V4  1  0.49998980  1.00000000  0.75115892  1
  V  V5  1  0.49998547  0.50000607  0.75114015  1
  V  V6  1  0.99997940  0.49999393  0.75114015  1
  Sn  Sn7  1  0.99998877  1.00000000  0.33172671  1
  Sn  Sn8  1  0.99998877  1.00000000  0.66827329  1
  Sn  Sn9  1  0.33330887  0.66665211  0.50000000  1
  Sn  Sn10  1  0.66665676  0.33334789  0.50000000  1
  Sn  Sn11  1  0.33331246  0.66665117  -0.00000000  1
  Sn  Sn12  1  0.66666130  0.33334883  -0.00000000  1
