# generated using pymatgen
data_Li2VO2F
_symmetry_space_group_name_H-M   'P 1'
_cell_length_a   3.03909782
_cell_length_b   10.32173876
_cell_length_c   7.89493123
_cell_angle_alpha   72.58006419
_cell_angle_beta   101.17208348
_cell_angle_gamma   89.83706964
_symmetry_Int_Tables_number   1
_chemical_formula_structural   Li2VO2F
_chemical_formula_sum   'Li8 V4 O8 F4'
_cell_volume   231.32774158
_cell_formula_units_Z   4
loop_
 _symmetry_equiv_pos_site_id
 _symmetry_equiv_pos_as_xyz
  1  'x, y, z'
loop_
 _atom_site_type_symbol
 _atom_site_label
 _atom_site_symmetry_multiplicity
 _atom_site_fract_x
 _atom_site_fract_y
 _atom_site_fract_z
 _atom_site_occupancy
  Li  Li0  1  0.41993904  0.11997906  0.83990893  1
  Li  Li1  1  0.08000334  0.12853897  0.15937764  1
  Li  Li2  1  0.06100603  0.64646072  0.12211611  1
  Li  Li3  1  0.43029916  0.62797600  0.86019233  1
  Li  Li4  1  0.92556605  0.36541685  0.85191747  1
  Li  Li5  1  0.56116503  0.88355713  0.12165944  1
  Li  Li6  1  0.58000534  0.38309825  0.15845267  1
  Li  Li7  1  0.93272036  0.85073443  0.86832162  1
  V  V8  1  0.25251760  0.37198868  0.50051260  1
  V  V9  1  0.25209977  0.88278060  0.50687689  1
  V  V10  1  0.75275827  0.12767982  0.49796922  1
  V  V11  1  0.74501089  0.61091604  0.51700361  1
  O  O12  1  0.34280480  0.01109615  0.64805529  1
  O  O13  1  0.33468887  0.50239484  0.65823918  1
  O  O14  1  0.16166397  0.24607305  0.34657423  1
  O  O15  1  0.81736590  0.25506761  0.65288794  1
  O  O16  1  0.80333234  0.75730669  0.63182867  1
  O  O17  1  0.69298461  0.49213097  0.35771798  1
  O  O18  1  0.68873151  0.99578577  0.34729863  1
  O  O19  1  0.49915674  0.75058598  0.00000360  1
  F  F20  1  0.16359719  0.74071776  0.34986340  1
  F  F21  1  0.00086010  0.01000694  0.00069857  1
  F  F22  1  0.00150774  0.49032420  0.00121979  1
  F  F23  1  0.50013334  0.24938150  0.00130422  1
