# generated using pymatgen
data_Y3Pd2
_symmetry_space_group_name_H-M   'P 1'
_cell_length_a   7.51649709
_cell_length_b   7.51649709
_cell_length_c   7.51649724
_cell_angle_alpha   72.00400484
_cell_angle_beta   72.00400484
_cell_angle_gamma   72.00400205
_symmetry_Int_Tables_number   1
_chemical_formula_structural   Y3Pd2
_chemical_formula_sum   'Y9 Pd6'
_cell_volume   373.27732305
_cell_formula_units_Z   3
loop_
 _symmetry_equiv_pos_site_id
 _symmetry_equiv_pos_as_xyz
  1  'x, y, z'
loop_
 _atom_site_type_symbol
 _atom_site_label
 _atom_site_symmetry_multiplicity
 _atom_site_fract_x
 _atom_site_fract_y
 _atom_site_fract_z
 _atom_site_occupancy
  Y  Y0  1  -0.00000000  0.00000000  0.00000000  1
  Y  Y1  1  0.79386403  0.79386403  0.79386403  1
  Y  Y2  1  0.20613597  0.20613597  0.20613597  1
  Y  Y3  1  0.60720867  0.34280025  0.82856740  1
  Y  Y4  1  0.34280025  0.82856740  0.60720867  1
  Y  Y5  1  0.82856740  0.60720867  0.34280025  1
  Y  Y6  1  0.39279133  0.65719975  0.17143260  1
  Y  Y7  1  0.65719975  0.17143260  0.39279133  1
  Y  Y8  1  0.17143260  0.39279133  0.65719975  1
  Pd  Pd9  1  0.95750259  0.15601578  0.59097662  1
  Pd  Pd10  1  0.15601578  0.59097662  0.95750259  1
  Pd  Pd11  1  0.59097662  0.95750259  0.15601578  1
  Pd  Pd12  1  0.04249741  0.84398422  0.40902338  1
  Pd  Pd13  1  0.84398422  0.40902338  0.04249741  1
  Pd  Pd14  1  0.40902338  0.04249741  0.84398422  1
