# generated using pymatgen
data_Ti4NiS8
_symmetry_space_group_name_H-M   'P 1'
_cell_length_a   6.64089624
_cell_length_b   6.64089624
_cell_length_c   6.81464423
_cell_angle_alpha   104.60247949
_cell_angle_beta   105.28053588
_cell_angle_gamma   118.08962281
_symmetry_Int_Tables_number   1
_chemical_formula_structural   Ti4NiS8
_chemical_formula_sum   'Ti4 Ni1 S8'
_cell_volume   229.41605078
_cell_formula_units_Z   1
loop_
 _symmetry_equiv_pos_site_id
 _symmetry_equiv_pos_as_xyz
  1  'x, y, z'
loop_
 _atom_site_type_symbol
 _atom_site_label
 _atom_site_symmetry_multiplicity
 _atom_site_fract_x
 _atom_site_fract_y
 _atom_site_fract_z
 _atom_site_occupancy
  Ti  Ti0  1  0.75539151  0.25539151  0.50000000  1
  Ti  Ti1  1  0.24460849  0.74460849  0.50000000  1
  Ti  Ti2  1  0.25418244  0.73993831  0.99412075  1
  Ti  Ti3  1  0.74581756  0.26006169  0.00587925  1
  Ni  Ni4  1  0.00000000  -0.00000000  -0.00000000  1
  S  S5  1  0.29010465  0.03642884  0.32653349  1
  S  S6  1  0.70989535  0.96357116  0.67346651  1
  S  S7  1  0.78862389  0.54580795  0.33443184  1
  S  S8  1  0.21137611  0.45419205  0.66556816  1
  S  S9  1  0.20557538  0.44987223  0.16617503  1
  S  S10  1  0.71630280  0.96059964  0.16617503  1
  S  S11  1  0.79442462  0.55012777  0.83382497  1
  S  S12  1  0.28369720  0.03940036  0.83382497  1
