# generated using pymatgen
data_Lu(Ni2P)2
_symmetry_space_group_name_H-M   'P 1'
_cell_length_a   3.57954198
_cell_length_b   7.01121534
_cell_length_c   7.01121534
_cell_angle_alpha   90.00000000
_cell_angle_beta   90.00000000
_cell_angle_gamma   90.00000000
_symmetry_Int_Tables_number   1
_chemical_formula_structural   Lu(Ni2P)2
_chemical_formula_sum   'Lu2 Ni8 P4'
_cell_volume   175.96004819
_cell_formula_units_Z   2
loop_
 _symmetry_equiv_pos_site_id
 _symmetry_equiv_pos_as_xyz
  1  'x, y, z'
loop_
 _atom_site_type_symbol
 _atom_site_label
 _atom_site_symmetry_multiplicity
 _atom_site_fract_x
 _atom_site_fract_y
 _atom_site_fract_z
 _atom_site_occupancy
  Lu  Lu0  1  -0.00000000  0.50000000  0.50000000  1
  Lu  Lu1  1  0.50000000  -0.00000000  -0.00000000  1
  Ni  Ni2  1  0.50000000  0.16434935  0.58491971  1
  Ni  Ni3  1  0.50000000  0.83565065  0.41508029  1
  Ni  Ni4  1  -0.00000000  0.33565065  0.08491971  1
  Ni  Ni5  1  -0.00000000  0.66434935  0.91508029  1
  Ni  Ni6  1  0.50000000  0.58491971  0.16434935  1
  Ni  Ni7  1  0.50000000  0.41508029  0.83565065  1
  Ni  Ni8  1  0.00000000  0.08491971  0.33565065  1
  Ni  Ni9  1  0.00000000  0.91508029  0.66434935  1
  P  P10  1  0.50000000  0.71943777  0.71943777  1
  P  P11  1  0.50000000  0.28056223  0.28056223  1
  P  P12  1  -0.00000000  0.78056223  0.21943777  1
  P  P13  1  -0.00000000  0.21943777  0.78056223  1
