# generated using pymatgen
data_Dy2FeC4
_symmetry_space_group_name_H-M   'P 1'
_cell_length_a   5.02413175
_cell_length_b   6.58485619
_cell_length_c   6.58485619
_cell_angle_alpha   69.10206370
_cell_angle_beta   67.57390714
_cell_angle_gamma   67.57390714
_symmetry_Int_Tables_number   1
_chemical_formula_structural   Dy2FeC4
_chemical_formula_sum   'Dy4 Fe2 C8'
_cell_volume   180.36935275
_cell_formula_units_Z   2
loop_
 _symmetry_equiv_pos_site_id
 _symmetry_equiv_pos_as_xyz
  1  'x, y, z'
loop_
 _atom_site_type_symbol
 _atom_site_label
 _atom_site_symmetry_multiplicity
 _atom_site_fract_x
 _atom_site_fract_y
 _atom_site_fract_z
 _atom_site_occupancy
  Dy  Dy0  1  0.14466534  0.51238758  0.19828175  1
  Dy  Dy1  1  0.85533466  0.48761242  0.80171825  1
  Dy  Dy2  1  0.64466534  0.19828175  0.51238758  1
  Dy  Dy3  1  0.35533466  0.80171825  0.48761242  1
  Fe  Fe4  1  0.25000000  0.00000000  0.00000000  1
  Fe  Fe5  1  0.75000000  0.00000000  0.00000000  1
  C  C6  1  0.37182313  0.46547136  0.79088238  1
  C  C7  1  0.62817687  0.53452864  0.20911762  1
  C  C8  1  0.87182313  0.79088238  0.46547136  1
  C  C9  1  0.12817687  0.20911762  0.53452864  1
  C  C10  1  0.42234740  0.24255185  0.91275335  1
  C  C11  1  0.57765260  0.75744815  0.08724665  1
  C  C12  1  0.92234740  0.91275335  0.24255185  1
  C  C13  1  0.07765260  0.08724665  0.75744815  1
