# generated using pymatgen
data_Cr2FeO4
_symmetry_space_group_name_H-M   'P 1'
_cell_length_a   6.07694309
_cell_length_b   6.07694309
_cell_length_c   6.07694309
_cell_angle_alpha   88.11910871
_cell_angle_beta   121.09180989
_cell_angle_gamma   121.09180989
_symmetry_Int_Tables_number   1
_chemical_formula_structural   Cr2FeO4
_chemical_formula_sum   'Cr4 Fe2 O8'
_cell_volume   155.97668789
_cell_formula_units_Z   2
loop_
 _symmetry_equiv_pos_site_id
 _symmetry_equiv_pos_as_xyz
  1  'x, y, z'
loop_
 _atom_site_type_symbol
 _atom_site_label
 _atom_site_symmetry_multiplicity
 _atom_site_fract_x
 _atom_site_fract_y
 _atom_site_fract_z
 _atom_site_occupancy
  Cr  Cr0  1  0.00000000  -0.00000000  0.50000000  1
  Cr  Cr1  1  0.50000000  0.50000000  0.00000000  1
  Cr  Cr2  1  0.00000000  0.50000000  0.50000000  1
  Cr  Cr3  1  0.50000000  0.50000000  0.50000000  1
  Fe  Fe4  1  0.25000000  0.87500000  0.12500000  1
  Fe  Fe5  1  0.75000000  0.12500000  0.87500000  1
  O  O6  1  0.52102070  0.28811309  0.26709239  1
  O  O7  1  0.02102070  0.26709239  0.28811309  1
  O  O8  1  0.47897930  0.26709239  0.74607170  1
  O  O9  1  0.97897930  0.74607170  0.26709239  1
  O  O10  1  0.47897930  0.71188691  0.73290761  1
  O  O11  1  0.97897930  0.73290761  0.71188691  1
  O  O12  1  0.52102070  0.73290761  0.25392830  1
  O  O13  1  0.02102070  0.25392830  0.73290761  1
