# generated using pymatgen
data_Os(SeBr6)2
_symmetry_space_group_name_H-M   'P 1'
_cell_length_a   7.01534057
_cell_length_b   9.39031731
_cell_length_c   9.39031731
_cell_angle_alpha   79.02675577
_cell_angle_beta   72.12471620
_cell_angle_gamma   72.12471620
_symmetry_Int_Tables_number   1
_chemical_formula_structural   Os(SeBr6)2
_chemical_formula_sum   'Os1 Se2 Br12'
_cell_volume   557.15246585
_cell_formula_units_Z   1
loop_
 _symmetry_equiv_pos_site_id
 _symmetry_equiv_pos_as_xyz
  1  'x, y, z'
loop_
 _atom_site_type_symbol
 _atom_site_label
 _atom_site_symmetry_multiplicity
 _atom_site_fract_x
 _atom_site_fract_y
 _atom_site_fract_z
 _atom_site_occupancy
  Os  Os0  1  0.00000000  -0.00000000  0.00000000  1
  Se  Se1  1  0.73131580  0.27749845  0.27749845  1
  Se  Se2  1  0.26868420  0.72250155  0.72250155  1
  Br  Br3  1  0.75350573  0.25174360  0.96105259  1
  Br  Br4  1  0.75350573  0.96105259  0.25174360  1
  Br  Br5  1  0.24649427  0.74825640  0.03894741  1
  Br  Br6  1  0.24649427  0.03894741  0.74825640  1
  Br  Br7  1  0.79633269  0.52223685  0.21363532  1
  Br  Br8  1  0.79633269  0.21363532  0.52223685  1
  Br  Br9  1  0.20366731  0.47776315  0.78636468  1
  Br  Br10  1  0.20366731  0.78636468  0.47776315  1
  Br  Br11  1  0.16182862  0.12565709  0.12565709  1
  Br  Br12  1  0.83817138  0.87434291  0.87434291  1
  Br  Br13  1  0.64428535  0.65001179  0.65001179  1
  Br  Br14  1  0.35571465  0.34998821  0.34998821  1
