# generated using pymatgen
data_Eu3As4
_symmetry_space_group_name_H-M   'P 1'
_cell_length_a   5.84375748
_cell_length_b   7.92801387
_cell_length_c   9.22616396
_cell_angle_alpha   83.29726126
_cell_angle_beta   71.53684260
_cell_angle_gamma   68.37371344
_symmetry_Int_Tables_number   1
_chemical_formula_structural   Eu3As4
_chemical_formula_sum   'Eu6 As8'
_cell_volume   376.90100438
_cell_formula_units_Z   2
loop_
 _symmetry_equiv_pos_site_id
 _symmetry_equiv_pos_as_xyz
  1  'x, y, z'
loop_
 _atom_site_type_symbol
 _atom_site_label
 _atom_site_symmetry_multiplicity
 _atom_site_fract_x
 _atom_site_fract_y
 _atom_site_fract_z
 _atom_site_occupancy
  Eu  Eu0  1  0.74769085  0.50000000  0.50000000  1
  Eu  Eu1  1  0.99769085  0.00000000  1.00000000  1
  Eu  Eu2  1  0.44629563  0.49551941  0.16688454  1
  Eu  Eu3  1  0.10869957  0.50448059  0.83311546  1
  Eu  Eu4  1  0.69181503  0.00448059  0.66688454  1
  Eu  Eu5  1  0.36318017  0.99551941  0.33311546  1
  As  As6  1  0.86377061  0.66640246  0.16431933  1
  As  As7  1  0.69449240  0.33359754  0.83568067  1
  As  As8  1  0.28017307  0.83359754  0.66431933  1
  As  As9  1  0.77808994  0.16640246  0.33568067  1
  As  As10  1  0.32816652  0.32173788  0.50898003  1
  As  As11  1  0.15888443  0.67826212  0.49101997  1
  As  As12  1  0.39990440  0.17826212  0.00898003  1
  As  As13  1  0.58714655  0.82173788  0.99101997  1
