# generated using pymatgen
data_Dy3Pt4
_symmetry_space_group_name_H-M   'P 1'
_cell_length_a   5.69427893
_cell_length_b   7.89935553
_cell_length_c   7.89935561
_cell_angle_alpha   114.41828400
_cell_angle_beta   103.90333546
_cell_angle_gamma   103.90333569
_symmetry_Int_Tables_number   1
_chemical_formula_structural   Dy3Pt4
_chemical_formula_sum   'Dy6 Pt8'
_cell_volume   289.95124547
_cell_formula_units_Z   2
loop_
 _symmetry_equiv_pos_site_id
 _symmetry_equiv_pos_as_xyz
  1  'x, y, z'
loop_
 _atom_site_type_symbol
 _atom_site_label
 _atom_site_symmetry_multiplicity
 _atom_site_fract_x
 _atom_site_fract_y
 _atom_site_fract_z
 _atom_site_occupancy
  Dy  Dy0  1  0.40653326  0.12614928  0.37817584  1
  Dy  Dy1  1  0.02835742  0.62182416  0.74797344  1
  Dy  Dy2  1  0.28038398  0.25202656  0.87385072  1
  Dy  Dy3  1  0.59346674  0.87385072  0.62182416  1
  Dy  Dy4  1  0.97164258  0.37817584  0.25202656  1
  Dy  Dy5  1  0.71961602  0.74797344  0.12614928  1
  Pt  Pt6  1  -0.00000000  0.00000000  -0.00000000  1
  Pt  Pt7  1  0.50000000  0.00000000  -0.00000000  1
  Pt  Pt8  1  0.22203341  0.67656231  0.16745431  1
  Pt  Pt9  1  0.05457910  0.83254569  0.50910801  1
  Pt  Pt10  1  0.54547110  0.49089199  0.32343769  1
  Pt  Pt11  1  0.77796659  0.32343769  0.83254569  1
  Pt  Pt12  1  0.94542090  0.16745431  0.49089199  1
  Pt  Pt13  1  0.45452890  0.50910801  0.67656231  1
