# generated using pymatgen
data_La3Pd4
_symmetry_space_group_name_H-M   'P 1'
_cell_length_a   5.88305516
_cell_length_b   8.31671798
_cell_length_c   8.31671766
_cell_angle_alpha   114.62030409
_cell_angle_beta   103.63833361
_cell_angle_gamma   103.63833307
_symmetry_Int_Tables_number   1
_chemical_formula_structural   La3Pd4
_chemical_formula_sum   'La6 Pd8'
_cell_volume   332.80846436
_cell_formula_units_Z   2
loop_
 _symmetry_equiv_pos_site_id
 _symmetry_equiv_pos_as_xyz
  1  'x, y, z'
loop_
 _atom_site_type_symbol
 _atom_site_label
 _atom_site_symmetry_multiplicity
 _atom_site_fract_x
 _atom_site_fract_y
 _atom_site_fract_z
 _atom_site_occupancy
  La  La0  1  0.40549715  0.12564688  0.37675756  1
  La  La1  1  0.02873960  0.62324244  0.74888932  1
  La  La2  1  0.27985028  0.25111068  0.87435312  1
  La  La3  1  0.59450285  0.87435312  0.62324244  1
  La  La4  1  0.97126040  0.37675756  0.25111068  1
  La  La5  1  0.72014972  0.74888932  0.12564688  1
  Pd  Pd6  1  0.00000000  -0.00000000  0.00000000  1
  Pd  Pd7  1  0.50000000  -0.00000000  0.00000000  1
  Pd  Pd8  1  0.22206144  0.66866579  0.16359930  1
  Pd  Pd9  1  0.05846213  0.83640070  0.50506649  1
  Pd  Pd10  1  0.55339564  0.49493351  0.33133421  1
  Pd  Pd11  1  0.77793856  0.33133421  0.83640070  1
  Pd  Pd12  1  0.94153787  0.16359930  0.49493351  1
  Pd  Pd13  1  0.44660436  0.50506649  0.66866579  1
