# generated using pymatgen
data_Li2VO2F
_symmetry_space_group_name_H-M   'P 1'
_cell_length_a   3.02831736
_cell_length_b   10.34477397
_cell_length_c   8.02035900
_cell_angle_alpha   69.77733935
_cell_angle_beta   79.18297328
_cell_angle_gamma   90.11574988
_symmetry_Int_Tables_number   1
_chemical_formula_structural   Li2VO2F
_chemical_formula_sum   'Li8 V4 O8 F4'
_cell_volume   230.96759303
_cell_formula_units_Z   4
loop_
 _symmetry_equiv_pos_site_id
 _symmetry_equiv_pos_as_xyz
  1  'x, y, z'
loop_
 _atom_site_type_symbol
 _atom_site_label
 _atom_site_symmetry_multiplicity
 _atom_site_fract_x
 _atom_site_fract_y
 _atom_site_fract_z
 _atom_site_occupancy
  Li  Li0  1  0.94066537  0.29384624  0.12390347  1
  Li  Li1  1  0.91999310  0.78898392  0.15853396  1
  Li  Li2  1  0.57745770  0.95637269  0.84564033  1
  Li  Li3  1  0.57164050  0.44113267  0.85587208  1
  Li  Li4  1  0.07797141  0.70116940  0.84596945  1
  Li  Li5  1  0.41948636  0.53796572  0.15870258  1
  Li  Li6  1  0.43962324  0.05593408  0.11725312  1
  Li  Li7  1  0.06669780  0.22400533  0.86829046  1
  V  V8  1  0.74769530  0.86691636  0.50387688  1
  V  V9  1  0.74543774  0.37657821  0.50464221  1
  V  V10  1  0.24235102  0.62447831  0.49954488  1
  V  V11  1  0.25783211  0.13091865  0.51411601  1
  O  O12  1  0.67435654  0.16426108  0.65355891  1
  O  O13  1  0.65612589  0.66916544  0.65324498  1
  O  O14  1  0.83000552  0.58359794  0.34679780  1
  O  O15  1  0.19056013  0.92285999  0.63999255  1
  O  O16  1  0.31153584  0.83268091  0.34762524  1
  O  O17  1  0.17781551  0.42268850  0.64874856  1
  O  O18  1  0.31362185  0.32921152  0.35960021  1
  O  O19  1  0.49957043  0.24874743  0.00463132  1
  F  F20  1  0.84128103  0.08230189  0.34986494  1
  F  F21  1  0.50360643  0.75080286  0.99603682  1
  F  F22  1  0.99574381  0.50815063  0.00423334  1
  F  F23  1  0.99901038  0.98722723  0.99931988  1
