# generated using pymatgen
data_Yb5Pt2
_symmetry_space_group_name_H-M   'P 1'
_cell_length_a   6.48723141
_cell_length_b   7.57975968
_cell_length_c   8.65072325
_cell_angle_alpha   97.09702068
_cell_angle_beta   112.02141208
_cell_angle_gamma   90.00000000
_symmetry_Int_Tables_number   1
_chemical_formula_structural   Yb5Pt2
_chemical_formula_sum   'Yb10 Pt4'
_cell_volume   390.81923664
_cell_formula_units_Z   2
loop_
 _symmetry_equiv_pos_site_id
 _symmetry_equiv_pos_as_xyz
  1  'x, y, z'
loop_
 _atom_site_type_symbol
 _atom_site_label
 _atom_site_symmetry_multiplicity
 _atom_site_fract_x
 _atom_site_fract_y
 _atom_site_fract_z
 _atom_site_occupancy
  Yb  Yb0  1  0.97568641  0.91984617  0.17887539  1
  Yb  Yb1  1  0.79681102  0.58015383  0.82112461  1
  Yb  Yb2  1  0.02431359  0.08015383  0.82112461  1
  Yb  Yb3  1  0.20318898  0.41984617  0.17887539  1
  Yb  Yb4  1  0.63470337  0.82122635  0.43420712  1
  Yb  Yb5  1  0.20049626  0.67877365  0.56579288  1
  Yb  Yb6  1  0.36529663  0.17877365  0.56579288  1
  Yb  Yb7  1  0.79950374  0.32122635  0.43420712  1
  Yb  Yb8  1  0.42332073  0.75000000  1.00000000  1
  Yb  Yb9  1  0.57667927  0.25000000  0.00000000  1
  Pt  Pt10  1  0.81937495  0.58243898  0.22068536  1
  Pt  Pt11  1  0.59868959  0.91756102  0.77931464  1
  Pt  Pt12  1  0.18062505  0.41756102  0.77931464  1
  Pt  Pt13  1  0.40131041  0.08243898  0.22068536  1
