# generated using pymatgen
data_Nd5Co2
_symmetry_space_group_name_H-M   'P 1'
_cell_length_a   6.51934745
_cell_length_b   7.08537894
_cell_length_c   8.90671928
_cell_angle_alpha   96.08074499
_cell_angle_beta   111.46785252
_cell_angle_gamma   90.00000000
_symmetry_Int_Tables_number   1
_chemical_formula_structural   Nd5Co2
_chemical_formula_sum   'Nd10 Co4'
_cell_volume   380.38809573
_cell_formula_units_Z   2
loop_
 _symmetry_equiv_pos_site_id
 _symmetry_equiv_pos_as_xyz
  1  'x, y, z'
loop_
 _atom_site_type_symbol
 _atom_site_label
 _atom_site_symmetry_multiplicity
 _atom_site_fract_x
 _atom_site_fract_y
 _atom_site_fract_z
 _atom_site_occupancy
  Nd  Nd0  1  0.98362132  0.91342102  0.18848215  1
  Nd  Nd1  1  0.79513917  0.58657898  0.81151785  1
  Nd  Nd2  1  0.01637868  0.08657898  0.81151785  1
  Nd  Nd3  1  0.20486083  0.41342102  0.18848215  1
  Nd  Nd4  1  0.64510878  0.81705238  0.43009171  1
  Nd  Nd5  1  0.21501707  0.68294762  0.56990829  1
  Nd  Nd6  1  0.35489122  0.18294762  0.56990829  1
  Nd  Nd7  1  0.78498293  0.31705238  0.43009171  1
  Nd  Nd8  1  0.42768925  0.75000000  0.00000000  1
  Nd  Nd9  1  0.57231075  0.25000000  1.00000000  1
  Co  Co10  1  0.82152718  0.57488951  0.22253126  1
  Co  Co11  1  0.59899592  0.92511049  0.77746874  1
  Co  Co12  1  0.17847282  0.42511049  0.77746874  1
  Co  Co13  1  0.40100408  0.07488951  0.22253126  1
