# generated using pymatgen
data_Ba9In4H
_symmetry_space_group_name_H-M   'P 1'
_cell_length_a   5.97200872
_cell_length_b   10.41957147
_cell_length_c   10.41957147
_cell_angle_alpha   85.28921589
_cell_angle_beta   73.34689315
_cell_angle_gamma   73.34689315
_symmetry_Int_Tables_number   1
_chemical_formula_structural   Ba9In4H
_chemical_formula_sum   'Ba9 In4 H1'
_cell_volume   595.11811908
_cell_formula_units_Z   1
loop_
 _symmetry_equiv_pos_site_id
 _symmetry_equiv_pos_as_xyz
  1  'x, y, z'
loop_
 _atom_site_type_symbol
 _atom_site_label
 _atom_site_symmetry_multiplicity
 _atom_site_fract_x
 _atom_site_fract_y
 _atom_site_fract_z
 _atom_site_occupancy
  Ba  Ba0  1  0.50000000  -0.00000000  0.00000000  1
  Ba  Ba1  1  0.10853872  0.07460677  0.70831579  1
  Ba  Ba2  1  0.89146128  0.92539323  0.29168421  1
  Ba  Ba3  1  0.18314549  0.70831579  0.92539323  1
  Ba  Ba4  1  0.81685451  0.29168421  0.07460677  1
  Ba  Ba5  1  0.38677065  0.73894639  0.48751231  1
  Ba  Ba6  1  0.61322935  0.26105361  0.51248769  1
  Ba  Ba7  1  0.12571704  0.48751231  0.26105361  1
  Ba  Ba8  1  0.87428296  0.51248769  0.73894639  1
  In  In9  1  0.40008298  0.33843093  0.86140310  1
  In  In10  1  0.59991702  0.66156907  0.13859690  1
  In  In11  1  0.73851391  0.86140310  0.66156907  1
  In  In12  1  0.26148609  0.13859690  0.33843093  1
  H  H13  1  -0.00000000  -0.00000000  0.00000000  1
