# generated using pymatgen
data_Dy2MnNiO6
_symmetry_space_group_name_H-M   'P 1'
_cell_length_a   5.26376142
_cell_length_b   5.58809511
_cell_length_c   7.55258119
_cell_angle_alpha   90.00000000
_cell_angle_beta   90.42414272
_cell_angle_gamma   90.00000000
_symmetry_Int_Tables_number   1
_chemical_formula_structural   Dy2MnNiO6
_chemical_formula_sum   'Dy4 Mn2 Ni2 O12'
_cell_volume   222.14855285
_cell_formula_units_Z   2
loop_
 _symmetry_equiv_pos_site_id
 _symmetry_equiv_pos_as_xyz
  1  'x, y, z'
loop_
 _atom_site_type_symbol
 _atom_site_label
 _atom_site_symmetry_multiplicity
 _atom_site_fract_x
 _atom_site_fract_y
 _atom_site_fract_z
 _atom_site_occupancy
  Dy  Dy0  1  0.98128249  0.07230584  0.25064147  1
  Dy  Dy1  1  0.48128249  0.42769416  0.75064147  1
  Dy  Dy2  1  0.01871751  0.92769416  0.74935853  1
  Dy  Dy3  1  0.51871751  0.57230584  0.24935853  1
  Mn  Mn4  1  0.50000000  0.00000000  0.50000000  1
  Mn  Mn5  1  -0.00000000  0.50000000  -0.00000000  1
  Ni  Ni6  1  -0.00000000  0.50000000  0.50000000  1
  Ni  Ni7  1  0.50000000  0.00000000  -0.00000000  1
  O  O8  1  0.31800278  0.70495025  0.55629657  1
  O  O9  1  0.81800278  0.79504975  0.05629657  1
  O  O10  1  0.68199722  0.29504975  0.44370343  1
  O  O11  1  0.18199722  0.20495025  0.94370343  1
  O  O12  1  0.20046092  0.18686842  0.55315520  1
  O  O13  1  0.70046092  0.31313158  0.05315520  1
  O  O14  1  0.79953908  0.81313158  0.44684480  1
  O  O15  1  0.29953908  0.68686842  0.94684480  1
  O  O16  1  0.10796462  0.46435548  0.24279187  1
  O  O17  1  0.60796462  0.03564452  0.74279187  1
  O  O18  1  0.89203538  0.53564452  0.75720813  1
  O  O19  1  0.39203538  0.96435548  0.25720813  1
