# generated using pymatgen
data_Sm(Re2Si)2
_symmetry_space_group_name_H-M   'P 1'
_cell_length_a   4.15267974
_cell_length_b   7.45619703
_cell_length_c   7.45619703
_cell_angle_alpha   90.00000000
_cell_angle_beta   90.00000000
_cell_angle_gamma   90.00000000
_symmetry_Int_Tables_number   1
_chemical_formula_structural   Sm(Re2Si)2
_chemical_formula_sum   'Sm2 Re8 Si4'
_cell_volume   230.86770753
_cell_formula_units_Z   2
loop_
 _symmetry_equiv_pos_site_id
 _symmetry_equiv_pos_as_xyz
  1  'x, y, z'
loop_
 _atom_site_type_symbol
 _atom_site_label
 _atom_site_symmetry_multiplicity
 _atom_site_fract_x
 _atom_site_fract_y
 _atom_site_fract_z
 _atom_site_occupancy
  Sm  Sm0  1  -0.00000000  0.50000000  0.50000000  1
  Sm  Sm1  1  0.50000000  -0.00000000  -0.00000000  1
  Re  Re2  1  0.50000000  0.15728460  0.59319948  1
  Re  Re3  1  0.50000000  0.84271540  0.40680052  1
  Re  Re4  1  -0.00000000  0.34271540  0.09319948  1
  Re  Re5  1  -0.00000000  0.65728460  0.90680052  1
  Re  Re6  1  0.50000000  0.59319948  0.15728460  1
  Re  Re7  1  0.50000000  0.40680052  0.84271540  1
  Re  Re8  1  0.00000000  0.09319948  0.34271540  1
  Re  Re9  1  0.00000000  0.90680052  0.65728460  1
  Si  Si10  1  0.50000000  0.70923120  0.70923120  1
  Si  Si11  1  0.50000000  0.29076880  0.29076880  1
  Si  Si12  1  -0.00000000  0.79076880  0.20923120  1
  Si  Si13  1  0.00000000  0.20923120  0.79076880  1
