# generated using pymatgen
data_Nd3Rh2
_symmetry_space_group_name_H-M   'P 1'
_cell_length_a   7.60807343
_cell_length_b   7.60807343
_cell_length_c   7.60807323
_cell_angle_alpha   71.46585543
_cell_angle_beta   71.46585543
_cell_angle_gamma   71.46585180
_symmetry_Int_Tables_number   1
_chemical_formula_structural   Nd3Rh2
_chemical_formula_sum   'Nd9 Rh6'
_cell_volume   384.19211913
_cell_formula_units_Z   3
loop_
 _symmetry_equiv_pos_site_id
 _symmetry_equiv_pos_as_xyz
  1  'x, y, z'
loop_
 _atom_site_type_symbol
 _atom_site_label
 _atom_site_symmetry_multiplicity
 _atom_site_fract_x
 _atom_site_fract_y
 _atom_site_fract_z
 _atom_site_occupancy
  Nd  Nd0  1  -0.00000000  -0.00000000  0.00000000  1
  Nd  Nd1  1  0.79646178  0.79646178  0.79646178  1
  Nd  Nd2  1  0.20353822  0.20353822  0.20353822  1
  Nd  Nd3  1  0.39294944  0.16504569  0.66441109  1
  Nd  Nd4  1  0.16504569  0.66441109  0.39294944  1
  Nd  Nd5  1  0.66441109  0.39294944  0.16504569  1
  Nd  Nd6  1  0.60705056  0.83495431  0.33558891  1
  Nd  Nd7  1  0.83495431  0.33558891  0.60705056  1
  Nd  Nd8  1  0.33558891  0.60705056  0.83495431  1
  Rh  Rh9  1  0.16365847  0.95617982  0.58938970  1
  Rh  Rh10  1  0.95617982  0.58938970  0.16365847  1
  Rh  Rh11  1  0.58938970  0.16365847  0.95617982  1
  Rh  Rh12  1  0.83634153  0.04382018  0.41061030  1
  Rh  Rh13  1  0.04382018  0.41061030  0.83634153  1
  Rh  Rh14  1  0.41061030  0.83634153  0.04382018  1
