# generated using pymatgen
data_V4FeO12
_symmetry_space_group_name_H-M   'P 1'
_cell_length_a   6.77157617
_cell_length_b   6.77157636
_cell_length_c   6.05675684
_cell_angle_alpha   74.91406323
_cell_angle_beta   105.08593490
_cell_angle_gamma   97.22811432
_symmetry_Int_Tables_number   1
_chemical_formula_structural   V4FeO12
_chemical_formula_sum   'V4 Fe1 O12'
_cell_volume   258.41197744
_cell_formula_units_Z   1
loop_
 _symmetry_equiv_pos_site_id
 _symmetry_equiv_pos_as_xyz
  1  'x, y, z'
loop_
 _atom_site_type_symbol
 _atom_site_label
 _atom_site_symmetry_multiplicity
 _atom_site_fract_x
 _atom_site_fract_y
 _atom_site_fract_z
 _atom_site_occupancy
  V  V0  1  0.20400550  0.62138144  0.74966178  1
  V  V1  1  0.38757718  0.78854993  0.26982268  1
  V  V2  1  0.62138144  0.20400550  0.75033822  1
  V  V3  1  0.78854993  0.38757718  0.23017732  1
  Fe  Fe4  1  0.91806024  0.91806024  0.25000000  1
  O  O5  1  0.02592483  0.80053854  0.59533810  1
  O  O6  1  0.07034310  0.39920360  0.78219197  1
  O  O7  1  0.20743047  0.96030444  0.20085060  1
  O  O8  1  0.36507168  0.62539632  0.54987662  1
  O  O9  1  0.39920360  0.07034310  0.71780803  1
  O  O10  1  0.33866749  0.65228716  0.04209657  1
  O  O11  1  0.62539632  0.36507168  0.95012338  1
  O  O12  1  0.63064873  0.90270334  0.29584260  1
  O  O13  1  0.65228716  0.33866749  0.45790343  1
  O  O14  1  0.80053854  0.02592483  0.90466190  1
  O  O15  1  0.90270334  0.63064873  0.20415740  1
  O  O16  1  0.96030444  0.20743047  0.29914940  1
