# generated using pymatgen
data_Yb(FeGe)6
_symmetry_space_group_name_H-M   'P 1'
_cell_length_a   5.04436771
_cell_length_b   5.04409742
_cell_length_c   8.05150528
_cell_angle_alpha   90.00000000
_cell_angle_beta   90.00000000
_cell_angle_gamma   120.00177613
_symmetry_Int_Tables_number   1
_chemical_formula_structural   Yb(FeGe)6
_chemical_formula_sum   'Yb1 Fe6 Ge6'
_cell_volume   177.41492164
_cell_formula_units_Z   1
loop_
 _symmetry_equiv_pos_site_id
 _symmetry_equiv_pos_as_xyz
  1  'x, y, z'
loop_
 _atom_site_type_symbol
 _atom_site_label
 _atom_site_symmetry_multiplicity
 _atom_site_fract_x
 _atom_site_fract_y
 _atom_site_fract_z
 _atom_site_occupancy
  Yb  Yb0  1  0.99994149  0.00000000  -0.00000000  1
  Fe  Fe1  1  0.50001581  0.00000000  0.25032275  1
  Fe  Fe2  1  0.49996855  0.49996671  0.25030870  1
  Fe  Fe3  1  0.00000185  0.50003329  0.25030870  1
  Fe  Fe4  1  0.50001581  0.00000000  0.74967725  1
  Fe  Fe5  1  0.49996855  0.49996671  0.74969130  1
  Fe  Fe6  1  0.00000185  0.50003329  0.74969130  1
  Ge  Ge7  1  0.33325766  0.66669552  -0.00000000  1
  Ge  Ge8  1  0.66656214  0.33330448  -0.00000000  1
  Ge  Ge9  1  0.33341918  0.66671824  0.50000000  1
  Ge  Ge10  1  0.66670095  0.33328176  0.50000000  1
  Ge  Ge11  1  0.99997308  1.00000000  0.34402320  1
  Ge  Ge12  1  0.99997308  1.00000000  0.65597680  1
