# generated using pymatgen
data_Na(GeP)3
_symmetry_space_group_name_H-M   'P 1'
_cell_length_a   3.66602185
_cell_length_b   8.43369890
_cell_length_c   10.40918990
_cell_angle_alpha   90.00000000
_cell_angle_beta   90.00000000
_cell_angle_gamma   90.00000000
_symmetry_Int_Tables_number   1
_chemical_formula_structural   Na(GeP)3
_chemical_formula_sum   'Na2 Ge6 P6'
_cell_volume   321.83262869
_cell_formula_units_Z   2
loop_
 _symmetry_equiv_pos_site_id
 _symmetry_equiv_pos_as_xyz
  1  'x, y, z'
loop_
 _atom_site_type_symbol
 _atom_site_label
 _atom_site_symmetry_multiplicity
 _atom_site_fract_x
 _atom_site_fract_y
 _atom_site_fract_z
 _atom_site_occupancy
  Na  Na0  1  -0.00000000  0.62958506  0.50208163  1
  Na  Na1  1  0.00000000  0.37041494  0.00208163  1
  Ge  Ge2  1  0.00000000  0.29258593  0.71900340  1
  Ge  Ge3  1  -0.00000000  0.70741407  0.21900340  1
  Ge  Ge4  1  0.00000000  0.99895891  0.64670588  1
  Ge  Ge5  1  -0.00000000  0.00104109  0.14670588  1
  Ge  Ge6  1  0.50000000  0.81454837  0.91358481  1
  Ge  Ge7  1  0.50000000  0.18545163  0.41358481  1
  P  P8  1  -0.00000000  0.76547971  0.77669657  1
  P  P9  1  -0.00000000  0.23452029  0.27669657  1
  P  P10  1  0.50000000  0.93164646  0.50730494  1
  P  P11  1  0.50000000  0.06835354  0.00730494  1
  P  P12  1  0.50000000  0.37106340  0.58105277  1
  P  P13  1  0.50000000  0.62893660  0.08105277  1
