# generated using pymatgen
data_CsFe(MoO4)2
_symmetry_space_group_name_H-M   'P 1'
_cell_length_a   5.79884945
_cell_length_b   5.79876233
_cell_length_c   8.35252606
_cell_angle_alpha   89.99923249
_cell_angle_beta   90.00470901
_cell_angle_gamma   119.99873194
_symmetry_Int_Tables_number   1
_chemical_formula_structural   CsFe(MoO4)2
_chemical_formula_sum   'Cs1 Fe1 Mo2 O8'
_cell_volume   243.23785282
_cell_formula_units_Z   1
loop_
 _symmetry_equiv_pos_site_id
 _symmetry_equiv_pos_as_xyz
  1  'x, y, z'
loop_
 _atom_site_type_symbol
 _atom_site_label
 _atom_site_symmetry_multiplicity
 _atom_site_fract_x
 _atom_site_fract_y
 _atom_site_fract_z
 _atom_site_occupancy
  Cs  Cs0  1  -0.00000000  0.00000000  0.50000000  1
  Fe  Fe1  1  -0.00000000  0.00000000  0.00000000  1
  Mo  Mo2  1  0.33336082  0.66667911  0.20767382  1
  Mo  Mo3  1  0.66663918  0.33332089  0.79232618  1
  O  O4  1  0.33339998  0.66669808  0.41769543  1
  O  O5  1  0.66660002  0.33330192  0.58230457  1
  O  O6  1  0.16170526  0.83839790  0.14252513  1
  O  O7  1  0.16161855  0.32331065  0.14252722  1
  O  O8  1  0.67670152  0.83830564  0.14252351  1
  O  O9  1  0.83829474  0.16160210  0.85747487  1
  O  O10  1  0.83838145  0.67668935  0.85747278  1
  O  O11  1  0.32329848  0.16169436  0.85747649  1
