# generated using pymatgen
data_Lu3Pt4
_symmetry_space_group_name_H-M   'P 1'
_cell_length_a   5.66555895
_cell_length_b   7.73475198
_cell_length_c   7.73475187
_cell_angle_alpha   114.24118858
_cell_angle_beta   104.13221558
_cell_angle_gamma   104.13221543
_symmetry_Int_Tables_number   1
_chemical_formula_structural   Lu3Pt4
_chemical_formula_sum   'Lu6 Pt8'
_cell_volume   276.04012083
_cell_formula_units_Z   2
loop_
 _symmetry_equiv_pos_site_id
 _symmetry_equiv_pos_as_xyz
  1  'x, y, z'
loop_
 _atom_site_type_symbol
 _atom_site_label
 _atom_site_symmetry_multiplicity
 _atom_site_fract_x
 _atom_site_fract_y
 _atom_site_fract_z
 _atom_site_occupancy
  Lu  Lu0  1  0.40373069  0.12378430  0.37826276  1
  Lu  Lu1  1  0.02546793  0.62173724  0.74552154  1
  Lu  Lu2  1  0.27994639  0.25447846  0.87621570  1
  Lu  Lu3  1  0.59626931  0.87621570  0.62173724  1
  Lu  Lu4  1  0.97453207  0.37826276  0.25447846  1
  Lu  Lu5  1  0.72005361  0.74552154  0.12378430  1
  Pt  Pt6  1  -0.00000000  0.00000000  -0.00000000  1
  Pt  Pt7  1  0.50000000  0.00000000  -0.00000000  1
  Pt  Pt8  1  0.22900460  0.67618481  0.16516936  1
  Pt  Pt9  1  0.06383523  0.83483064  0.51101544  1
  Pt  Pt10  1  0.55281979  0.48898456  0.32381519  1
  Pt  Pt11  1  0.77099540  0.32381519  0.83483064  1
  Pt  Pt12  1  0.93616477  0.16516936  0.48898456  1
  Pt  Pt13  1  0.44718021  0.51101544  0.67618481  1
