# generated using pymatgen
data_Er(Ni2P)2
_symmetry_space_group_name_H-M   'P 1'
_cell_length_a   3.60095277
_cell_length_b   7.05684349
_cell_length_c   7.05684349
_cell_angle_alpha   90.00000000
_cell_angle_beta   90.00000000
_cell_angle_gamma   90.00000000
_symmetry_Int_Tables_number   1
_chemical_formula_structural   Er(Ni2P)2
_chemical_formula_sum   'Er2 Ni8 P4'
_cell_volume   179.32399118
_cell_formula_units_Z   2
loop_
 _symmetry_equiv_pos_site_id
 _symmetry_equiv_pos_as_xyz
  1  'x, y, z'
loop_
 _atom_site_type_symbol
 _atom_site_label
 _atom_site_symmetry_multiplicity
 _atom_site_fract_x
 _atom_site_fract_y
 _atom_site_fract_z
 _atom_site_occupancy
  Er  Er0  1  0.00000000  0.50000000  0.50000000  1
  Er  Er1  1  0.50000000  0.00000000  0.00000000  1
  Ni  Ni2  1  0.50000000  0.16296016  0.58617225  1
  Ni  Ni3  1  0.50000000  0.83703984  0.41382775  1
  Ni  Ni4  1  -0.00000000  0.33703984  0.08617225  1
  Ni  Ni5  1  0.00000000  0.66296016  0.91382775  1
  Ni  Ni6  1  0.50000000  0.58617225  0.16296016  1
  Ni  Ni7  1  0.50000000  0.41382775  0.83703984  1
  Ni  Ni8  1  0.00000000  0.08617225  0.33703984  1
  Ni  Ni9  1  -0.00000000  0.91382775  0.66296016  1
  P  P10  1  0.50000000  0.71922385  0.71922385  1
  P  P11  1  0.50000000  0.28077615  0.28077615  1
  P  P12  1  0.00000000  0.78077615  0.21922385  1
  P  P13  1  0.00000000  0.21922385  0.78077615  1
