# generated using pymatgen
data_Dy3Rh
_symmetry_space_group_name_H-M   'P 1'
_cell_length_a   6.25532372
_cell_length_b   7.14084954
_cell_length_c   9.53285288
_cell_angle_alpha   90.00000000
_cell_angle_beta   90.00000000
_cell_angle_gamma   90.00000000
_symmetry_Int_Tables_number   1
_chemical_formula_structural   Dy3Rh
_chemical_formula_sum   'Dy12 Rh4'
_cell_volume   425.81657547
_cell_formula_units_Z   4
loop_
 _symmetry_equiv_pos_site_id
 _symmetry_equiv_pos_as_xyz
  1  'x, y, z'
loop_
 _atom_site_type_symbol
 _atom_site_label
 _atom_site_symmetry_multiplicity
 _atom_site_fract_x
 _atom_site_fract_y
 _atom_site_fract_z
 _atom_site_occupancy
  Dy  Dy0  1  0.33051142  0.67779274  0.06284897  1
  Dy  Dy1  1  0.16948858  0.17779274  0.43715103  1
  Dy  Dy2  1  0.66948858  0.32220726  0.56284897  1
  Dy  Dy3  1  0.83051142  0.82220726  0.93715103  1
  Dy  Dy4  1  0.66948858  0.32220726  0.93715103  1
  Dy  Dy5  1  0.83051142  0.82220726  0.56284897  1
  Dy  Dy6  1  0.33051142  0.67779274  0.43715103  1
  Dy  Dy7  1  0.16948858  0.17779274  0.06284897  1
  Dy  Dy8  1  0.86645913  0.53122920  0.25000000  1
  Dy  Dy9  1  0.63354087  0.03122920  0.25000000  1
  Dy  Dy10  1  0.13354087  0.46877080  0.75000000  1
  Dy  Dy11  1  0.36645913  0.96877080  0.75000000  1
  Rh  Rh12  1  0.06101208  0.88241128  0.25000000  1
  Rh  Rh13  1  0.43898792  0.38241128  0.25000000  1
  Rh  Rh14  1  0.93898792  0.11758872  0.75000000  1
  Rh  Rh15  1  0.56101208  0.61758872  0.75000000  1
