# generated using pymatgen
data_Li4Co3Cu2Sb3O16
_symmetry_space_group_name_H-M   'P 1'
_cell_length_a   6.01366832
_cell_length_b   5.96611572
_cell_length_c   9.77810551
_cell_angle_alpha   90.33687287
_cell_angle_beta   91.55258003
_cell_angle_gamma   119.50339470
_symmetry_Int_Tables_number   1
_chemical_formula_structural   Li4Co3Cu2Sb3O16
_chemical_formula_sum   'Li4 Co3 Cu2 Sb3 O16'
_cell_volume   305.14241463
_cell_formula_units_Z   1
loop_
 _symmetry_equiv_pos_site_id
 _symmetry_equiv_pos_as_xyz
  1  'x, y, z'
loop_
 _atom_site_type_symbol
 _atom_site_label
 _atom_site_symmetry_multiplicity
 _atom_site_fract_x
 _atom_site_fract_y
 _atom_site_fract_z
 _atom_site_occupancy
  Li  Li0  1  0.35744262  0.67738314  0.88360762  1
  Li  Li1  1  0.92935685  0.96795139  0.98662257  1
  Li  Li2  1  0.98113746  0.98562740  0.50400532  1
  Li  Li3  1  0.64795996  0.32575643  0.39846492  1
  Co  Co4  1  0.64222765  0.82440100  0.21676150  1
  Co  Co5  1  0.85749511  0.67138791  0.71402712  1
  Co  Co6  1  0.85784579  0.18033709  0.71438667  1
  Cu  Cu7  1  0.34964402  0.67365308  0.50451618  1
  Cu  Cu8  1  0.70233438  0.35253614  0.98227578  1
  Sb  Sb9  1  0.14924438  0.82529803  0.21499658  1
  Sb  Sb10  1  0.14887213  0.32985658  0.21603041  1
  Sb  Sb11  1  0.36338374  0.17879897  0.71551942  1
  O  O12  1  0.17255724  0.84384385  0.60381699  1
  O  O13  1  0.00283408  0.50593055  0.33105941  1
  O  O14  1  0.29408148  0.64786165  0.09745830  1
  O  O15  1  0.99417328  0.00103713  0.32098531  1
  O  O16  1  0.02545916  0.01070395  0.81070904  1
  O  O17  1  0.16866498  0.31695784  0.60399754  1
  O  O18  1  0.45758354  0.96333741  0.33668379  1
  O  O19  1  0.45636749  0.50269498  0.34075058  1
  O  O20  1  0.28060014  0.14319853  0.09990091  1
  O  O21  1  0.70300570  0.84923063  0.61669362  1
  O  O22  1  0.56139279  0.50311264  0.83527839  1
  O  O23  1  0.56107087  0.05374584  0.83506694  1
  O  O24  1  0.68922531  0.34093773  0.60945591  1
  O  O25  1  0.82394800  0.66961911  0.10127896  1
  O  O26  1  0.99786420  0.49426121  0.81202500  1
  O  O27  1  0.82422962  0.16083879  0.10146222  1
