# generated using pymatgen
data_Rb2PaF7
_symmetry_space_group_name_H-M   'P 1'
_cell_length_a   7.07500342
_cell_length_b   8.00447849
_cell_length_c   8.08627886
_cell_angle_alpha   62.22972878
_cell_angle_beta   64.05745698
_cell_angle_gamma   63.77225765
_symmetry_Int_Tables_number   1
_chemical_formula_structural   Rb2PaF7
_chemical_formula_sum   'Rb4 Pa2 F14'
_cell_volume   347.66689164
_cell_formula_units_Z   2
loop_
 _symmetry_equiv_pos_site_id
 _symmetry_equiv_pos_as_xyz
  1  'x, y, z'
loop_
 _atom_site_type_symbol
 _atom_site_label
 _atom_site_symmetry_multiplicity
 _atom_site_fract_x
 _atom_site_fract_y
 _atom_site_fract_z
 _atom_site_occupancy
  Rb  Rb0  1  0.31885580  0.73101361  0.61218540  1
  Rb  Rb1  1  0.66205480  0.76898639  0.88781460  1
  Rb  Rb2  1  0.68114420  0.26898639  0.38781460  1
  Rb  Rb3  1  0.33794520  0.23101361  0.11218540  1
  Pa  Pa4  1  0.02475262  0.25000000  0.75000000  1
  Pa  Pa5  1  0.97524738  0.75000000  0.25000000  1
  F  F6  1  0.94621407  0.35615048  0.98378017  1
  F  F7  1  0.28614471  0.14384952  0.51621983  1
  F  F8  1  0.05378593  0.64384952  0.01621983  1
  F  F9  1  0.71385529  0.85615048  0.48378017  1
  F  F10  1  0.33950496  0.25000000  0.75000000  1
  F  F11  1  0.66049504  0.75000000  0.25000000  1
  F  F12  1  0.89526382  0.07160855  0.71007208  1
  F  F13  1  0.67694445  0.42839145  0.78992792  1
  F  F14  1  0.10473618  0.92839145  0.28992792  1
  F  F15  1  0.32305555  0.57160855  0.21007208  1
  F  F16  1  0.05523331  0.56550461  0.57888170  1
  F  F17  1  0.19961962  0.93449539  0.92111830  1
  F  F18  1  0.94476669  0.43449539  0.42111830  1
  F  F19  1  0.80038038  0.06550461  0.07888170  1
