# generated using pymatgen
data_KLaMnWO6
_symmetry_space_group_name_H-M   'P 1'
_cell_length_a   5.72759280
_cell_length_b   5.76225333
_cell_length_c   8.26377601
_cell_angle_alpha   90.00000000
_cell_angle_beta   90.45067482
_cell_angle_gamma   90.00000000
_symmetry_Int_Tables_number   1
_chemical_formula_structural   KLaMnWO6
_chemical_formula_sum   'K2 La2 Mn2 W2 O12'
_cell_volume   272.72791000
_cell_formula_units_Z   2
loop_
 _symmetry_equiv_pos_site_id
 _symmetry_equiv_pos_as_xyz
  1  'x, y, z'
loop_
 _atom_site_type_symbol
 _atom_site_label
 _atom_site_symmetry_multiplicity
 _atom_site_fract_x
 _atom_site_fract_y
 _atom_site_fract_z
 _atom_site_occupancy
  K  K0  1  0.24310599  0.75769486  0.00073848  1
  K  K1  1  0.75689401  0.25769486  0.99926152  1
  La  La2  1  0.24928991  0.80766589  0.49993398  1
  La  La3  1  0.75071009  0.30766589  0.50006602  1
  Mn  Mn4  1  0.74623883  0.77516930  0.24406642  1
  Mn  Mn5  1  0.25376117  0.27516930  0.75593358  1
  W  W6  1  0.75754496  0.76926808  0.75034380  1
  W  W7  1  0.24245504  0.26926808  0.24965620  1
  O  O8  1  0.54231785  0.02751900  0.69322430  1
  O  O9  1  0.45768215  0.52751900  0.30677570  1
  O  O10  1  0.51078069  0.05906136  0.30747129  1
  O  O11  1  0.48921931  0.55906136  0.69252871  1
  O  O12  1  0.97874975  0.47200831  0.24603434  1
  O  O13  1  0.02125025  0.97200831  0.75396566  1
  O  O14  1  0.95004257  0.49390015  0.75691697  1
  O  O15  1  0.04995743  0.99390015  0.24308303  1
  O  O16  1  0.82574554  0.74682603  0.50547961  1
  O  O17  1  0.17425446  0.24682603  0.49452039  1
  O  O18  1  0.70736984  0.77427704  0.97462902  1
  O  O19  1  0.29263016  0.27427704  0.02537098  1
