# generated using pymatgen
data_Ce2Co17
_symmetry_space_group_name_H-M   'P 1'
_cell_length_a   6.30282366
_cell_length_b   6.30282366
_cell_length_c   6.30282351
_cell_angle_alpha   83.08560813
_cell_angle_beta   83.08560813
_cell_angle_gamma   83.08561084
_symmetry_Int_Tables_number   1
_chemical_formula_structural   Ce2Co17
_chemical_formula_sum   'Ce2 Co17'
_cell_volume   245.32598852
_cell_formula_units_Z   1
loop_
 _symmetry_equiv_pos_site_id
 _symmetry_equiv_pos_as_xyz
  1  'x, y, z'
loop_
 _atom_site_type_symbol
 _atom_site_label
 _atom_site_symmetry_multiplicity
 _atom_site_fract_x
 _atom_site_fract_y
 _atom_site_fract_z
 _atom_site_occupancy
  Ce  Ce0  1  0.65508147  0.65508147  0.65508147  1
  Ce  Ce1  1  0.34491853  0.34491853  0.34491853  1
  Co  Co2  1  0.00000000  -0.00000000  0.50000000  1
  Co  Co3  1  0.00000000  0.50000000  0.00000000  1
  Co  Co4  1  0.50000000  -0.00000000  0.00000000  1
  Co  Co5  1  0.28499790  0.71500210  -0.00000000  1
  Co  Co6  1  0.71500210  0.00000000  0.28499790  1
  Co  Co7  1  1.00000000  0.28499790  0.71500210  1
  Co  Co8  1  0.28499790  1.00000000  0.71500210  1
  Co  Co9  1  0.00000000  0.71500210  0.28499790  1
  Co  Co10  1  0.71500210  0.28499790  0.00000000  1
  Co  Co11  1  0.34552194  0.34552194  0.85347169  1
  Co  Co12  1  0.34552194  0.85347169  0.34552194  1
  Co  Co13  1  0.85347169  0.34552194  0.34552194  1
  Co  Co14  1  0.65447806  0.65447806  0.14652831  1
  Co  Co15  1  0.65447806  0.14652831  0.65447806  1
  Co  Co16  1  0.14652831  0.65447806  0.65447806  1
  Co  Co17  1  0.90259021  0.90259021  0.90259021  1
  Co  Co18  1  0.09740979  0.09740979  0.09740979  1
