# generated using pymatgen
data_Tb5Rh3
_symmetry_space_group_name_H-M   'P 1'
_cell_length_a   6.33921496
_cell_length_b   8.34108250
_cell_length_c   8.33368385
_cell_angle_alpha   120.02936943
_cell_angle_beta   90.00000000
_cell_angle_gamma   90.00000000
_symmetry_Int_Tables_number   1
_chemical_formula_structural   Tb5Rh3
_chemical_formula_sum   'Tb10 Rh6'
_cell_volume   381.50211013
_cell_formula_units_Z   2
loop_
 _symmetry_equiv_pos_site_id
 _symmetry_equiv_pos_as_xyz
  1  'x, y, z'
loop_
 _atom_site_type_symbol
 _atom_site_label
 _atom_site_symmetry_multiplicity
 _atom_site_fract_x
 _atom_site_fract_y
 _atom_site_fract_z
 _atom_site_occupancy
  Tb  Tb0  1  0.49999808  0.33333898  0.66671153  1
  Tb  Tb1  1  0.49999808  0.66662745  0.33328847  1
  Tb  Tb2  1  0.99999808  0.66666102  0.33328847  1
  Tb  Tb3  1  0.99999808  0.33337255  0.66671153  1
  Tb  Tb4  1  0.75001293  0.25508586  1.00000000  1
  Tb  Tb5  1  0.74998582  0.74497074  0.74501037  1
  Tb  Tb6  1  0.74998582  -0.00003963  0.25498963  1
  Tb  Tb7  1  0.25001293  0.74491414  0.00000000  1
  Tb  Tb8  1  0.24998582  0.25502926  0.25498963  1
  Tb  Tb9  1  0.24998582  0.00003963  0.74501037  1
  Rh  Rh10  1  0.75000090  0.60742450  0.00000000  1
  Rh  Rh11  1  0.75000918  0.39264788  0.39268075  1
  Rh  Rh12  1  0.75000918  0.99996713  0.60731925  1
  Rh  Rh13  1  0.25000090  0.39257550  1.00000000  1
  Rh  Rh14  1  0.25000918  0.60735212  0.60731925  1
  Rh  Rh15  1  0.25000918  0.00003287  0.39268075  1
