# generated using pymatgen
data_KNdMnWO6
_symmetry_space_group_name_H-M   'P 1'
_cell_length_a   5.66246288
_cell_length_b   5.75818084
_cell_length_c   8.27038415
_cell_angle_alpha   90.00000000
_cell_angle_beta   90.53523109
_cell_angle_gamma   90.00000000
_symmetry_Int_Tables_number   1
_chemical_formula_structural   KNdMnWO6
_chemical_formula_sum   'K2 Nd2 Mn2 W2 O12'
_cell_volume   269.64812279
_cell_formula_units_Z   2
loop_
 _symmetry_equiv_pos_site_id
 _symmetry_equiv_pos_as_xyz
  1  'x, y, z'
loop_
 _atom_site_type_symbol
 _atom_site_label
 _atom_site_symmetry_multiplicity
 _atom_site_fract_x
 _atom_site_fract_y
 _atom_site_fract_z
 _atom_site_occupancy
  K  K0  1  0.24532537  0.75341953  0.00198859  1
  K  K1  1  0.75467463  0.25341953  0.99801141  1
  Nd  Nd2  1  0.25512851  0.82263268  0.50096454  1
  Nd  Nd3  1  0.74487149  0.32263268  0.49903546  1
  Mn  Mn4  1  0.74757182  0.77795201  0.24646892  1
  Mn  Mn5  1  0.25242818  0.27795201  0.75353108  1
  W  W6  1  0.76066131  0.76901819  0.74885095  1
  W  W7  1  0.23933869  0.26901819  0.25114905  1
  O  O8  1  0.55192954  0.03324307  0.68784898  1
  O  O9  1  0.44807046  0.53324307  0.31215102  1
  O  O10  1  0.51643294  0.06597725  0.31337422  1
  O  O11  1  0.48356706  0.56597725  0.68662578  1
  O  O12  1  0.96371676  0.45996384  0.24573870  1
  O  O13  1  0.03628324  0.95996384  0.75426130  1
  O  O14  1  0.94005384  0.48367533  0.75776977  1
  O  O15  1  0.05994616  0.98367533  0.24223023  1
  O  O16  1  0.83624268  0.74046484  0.50469003  1
  O  O17  1  0.16375732  0.24046484  0.49530997  1
  O  O18  1  0.70849602  0.77705324  0.97205587  1
  O  O19  1  0.29150398  0.27705324  0.02794413  1
