# generated using pymatgen
data_Er3Ge3Ru2
_symmetry_space_group_name_H-M   'P 1'
_cell_length_a   4.24593179
_cell_length_b   5.78031681
_cell_length_c   13.86009812
_cell_angle_alpha   90.00000000
_cell_angle_beta   90.00000000
_cell_angle_gamma   111.54765212
_symmetry_Int_Tables_number   1
_chemical_formula_structural   Er3Ge3Ru2
_chemical_formula_sum   'Er6 Ge6 Ru4'
_cell_volume   316.39266680
_cell_formula_units_Z   2
loop_
 _symmetry_equiv_pos_site_id
 _symmetry_equiv_pos_as_xyz
  1  'x, y, z'
loop_
 _atom_site_type_symbol
 _atom_site_label
 _atom_site_symmetry_multiplicity
 _atom_site_fract_x
 _atom_site_fract_y
 _atom_site_fract_z
 _atom_site_occupancy
  Er  Er0  1  0.07740613  0.15481226  0.38623219  1
  Er  Er1  1  0.92259387  0.84518774  0.61376781  1
  Er  Er2  1  0.07740613  0.15481226  0.11376781  1
  Er  Er3  1  0.92259387  0.84518774  0.88623219  1
  Er  Er4  1  0.35431304  0.70862607  0.25000000  1
  Er  Er5  1  0.64568696  0.29137393  0.75000000  1
  Ge  Ge6  1  0.38545216  0.77090432  0.45954657  1
  Ge  Ge7  1  0.61454784  0.22909568  0.54045343  1
  Ge  Ge8  1  0.38545216  0.77090432  0.04045343  1
  Ge  Ge9  1  0.61454784  0.22909568  0.95954657  1
  Ge  Ge10  1  0.66202304  0.32404609  0.25000000  1
  Ge  Ge11  1  0.33797696  0.67595391  0.75000000  1
  Ru  Ru12  1  0.21300404  0.42600809  0.91682389  1
  Ru  Ru13  1  0.78699596  0.57399191  0.08317611  1
  Ru  Ru14  1  0.21300404  0.42600809  0.58317611  1
  Ru  Ru15  1  0.78699596  0.57399191  0.41682389  1
