# generated using pymatgen
data_U2Fe3Si5
_symmetry_space_group_name_H-M   'P 1'
_cell_length_a   5.47432519
_cell_length_b   7.88986637
_cell_length_c   7.88986637
_cell_angle_alpha   92.38793762
_cell_angle_beta   110.00724795
_cell_angle_gamma   110.00724795
_symmetry_Int_Tables_number   1
_chemical_formula_structural   U2Fe3Si5
_chemical_formula_sum   'U4 Fe6 Si10'
_cell_volume   295.98396978
_cell_formula_units_Z   2
loop_
 _symmetry_equiv_pos_site_id
 _symmetry_equiv_pos_as_xyz
  1  'x, y, z'
loop_
 _atom_site_type_symbol
 _atom_site_label
 _atom_site_symmetry_multiplicity
 _atom_site_fract_x
 _atom_site_fract_y
 _atom_site_fract_z
 _atom_site_occupancy
  U  U0  1  0.22534949  0.86919660  0.59087835  1
  U  U1  1  0.27465051  0.40912165  0.13080340  1
  U  U2  1  0.77465051  0.13080340  0.40912165  1
  U  U3  1  0.72534949  0.59087835  0.86919660  1
  Fe  Fe4  1  0.35832220  0.25174633  0.53965250  1
  Fe  Fe5  1  0.14167780  0.46034750  0.74825367  1
  Fe  Fe6  1  0.64167780  0.74825367  0.46034750  1
  Fe  Fe7  1  0.85832220  0.53965250  0.25174633  1
  Fe  Fe8  1  0.25000000  0.00000466  -0.00000466  1
  Fe  Fe9  1  0.75000000  -0.00000466  0.00000466  1
  Si  Si10  1  0.16798177  0.06690445  0.25925157  1
  Si  Si11  1  0.33201823  0.74074843  0.93309555  1
  Si  Si12  1  0.83201823  0.93309555  0.74074843  1
  Si  Si13  1  0.66798177  0.25925157  0.06690445  1
  Si  Si14  1  0.25000000  0.20720400  0.79279600  1
  Si  Si15  1  0.75000000  0.79279600  0.20720400  1
  Si  Si16  1  0.25000000  0.51337901  0.48662099  1
  Si  Si17  1  0.75000000  0.48662099  0.51337901  1
  Si  Si18  1  0.25000000  0.77616626  0.22383374  1
  Si  Si19  1  0.75000000  0.22383374  0.77616626  1
