# generated using pymatgen
data_Dy3Ir
_symmetry_space_group_name_H-M   'P 1'
_cell_length_a   6.37017126
_cell_length_b   7.25959060
_cell_length_c   9.26266042
_cell_angle_alpha   90.00000000
_cell_angle_beta   90.00000000
_cell_angle_gamma   90.00000000
_symmetry_Int_Tables_number   1
_chemical_formula_structural   Dy3Ir
_chemical_formula_sum   'Dy12 Ir4'
_cell_volume   428.35020648
_cell_formula_units_Z   4
loop_
 _symmetry_equiv_pos_site_id
 _symmetry_equiv_pos_as_xyz
  1  'x, y, z'
loop_
 _atom_site_type_symbol
 _atom_site_label
 _atom_site_symmetry_multiplicity
 _atom_site_fract_x
 _atom_site_fract_y
 _atom_site_fract_z
 _atom_site_occupancy
  Dy  Dy0  1  0.32810881  0.67695890  0.06284085  1
  Dy  Dy1  1  0.17189119  0.17695890  0.43715915  1
  Dy  Dy2  1  0.67189119  0.32304110  0.56284085  1
  Dy  Dy3  1  0.82810881  0.82304110  0.93715915  1
  Dy  Dy4  1  0.67189119  0.32304110  0.93715915  1
  Dy  Dy5  1  0.82810881  0.82304110  0.56284085  1
  Dy  Dy6  1  0.32810881  0.67695890  0.43715915  1
  Dy  Dy7  1  0.17189119  0.17695890  0.06284085  1
  Dy  Dy8  1  0.86722252  0.53450248  0.25000000  1
  Dy  Dy9  1  0.63277748  0.03450248  0.25000000  1
  Dy  Dy10  1  0.13277748  0.46549752  0.75000000  1
  Dy  Dy11  1  0.36722252  0.96549752  0.75000000  1
  Ir  Ir12  1  0.04860122  0.88246269  0.25000000  1
  Ir  Ir13  1  0.45139878  0.38246269  0.25000000  1
  Ir  Ir14  1  0.95139878  0.11753731  0.75000000  1
  Ir  Ir15  1  0.54860122  0.61753731  0.75000000  1
