# generated using pymatgen
data_Yb2(WO4)3
_symmetry_space_group_name_H-M   'P 1'
_cell_length_a   10.37662930
_cell_length_b   14.15484553
_cell_length_c   10.29581773
_cell_angle_alpha   90.00000000
_cell_angle_beta   90.00000000
_cell_angle_gamma   90.00000000
_symmetry_Int_Tables_number   1
_chemical_formula_structural   Yb2(WO4)3
_chemical_formula_sum   'Yb8 W12 O48'
_cell_volume   1512.24543401
_cell_formula_units_Z   4
loop_
 _symmetry_equiv_pos_site_id
 _symmetry_equiv_pos_as_xyz
  1  'x, y, z'
loop_
 _atom_site_type_symbol
 _atom_site_label
 _atom_site_symmetry_multiplicity
 _atom_site_fract_x
 _atom_site_fract_y
 _atom_site_fract_z
 _atom_site_occupancy
  Yb  Yb0  1  0.03920604  0.62123880  0.24866221  1
  Yb  Yb1  1  0.03920604  0.87876120  0.74866221  1
  Yb  Yb2  1  0.46079396  0.12123880  0.74866221  1
  Yb  Yb3  1  0.46079396  0.37876120  0.24866221  1
  Yb  Yb4  1  0.53920604  0.87876120  0.25133779  1
  Yb  Yb5  1  0.53920604  0.62123880  0.75133779  1
  Yb  Yb6  1  0.96079396  0.12123880  0.25133779  1
  Yb  Yb7  1  0.96079396  0.37876120  0.75133779  1
  W  W8  1  0.11390563  0.35562101  0.39889712  1
  W  W9  1  0.11390563  0.14437899  0.89889712  1
  W  W10  1  0.25000000  0.00000000  0.46777054  1
  W  W11  1  0.25000000  0.50000000  0.96777054  1
  W  W12  1  0.38609437  0.64437899  0.39889712  1
  W  W13  1  0.38609437  0.85562101  0.89889712  1
  W  W14  1  0.61390563  0.14437899  0.10110288  1
  W  W15  1  0.61390563  0.35562101  0.60110288  1
  W  W16  1  0.75000000  0.00000000  0.53222946  1
  W  W17  1  0.75000000  0.50000000  0.03222946  1
  W  W18  1  0.88609437  0.85562101  0.10110288  1
  W  W19  1  0.88609437  0.64437899  0.60110288  1
  O  O20  1  0.99356163  0.76960464  0.17305381  1
  O  O21  1  0.99356163  0.73039536  0.67305381  1
  O  O22  1  0.07717970  0.02747483  0.83578001  1
  O  O23  1  0.07717970  0.47252517  0.33578001  1
  O  O24  1  0.09299883  0.14503205  0.07349953  1
  O  O25  1  0.09299883  0.35496795  0.57349953  1
  O  O26  1  0.13264491  0.06083014  0.36702209  1
  O  O27  1  0.13264491  0.43916986  0.86702209  1
  O  O28  1  0.16674067  0.91618126  0.57044686  1
  O  O29  1  0.16674067  0.58381874  0.07044686  1
  O  O30  1  0.22108515  0.82683842  0.85716824  1
  O  O31  1  0.22108515  0.67316158  0.35716824  1
  O  O32  1  0.27891485  0.17316158  0.85716824  1
  O  O33  1  0.27891485  0.32683842  0.35716824  1
  O  O34  1  0.33325933  0.08381874  0.57044686  1
  O  O35  1  0.33325933  0.41618126  0.07044686  1
  O  O36  1  0.36735509  0.56083014  0.86702209  1
  O  O37  1  0.36735509  0.93916986  0.36702209  1
  O  O38  1  0.40700117  0.64503205  0.57349953  1
  O  O39  1  0.40700117  0.85496795  0.07349953  1
  O  O40  1  0.42282030  0.52747483  0.33578001  1
  O  O41  1  0.42282030  0.97252517  0.83578001  1
  O  O42  1  0.50643837  0.26960464  0.67305381  1
  O  O43  1  0.50643837  0.23039536  0.17305381  1
  O  O44  1  0.49356163  0.73039536  0.32694619  1
  O  O45  1  0.49356163  0.76960464  0.82694619  1
  O  O46  1  0.57717970  0.02747483  0.16421999  1
  O  O47  1  0.57717970  0.47252517  0.66421999  1
  O  O48  1  0.59299883  0.35496795  0.42650047  1
  O  O49  1  0.59299883  0.14503205  0.92650047  1
  O  O50  1  0.63264491  0.06083014  0.63297791  1
  O  O51  1  0.63264491  0.43916986  0.13297791  1
  O  O52  1  0.66674067  0.91618126  0.42955314  1
  O  O53  1  0.66674067  0.58381874  0.92955314  1
  O  O54  1  0.72108515  0.67316158  0.64283176  1
  O  O55  1  0.72108515  0.82683842  0.14283176  1
  O  O56  1  0.77891485  0.17316158  0.14283176  1
  O  O57  1  0.77891485  0.32683842  0.64283176  1
  O  O58  1  0.83325933  0.41618126  0.92955314  1
  O  O59  1  0.83325933  0.08381874  0.42955314  1
  O  O60  1  0.86735509  0.93916986  0.63297791  1
  O  O61  1  0.86735509  0.56083014  0.13297791  1
  O  O62  1  0.90700117  0.85496795  0.92650047  1
  O  O63  1  0.90700117  0.64503205  0.42650047  1
  O  O64  1  0.92282030  0.97252517  0.16421999  1
  O  O65  1  0.92282030  0.52747483  0.66421999  1
  O  O66  1  0.00643837  0.23039536  0.82694619  1
  O  O67  1  0.00643837  0.26960464  0.32694619  1
