# generated using pymatgen
data_Dy7Rh3
_symmetry_space_group_name_H-M   'P 1'
_cell_length_a   6.15441704
_cell_length_b   9.80070878
_cell_length_c   9.80070878
_cell_angle_alpha   120.00615459
_cell_angle_beta   90.00000000
_cell_angle_gamma   90.00000000
_symmetry_Int_Tables_number   1
_chemical_formula_structural   Dy7Rh3
_chemical_formula_sum   'Dy14 Rh6'
_cell_volume   511.92411212
_cell_formula_units_Z   2
loop_
 _symmetry_equiv_pos_site_id
 _symmetry_equiv_pos_as_xyz
  1  'x, y, z'
loop_
 _atom_site_type_symbol
 _atom_site_label
 _atom_site_symmetry_multiplicity
 _atom_site_fract_x
 _atom_site_fract_y
 _atom_site_fract_z
 _atom_site_occupancy
  Dy  Dy0  1  0.46499366  0.33328718  0.66671282  1
  Dy  Dy1  1  0.96499366  0.66671282  0.33328718  1
  Dy  Dy2  1  0.25772686  0.12444960  0.87555040  1
  Dy  Dy3  1  0.25757171  0.75106923  0.87561493  1
  Dy  Dy4  1  0.25757171  0.12438507  0.24893077  1
  Dy  Dy5  1  0.75772686  0.87555040  0.12444960  1
  Dy  Dy6  1  0.75757171  0.24893077  0.12438507  1
  Dy  Dy7  1  0.75757171  0.87561493  0.75106923  1
  Dy  Dy8  1  0.45272047  0.54058271  0.45941729  1
  Dy  Dy9  1  0.45276960  0.91885368  0.45936777  1
  Dy  Dy10  1  0.45276960  0.54063223  0.08114632  1
  Dy  Dy11  1  0.95272047  0.45941729  0.54058271  1
  Dy  Dy12  1  0.95276960  0.08114632  0.54063223  1
  Dy  Dy13  1  0.95276960  0.45936777  0.91885368  1
  Rh  Rh14  1  0.18764931  0.81030449  0.18969551  1
  Rh  Rh15  1  0.18711354  0.37930048  0.18951985  1
  Rh  Rh16  1  0.18711354  0.81048015  0.62069952  1
  Rh  Rh17  1  0.68764931  0.18969551  0.81030449  1
  Rh  Rh18  1  0.68711354  0.62069952  0.81048015  1
  Rh  Rh19  1  0.68711354  0.18951985  0.37930048  1
