# generated using pymatgen
data_CsScUSe5
_symmetry_space_group_name_H-M   'P 1'
_cell_length_a   4.15904348
_cell_length_b   10.71371866
_cell_length_c   11.04657288
_cell_angle_alpha   90.00000000
_cell_angle_beta   100.85069838
_cell_angle_gamma   90.00000000
_symmetry_Int_Tables_number   1
_chemical_formula_structural   CsScUSe5
_chemical_formula_sum   'Cs2 Sc2 U2 Se10'
_cell_volume   483.42185972
_cell_formula_units_Z   2
loop_
 _symmetry_equiv_pos_site_id
 _symmetry_equiv_pos_as_xyz
  1  'x, y, z'
loop_
 _atom_site_type_symbol
 _atom_site_label
 _atom_site_symmetry_multiplicity
 _atom_site_fract_x
 _atom_site_fract_y
 _atom_site_fract_z
 _atom_site_occupancy
  Cs  Cs0  1  0.15863252  0.75000000  0.31726603  1
  Cs  Cs1  1  0.84136748  0.25000000  0.68273397  1
  Sc  Sc2  1  0.00000000  0.50000000  0.00000000  1
  Sc  Sc3  1  0.00000000  -0.00000000  0.00000000  1
  U  U4  1  0.38327696  0.75000000  0.76655291  1
  U  U5  1  0.61672304  0.25000000  0.23344709  1
  Se  Se6  1  0.80476396  0.63856302  0.60952693  1
  Se  Se7  1  0.19523604  0.36143698  0.39047307  1
  Se  Se8  1  0.80476396  0.86143698  0.60952693  1
  Se  Se9  1  0.19523604  0.13856302  0.39047307  1
  Se  Se10  1  0.58283641  0.51363993  0.16567283  1
  Se  Se11  1  0.41716359  0.48636007  0.83432717  1
  Se  Se12  1  0.58283641  0.98636007  0.16567283  1
  Se  Se13  1  0.41716359  0.01363993  0.83432717  1
  Se  Se14  1  0.97862647  0.75000000  0.95725293  1
  Se  Se15  1  0.02137353  0.25000000  0.04274707  1
