# generated using pymatgen
data_SmCrO3
_symmetry_space_group_name_H-M   'P 1'
_cell_length_a   5.41137245
_cell_length_b   5.62929167
_cell_length_c   7.74925993
_cell_angle_alpha   90.00000000
_cell_angle_beta   90.00000000
_cell_angle_gamma   90.00000000
_symmetry_Int_Tables_number   1
_chemical_formula_structural   SmCrO3
_chemical_formula_sum   'Sm4 Cr4 O12'
_cell_volume   236.05945823
_cell_formula_units_Z   4
loop_
 _symmetry_equiv_pos_site_id
 _symmetry_equiv_pos_as_xyz
  1  'x, y, z'
loop_
 _atom_site_type_symbol
 _atom_site_label
 _atom_site_symmetry_multiplicity
 _atom_site_fract_x
 _atom_site_fract_y
 _atom_site_fract_z
 _atom_site_occupancy
  Sm  Sm0  1  0.51638420  0.55913546  0.25000000  1
  Sm  Sm1  1  0.98361580  0.05913546  0.25000000  1
  Sm  Sm2  1  0.48361580  0.44086454  0.75000000  1
  Sm  Sm3  1  0.01638420  0.94086454  0.75000000  1
  Cr  Cr4  1  0.00000000  0.50000000  -0.00000000  1
  Cr  Cr5  1  0.50000000  -0.00000000  0.50000000  1
  Cr  Cr6  1  -0.00000000  0.50000000  0.50000000  1
  Cr  Cr7  1  0.50000000  -0.00000000  -0.00000000  1
  O  O8  1  0.39931976  0.96707403  0.25000000  1
  O  O9  1  0.10068024  0.46707403  0.25000000  1
  O  O10  1  0.60068024  0.03292597  0.75000000  1
  O  O11  1  0.89931976  0.53292597  0.75000000  1
  O  O12  1  0.79866462  0.79595497  0.05288520  1
  O  O13  1  0.70133538  0.29595497  0.44711480  1
  O  O14  1  0.20133538  0.20404503  0.55288520  1
  O  O15  1  0.29866462  0.70404503  0.94711480  1
  O  O16  1  0.20133538  0.20404503  0.94711480  1
  O  O17  1  0.29866462  0.70404503  0.55288520  1
  O  O18  1  0.79866462  0.79595497  0.44711480  1
  O  O19  1  0.70133538  0.29595497  0.05288520  1
