# generated using pymatgen
data_DySiPd2
_symmetry_space_group_name_H-M   'P 1'
_cell_length_a   5.54440069
_cell_length_b   6.96499325
_cell_length_c   7.35394514
_cell_angle_alpha   90.00000000
_cell_angle_beta   90.00000000
_cell_angle_gamma   90.00000000
_symmetry_Int_Tables_number   1
_chemical_formula_structural   DySiPd2
_chemical_formula_sum   'Dy4 Si4 Pd8'
_cell_volume   283.98519169
_cell_formula_units_Z   4
loop_
 _symmetry_equiv_pos_site_id
 _symmetry_equiv_pos_as_xyz
  1  'x, y, z'
loop_
 _atom_site_type_symbol
 _atom_site_label
 _atom_site_symmetry_multiplicity
 _atom_site_fract_x
 _atom_site_fract_y
 _atom_site_fract_z
 _atom_site_occupancy
  Dy  Dy0  1  0.14415294  0.75000000  0.47009431  1
  Dy  Dy1  1  0.35584706  0.75000000  0.97009431  1
  Dy  Dy2  1  0.85584706  0.25000000  0.52990569  1
  Dy  Dy3  1  0.64415294  0.25000000  0.02990569  1
  Si  Si4  1  0.85489229  0.75000000  0.12149300  1
  Si  Si5  1  0.64510771  0.75000000  0.62149300  1
  Si  Si6  1  0.14510771  0.25000000  0.87850700  1
  Si  Si7  1  0.35489229  0.25000000  0.37850700  1
  Pd  Pd8  1  0.59373876  0.94889156  0.32194873  1
  Pd  Pd9  1  0.90626124  0.55110844  0.82194873  1
  Pd  Pd10  1  0.40626124  0.44889156  0.67805127  1
  Pd  Pd11  1  0.09373876  0.05110844  0.17805127  1
  Pd  Pd12  1  0.40626124  0.05110844  0.67805127  1
  Pd  Pd13  1  0.09373876  0.44889156  0.17805127  1
  Pd  Pd14  1  0.59373876  0.55110844  0.32194873  1
  Pd  Pd15  1  0.90626124  0.94889156  0.82194873  1
