# generated using pymatgen
data_Eu5Sb3
_symmetry_space_group_name_H-M   'P 1'
_cell_length_a   7.07286203
_cell_length_b   9.36332033
_cell_length_c   9.36321514
_cell_angle_alpha   120.00037438
_cell_angle_beta   90.00000000
_cell_angle_gamma   90.00000000
_symmetry_Int_Tables_number   1
_chemical_formula_structural   Eu5Sb3
_chemical_formula_sum   'Eu10 Sb6'
_cell_volume   537.00590750
_cell_formula_units_Z   2
loop_
 _symmetry_equiv_pos_site_id
 _symmetry_equiv_pos_as_xyz
  1  'x, y, z'
loop_
 _atom_site_type_symbol
 _atom_site_label
 _atom_site_symmetry_multiplicity
 _atom_site_fract_x
 _atom_site_fract_y
 _atom_site_fract_z
 _atom_site_occupancy
  Eu  Eu0  1  0.49999535  0.33330209  0.66669510  1
  Eu  Eu1  1  0.49999535  0.66660699  0.33330490  1
  Eu  Eu2  1  0.99999535  0.66669791  0.33330490  1
  Eu  Eu3  1  0.99999535  0.33339301  0.66669510  1
  Eu  Eu4  1  0.75000279  0.25394446  0.00000000  1
  Eu  Eu5  1  0.75000092  0.74604812  0.74604834  1
  Eu  Eu6  1  0.75000092  -0.00000022  0.25395166  1
  Eu  Eu7  1  0.25000279  0.74605554  -0.00000000  1
  Eu  Eu8  1  0.25000092  0.25395188  0.25395166  1
  Eu  Eu9  1  0.25000092  0.00000022  0.74604834  1
  Sb  Sb10  1  0.74999962  0.61049164  0.00000000  1
  Sb  Sb11  1  0.75000253  0.38950824  0.38950910  1
  Sb  Sb12  1  0.75000253  0.99999914  0.61049090  1
  Sb  Sb13  1  0.24999962  0.38950836  1.00000000  1
  Sb  Sb14  1  0.25000253  0.61049176  0.61049090  1
  Sb  Sb15  1  0.25000253  0.00000086  0.38950910  1
