# generated using pymatgen
data_Pr(TmS2)3
_symmetry_space_group_name_H-M   'P 1'
_cell_length_a   3.96603288
_cell_length_b   11.26348510
_cell_length_c   11.04474743
_cell_angle_alpha   108.91159111
_cell_angle_beta   90.00000000
_cell_angle_gamma   90.00000000
_symmetry_Int_Tables_number   1
_chemical_formula_structural   Pr(TmS2)3
_chemical_formula_sum   'Pr2 Tm6 S12'
_cell_volume   466.75085123
_cell_formula_units_Z   2
loop_
 _symmetry_equiv_pos_site_id
 _symmetry_equiv_pos_as_xyz
  1  'x, y, z'
loop_
 _atom_site_type_symbol
 _atom_site_label
 _atom_site_symmetry_multiplicity
 _atom_site_fract_x
 _atom_site_fract_y
 _atom_site_fract_z
 _atom_site_occupancy
  Pr  Pr0  1  0.25000000  0.19527575  0.54961918  1
  Pr  Pr1  1  0.75000000  0.80472425  0.45038082  1
  Tm  Tm2  1  0.25000000  0.00117488  0.17979695  1
  Tm  Tm3  1  0.75000000  0.99882512  0.82020305  1
  Tm  Tm4  1  0.25000000  0.33324025  0.94094673  1
  Tm  Tm5  1  0.75000000  0.66675975  0.05905327  1
  Tm  Tm6  1  0.25000000  0.58670923  0.66105224  1
  Tm  Tm7  1  0.75000000  0.41329077  0.33894776  1
  S  S8  1  0.25000000  0.11198831  0.97771710  1
  S  S9  1  0.75000000  0.88801169  0.02228290  1
  S  S10  1  0.25000000  0.25149311  0.30365827  1
  S  S11  1  0.75000000  0.74850689  0.69634173  1
  S  S12  1  0.25000000  0.55930062  0.89458015  1
  S  S13  1  0.75000000  0.44069938  0.10541985  1
  S  S14  1  0.25000000  0.59309862  0.41867730  1
  S  S15  1  0.75000000  0.40690138  0.58132270  1
  S  S16  1  0.25000000  0.77128581  0.23338566  1
  S  S17  1  0.75000000  0.22871419  0.76661434  1
  S  S18  1  0.25000000  0.96394278  0.62012181  1
  S  S19  1  0.75000000  0.03605722  0.37987819  1
