# generated using pymatgen
data_CaGe2Pt
_symmetry_space_group_name_H-M   'P 1'
_cell_length_a   4.48883833
_cell_length_b   8.95186752
_cell_length_c   9.49796682
_cell_angle_alpha   118.11558293
_cell_angle_beta   103.66857084
_cell_angle_gamma   90.00000000
_symmetry_Int_Tables_number   1
_chemical_formula_structural   CaGe2Pt
_chemical_formula_sum   'Ca4 Ge8 Pt4'
_cell_volume   324.31826319
_cell_formula_units_Z   4
loop_
 _symmetry_equiv_pos_site_id
 _symmetry_equiv_pos_as_xyz
  1  'x, y, z'
loop_
 _atom_site_type_symbol
 _atom_site_label
 _atom_site_symmetry_multiplicity
 _atom_site_fract_x
 _atom_site_fract_y
 _atom_site_fract_z
 _atom_site_occupancy
  Ca  Ca0  1  0.00000000  0.25866894  0.00000000  1
  Ca  Ca1  1  0.00000000  0.74133106  0.00000000  1
  Ca  Ca2  1  0.79633838  0.29633838  0.59267676  1
  Ca  Ca3  1  0.20366162  0.70366162  0.40732324  1
  Ge  Ge4  1  0.42110392  0.92110392  0.84220784  1
  Ge  Ge5  1  0.57889608  0.07889608  0.15779216  1
  Ge  Ge6  1  0.42447252  0.42447252  0.84894504  1
  Ge  Ge7  1  0.57552748  0.57552748  0.15105496  1
  Ge  Ge8  1  0.19494224  0.04663431  0.38988447  1
  Ge  Ge9  1  0.80505776  0.95336569  0.61011553  1
  Ge  Ge10  1  0.19494224  0.34325017  0.38988447  1
  Ge  Ge11  1  0.80505776  0.65674983  0.61011553  1
  Pt  Pt12  1  0.35128376  0.10377846  0.70256753  1
  Pt  Pt13  1  0.64871624  0.89622154  0.29743247  1
  Pt  Pt14  1  0.35128376  0.59878907  0.70256753  1
  Pt  Pt15  1  0.64871624  0.40121093  0.29743247  1
