# generated using pymatgen
data_DyGa2Co3
_symmetry_space_group_name_H-M   'P 1'
_cell_length_a   3.85850015
_cell_length_b   8.94767966
_cell_length_c   8.95833796
_cell_angle_alpha   119.96064496
_cell_angle_beta   90.00000000
_cell_angle_gamma   90.00000000
_symmetry_Int_Tables_number   1
_chemical_formula_structural   DyGa2Co3
_chemical_formula_sum   'Dy3 Ga6 Co9'
_cell_volume   267.95330212
_cell_formula_units_Z   3
loop_
 _symmetry_equiv_pos_site_id
 _symmetry_equiv_pos_as_xyz
  1  'x, y, z'
loop_
 _atom_site_type_symbol
 _atom_site_label
 _atom_site_symmetry_multiplicity
 _atom_site_fract_x
 _atom_site_fract_y
 _atom_site_fract_z
 _atom_site_occupancy
  Dy  Dy0  1  -0.00000000  0.00007039  0.00000000  1
  Dy  Dy1  1  0.50000000  0.33320740  0.66649693  1
  Dy  Dy2  1  0.50000000  0.66671047  0.33350307  1
  Ga  Ga3  1  0.50000000  0.31144288  0.00000000  1
  Ga  Ga4  1  0.50000000  0.68865071  0.68865456  1
  Ga  Ga5  1  0.50000000  0.99999615  0.31134544  1
  Ga  Ga6  1  0.50000000  0.68858964  1.00000000  1
  Ga  Ga7  1  0.50000000  0.31134933  0.31135858  1
  Ga  Ga8  1  0.50000000  0.99999075  0.68864142  1
  Co  Co9  1  0.00000000  0.49996989  1.00000000  1
  Co  Co10  1  0.00000000  0.50000702  0.50000801  1
  Co  Co11  1  0.00000000  0.99999901  0.49999199  1
  Co  Co12  1  -0.00000000  0.18325232  0.36651555  1
  Co  Co13  1  0.00000000  0.18322055  0.81679308  1
  Co  Co14  1  0.00000000  0.63354956  0.81681986  1
  Co  Co15  1  -0.00000000  0.81673677  0.63348445  1
  Co  Co16  1  -0.00000000  0.36642747  0.18320692  1
  Co  Co17  1  0.00000000  0.81672970  0.18318014  1
