# generated using pymatgen
data_Nd(Co2B)6
_symmetry_space_group_name_H-M   'P 1'
_cell_length_a   5.97961540
_cell_length_b   5.97961540
_cell_length_c   5.97961592
_cell_angle_alpha   103.96245076
_cell_angle_beta   103.96245076
_cell_angle_gamma   103.96244170
_symmetry_Int_Tables_number   1
_chemical_formula_structural   Nd(Co2B)6
_chemical_formula_sum   'Nd1 Co12 B6'
_cell_volume   190.90471791
_cell_formula_units_Z   1
loop_
 _symmetry_equiv_pos_site_id
 _symmetry_equiv_pos_as_xyz
  1  'x, y, z'
loop_
 _atom_site_type_symbol
 _atom_site_label
 _atom_site_symmetry_multiplicity
 _atom_site_fract_x
 _atom_site_fract_y
 _atom_site_fract_z
 _atom_site_occupancy
  Nd  Nd0  1  0.00000000  -0.00000000  0.00000000  1
  Co  Co1  1  0.81339742  0.54149955  0.54149955  1
  Co  Co2  1  0.54149955  0.54149955  0.81339742  1
  Co  Co3  1  0.54149955  0.81339742  0.54149955  1
  Co  Co4  1  0.18660258  0.45850045  0.45850045  1
  Co  Co5  1  0.45850045  0.45850045  0.18660258  1
  Co  Co6  1  0.45850045  0.18660258  0.45850045  1
  Co  Co7  1  0.86705073  0.13294927  0.50000000  1
  Co  Co8  1  0.13294927  0.50000000  0.86705073  1
  Co  Co9  1  0.50000000  0.86705073  0.13294927  1
  Co  Co10  1  0.86705073  0.50000000  0.13294927  1
  Co  Co11  1  0.50000000  0.13294927  0.86705073  1
  Co  Co12  1  0.13294927  0.86705073  0.50000000  1
  B  B13  1  0.32605144  0.76822664  0.76822664  1
  B  B14  1  0.76822664  0.76822664  0.32605144  1
  B  B15  1  0.76822664  0.32605144  0.76822664  1
  B  B16  1  0.67394856  0.23177336  0.23177336  1
  B  B17  1  0.23177336  0.23177336  0.67394856  1
  B  B18  1  0.23177336  0.67394856  0.23177336  1
