# generated using pymatgen
data_Li3V2(O2F)2
_symmetry_space_group_name_H-M   'P 1'
_cell_length_a   5.99343893
_cell_length_b   5.96785656
_cell_length_c   14.88106640
_cell_angle_alpha   90.00000211
_cell_angle_beta   90.34456784
_cell_angle_gamma   119.85890022
_symmetry_Int_Tables_number   1
_chemical_formula_structural   Li3V2(O2F)2
_chemical_formula_sum   'Li12 V8 O16 F8'
_cell_volume   461.59855144
_cell_formula_units_Z   4
loop_
 _symmetry_equiv_pos_site_id
 _symmetry_equiv_pos_as_xyz
  1  'x, y, z'
loop_
 _atom_site_type_symbol
 _atom_site_label
 _atom_site_symmetry_multiplicity
 _atom_site_fract_x
 _atom_site_fract_y
 _atom_site_fract_z
 _atom_site_occupancy
  Li  Li0  1  0.17870906  0.87640357  0.16981161  1
  Li  Li1  1  0.17203435  0.83966268  0.66719408  1
  Li  Li2  1  0.99333857  0.49666928  0.04610860  1
  Li  Li3  1  0.17870906  0.30230549  0.16981161  1
  Li  Li4  1  0.17203435  0.33237168  0.66719408  1
  Li  Li5  1  0.33389314  0.66694657  0.30952103  1
  Li  Li6  1  0.67542175  0.83771088  0.15990100  1
  Li  Li7  1  0.66692068  0.83346034  0.66591881  1
  Li  Li8  1  0.51616364  0.49290268  0.03710259  1
  Li  Li9  1  0.51616364  0.02326096  0.03710259  1
  Li  Li10  1  0.80296808  0.63551790  0.28895257  1
  Li  Li11  1  0.80296808  0.16745017  0.28895257  1
  V  V12  1  0.99173335  0.49586617  0.50488050  1
  V  V13  1  0.00532409  0.00266204  0.49111523  1
  V  V14  1  0.33338653  0.66669377  0.83649041  1
  V  V15  1  0.49957740  0.49740461  0.50253337  1
  V  V16  1  0.34099809  0.17049854  0.83322092  1
  V  V17  1  0.49957740  0.00217279  0.50253337  1
  V  V18  1  0.83527454  0.66830093  0.83099460  1
  V  V19  1  0.83527454  0.16697361  0.83099460  1
  O  O20  1  0.17702883  0.83480840  0.89880666  1
  O  O21  1  0.15362555  0.81890431  0.43470192  1
  O  O22  1  0.00900337  0.50450219  0.76066950  1
  O  O23  1  0.15362555  0.33472124  0.43470192  1
  O  O24  1  0.17702883  0.34222043  0.89880666  1
  O  O25  1  0.02147621  0.01073860  0.75643140  1
  O  O26  1  0.33200210  0.66600055  0.57775444  1
  O  O27  1  0.66727131  0.83363615  0.89640080  1
  O  O28  1  0.66566241  0.83283121  0.43478364  1
  O  O29  1  0.49131638  0.50597629  0.75916981  1
  O  O30  1  0.31538699  0.15769349  0.57226443  1
  O  O31  1  0.67309922  0.33654961  0.43546554  1
  O  O32  1  0.64616280  0.32308140  0.89981379  1
  O  O33  1  0.49131638  0.98533909  0.75916981  1
  O  O34  1  0.84969713  0.68313244  0.57286458  1
  O  O35  1  0.84969713  0.16656469  0.57286458  1
  F  F36  1  0.01115872  0.50557936  0.25731577  1
  F  F37  1  0.97182618  0.98591259  0.24655302  1
  F  F38  1  0.34509453  0.67254726  0.07608250  1
  F  F39  1  0.48318814  0.51592733  0.24382683  1
  F  F40  1  0.33250097  0.16624998  0.08443233  1
  F  F41  1  0.48318814  0.96726080  0.24382683  1
  F  F42  1  0.84125190  0.67370427  0.08814554  1
  F  F43  1  0.84125190  0.16754763  0.08814554  1
