# generated using pymatgen
data_Lu6GaNi2
_symmetry_space_group_name_H-M   'P 1'
_cell_length_a   8.12327575
_cell_length_b   8.12327575
_cell_length_c   8.12327575
_cell_angle_alpha   106.49925063
_cell_angle_beta   110.24761111
_cell_angle_gamma   111.71063767
_symmetry_Int_Tables_number   1
_chemical_formula_structural   Lu6GaNi2
_chemical_formula_sum   'Lu12 Ga2 Ni4'
_cell_volume   411.74216481
_cell_formula_units_Z   2
loop_
 _symmetry_equiv_pos_site_id
 _symmetry_equiv_pos_as_xyz
  1  'x, y, z'
loop_
 _atom_site_type_symbol
 _atom_site_label
 _atom_site_symmetry_multiplicity
 _atom_site_fract_x
 _atom_site_fract_y
 _atom_site_fract_z
 _atom_site_occupancy
  Lu  Lu0  1  0.69936230  0.26367898  0.96304128  1
  Lu  Lu1  1  0.30063770  0.73632102  0.03695872  1
  Lu  Lu2  1  0.69936230  0.73632102  0.43568332  1
  Lu  Lu3  1  0.30063770  0.26367898  0.56431668  1
  Lu  Lu4  1  0.80094574  0.12953150  0.32858576  1
  Lu  Lu5  1  0.80094574  0.47235999  0.67141424  1
  Lu  Lu6  1  0.19905426  0.87046850  0.67141424  1
  Lu  Lu7  1  0.19905426  0.52764001  0.32858576  1
  Lu  Lu8  1  0.60785865  0.78723023  0.82062843  1
  Lu  Lu9  1  0.96660180  0.78723023  0.17937157  1
  Lu  Lu10  1  0.03339820  0.21276977  0.82062843  1
  Lu  Lu11  1  0.39214135  0.21276977  0.17937157  1
  Ga  Ga12  1  0.50000000  0.50000000  -0.00000000  1
  Ga  Ga13  1  0.50000000  -0.00000000  0.50000000  1
  Ni  Ni14  1  0.85247506  0.50000000  0.35247506  1
  Ni  Ni15  1  0.14752494  0.50000000  0.64752494  1
  Ni  Ni16  1  0.00000000  0.12706293  0.12706293  1
  Ni  Ni17  1  -0.00000000  0.87293707  0.87293707  1
