# generated using pymatgen
data_Zr5SiSn3
_symmetry_space_group_name_H-M   'P 1'
_cell_length_a   5.92534732
_cell_length_b   8.70660059
_cell_length_c   8.70586264
_cell_angle_alpha   120.00280108
_cell_angle_beta   90.00000000
_cell_angle_gamma   90.00000000
_symmetry_Int_Tables_number   1
_chemical_formula_structural   Zr5SiSn3
_chemical_formula_sum   'Zr10 Si2 Sn6'
_cell_volume   388.94896266
_cell_formula_units_Z   2
loop_
 _symmetry_equiv_pos_site_id
 _symmetry_equiv_pos_as_xyz
  1  'x, y, z'
loop_
 _atom_site_type_symbol
 _atom_site_label
 _atom_site_symmetry_multiplicity
 _atom_site_fract_x
 _atom_site_fract_y
 _atom_site_fract_z
 _atom_site_occupancy
  Zr  Zr0  1  0.49999980  0.33333135  0.66665539  1
  Zr  Zr1  1  0.49999980  0.66667596  0.33334461  1
  Zr  Zr2  1  -0.00000020  0.66666865  0.33334461  1
  Zr  Zr3  1  -0.00000020  0.33332404  0.66665539  1
  Zr  Zr4  1  0.74999826  0.25713678  0.00000000  1
  Zr  Zr5  1  0.75000197  0.74289514  0.74294571  1
  Zr  Zr6  1  0.75000197  0.99994943  0.25705429  1
  Zr  Zr7  1  0.24999826  0.74286322  1.00000000  1
  Zr  Zr8  1  0.25000197  0.25710486  0.25705429  1
  Zr  Zr9  1  0.25000197  0.00005057  0.74294571  1
  Si  Si10  1  0.50000656  -0.00000126  0.00000000  1
  Si  Si11  1  0.00000656  0.00000126  -0.00000000  1
  Sn  Sn12  1  0.74998401  0.60610624  0.00000000  1
  Sn  Sn13  1  0.75000382  0.39385403  0.39384381  1
  Sn  Sn14  1  0.75000382  0.00001022  0.60615619  1
  Sn  Sn15  1  0.24998401  0.39389376  1.00000000  1
  Sn  Sn16  1  0.25000382  0.60614597  0.60615619  1
  Sn  Sn17  1  0.25000382  0.99998978  0.39384381  1
