# generated using pymatgen
data_PrGePd2
_symmetry_space_group_name_H-M   'P 1'
_cell_length_a   5.80829692
_cell_length_b   7.69356516
_cell_length_c   7.10158290
_cell_angle_alpha   90.00000000
_cell_angle_beta   90.00000000
_cell_angle_gamma   90.00000000
_symmetry_Int_Tables_number   1
_chemical_formula_structural   PrGePd2
_chemical_formula_sum   'Pr4 Ge4 Pd8'
_cell_volume   317.34496112
_cell_formula_units_Z   4
loop_
 _symmetry_equiv_pos_site_id
 _symmetry_equiv_pos_as_xyz
  1  'x, y, z'
loop_
 _atom_site_type_symbol
 _atom_site_label
 _atom_site_symmetry_multiplicity
 _atom_site_fract_x
 _atom_site_fract_y
 _atom_site_fract_z
 _atom_site_occupancy
  Pr  Pr0  1  0.85117615  0.53042151  0.25000000  1
  Pr  Pr1  1  0.64882385  0.03042151  0.25000000  1
  Pr  Pr2  1  0.14882385  0.46957849  0.75000000  1
  Pr  Pr3  1  0.35117615  0.96957849  0.75000000  1
  Ge  Ge4  1  0.14764818  0.87710745  0.25000000  1
  Ge  Ge5  1  0.35235182  0.37710745  0.25000000  1
  Ge  Ge6  1  0.85235182  0.12289255  0.75000000  1
  Ge  Ge7  1  0.64764818  0.62289255  0.75000000  1
  Pd  Pd8  1  0.41112878  0.67895515  0.05308835  1
  Pd  Pd9  1  0.08887122  0.17895515  0.44691165  1
  Pd  Pd10  1  0.58887122  0.32104485  0.55308835  1
  Pd  Pd11  1  0.91112878  0.82104485  0.94691165  1
  Pd  Pd12  1  0.58887122  0.32104485  0.94691165  1
  Pd  Pd13  1  0.91112878  0.82104485  0.55308835  1
  Pd  Pd14  1  0.41112878  0.67895515  0.44691165  1
  Pd  Pd15  1  0.08887122  0.17895515  0.05308835  1
