# generated using pymatgen
data_Lu5Ge3
_symmetry_space_group_name_H-M   'P 1'
_cell_length_a   6.21117959
_cell_length_b   8.29261845
_cell_length_c   8.29571963
_cell_angle_alpha   119.98763738
_cell_angle_beta   90.00000000
_cell_angle_gamma   90.00000000
_symmetry_Int_Tables_number   1
_chemical_formula_structural   Lu5Ge3
_chemical_formula_sum   'Lu10 Ge6'
_cell_volume   370.08761877
_cell_formula_units_Z   2
loop_
 _symmetry_equiv_pos_site_id
 _symmetry_equiv_pos_as_xyz
  1  'x, y, z'
loop_
 _atom_site_type_symbol
 _atom_site_label
 _atom_site_symmetry_multiplicity
 _atom_site_fract_x
 _atom_site_fract_y
 _atom_site_fract_z
 _atom_site_occupancy
  Lu  Lu0  1  0.50000578  0.33336211  0.66675355  1
  Lu  Lu1  1  0.50000578  0.66660856  0.33324645  1
  Lu  Lu2  1  0.00000578  0.66663789  0.33324645  1
  Lu  Lu3  1  0.00000578  0.33339144  0.66675355  1
  Lu  Lu4  1  0.75001021  0.24305380  1.00000000  1
  Lu  Lu5  1  0.75000067  0.75682510  0.75691319  1
  Lu  Lu6  1  0.75000067  0.99991191  0.24308681  1
  Lu  Lu7  1  0.25001021  0.75694620  0.00000000  1
  Lu  Lu8  1  0.25000067  0.24317490  0.24308681  1
  Lu  Lu9  1  0.25000067  0.00008809  0.75691319  1
  Ge  Ge10  1  0.74997935  0.60625757  1.00000000  1
  Ge  Ge11  1  0.74999877  0.39360243  0.39348138  1
  Ge  Ge12  1  0.74999877  0.00012105  0.60651862  1
  Ge  Ge13  1  0.24997935  0.39374243  0.00000000  1
  Ge  Ge14  1  0.24999877  0.60639757  0.60651862  1
  Ge  Ge15  1  0.24999877  0.99987895  0.39348138  1
