# generated using pymatgen
data_Sr7Ag3
_symmetry_space_group_name_H-M   'P 1'
_cell_length_a   7.35013035
_cell_length_b   11.33589659
_cell_length_c   11.33589659
_cell_angle_alpha   120.00594249
_cell_angle_beta   90.00000000
_cell_angle_gamma   90.00000000
_symmetry_Int_Tables_number   1
_chemical_formula_structural   Sr7Ag3
_chemical_formula_sum   'Sr14 Ag6'
_cell_volume   817.92110613
_cell_formula_units_Z   2
loop_
 _symmetry_equiv_pos_site_id
 _symmetry_equiv_pos_as_xyz
  1  'x, y, z'
loop_
 _atom_site_type_symbol
 _atom_site_label
 _atom_site_symmetry_multiplicity
 _atom_site_fract_x
 _atom_site_fract_y
 _atom_site_fract_z
 _atom_site_occupancy
  Sr  Sr0  1  0.44876756  0.33334536  0.66665464  1
  Sr  Sr1  1  0.94876756  0.66665464  0.33334536  1
  Sr  Sr2  1  0.24772709  0.12553528  0.87446472  1
  Sr  Sr3  1  0.24771846  0.74890833  0.87442855  1
  Sr  Sr4  1  0.24771846  0.12557145  0.25109167  1
  Sr  Sr5  1  0.74772709  0.87446472  0.12553528  1
  Sr  Sr6  1  0.74771846  0.25109167  0.12557145  1
  Sr  Sr7  1  0.74771846  0.87442855  0.74890833  1
  Sr  Sr8  1  0.43840205  0.54156495  0.45843505  1
  Sr  Sr9  1  0.43838612  0.91689686  0.45845436  1
  Sr  Sr10  1  0.43838612  0.54154564  0.08310314  1
  Sr  Sr11  1  0.93840205  0.45843505  0.54156495  1
  Sr  Sr12  1  0.93838612  0.08310314  0.54154564  1
  Sr  Sr13  1  0.93838612  0.45845436  0.91689686  1
  Ag  Ag14  1  0.16897407  0.81160006  0.18839994  1
  Ag  Ag15  1  0.16896004  0.37685263  0.18841705  1
  Ag  Ag16  1  0.16896004  0.81158295  0.62314737  1
  Ag  Ag17  1  0.66897407  0.18839994  0.81160006  1
  Ag  Ag18  1  0.66896004  0.62314737  0.81158295  1
  Ag  Ag19  1  0.66896004  0.18841705  0.37685263  1
