# generated using pymatgen
data_Pr7Pt3
_symmetry_space_group_name_H-M   'P 1'
_cell_length_a   6.54456867
_cell_length_b   10.24738823
_cell_length_c   10.24738823
_cell_angle_alpha   119.85727073
_cell_angle_beta   90.00000000
_cell_angle_gamma   90.00000000
_symmetry_Int_Tables_number   1
_chemical_formula_structural   Pr7Pt3
_chemical_formula_sum   'Pr14 Pt6'
_cell_volume   596.02004129
_cell_formula_units_Z   2
loop_
 _symmetry_equiv_pos_site_id
 _symmetry_equiv_pos_as_xyz
  1  'x, y, z'
loop_
 _atom_site_type_symbol
 _atom_site_label
 _atom_site_symmetry_multiplicity
 _atom_site_fract_x
 _atom_site_fract_y
 _atom_site_fract_z
 _atom_site_occupancy
  Pr  Pr0  1  0.45787468  0.33335859  0.66664141  1
  Pr  Pr1  1  0.95787468  0.66664141  0.33335859  1
  Pr  Pr2  1  0.24847099  0.12715786  0.87284214  1
  Pr  Pr3  1  0.24791525  0.74618591  0.87313187  1
  Pr  Pr4  1  0.24791525  0.12686813  0.25381409  1
  Pr  Pr5  1  0.74847099  0.87284214  0.12715786  1
  Pr  Pr6  1  0.74791525  0.25381409  0.12686813  1
  Pr  Pr7  1  0.74791525  0.87313187  0.74618591  1
  Pr  Pr8  1  0.44152644  0.53775338  0.46224662  1
  Pr  Pr9  1  0.44120923  0.92441026  0.46229142  1
  Pr  Pr10  1  0.44120923  0.53770858  0.07558974  1
  Pr  Pr11  1  0.94152644  0.46224662  0.53775338  1
  Pr  Pr12  1  0.94120923  0.07558974  0.53770858  1
  Pr  Pr13  1  0.94120923  0.46229142  0.92441026  1
  Pt  Pt14  1  0.18911340  0.81084425  0.18915575  1
  Pt  Pt15  1  0.18888277  0.37830060  0.18936297  1
  Pt  Pt16  1  0.18888277  0.81063703  0.62169940  1
  Pt  Pt17  1  0.68911340  0.18915575  0.81084425  1
  Pt  Pt18  1  0.68888277  0.62169940  0.81063703  1
  Pt  Pt19  1  0.68888277  0.18936297  0.37830060  1
