# generated using pymatgen
data_Dy5Ge3C
_symmetry_space_group_name_H-M   'P 1'
_cell_length_a   6.44215957
_cell_length_b   8.51941806
_cell_length_c   8.53956203
_cell_angle_alpha   119.92200459
_cell_angle_beta   90.00000000
_cell_angle_gamma   90.00000000
_symmetry_Int_Tables_number   1
_chemical_formula_structural   Dy5Ge3C
_chemical_formula_sum   'Dy10 Ge6 C2'
_cell_volume   406.20795851
_cell_formula_units_Z   2
loop_
 _symmetry_equiv_pos_site_id
 _symmetry_equiv_pos_as_xyz
  1  'x, y, z'
loop_
 _atom_site_type_symbol
 _atom_site_label
 _atom_site_symmetry_multiplicity
 _atom_site_fract_x
 _atom_site_fract_y
 _atom_site_fract_z
 _atom_site_occupancy
  Dy  Dy0  1  0.50001709  0.33314528  0.66587552  1
  Dy  Dy1  1  0.50001709  0.66726976  0.33412448  1
  Dy  Dy2  1  0.00001709  0.66685472  0.33412448  1
  Dy  Dy3  1  0.00001709  0.33273024  0.66587552  1
  Dy  Dy4  1  0.75018602  0.22084893  1.00000000  1
  Dy  Dy5  1  0.74987721  0.77813770  0.77743585  1
  Dy  Dy6  1  0.74987721  0.00070185  0.22256415  1
  Dy  Dy7  1  0.25018602  0.77915107  0.00000000  1
  Dy  Dy8  1  0.24987721  0.22186230  0.22256415  1
  Dy  Dy9  1  0.24987721  0.99929815  0.77743585  1
  Ge  Ge10  1  0.74930527  0.59201503  1.00000000  1
  Ge  Ge11  1  0.75035981  0.40714751  0.40724353  1
  Ge  Ge12  1  0.75035981  0.99990398  0.59275647  1
  Ge  Ge13  1  0.24930527  0.40798497  0.00000000  1
  Ge  Ge14  1  0.25035981  0.59285249  0.59275647  1
  Ge  Ge15  1  0.25035981  0.00009602  0.40724353  1
  C  C16  1  0.50000048  0.00019127  1.00000000  1
  C  C17  1  0.00000048  0.99980873  0.00000000  1
