# generated using pymatgen
data_Er7FeI12
_symmetry_space_group_name_H-M   'P 1'
_cell_length_a   9.67321892
_cell_length_b   9.67321892
_cell_length_c   9.67321866
_cell_angle_alpha   106.88721736
_cell_angle_beta   106.88721736
_cell_angle_gamma   106.88721364
_symmetry_Int_Tables_number   1
_chemical_formula_structural   Er7FeI12
_chemical_formula_sum   'Er7 Fe1 I12'
_cell_volume   756.11171494
_cell_formula_units_Z   1
loop_
 _symmetry_equiv_pos_site_id
 _symmetry_equiv_pos_as_xyz
  1  'x, y, z'
loop_
 _atom_site_type_symbol
 _atom_site_label
 _atom_site_symmetry_multiplicity
 _atom_site_fract_x
 _atom_site_fract_y
 _atom_site_fract_z
 _atom_site_occupancy
  Er  Er0  1  0.97761967  0.90880334  0.71250931  1
  Er  Er1  1  0.90880334  0.71250931  0.97761967  1
  Er  Er2  1  0.71250931  0.97761967  0.90880334  1
  Er  Er3  1  0.02238033  0.09119666  0.28749069  1
  Er  Er4  1  0.09119666  0.28749069  0.02238033  1
  Er  Er5  1  0.28749069  0.02238033  0.09119666  1
  Er  Er6  1  0.50000000  0.50000000  0.50000000  1
  Fe  Fe7  1  0.00000000  0.00000000  0.00000000  1
  I  I8  1  0.61200497  0.83988252  0.53477227  1
  I  I9  1  0.83988252  0.53477227  0.61200497  1
  I  I10  1  0.53477227  0.61200497  0.83988252  1
  I  I11  1  0.38799503  0.16011748  0.46522773  1
  I  I12  1  0.16011748  0.46522773  0.38799503  1
  I  I13  1  0.46522773  0.38799503  0.16011748  1
  I  I14  1  0.32228217  0.92863871  0.77406336  1
  I  I15  1  0.92863871  0.77406336  0.32228217  1
  I  I16  1  0.77406336  0.32228217  0.92863871  1
  I  I17  1  0.67771783  0.07136129  0.22593664  1
  I  I18  1  0.07136129  0.22593664  0.67771783  1
  I  I19  1  0.22593664  0.67771783  0.07136129  1
