# generated using pymatgen
data_PrGe2Pt
_symmetry_space_group_name_H-M   'P 1'
_cell_length_a   4.46022112
_cell_length_b   8.89586877
_cell_length_c   9.71876013
_cell_angle_alpha   117.23652353
_cell_angle_beta   103.26554745
_cell_angle_gamma   90.00000000
_symmetry_Int_Tables_number   1
_chemical_formula_structural   PrGe2Pt
_chemical_formula_sum   'Pr4 Ge8 Pt4'
_cell_volume   331.24637194
_cell_formula_units_Z   4
loop_
 _symmetry_equiv_pos_site_id
 _symmetry_equiv_pos_as_xyz
  1  'x, y, z'
loop_
 _atom_site_type_symbol
 _atom_site_label
 _atom_site_symmetry_multiplicity
 _atom_site_fract_x
 _atom_site_fract_y
 _atom_site_fract_z
 _atom_site_occupancy
  Pr  Pr0  1  0.00000000  0.26203213  0.00000000  1
  Pr  Pr1  1  0.00000000  0.73796787  0.00000000  1
  Pr  Pr2  1  0.79661156  0.29661156  0.59322311  1
  Pr  Pr3  1  0.20338844  0.70338844  0.40677689  1
  Ge  Ge4  1  0.42556441  0.92556441  0.85112881  1
  Ge  Ge5  1  0.57443559  0.07443559  0.14887119  1
  Ge  Ge6  1  0.42530151  0.42530151  0.85060301  1
  Ge  Ge7  1  0.57469849  0.57469849  0.14939699  1
  Ge  Ge8  1  0.19897093  0.04745394  0.39794186  1
  Ge  Ge9  1  0.80102907  0.95254606  0.60205814  1
  Ge  Ge10  1  0.19897093  0.35048792  0.39794186  1
  Ge  Ge11  1  0.80102907  0.64951208  0.60205814  1
  Pt  Pt12  1  0.35083196  0.09782773  0.70166393  1
  Pt  Pt13  1  0.64916804  0.90217227  0.29833607  1
  Pt  Pt14  1  0.35083196  0.60383620  0.70166393  1
  Pt  Pt15  1  0.64916804  0.39616380  0.29833607  1
