# generated using pymatgen
data_Li2VO2F
_symmetry_space_group_name_H-M   'P 1'
_cell_length_a   3.02958828
_cell_length_b   10.38389339
_cell_length_c   7.92407449
_cell_angle_alpha   72.18685892
_cell_angle_beta   101.16650607
_cell_angle_gamma   89.94668886
_symmetry_Int_Tables_number   1
_chemical_formula_structural   Li2VO2F
_chemical_formula_sum   'Li8 V4 O8 F4'
_cell_volume   232.35529992
_cell_formula_units_Z   4
loop_
 _symmetry_equiv_pos_site_id
 _symmetry_equiv_pos_as_xyz
  1  'x, y, z'
loop_
 _atom_site_type_symbol
 _atom_site_label
 _atom_site_symmetry_multiplicity
 _atom_site_fract_x
 _atom_site_fract_y
 _atom_site_fract_z
 _atom_site_occupancy
  Li  Li0  1  0.42526008  0.12973581  0.83460444  1
  Li  Li1  1  0.07548831  0.13718041  0.15770575  1
  Li  Li2  1  0.06663452  0.61460248  0.14306984  1
  Li  Li3  1  0.43542070  0.59398985  0.87739049  1
  Li  Li4  1  0.92513555  0.37452594  0.86683505  1
  Li  Li5  1  0.56719632  0.89625596  0.13976361  1
  Li  Li6  1  0.56909303  0.39773157  0.13344998  1
  Li  Li7  1  0.91727982  0.87016878  0.84783077  1
  V  V8  1  0.25631673  0.37315502  0.49764724  1
  V  V9  1  0.25363558  0.88250193  0.50100514  1
  V  V10  1  0.74275603  0.12557373  0.50049200  1
  V  V11  1  0.75728075  0.61111874  0.52303024  1
  O  O12  1  0.31619074  0.00446568  0.65564762  1
  O  O13  1  0.33562967  0.50270596  0.65392291  1
  O  O14  1  0.17491719  0.23984638  0.35497287  1
  O  O15  1  0.00072806  0.49907457  0.00115807  1
  O  O16  1  0.82557855  0.25464702  0.65078579  1
  O  O17  1  0.82518478  0.76310392  0.62838592  1
  O  O18  1  0.69191565  0.49905521  0.35772061  1
  O  O19  1  0.65981281  0.99610613  0.34320075  1
  F  F20  1  0.17164951  0.74532422  0.33992955  1
  F  F21  1  0.99597663  0.00093554  0.00128450  1
  F  F22  1  0.50072925  0.23960275  0.00114781  1
  F  F23  1  0.49740972  0.76314040  0.00433304  1
