# generated using pymatgen
data_Sr2ScSbO6
_symmetry_space_group_name_H-M   'P 1'
_cell_length_a   5.75153347
_cell_length_b   5.77199298
_cell_length_c   8.12851035
_cell_angle_alpha   90.07073524
_cell_angle_beta   90.00000000
_cell_angle_gamma   90.00000000
_symmetry_Int_Tables_number   1
_chemical_formula_structural   Sr2ScSbO6
_chemical_formula_sum   'Sr4 Sc2 Sb2 O12'
_cell_volume   269.84854324
_cell_formula_units_Z   2
loop_
 _symmetry_equiv_pos_site_id
 _symmetry_equiv_pos_as_xyz
  1  'x, y, z'
loop_
 _atom_site_type_symbol
 _atom_site_label
 _atom_site_symmetry_multiplicity
 _atom_site_fract_x
 _atom_site_fract_y
 _atom_site_fract_z
 _atom_site_occupancy
  Sr  Sr0  1  0.48936372  0.50271256  0.74895942  1
  Sr  Sr1  1  0.01063628  0.00271256  0.24895942  1
  Sr  Sr2  1  0.51063628  0.49728744  0.25104058  1
  Sr  Sr3  1  0.98936372  0.99728744  0.75104058  1
  Sc  Sc4  1  0.50000000  -0.00000000  0.50000000  1
  Sc  Sc5  1  -0.00000000  0.50000000  0.00000000  1
  Sb  Sb6  1  -0.00000000  0.50000000  0.50000000  1
  Sb  Sb7  1  0.50000000  -0.00000000  0.00000000  1
  O  O8  1  0.22723581  0.76041542  0.52842901  1
  O  O9  1  0.27276419  0.26041542  0.02842901  1
  O  O10  1  0.77276419  0.23958458  0.47157099  1
  O  O11  1  0.72723581  0.73958458  0.97157099  1
  O  O12  1  0.23737961  0.77391403  0.97328458  1
  O  O13  1  0.26262039  0.27391403  0.47328458  1
  O  O14  1  0.76262039  0.22608597  0.02671542  1
  O  O15  1  0.73737961  0.72608597  0.52671542  1
  O  O16  1  0.00501859  0.44700069  0.74390441  1
  O  O17  1  0.49498141  0.94700069  0.24390441  1
  O  O18  1  0.99498141  0.55299931  0.25609559  1
  O  O19  1  0.50501859  0.05299931  0.75609559  1
