# generated using pymatgen
data_LiCr2CoO6
_symmetry_space_group_name_H-M   'P 1'
_cell_length_a   6.58302897
_cell_length_b   2.90571201
_cell_length_c   5.93988765
_cell_angle_alpha   89.69866616
_cell_angle_beta   103.90831379
_cell_angle_gamma   102.55838521
_symmetry_Int_Tables_number   1
_chemical_formula_structural   LiCr2CoO6
_chemical_formula_sum   'Li1 Cr2 Co1 O6'
_cell_volume   107.51805539
_cell_formula_units_Z   1
loop_
 _symmetry_equiv_pos_site_id
 _symmetry_equiv_pos_as_xyz
  1  'x, y, z'
loop_
 _atom_site_type_symbol
 _atom_site_label
 _atom_site_symmetry_multiplicity
 _atom_site_fract_x
 _atom_site_fract_y
 _atom_site_fract_z
 _atom_site_occupancy
  Li  Li0  1  0.65792543  0.32881123  0.16121700  1
  Cr  Cr1  1  0.01418573  0.01206747  0.99166833  1
  Cr  Cr2  1  0.66140038  0.32811112  0.66523524  1
  Co  Co3  1  0.32666954  0.66446367  0.34174637  1
  O  O4  1  0.02292885  0.51640536  0.21917131  1
  O  O5  1  0.34219431  0.17193209  0.54795060  1
  O  O6  1  0.32605624  0.16488221  0.12713037  1
  O  O7  1  0.69597078  0.84441108  0.90809662  1
  O  O8  1  0.63009845  0.81508188  0.42507536  1
  O  O9  1  0.98378829  0.48444388  0.77966479  1
