# generated using pymatgen
data_Ce2SnS5
_symmetry_space_group_name_H-M   'P 1'
_cell_length_a   4.01199389
_cell_length_b   7.68603583
_cell_length_c   11.19914438
_cell_angle_alpha   90.00000000
_cell_angle_beta   90.00000000
_cell_angle_gamma   90.00000000
_symmetry_Int_Tables_number   1
_chemical_formula_structural   Ce2SnS5
_chemical_formula_sum   'Ce4 Sn2 S10'
_cell_volume   345.34049825
_cell_formula_units_Z   2
loop_
 _symmetry_equiv_pos_site_id
 _symmetry_equiv_pos_as_xyz
  1  'x, y, z'
loop_
 _atom_site_type_symbol
 _atom_site_label
 _atom_site_symmetry_multiplicity
 _atom_site_fract_x
 _atom_site_fract_y
 _atom_site_fract_z
 _atom_site_occupancy
  Ce  Ce0  1  0.50000000  0.56925322  0.16820807  1
  Ce  Ce1  1  0.50000000  0.43074678  0.83179193  1
  Ce  Ce2  1  0.50000000  0.93074678  0.66820807  1
  Ce  Ce3  1  0.50000000  0.06925322  0.33179193  1
  Sn  Sn4  1  -0.00000000  0.50000000  0.50000000  1
  Sn  Sn5  1  0.00000000  -0.00000000  -0.00000000  1
  S  S6  1  0.00000000  -0.00000000  0.50000000  1
  S  S7  1  -0.00000000  0.50000000  -0.00000000  1
  S  S8  1  -0.00000000  0.84893446  0.20690925  1
  S  S9  1  0.00000000  0.15106554  0.79309075  1
  S  S10  1  0.00000000  0.65106554  0.70690925  1
  S  S11  1  -0.00000000  0.34893446  0.29309075  1
  S  S12  1  0.50000000  0.69206931  0.42450743  1
  S  S13  1  0.50000000  0.30793069  0.57549257  1
  S  S14  1  0.50000000  0.80793069  0.92450743  1
  S  S15  1  0.50000000  0.19206931  0.07549257  1
