# generated using pymatgen
data_Zr5CuSn3
_symmetry_space_group_name_H-M   'P 1'
_cell_length_a   5.87661124
_cell_length_b   8.68074041
_cell_length_c   8.67877960
_cell_angle_alpha   120.00747508
_cell_angle_beta   90.00000000
_cell_angle_gamma   90.00000000
_symmetry_Int_Tables_number   1
_chemical_formula_structural   Zr5CuSn3
_chemical_formula_sum   'Zr10 Cu2 Sn6'
_cell_volume   383.38957915
_cell_formula_units_Z   2
loop_
 _symmetry_equiv_pos_site_id
 _symmetry_equiv_pos_as_xyz
  1  'x, y, z'
loop_
 _atom_site_type_symbol
 _atom_site_label
 _atom_site_symmetry_multiplicity
 _atom_site_fract_x
 _atom_site_fract_y
 _atom_site_fract_z
 _atom_site_occupancy
  Zr  Zr0  1  0.50000179  0.33335700  0.66670214  1
  Zr  Zr1  1  0.50000179  0.66665486  0.33329786  1
  Zr  Zr2  1  0.00000179  0.66664300  0.33329786  1
  Zr  Zr3  1  0.00000179  0.33334514  0.66670214  1
  Zr  Zr4  1  0.75000276  0.26577969  1.00000000  1
  Zr  Zr5  1  0.74999642  0.73422967  0.73421263  1
  Zr  Zr6  1  0.74999642  0.00001704  0.26578737  1
  Zr  Zr7  1  0.25000276  0.73422031  0.00000000  1
  Zr  Zr8  1  0.24999642  0.26577033  0.26578737  1
  Zr  Zr9  1  0.24999642  -0.00001704  0.73421263  1
  Cu  Cu10  1  0.50000051  0.99999572  -0.00000000  1
  Cu  Cu11  1  0.00000051  0.00000428  0.00000000  1
  Sn  Sn12  1  0.75000052  0.61581482  0.00000000  1
  Sn  Sn13  1  0.74999990  0.38427696  0.38422390  1
  Sn  Sn14  1  0.74999990  0.00005306  0.61577610  1
  Sn  Sn15  1  0.25000052  0.38418518  1.00000000  1
  Sn  Sn16  1  0.24999990  0.61572304  0.61577610  1
  Sn  Sn17  1  0.24999990  -0.00005306  0.38422390  1
