# generated using pymatgen
data_Lu5Tl3
_symmetry_space_group_name_H-M   'P 1'
_cell_length_a   6.54740672
_cell_length_b   8.81231230
_cell_length_c   8.83190764
_cell_angle_alpha   119.92663238
_cell_angle_beta   90.00000000
_cell_angle_gamma   90.00000000
_symmetry_Int_Tables_number   1
_chemical_formula_structural   Lu5Tl3
_chemical_formula_sum   'Lu10 Tl6'
_cell_volume   441.63649007
_cell_formula_units_Z   2
loop_
 _symmetry_equiv_pos_site_id
 _symmetry_equiv_pos_as_xyz
  1  'x, y, z'
loop_
 _atom_site_type_symbol
 _atom_site_label
 _atom_site_symmetry_multiplicity
 _atom_site_fract_x
 _atom_site_fract_y
 _atom_site_fract_z
 _atom_site_occupancy
  Lu  Lu0  1  0.50000462  0.33323439  0.66649459  1
  Lu  Lu1  1  0.50000462  0.66673981  0.33350541  1
  Lu  Lu2  1  0.00000462  0.66676561  0.33350541  1
  Lu  Lu3  1  0.00000462  0.33326019  0.66649459  1
  Lu  Lu4  1  0.75001182  0.24766727  0.00000000  1
  Lu  Lu5  1  0.74998197  0.75244497  0.75227504  1
  Lu  Lu6  1  0.74998197  0.00016993  0.24772496  1
  Lu  Lu7  1  0.25001182  0.75233273  1.00000000  1
  Lu  Lu8  1  0.24998197  0.24755503  0.24772496  1
  Lu  Lu9  1  0.24998197  0.99983007  0.75227504  1
  Tl  Tl10  1  0.75000727  0.60773260  0.00000000  1
  Tl  Tl11  1  0.75000386  0.39187889  0.39200040  1
  Tl  Tl12  1  0.75000386  0.99987850  0.60799960  1
  Tl  Tl13  1  0.25000727  0.39226740  1.00000000  1
  Tl  Tl14  1  0.25000386  0.60812111  0.60799960  1
  Tl  Tl15  1  0.25000386  0.00012150  0.39200040  1
