# generated using pymatgen
data_V2NiH6(NO3)2
_symmetry_space_group_name_H-M   'P 1'
_cell_length_a   5.65358447
_cell_length_b   11.13951973
_cell_length_c   12.29820750
_cell_angle_alpha   90.00000000
_cell_angle_beta   90.00000000
_cell_angle_gamma   90.00000000
_symmetry_Int_Tables_number   1
_chemical_formula_structural   V2NiH6(NO3)2
_chemical_formula_sum   'V8 Ni4 H24 N8 O24'
_cell_volume   774.51916526
_cell_formula_units_Z   4
loop_
 _symmetry_equiv_pos_site_id
 _symmetry_equiv_pos_as_xyz
  1  'x, y, z'
loop_
 _atom_site_type_symbol
 _atom_site_label
 _atom_site_symmetry_multiplicity
 _atom_site_fract_x
 _atom_site_fract_y
 _atom_site_fract_z
 _atom_site_occupancy
  V  V0  1  0.19107618  0.53205705  0.16715677  1
  V  V1  1  0.19107618  0.96794295  0.16715677  1
  V  V2  1  0.30892382  0.46794295  0.66715677  1
  V  V3  1  0.30892382  0.03205705  0.66715677  1
  V  V4  1  0.69107618  0.53205705  0.33284323  1
  V  V5  1  0.69107618  0.96794295  0.33284323  1
  V  V6  1  0.80892382  0.03205705  0.83284323  1
  V  V7  1  0.80892382  0.46794295  0.83284323  1
  Ni  Ni8  1  0.02123502  0.25000000  0.03936478  1
  Ni  Ni9  1  0.47876498  0.75000000  0.53936478  1
  Ni  Ni10  1  0.52123502  0.25000000  0.46063522  1
  Ni  Ni11  1  0.97876498  0.75000000  0.96063522  1
  H  H12  1  0.02082908  0.75000000  0.45545132  1
  H  H13  1  0.06411768  0.25000000  0.39233141  1
  H  H14  1  0.20615234  0.67679504  0.38073227  1
  H  H15  1  0.20615234  0.82320496  0.38073227  1
  H  H16  1  0.22885500  0.17793284  0.30547473  1
  H  H17  1  0.22885500  0.32206716  0.30547473  1
  H  H18  1  0.27114500  0.82206716  0.80547473  1
  H  H19  1  0.27114500  0.67793284  0.80547473  1
  H  H20  1  0.29384766  0.32320496  0.88073227  1
  H  H21  1  0.29384766  0.17679504  0.88073227  1
  H  H22  1  0.43588232  0.75000000  0.89233141  1
  H  H23  1  0.47917092  0.25000000  0.95545132  1
  H  H24  1  0.52082908  0.75000000  0.04454868  1
  H  H25  1  0.56411768  0.25000000  0.10766859  1
  H  H26  1  0.70615234  0.67679504  0.11926773  1
  H  H27  1  0.70615234  0.82320496  0.11926773  1
  H  H28  1  0.72885500  0.17793284  0.19452527  1
  H  H29  1  0.72885500  0.32206716  0.19452527  1
  H  H30  1  0.77114500  0.67793284  0.69452527  1
  H  H31  1  0.77114500  0.82206716  0.69452527  1
  H  H32  1  0.79384766  0.17679504  0.61926773  1
  H  H33  1  0.79384766  0.32320496  0.61926773  1
  H  H34  1  0.93588232  0.75000000  0.60766859  1
  H  H35  1  0.97917092  0.25000000  0.54454868  1
  N  N36  1  0.19314204  0.75000000  0.43039931  1
  N  N37  1  0.22719821  0.25000000  0.35689461  1
  N  N38  1  0.27280179  0.75000000  0.85689461  1
  N  N39  1  0.30685796  0.25000000  0.93039931  1
  N  N40  1  0.69314204  0.75000000  0.06960069  1
  N  N41  1  0.72719821  0.25000000  0.14310539  1
  N  N42  1  0.77280179  0.75000000  0.64310539  1
  N  N43  1  0.80685796  0.25000000  0.56960069  1
  O  O44  1  0.97908423  0.56668619  0.27375724  1
  O  O45  1  0.97908423  0.93331381  0.27375724  1
  O  O46  1  0.14205114  0.61932096  0.05899265  1
  O  O47  1  0.14205114  0.88067904  0.05899265  1
  O  O48  1  0.17431214  0.11475538  0.13542976  1
  O  O49  1  0.17431214  0.38524462  0.13542976  1
  O  O50  1  0.32568786  0.61475538  0.63542976  1
  O  O51  1  0.32568786  0.88524462  0.63542976  1
  O  O52  1  0.35794886  0.11932096  0.55899265  1
  O  O53  1  0.35794886  0.38067904  0.55899265  1
  O  O54  1  0.52091577  0.06668619  0.77375724  1
  O  O55  1  0.52091577  0.43331381  0.77375724  1
  O  O56  1  0.47908423  0.56668619  0.22624276  1
  O  O57  1  0.47908423  0.93331381  0.22624276  1
  O  O58  1  0.64205114  0.61932096  0.44100735  1
  O  O59  1  0.64205114  0.88067904  0.44100735  1
  O  O60  1  0.67431214  0.11475538  0.36457024  1
  O  O61  1  0.67431214  0.38524462  0.36457024  1
  O  O62  1  0.82568786  0.61475538  0.86457024  1
  O  O63  1  0.82568786  0.88524462  0.86457024  1
  O  O64  1  0.85794886  0.11932096  0.94100735  1
  O  O65  1  0.85794886  0.38067904  0.94100735  1
  O  O66  1  0.02091577  0.06668619  0.72624276  1
  O  O67  1  0.02091577  0.43331381  0.72624276  1
