# generated using pymatgen
data_Li4Ti3VO8
_symmetry_space_group_name_H-M   'P 1'
_cell_length_a   6.10895271
_cell_length_b   6.90012967
_cell_length_c   4.13867052
_cell_angle_alpha   89.99973688
_cell_angle_beta   90.00277275
_cell_angle_gamma   88.32167143
_symmetry_Int_Tables_number   1
_chemical_formula_structural   Li4Ti3VO8
_chemical_formula_sum   'Li4 Ti3 V1 O8'
_cell_volume   174.38074150
_cell_formula_units_Z   1
loop_
 _symmetry_equiv_pos_site_id
 _symmetry_equiv_pos_as_xyz
  1  'x, y, z'
loop_
 _atom_site_type_symbol
 _atom_site_label
 _atom_site_symmetry_multiplicity
 _atom_site_fract_x
 _atom_site_fract_y
 _atom_site_fract_z
 _atom_site_occupancy
  Li  Li0  1  0.07757916  0.61699641  0.93912840  1
  Li  Li1  1  0.41916073  0.11427992  0.43916953  1
  Li  Li2  1  0.57785940  0.88428681  0.93917742  1
  Li  Li3  1  0.92674099  0.38598920  0.43912653  1
  Ti  Ti4  1  0.08571460  0.13217630  0.93917982  1
  Ti  Ti5  1  0.41783534  0.62180953  0.43912638  1
  Ti  Ti6  1  0.57960889  0.37449731  0.93910391  1
  V  V7  1  0.91240156  0.87083435  0.43915683  1
  O  O8  1  0.09105858  0.12896762  0.43913859  1
  O  O9  1  0.11012114  0.61574575  0.43918396  1
  O  O10  1  0.40075639  0.14778341  0.93912476  1
  O  O11  1  0.41920687  0.62469254  0.93912230  1
  O  O12  1  0.58590477  0.36865279  0.43913776  1
  O  O13  1  0.57334026  0.85489127  0.43919177  1
  O  O14  1  0.89816768  0.35975129  0.93915454  1
  O  O15  1  0.92454365  0.89864549  0.93917750  1
