# generated using pymatgen
data_CuH7C4N3O7
_symmetry_space_group_name_H-M   'P 1'
_cell_length_a   11.39942602
_cell_length_b   12.18476788
_cell_length_c   14.43127693
_cell_angle_alpha   104.26283548
_cell_angle_beta   90.00000000
_cell_angle_gamma   90.00000000
_symmetry_Int_Tables_number   1
_chemical_formula_structural   CuH7C4N3O7
_chemical_formula_sum   'Cu8 H56 C32 N24 O56'
_cell_volume   1942.70805441
_cell_formula_units_Z   8
loop_
 _symmetry_equiv_pos_site_id
 _symmetry_equiv_pos_as_xyz
  1  'x, y, z'
loop_
 _atom_site_type_symbol
 _atom_site_label
 _atom_site_symmetry_multiplicity
 _atom_site_fract_x
 _atom_site_fract_y
 _atom_site_fract_z
 _atom_site_occupancy
  Cu  Cu0  1  0.50590496  0.38373865  0.37540951  1
  Cu  Cu1  1  0.49409504  0.61626135  0.62459049  1
  Cu  Cu2  1  0.00590496  0.11626135  0.12459049  1
  Cu  Cu3  1  0.99409504  0.88373865  0.87540951  1
  Cu  Cu4  1  0.39672405  0.37801480  0.86689589  1
  Cu  Cu5  1  0.60327595  0.62198520  0.13310411  1
  Cu  Cu6  1  0.89672405  0.12198520  0.63310411  1
  Cu  Cu7  1  0.10327595  0.87801480  0.36689589  1
  H  H8  1  0.72393949  0.61741343  0.60704089  1
  H  H9  1  0.27606051  0.38258657  0.39295911  1
  H  H10  1  0.22393949  0.88258657  0.89295911  1
  H  H11  1  0.77606051  0.11741343  0.10704089  1
  H  H12  1  0.66136427  0.74047545  0.60676854  1
  H  H13  1  0.33863573  0.25952455  0.39323146  1
  H  H14  1  0.16136427  0.75952455  0.89323146  1
  H  H15  1  0.83863573  0.24047545  0.10676854  1
  H  H16  1  0.03933217  0.76010663  0.68204448  1
  H  H17  1  0.96066783  0.23989337  0.31795552  1
  H  H18  1  0.53933217  0.73989337  0.81795552  1
  H  H19  1  0.46066783  0.26010663  0.18204448  1
  H  H20  1  0.58016626  0.99029611  0.88155411  1
  H  H21  1  0.41983374  0.00970389  0.11844589  1
  H  H22  1  0.08016626  0.50970389  0.61844589  1
  H  H23  1  0.91983374  0.49029611  0.38155411  1
  H  H24  1  0.26688509  0.56334293  0.88161131  1
  H  H25  1  0.73311491  0.43665707  0.11838869  1
  H  H26  1  0.76688509  0.93665707  0.61838869  1
  H  H27  1  0.23311491  0.06334293  0.38161131  1
  H  H28  1  0.31378463  0.37837985  0.66592120  1
  H  H29  1  0.68621537  0.62162015  0.33407880  1
  H  H30  1  0.81378463  0.12162015  0.83407880  1
  H  H31  1  0.18621537  0.87837985  0.16592120  1
  H  H32  1  0.36609092  0.57245233  0.96005045  1
  H  H33  1  0.63390908  0.42754767  0.03994955  1
  H  H34  1  0.86609092  0.92754767  0.53994955  1
  H  H35  1  0.13390908  0.07245233  0.46005045  1
  H  H36  1  0.31558414  0.01266412  0.63523385  1
  H  H37  1  0.68441586  0.98733588  0.36476615  1
  H  H38  1  0.81558414  0.48733588  0.86476615  1
  H  H39  1  0.18441586  0.51266412  0.13523385  1
  H  H40  1  0.98270976  0.09096012  0.87241902  1
  H  H41  1  0.01729024  0.90903988  0.12758098  1
  H  H42  1  0.48270976  0.40903988  0.62758098  1
  H  H43  1  0.51729024  0.59096012  0.37241902  1
  H  H44  1  0.36565847  0.26155569  0.66086975  1
  H  H45  1  0.63434153  0.73844431  0.33913025  1
  H  H46  1  0.86565847  0.23844431  0.83913025  1
  H  H47  1  0.13434153  0.76155569  0.16086975  1
  H  H48  1  0.06219132  0.88515928  0.68611567  1
  H  H49  1  0.93780868  0.11484072  0.31388433  1
  H  H50  1  0.56219132  0.61484072  0.81388433  1
  H  H51  1  0.43780868  0.38515928  0.18611567  1
  H  H52  1  0.16587807  0.37850232  0.87640846  1
  H  H53  1  0.83412193  0.62149768  0.12359154  1
  H  H54  1  0.66587807  0.12149768  0.62359154  1
  H  H55  1  0.33412193  0.87850232  0.37640846  1
  H  H56  1  0.22935457  0.25406167  0.88515550  1
  H  H57  1  0.77064543  0.74593833  0.11484450  1
  H  H58  1  0.72935457  0.24593833  0.61484450  1
  H  H59  1  0.27064543  0.75406167  0.38515550  1
  H  H60  1  0.11829523  0.06786933  0.89510733  1
  H  H61  1  0.88170477  0.93213067  0.10489267  1
  H  H62  1  0.61829523  0.43213067  0.60489267  1
  H  H63  1  0.38170477  0.56786933  0.39510733  1
  C  C64  1  0.14123719  0.14915358  0.63432339  1
  C  C65  1  0.85876281  0.85084642  0.36567661  1
  C  C66  1  0.64123719  0.35084642  0.86567661  1
  C  C67  1  0.35876281  0.64915358  0.13432339  1
  C  C68  1  0.30352856  0.75895086  0.63178785  1
  C  C69  1  0.69647144  0.24104914  0.36821215  1
  C  C70  1  0.80352856  0.74104914  0.86821215  1
  C  C71  1  0.19647144  0.25895086  0.13178785  1
  C  C72  1  0.45152109  0.12489822  0.88034233  1
  C  C73  1  0.54847891  0.87510178  0.11965767  1
  C  C74  1  0.95152109  0.37510178  0.61965767  1
  C  C75  1  0.04847891  0.62489822  0.38034233  1
  C  C76  1  0.44209551  0.87640996  0.62843887  1
  C  C77  1  0.55790449  0.12359004  0.37156113  1
  C  C78  1  0.94209551  0.62359004  0.87156113  1
  C  C79  1  0.05790449  0.37640996  0.12843887  1
  C  C80  1  0.33695049  0.06470365  0.88420375  1
  C  C81  1  0.66304951  0.93529635  0.11579625  1
  C  C82  1  0.83695049  0.43529635  0.61579625  1
  C  C83  1  0.16304951  0.56470365  0.38420375  1
  C  C84  1  0.25037565  0.64687094  0.63090273  1
  C  C85  1  0.74962435  0.35312906  0.36909727  1
  C  C86  1  0.75037565  0.85312906  0.86909727  1
  C  C87  1  0.24962435  0.14687094  0.13090273  1
  C  C88  1  0.58913131  0.24070464  0.87061304  1
  C  C89  1  0.41086869  0.75929536  0.12938696  1
  C  C90  1  0.08913131  0.25929536  0.62938696  1
  C  C91  1  0.91086869  0.74070464  0.37061304  1
  C  C92  1  0.05596623  0.56163140  0.87250501  1
  C  C93  1  0.94403377  0.43836860  0.12749499  1
  C  C94  1  0.55596623  0.93836860  0.62749499  1
  C  C95  1  0.44403377  0.06163140  0.37250501  1
  N  N96  1  0.47009543  0.23172378  0.87371836  1
  N  N97  1  0.52990457  0.76827622  0.12628164  1
  N  N98  1  0.97009543  0.26827622  0.62628164  1
  N  N99  1  0.02990457  0.73172378  0.37371836  1
  N  N100  1  0.33679227  0.92848909  0.63409989  1
  N  N101  1  0.66320773  0.07151091  0.36590011  1
  N  N102  1  0.83679227  0.57151091  0.86590011  1
  N  N103  1  0.16320773  0.42848909  0.13409989  1
  N  N104  1  0.64453961  0.14629128  0.87484568  1
  N  N105  1  0.35546039  0.85370872  0.12515432  1
  N  N106  1  0.14453961  0.35370872  0.62515432  1
  N  N107  1  0.85546039  0.64629128  0.37484568  1
  N  N108  1  0.55706412  0.07503637  0.88106713  1
  N  N109  1  0.44293588  0.92496363  0.11893287  1
  N  N110  1  0.05706412  0.42496363  0.61893287  1
  N  N111  1  0.94293588  0.57503637  0.38106713  1
  N  N112  1  0.24868940  0.85637639  0.63615189  1
  N  N113  1  0.75131060  0.14362361  0.36384811  1
  N  N114  1  0.74868940  0.64362361  0.86384811  1
  N  N115  1  0.25131060  0.35637639  0.13615189  1
  N  N116  1  0.42263272  0.76713698  0.62669880  1
  N  N117  1  0.57736728  0.23286302  0.37330120  1
  N  N118  1  0.92263272  0.73286302  0.87330120  1
  N  N119  1  0.07736728  0.26713698  0.12669880  1
  O  O120  1  0.23766900  0.33794235  0.89173754  1
  O  O121  1  0.76233100  0.66205765  0.10826246  1
  O  O122  1  0.73766900  0.16205765  0.60826246  1
  O  O123  1  0.26233100  0.83794235  0.39173754  1
  O  O124  1  0.00848310  0.83638266  0.71079793  1
  O  O125  1  0.99151690  0.16361734  0.28920207  1
  O  O126  1  0.50848310  0.66361734  0.78920207  1
  O  O127  1  0.49151690  0.33638266  0.21079793  1
  O  O128  1  0.14940672  0.62070779  0.87875270  1
  O  O129  1  0.85059328  0.37929221  0.12124730  1
  O  O130  1  0.64940672  0.87929221  0.62124730  1
  O  O131  1  0.35059328  0.12070779  0.37875270  1
  O  O132  1  0.82584568  0.93127292  0.87067899  1
  O  O133  1  0.17415432  0.06872708  0.12932101  1
  O  O134  1  0.32584568  0.56872708  0.62932101  1
  O  O135  1  0.67415432  0.43127292  0.37067899  1
  O  O136  1  0.38455751  0.34247589  0.68530705  1
  O  O137  1  0.61544249  0.65752411  0.31469295  1
  O  O138  1  0.88455751  0.15752411  0.81469295  1
  O  O139  1  0.11544249  0.84247589  0.18530705  1
  O  O140  1  0.24408238  0.12404823  0.88714032  1
  O  O141  1  0.75591762  0.87595177  0.11285968  1
  O  O142  1  0.74408238  0.37595177  0.61285968  1
  O  O143  1  0.25591762  0.62404823  0.38714032  1
  O  O144  1  0.03470941  0.04581020  0.90484552  1
  O  O145  1  0.96529059  0.95418980  0.09515448  1
  O  O146  1  0.53470941  0.45418980  0.59515448  1
  O  O147  1  0.46529059  0.54581020  0.40484552  1
  O  O148  1  0.04898685  0.45676515  0.86561562  1
  O  O149  1  0.95101315  0.54323485  0.13438438  1
  O  O150  1  0.54898685  0.04323485  0.63438438  1
  O  O151  1  0.45101315  0.95676515  0.36561562  1
  O  O152  1  0.35149073  0.53865436  0.89261036  1
  O  O153  1  0.64850927  0.46134564  0.10738964  1
  O  O154  1  0.85149073  0.96134564  0.60738964  1
  O  O155  1  0.14850927  0.03865436  0.39261036  1
  O  O156  1  0.34404197  0.96174418  0.88323319  1
  O  O157  1  0.65595803  0.03825582  0.11676681  1
  O  O158  1  0.84404197  0.53825582  0.61676681  1
  O  O159  1  0.15595803  0.46174418  0.38323319  1
  O  O160  1  0.14022854  0.63464771  0.63050278  1
  O  O161  1  0.85977146  0.36535229  0.36949722  1
  O  O162  1  0.64022854  0.86535229  0.86949722  1
  O  O163  1  0.35977146  0.13464771  0.13050278  1
  O  O164  1  0.25064893  0.13642225  0.63578697  1
  O  O165  1  0.74935107  0.86357775  0.36421303  1
  O  O166  1  0.75064893  0.36357775  0.86421303  1
  O  O167  1  0.24935107  0.63642225  0.13578697  1
  O  O168  1  0.06399026  0.07139069  0.63319309  1
  O  O169  1  0.93600974  0.92860931  0.36680691  1
  O  O170  1  0.56399026  0.42860931  0.86680691  1
  O  O171  1  0.43600974  0.57139069  0.13319309  1
  O  O172  1  0.65240690  0.65635635  0.59031866  1
  O  O173  1  0.34759310  0.34364365  0.40968134  1
  O  O174  1  0.15240690  0.84364365  0.90968134  1
  O  O175  1  0.84759310  0.15635635  0.09031866  1
