# generated using pymatgen
data_Al2Si3H8(NO5)2
_symmetry_space_group_name_H-M   'P 1'
_cell_length_a   12.86715686
_cell_length_b   12.86640211
_cell_length_c   6.68007580
_cell_angle_alpha   90.00000000
_cell_angle_beta   90.00000000
_cell_angle_gamma   89.91828629
_symmetry_Int_Tables_number   1
_chemical_formula_structural   Al2Si3H8(NO5)2
_chemical_formula_sum   'Al8 Si12 H32 N8 O40'
_cell_volume   1105.91223953
_cell_formula_units_Z   4
loop_
 _symmetry_equiv_pos_site_id
 _symmetry_equiv_pos_as_xyz
  1  'x, y, z'
loop_
 _atom_site_type_symbol
 _atom_site_label
 _atom_site_symmetry_multiplicity
 _atom_site_fract_x
 _atom_site_fract_y
 _atom_site_fract_z
 _atom_site_occupancy
  Al  Al0  1  0.38083049  0.31581049  0.13216509  1
  Al  Al1  1  0.61916951  0.68418951  0.63216509  1
  Al  Al2  1  0.11917277  0.18420317  0.13222869  1
  Al  Al3  1  0.88082723  0.81579683  0.63222869  1
  Al  Al4  1  0.31584203  0.88080374  0.88205011  1
  Al  Al5  1  0.68415797  0.11919626  0.38205011  1
  Al  Al6  1  0.18419709  0.61918552  0.88210135  1
  Al  Al7  1  0.81580291  0.38081448  0.38210135  1
  Si  Si8  1  0.24996439  0.24998351  0.51891714  1
  Si  Si9  1  0.75003561  0.75001649  0.01891714  1
  Si  Si10  1  0.25007075  0.74996268  0.26881816  1
  Si  Si11  1  0.74992925  0.25003732  0.76881816  1
  Si  Si12  1  0.61568588  0.31556082  0.14210462  1
  Si  Si13  1  0.38431412  0.68443918  0.64210462  1
  Si  Si14  1  0.88429518  0.18444178  0.14208400  1
  Si  Si15  1  0.11570482  0.81555822  0.64208400  1
  Si  Si16  1  0.31553678  0.11561669  0.89232023  1
  Si  Si17  1  0.68446322  0.88438331  0.39232023  1
  Si  Si18  1  0.18446581  0.38440848  0.89222745  1
  Si  Si19  1  0.81553419  0.61559152  0.39222745  1
  H  H20  1  0.53734677  0.36912423  0.73100559  1
  H  H21  1  0.46265323  0.63087577  0.23100559  1
  H  H22  1  0.45363441  0.36376311  0.53223017  1
  H  H23  1  0.54636559  0.63623689  0.03223017  1
  H  H24  1  0.49734049  0.48251691  0.61967768  1
  H  H25  1  0.50265951  0.51748309  0.11967768  1
  H  H26  1  0.57940630  0.40139783  0.50168738  1
  H  H27  1  0.42059370  0.59860217  0.00168738  1
  H  H28  1  0.95379955  0.86377991  0.03214125  1
  H  H29  1  0.04620045  0.13622009  0.53214125  1
  H  H30  1  0.07956088  0.90144614  0.00158976  1
  H  H31  1  0.92043912  0.09855386  0.50158976  1
  H  H32  1  0.03752524  0.86917387  0.23083871  1
  H  H33  1  0.96247476  0.13082613  0.73083871  1
  H  H34  1  0.99746810  0.98257954  0.11958000  1
  H  H35  1  0.00253190  0.01742046  0.61958000  1
  H  H36  1  0.09855743  0.42048580  0.25156793  1
  H  H37  1  0.90144257  0.57951420  0.75156793  1
  H  H38  1  0.13617513  0.54625740  0.28210353  1
  H  H39  1  0.86382487  0.45374260  0.78210353  1
  H  H40  1  0.01741848  0.50254386  0.36960867  1
  H  H41  1  0.98258152  0.49745614  0.86960867  1
  H  H42  1  0.13084177  0.46253860  0.48084992  1
  H  H43  1  0.86915823  0.53746140  0.98084992  1
  H  H44  1  0.36381472  0.95367040  0.28220614  1
  H  H45  1  0.63618528  0.04632960  0.78220614  1
  H  H46  1  0.40143732  0.07947123  0.25167382  1
  H  H47  1  0.59856268  0.92052877  0.75167382  1
  H  H48  1  0.36913386  0.03739943  0.48093980  1
  H  H49  1  0.63086614  0.96260057  0.98093980  1
  H  H50  1  0.48254882  0.99739708  0.36973256  1
  H  H51  1  0.51745118  0.00260292  0.86973256  1
  N  N52  1  0.51587076  0.40368030  0.59746497  1
  N  N53  1  0.48412924  0.59631970  0.09746497  1
  N  N54  1  0.01608189  0.90365010  0.09723634  1
  N  N55  1  0.98391811  0.09634990  0.59723634  1
  N  N56  1  0.09628306  0.48396999  0.34729019  1
  N  N57  1  0.90371694  0.51603001  0.84729019  1
  N  N58  1  0.40368860  0.01592380  0.34741428  1
  N  N59  1  0.59631140  0.98407620  0.84741428  1
  O  O60  1  0.15569515  0.20047780  0.38685578  1
  O  O61  1  0.84430485  0.79952220  0.88685578  1
  O  O62  1  0.34428741  0.29950701  0.38670528  1
  O  O63  1  0.65571259  0.70049299  0.88670528  1
  O  O64  1  0.29968828  0.84420696  0.13657345  1
  O  O65  1  0.70031172  0.15579304  0.63657345  1
  O  O66  1  0.20041817  0.65569987  0.13662589  1
  O  O67  1  0.79958183  0.34430013  0.63662589  1
  O  O68  1  0.50393304  0.37690292  0.12466752  1
  O  O69  1  0.49606696  0.62309708  0.62466752  1
  O  O70  1  0.99603468  0.12317990  0.12454078  1
  O  O71  1  0.00396532  0.87682010  0.62454078  1
  O  O72  1  0.37685884  0.00396345  0.87472779  1
  O  O73  1  0.62314116  0.99603655  0.37472779  1
  O  O74  1  0.12314863  0.49603243  0.87472437  1
  O  O75  1  0.87685137  0.50396757  0.37472437  1
  O  O76  1  0.39031200  0.19338110  0.01836773  1
  O  O77  1  0.60968800  0.80661890  0.51836773  1
  O  O78  1  0.10977625  0.30665485  0.01836251  1
  O  O79  1  0.89022375  0.69334515  0.51836251  1
  O  O80  1  0.80661099  0.10970042  0.26822427  1
  O  O81  1  0.19338901  0.89029958  0.76822427  1
  O  O82  1  0.69335917  0.39032834  0.26819661  1
  O  O83  1  0.30664083  0.60967166  0.76819661  1
  O  O84  1  0.60207634  0.20460704  0.25381181  1
  O  O85  1  0.39792366  0.79539296  0.75381181  1
  O  O86  1  0.89784860  0.29541977  0.25387910  1
  O  O87  1  0.10215140  0.70458023  0.75387910  1
  O  O88  1  0.20462343  0.10206867  0.00421483  1
  O  O89  1  0.79537657  0.89793133  0.50421483  1
  O  O90  1  0.29546493  0.39797918  0.00407933  1
  O  O91  1  0.70453507  0.60202082  0.50407933  1
  O  O92  1  0.65693760  0.29957307  0.90868643  1
  O  O93  1  0.34306240  0.70042693  0.40868643  1
  O  O94  1  0.84290587  0.20049427  0.90871024  1
  O  O95  1  0.15709413  0.79950573  0.40871024  1
  O  O96  1  0.20062176  0.34308912  0.65879237  1
  O  O97  1  0.79937824  0.65691088  0.15879237  1
  O  O98  1  0.29938089  0.15697510  0.65879841  1
  O  O99  1  0.70061911  0.84302490  0.15879841  1
