# generated using pymatgen
data_Na7Mg7Fe5(PO4)12
_symmetry_space_group_name_H-M   'P 1'
_cell_length_a   13.00300309
_cell_length_b   9.27027587
_cell_length_c   8.64756512
_cell_angle_alpha   104.43496267
_cell_angle_beta   106.07787754
_cell_angle_gamma   63.69257636
_symmetry_Int_Tables_number   1
_chemical_formula_structural   Na7Mg7Fe5(PO4)12
_chemical_formula_sum   'Na7 Mg7 Fe5 P12 O48'
_cell_volume   888.13733983
_cell_formula_units_Z   1
loop_
 _symmetry_equiv_pos_site_id
 _symmetry_equiv_pos_as_xyz
  1  'x, y, z'
loop_
 _atom_site_type_symbol
 _atom_site_label
 _atom_site_symmetry_multiplicity
 _atom_site_fract_x
 _atom_site_fract_y
 _atom_site_fract_z
 _atom_site_occupancy
  Na  Na0  1  0.37698938  0.01330241  0.99000001  1
  Na  Na1  1  0.25035277  0.49660489  0.49727662  1
  Na  Na2  1  0.12975965  0.98838721  0.01761760  1
  Na  Na3  1  0.50038165  0.49826938  0.50079269  1
  Na  Na4  1  0.86147136  0.01270234  0.99229369  1
  Na  Na5  1  0.75181222  0.49810866  0.49700023  1
  Na  Na6  1  0.00313594  0.49645442  0.49808862  1
  Mg  Mg7  1  0.11897579  0.62769402  0.93932893  1
  Mg  Mg8  1  0.00924908  0.72755294  0.26425458  1
  Mg  Mg9  1  0.28638245  0.05969014  0.37309576  1
  Mg  Mg10  1  0.49122261  0.26328028  0.73744167  1
  Mg  Mg11  1  0.50760799  0.73456035  0.26861315  1
  Mg  Mg12  1  0.99267377  0.26991767  0.73580091  1
  Mg  Mg13  1  0.88098748  0.37332430  0.06076690  1
  Fe  Fe14  1  0.21557598  0.94044043  0.62306138  1
  Fe  Fe15  1  0.37562834  0.37711319  0.06103826  1
  Fe  Fe16  1  0.62567997  0.62761513  0.94216982  1
  Fe  Fe17  1  0.78126367  0.06103065  0.36717851  1
  Fe  Fe18  1  0.71321300  0.94085570  0.62540642  1
  P  P19  1  0.00035829  0.87516975  0.65253957  1
  P  P20  1  0.22944591  0.29148756  0.70886961  1
  P  P21  1  0.14114785  0.34200861  0.12245167  1
  P  P22  1  0.36321807  0.65197672  0.87321000  1
  P  P23  1  0.26895771  0.71192356  0.28881905  1
  P  P24  1  0.49769652  0.12697960  0.34696125  1
  P  P25  1  0.50173468  0.86988334  0.65376645  1
  P  P26  1  0.73140246  0.28814626  0.71025969  1
  P  P27  1  0.63673298  0.35129216  0.12769525  1
  P  P28  1  0.85946696  0.65617504  0.87250982  1
  P  P29  1  0.77039225  0.70971441  0.29060875  1
  P  P30  1  0.99901696  0.12446692  0.34752137  1
  O  O31  1  0.05365512  0.00416293  0.67204858  1
  O  O32  1  0.03553805  0.32435865  0.99081385  1
  O  O33  1  0.13462651  0.04103330  0.40459352  1
  O  O34  1  0.18097435  0.17389535  0.74048285  1
  O  O35  1  0.14022330  0.46637493  0.73832923  1
  O  O36  1  0.02701709  0.83163318  0.82449905  1
  O  O37  1  0.09810780  0.47437959  0.26614711  1
  O  O38  1  0.04870161  0.73129963  0.52192615  1
  O  O39  1  0.22051275  0.17081181  0.17031307  1
  O  O40  1  0.24517391  0.26106403  0.53367062  1
  O  O41  1  0.35303367  0.26070372  0.82519247  1
  O  O42  1  0.21087536  0.39785984  0.04479870  1
  O  O43  1  0.29539720  0.60036332  0.95663437  1
  O  O44  1  0.14629164  0.74239073  0.18001362  1
  O  O45  1  0.25965755  0.73691508  0.47035074  1
  O  O46  1  0.55142959  0.00154010  0.67027834  1
  O  O47  1  0.28207030  0.82488163  0.82292122  1
  O  O48  1  0.45187299  0.26680852  0.48249743  1
  O  O49  1  0.40555061  0.52113450  0.72998993  1
  O  O50  1  0.46452984  0.18614465  0.17987824  1
  O  O51  1  0.53043951  0.32962860  0.99879941  1
  O  O52  1  0.35639338  0.53084374  0.26381815  1
  O  O53  1  0.32256879  0.81991600  0.25855227  1
  O  O54  1  0.63545677  0.04644153  0.40003995  1
  O  O55  1  0.36594789  0.95260053  0.60480556  1
  O  O56  1  0.67827386  0.17634504  0.74025616  1
  O  O57  1  0.64287123  0.46715636  0.73959511  1
  O  O58  1  0.46881833  0.67646214  0.00332071  1
  O  O59  1  0.53275758  0.81693888  0.82333686  1
  O  O60  1  0.59431646  0.48147211  0.27146636  1
  O  O61  1  0.54948654  0.72786961  0.52140053  1
  O  O62  1  0.72036224  0.18187366  0.18087696  1
  O  O63  1  0.45121938  0.99282197  0.32108907  1
  O  O64  1  0.73854711  0.26267249  0.52854229  1
  O  O65  1  0.85346101  0.25699716  0.81929027  1
  O  O66  1  0.70461282  0.40268115  0.04373881  1
  O  O67  1  0.78851509  0.60617607  0.95318662  1
  O  O68  1  0.64731575  0.73706164  0.18006008  1
  O  O69  1  0.75516807  0.74181773  0.47022312  1
  O  O70  1  0.78209624  0.82543591  0.81389660  1
  O  O71  1  0.94959807  0.26831723  0.47809753  1
  O  O72  1  0.90182914  0.52266192  0.73051723  1
  O  O73  1  0.97227016  0.16916784  0.17566090  1
  O  O74  1  0.85853290  0.53400436  0.26559713  1
  O  O75  1  0.82163625  0.82390766  0.26363925  1
  O  O76  1  0.86327910  0.95964789  0.59537673  1
  O  O77  1  0.96129244  0.68149484  0.00560115  1
  O  O78  1  0.94501092  0.99520242  0.32589784  1
