# generated using pymatgen
data_Li(FeO2)3
_symmetry_space_group_name_H-M   'P 1'
_cell_length_a   5.14743876
_cell_length_b   5.14031028
_cell_length_c   10.55735936
_cell_angle_alpha   90.08546838
_cell_angle_beta   75.90491410
_cell_angle_gamma   120.03186909
_symmetry_Int_Tables_number   1
_chemical_formula_structural   Li(FeO2)3
_chemical_formula_sum   'Li2 Fe6 O12'
_cell_volume   232.13479704
_cell_formula_units_Z   2
loop_
 _symmetry_equiv_pos_site_id
 _symmetry_equiv_pos_as_xyz
  1  'x, y, z'
loop_
 _atom_site_type_symbol
 _atom_site_label
 _atom_site_symmetry_multiplicity
 _atom_site_fract_x
 _atom_site_fract_y
 _atom_site_fract_z
 _atom_site_occupancy
  Li  Li0  1  0.49895825  0.57806032  0.24674447  1
  Li  Li1  1  0.83227551  0.07823938  0.74624607  1
  Fe  Fe2  1  0.00439084  0.83373552  0.49333332  1
  Fe  Fe3  1  0.00632640  0.66867744  0.99338828  1
  Fe  Fe4  1  0.33035521  0.50015839  0.50920524  1
  Fe  Fe5  1  0.33746318  0.33444164  0.99197648  1
  Fe  Fe6  1  0.66925605  0.16862332  0.49351205  1
  Fe  Fe7  1  0.66041977  0.99952685  0.00975325  1
  O  O8  1  0.90912987  0.95659119  0.10200762  1
  O  O9  1  0.59727543  0.79711729  0.60018114  1
  O  O10  1  0.39956196  0.83830673  0.40011020  1
  O  O11  1  0.73447795  0.73089661  0.89792331  1
  O  O12  1  0.28741499  0.64665316  0.10206663  1
  O  O13  1  0.94659193  0.45687249  0.60218627  1
  O  O14  1  0.70524919  0.53277099  0.39964597  1
  O  O15  1  0.03945569  0.33939320  0.90027156  1
  O  O16  1  0.60047794  0.29815473  0.09966569  1
  O  O17  1  0.25621361  0.14744960  0.60215402  1
  O  O18  1  0.09988159  0.23220459  0.39742662  1
  O  O19  1  0.42614066  0.03278557  0.89969879  1
