# generated using pymatgen
data_ErB2Ru
_symmetry_space_group_name_H-M   'P 1'
_cell_length_a   5.89206499
_cell_length_b   5.30126249
_cell_length_c   6.32858593
_cell_angle_alpha   90.00000000
_cell_angle_beta   90.00000000
_cell_angle_gamma   90.00000000
_symmetry_Int_Tables_number   1
_chemical_formula_structural   ErB2Ru
_chemical_formula_sum   'Er4 B8 Ru4'
_cell_volume   197.67580613
_cell_formula_units_Z   4
loop_
 _symmetry_equiv_pos_site_id
 _symmetry_equiv_pos_as_xyz
  1  'x, y, z'
loop_
 _atom_site_type_symbol
 _atom_site_label
 _atom_site_symmetry_multiplicity
 _atom_site_fract_x
 _atom_site_fract_y
 _atom_site_fract_z
 _atom_site_occupancy
  Er  Er0  1  0.51014789  0.25000000  0.83617036  1
  Er  Er1  1  0.01014789  0.25000000  0.66382964  1
  Er  Er2  1  0.48985211  0.75000000  0.16382964  1
  Er  Er3  1  0.98985211  0.75000000  0.33617036  1
  B  B4  1  0.86762605  0.08407609  0.03755971  1
  B  B5  1  0.36762605  0.41592391  0.46244029  1
  B  B6  1  0.13237395  0.58407609  0.96244029  1
  B  B7  1  0.63237395  0.91592391  0.53755971  1
  B  B8  1  0.13237395  0.91592391  0.96244029  1
  B  B9  1  0.63237395  0.58407609  0.53755971  1
  B  B10  1  0.86762605  0.41592391  0.03755971  1
  B  B11  1  0.36762605  0.08407609  0.46244029  1
  Ru  Ru12  1  0.68060840  0.25000000  0.31857585  1
  Ru  Ru13  1  0.18060840  0.25000000  0.18142415  1
  Ru  Ru14  1  0.31939160  0.75000000  0.68142415  1
  Ru  Ru15  1  0.81939160  0.75000000  0.81857585  1
