# generated using pymatgen
data_Sr3LaCu2(BiO3)4
_symmetry_space_group_name_H-M   'P 1'
_cell_length_a   4.56366957
_cell_length_b   4.88141253
_cell_length_c   16.20889493
_cell_angle_alpha   97.10350781
_cell_angle_beta   89.48128572
_cell_angle_gamma   89.70228708
_symmetry_Int_Tables_number   1
_chemical_formula_structural   Sr3LaCu2(BiO3)4
_chemical_formula_sum   'Sr3 La1 Cu2 Bi4 O12'
_cell_volume   358.29452514
_cell_formula_units_Z   1
loop_
 _symmetry_equiv_pos_site_id
 _symmetry_equiv_pos_as_xyz
  1  'x, y, z'
loop_
 _atom_site_type_symbol
 _atom_site_label
 _atom_site_symmetry_multiplicity
 _atom_site_fract_x
 _atom_site_fract_y
 _atom_site_fract_z
 _atom_site_occupancy
  Sr  Sr0  1  0.99178820  0.12023885  0.65019200  1
  Sr  Sr1  1  0.49158824  0.62910538  0.65306303  1
  Sr  Sr2  1  0.49883148  0.31964152  0.34746146  1
  La  La3  1  0.01302693  0.82481351  0.35857228  1
  Cu  Cu4  1  0.00896928  0.46803285  0.49695602  1
  Cu  Cu5  1  0.49504709  0.97609176  0.49932577  1
  Bi  Bi6  1  0.48017424  0.18185322  0.85559589  1
  Bi  Bi7  1  0.53038955  0.77578718  0.14330294  1
  Bi  Bi8  1  0.02601963  0.27750804  0.14310455  1
  Bi  Bi9  1  0.98159207  0.68108884  0.85525214  1
  O  O10  1  0.99114280  0.60846079  0.72334063  1
  O  O11  1  0.32694118  0.29330832  0.55014330  1
  O  O12  1  0.16953049  0.79311284  0.53680416  1
  O  O13  1  0.48103960  0.68370473  0.85915804  1
  O  O14  1  0.47966898  0.11462323  0.72433572  1
  O  O15  1  0.54799688  0.84526568  0.27820311  1
  O  O16  1  0.83080517  0.15009320  0.45244222  1
  O  O17  1  0.67306465  0.65764833  0.44637162  1
  O  O18  1  0.52705218  0.27481793  0.14135193  1
  O  O19  1  0.98031276  0.18357469  0.85928212  1
  O  O20  1  0.02935812  0.77503618  0.14105453  1
  O  O21  1  0.00766047  0.36819294  0.27868654  1
