# generated using pymatgen
data_NaMnFe(PO4)2
_symmetry_space_group_name_H-M   'P 1'
_cell_length_a   13.07120669
_cell_length_b   9.36352962
_cell_length_c   9.35754717
_cell_angle_alpha   85.45283695
_cell_angle_beta   64.43168859
_cell_angle_gamma   64.10543619
_symmetry_Int_Tables_number   1
_chemical_formula_structural   NaMnFe(PO4)2
_chemical_formula_sum   'Na6 Mn6 Fe6 P12 O48'
_cell_volume   920.95638884
_cell_formula_units_Z   6
loop_
 _symmetry_equiv_pos_site_id
 _symmetry_equiv_pos_as_xyz
  1  'x, y, z'
loop_
 _atom_site_type_symbol
 _atom_site_label
 _atom_site_symmetry_multiplicity
 _atom_site_fract_x
 _atom_site_fract_y
 _atom_site_fract_z
 _atom_site_occupancy
  Na  Na0  1  0.11895114  0.98680605  0.01368016  1
  Na  Na1  1  0.25000000  0.50000000  0.50000000  1
  Na  Na2  1  0.38104886  0.01319395  0.98631984  1
  Na  Na3  1  0.49949252  0.49801266  0.50212056  1
  Na  Na4  1  0.75000000  0.50000000  0.50000000  1
  Na  Na5  1  0.00050748  0.50198734  0.49787944  1
  Mn  Mn6  1  0.09659695  0.06933228  0.37846584  1
  Mn  Mn7  1  0.12449831  0.26520999  0.72877859  1
  Mn  Mn8  1  0.37550169  0.73479001  0.27122141  1
  Mn  Mn9  1  0.40340305  0.93066772  0.62153416  1
  Mn  Mn10  1  0.62586628  0.26283774  0.73679616  1
  Mn  Mn11  1  0.87413372  0.73716226  0.26320384  1
  Fe  Fe12  1  0.34712633  0.38019097  0.06365511  1
  Fe  Fe13  1  0.15287367  0.61980903  0.93634489  1
  Fe  Fe14  1  0.59518440  0.06438103  0.37232709  1
  Fe  Fe15  1  0.84567895  0.36903095  0.06422964  1
  Fe  Fe16  1  0.65432105  0.63096905  0.93577036  1
  Fe  Fe17  1  0.90481560  0.93561897  0.62767291  1
  P  P18  1  0.07584285  0.34730768  0.12568235  1
  P  P19  1  0.12663703  0.71294007  0.28305930  1
  P  P20  1  0.32925863  0.13128668  0.33957963  1
  P  P21  1  0.17074137  0.86871332  0.66042037  1
  P  P22  1  0.37336297  0.28705993  0.71694070  1
  P  P23  1  0.57200743  0.35057563  0.13584044  1
  P  P24  1  0.42415715  0.65269232  0.87431765  1
  P  P25  1  0.62966434  0.70945769  0.28070953  1
  P  P26  1  0.81994953  0.13300276  0.35195047  1
  P  P27  1  0.68005047  0.86699724  0.64804953  1
  P  P28  1  0.87033566  0.29054231  0.71929047  1
  P  P29  1  0.92799257  0.64942437  0.86415956  1
  O  O30  1  0.02769741  0.33374545  0.00142559  1
  O  O31  1  0.13934964  0.17589427  0.16215792  1
  O  O32  1  0.18116708  0.40877425  0.04344241  1
  O  O33  1  0.06348326  0.73951497  0.16647926  1
  O  O34  1  0.29556288  0.99660294  0.31866051  1
  O  O35  1  0.02422281  0.74074485  0.45736670  1
  O  O36  1  0.21671467  0.26925393  0.47033081  1
  O  O37  1  0.03972653  0.52065629  0.72335548  1
  O  O38  1  0.37212523  0.19149295  0.17322145  1
  O  O39  1  0.22482043  0.53442731  0.26070455  1
  O  O40  1  0.19302710  0.82219780  0.25142687  1
  O  O41  1  0.44018829  0.05595491  0.38839307  1
  O  O42  1  0.05981171  0.94404509  0.61160693  1
  O  O43  1  0.30697290  0.17780220  0.74857313  1
  O  O44  1  0.52809685  0.33587664  0.00748494  1
  O  O45  1  0.27517957  0.46557269  0.73929545  1
  O  O46  1  0.12787477  0.80850705  0.82677855  1
  O  O47  1  0.46027347  0.47934371  0.27664452  1
  O  O48  1  0.28328533  0.73074607  0.52966919  1
  O  O49  1  0.62265454  0.18714867  0.19301552  1
  O  O50  1  0.47577719  0.25925515  0.54263330  1
  O  O51  1  0.20443712  0.00339706  0.68133949  1
  O  O52  1  0.43651674  0.26048503  0.83352074  1
  O  O53  1  0.68096033  0.40372897  0.05315907  1
  O  O54  1  0.31883292  0.59122575  0.95655759  1
  O  O55  1  0.56800219  0.73537479  0.16372255  1
  O  O56  1  0.77507767  0.00835548  0.33184704  1
  O  O57  1  0.52855436  0.72772722  0.45070294  1
  O  O58  1  0.36065036  0.82410573  0.83784208  1
  O  O59  1  0.70879720  0.27748784  0.47649413  1
  O  O60  1  0.53309746  0.52963906  0.72851680  1
  O  O61  1  0.87882515  0.18516027  0.18506379  1
  O  O62  1  0.73646782  0.53520371  0.25031845  1
  O  O63  1  0.47230259  0.66625455  0.99857441  1
  O  O64  1  0.68931251  0.82683442  0.26168067  1
  O  O65  1  0.92607080  0.04671088  0.40786162  1
  O  O66  1  0.57392920  0.95328912  0.59213838  1
  O  O67  1  0.81068749  0.17316558  0.73831933  1
  O  O68  1  0.76353218  0.46479629  0.74968155  1
  O  O69  1  0.62117485  0.81483973  0.81493621  1
  O  O70  1  0.96690254  0.47036094  0.27148320  1
  O  O71  1  0.79120280  0.72251216  0.52350587  1
  O  O72  1  0.97144564  0.27227278  0.54929706  1
  O  O73  1  0.72492233  0.99164452  0.66815296  1
  O  O74  1  0.93199781  0.26462521  0.83627745  1
  O  O75  1  0.81903967  0.59627103  0.94684093  1
  O  O76  1  0.87734546  0.81285133  0.80698448  1
  O  O77  1  0.97190315  0.66412336  0.99251506  1
