# generated using pymatgen
data_GdHoIr2
_symmetry_space_group_name_H-M   'P 1'
_cell_length_a   4.86916393
_cell_length_b   4.83553853
_cell_length_c   4.86920740
_cell_angle_alpha   60.44678540
_cell_angle_beta   60.29537111
_cell_angle_gamma   59.55795851
_symmetry_Int_Tables_number   1
_chemical_formula_structural   GdHoIr2
_chemical_formula_sum   'Gd1 Ho1 Ir2'
_cell_volume   81.23935224
_cell_formula_units_Z   1
loop_
 _symmetry_equiv_pos_site_id
 _symmetry_equiv_pos_as_xyz
  1  'x, y, z'
loop_
 _atom_site_type_symbol
 _atom_site_label
 _atom_site_symmetry_multiplicity
 _atom_site_fract_x
 _atom_site_fract_y
 _atom_site_fract_z
 _atom_site_occupancy
  Gd  Gd0  1  0.25001717  0.24999307  0.24998166  1
  Ho  Ho1  1  0.74997338  0.75000966  0.75002955  1
  Ir  Ir2  1  0.00018489  0.99951446  0.00019871  1
  Ir  Ir3  1  0.49982356  0.50048181  0.49978908  1
