# generated using pymatgen
data_FeRh3
_symmetry_space_group_name_H-M   'P 1'
_cell_length_a   5.43192742
_cell_length_b   5.43192667
_cell_length_c   4.35869354
_cell_angle_alpha   90.00000000
_cell_angle_beta   90.00000000
_cell_angle_gamma   120.00000457
_symmetry_Int_Tables_number   1
_chemical_formula_structural   FeRh3
_chemical_formula_sum   'Fe2 Rh6'
_cell_volume   111.37681727
_cell_formula_units_Z   2
loop_
 _symmetry_equiv_pos_site_id
 _symmetry_equiv_pos_as_xyz
  1  'x, y, z'
loop_
 _atom_site_type_symbol
 _atom_site_label
 _atom_site_symmetry_multiplicity
 _atom_site_fract_x
 _atom_site_fract_y
 _atom_site_fract_z
 _atom_site_occupancy
  Fe  Fe0  1  0.33333300  0.66666700  0.74999900  1
  Fe  Fe1  1  0.66666600  0.33333200  0.25000000  1
  Rh  Rh2  1  0.16870864  0.33741827  0.25000000  1
  Rh  Rh3  1  0.66257873  0.83128836  0.25000000  1
  Rh  Rh4  1  0.16870964  0.83128836  0.25000000  1
  Rh  Rh5  1  0.83128936  0.66257873  0.74999900  1
  Rh  Rh6  1  0.33742027  0.16871064  0.74999900  1
  Rh  Rh7  1  0.83129036  0.16871064  0.74999900  1
