# generated using pymatgen
data_CoOF
_symmetry_space_group_name_H-M   'P 1'
_cell_length_a   4.50485737
_cell_length_b   4.47807977
_cell_length_c   9.14107003
_cell_angle_alpha   90.00000000
_cell_angle_beta   89.80083250
_cell_angle_gamma   90.00000000
_symmetry_Int_Tables_number   1
_chemical_formula_structural   CoOF
_chemical_formula_sum   'Co6 O6 F6'
_cell_volume   184.40270304
_cell_formula_units_Z   6
loop_
 _symmetry_equiv_pos_site_id
 _symmetry_equiv_pos_as_xyz
  1  'x, y, z'
loop_
 _atom_site_type_symbol
 _atom_site_label
 _atom_site_symmetry_multiplicity
 _atom_site_fract_x
 _atom_site_fract_y
 _atom_site_fract_z
 _atom_site_occupancy
  Co  Co0  1  0.97145562  0.96253780  -0.00003219  1
  Co  Co1  1  0.03049139  0.01679518  0.33355433  1
  Co  Co2  1  0.03043387  0.01831523  0.66677480  1
  Co  Co3  1  0.52854438  0.46253780  0.16669819  1
  Co  Co4  1  0.46950861  0.51679518  0.83311267  1
  Co  Co5  1  0.46956613  0.51831523  0.49989120  1
  O  O6  1  0.17665662  0.80767522  0.83294755  1
  O  O7  1  0.20182855  0.82672181  0.50092218  1
  O  O8  1  0.32334338  0.30767522  0.33371845  1
  O  O9  1  0.29817145  0.32672181  0.66574382  1
  O  O10  1  0.68197741  0.66886467  -0.00013076  1
  O  O11  1  0.81802259  0.16886467  0.16679776  1
  F  F12  1  0.22096957  0.76871359  0.16795520  1
  F  F13  1  0.27903043  0.26871359  0.99871180  1
  F  F14  1  0.69664970  0.72305828  0.66144183  1
  F  F15  1  0.71874639  0.70731721  0.34004418  1
  F  F16  1  0.78125361  0.20731721  0.82662182  1
  F  F17  1  0.80335030  0.22305828  0.50522517  1
