# generated using pymatgen
data_Co6O7F5
_symmetry_space_group_name_H-M   'P 1'
_cell_length_a   4.55432821
_cell_length_b   4.53667290
_cell_length_c   8.94499109
_cell_angle_alpha   90.00000000
_cell_angle_beta   90.00000000
_cell_angle_gamma   94.19883842
_symmetry_Int_Tables_number   1
_chemical_formula_structural   Co6O7F5
_chemical_formula_sum   'Co6 O7 F5'
_cell_volume   184.32085437
_cell_formula_units_Z   1
loop_
 _symmetry_equiv_pos_site_id
 _symmetry_equiv_pos_as_xyz
  1  'x, y, z'
loop_
 _atom_site_type_symbol
 _atom_site_label
 _atom_site_symmetry_multiplicity
 _atom_site_fract_x
 _atom_site_fract_y
 _atom_site_fract_z
 _atom_site_occupancy
  Co  Co0  1  0.00805057  0.98415170  0.99298403  1
  Co  Co1  1  0.00805057  0.98415170  0.34034897  1
  Co  Co2  1  0.03774567  0.01014141  0.66666700  1
  Co  Co3  1  0.50416339  0.48656709  0.16666700  1
  Co  Co4  1  0.47429129  0.51404873  0.83807896  1
  Co  Co5  1  0.47429129  0.51404873  0.49525404  1
  O  O6  1  0.19234172  0.81457849  0.82695082  1
  O  O7  1  0.19234172  0.81457849  0.50638218  1
  O  O8  1  0.30250335  0.30075686  0.33196159  1
  O  O9  1  0.30250335  0.30075686  0.00137241  1
  O  O10  1  0.30420897  0.31728120  0.66666700  1
  O  O11  1  0.68941606  0.68653181  0.00117400  1
  O  O12  1  0.68941606  0.68653181  0.33216000  1
  F  F13  1  0.20013898  0.78991499  0.16666700  1
  F  F14  1  0.69903623  0.71361075  0.66666700  1
  F  F15  1  0.81432721  0.17584348  0.16666700  1
  F  F16  1  0.80358678  0.20325343  0.82384257  1
  F  F17  1  0.80358678  0.20325343  0.50949043  1
