# generated using pymatgen
data_TlBi2Cl7
_symmetry_space_group_name_H-M   'P 1'
_cell_length_a   7.18424502
_cell_length_b   8.85961232
_cell_length_c   11.00165224
_cell_angle_alpha   76.10534937
_cell_angle_beta   72.57801455
_cell_angle_gamma   73.26864812
_symmetry_Int_Tables_number   1
_chemical_formula_structural   TlBi2Cl7
_chemical_formula_sum   'Tl2 Bi4 Cl14'
_cell_volume   630.69613819
_cell_formula_units_Z   2
loop_
 _symmetry_equiv_pos_site_id
 _symmetry_equiv_pos_as_xyz
  1  'x, y, z'
loop_
 _atom_site_type_symbol
 _atom_site_label
 _atom_site_symmetry_multiplicity
 _atom_site_fract_x
 _atom_site_fract_y
 _atom_site_fract_z
 _atom_site_occupancy
  Tl  Tl0  1  0.08249608  0.67166136  0.13454767  1
  Tl  Tl1  1  0.91750392  0.32833864  0.86545233  1
  Bi  Bi2  1  0.30948019  0.13354281  0.15743643  1
  Bi  Bi3  1  0.69051981  0.86645719  0.84256357  1
  Bi  Bi4  1  0.44040865  0.75675908  0.52121796  1
  Bi  Bi5  1  0.55959135  0.24324092  0.47878204  1
  Cl  Cl6  1  0.73498231  0.01325351  0.01739050  1
  Cl  Cl7  1  0.26501769  0.98674649  0.98260950  1
  Cl  Cl8  1  0.92552657  0.24433359  0.20099109  1
  Cl  Cl9  1  0.07447343  0.75566641  0.79900891  1
  Cl  Cl10  1  0.20236183  0.85202675  0.35746351  1
  Cl  Cl11  1  0.79763817  0.14797325  0.64253649  1
  Cl  Cl12  1  0.33915863  0.05275576  0.64035059  1
  Cl  Cl13  1  0.66084137  0.94724424  0.35964941  1
  Cl  Cl14  1  0.29552007  0.34062638  0.31994156  1
  Cl  Cl15  1  0.70447993  0.65937362  0.68005844  1
  Cl  Cl16  1  0.69914933  0.54707519  0.38425434  1
  Cl  Cl17  1  0.30085067  0.45292481  0.61574566  1
  Cl  Cl18  1  0.34375245  0.37510790  0.97538187  1
  Cl  Cl19  1  0.65624755  0.62489210  0.02461813  1
