# generated using pymatgen
data_Ti(NbSe2)3
_symmetry_space_group_name_H-M   'P 1'
_cell_length_a   6.05468539
_cell_length_b   6.05378282
_cell_length_c   13.12580299
_cell_angle_alpha   90.01225551
_cell_angle_beta   89.99999999
_cell_angle_gamma   120.00492564
_symmetry_Int_Tables_number   1
_chemical_formula_structural   Ti(NbSe2)3
_chemical_formula_sum   'Ti2 Nb6 Se12'
_cell_volume   416.63270675
_cell_formula_units_Z   2
loop_
 _symmetry_equiv_pos_site_id
 _symmetry_equiv_pos_as_xyz
  1  'x, y, z'
loop_
 _atom_site_type_symbol
 _atom_site_label
 _atom_site_symmetry_multiplicity
 _atom_site_fract_x
 _atom_site_fract_y
 _atom_site_fract_z
 _atom_site_occupancy
  Ti  Ti0  1  0.66659991  0.33319339  0.74999734  1
  Ti  Ti1  1  0.33340651  0.66680661  0.25000266  1
  Nb  Nb2  1  0.00021797  1.00000000  0.50000000  1
  Nb  Nb3  1  0.99981650  0.00000000  0.00000000  1
  Nb  Nb4  1  0.66697059  0.33353665  0.99983200  1
  Nb  Nb5  1  0.33343393  0.66646335  0.00016800  1
  Nb  Nb6  1  0.33302852  0.66646934  0.49983364  1
  Nb  Nb7  1  0.66655918  0.33353066  0.50016636  1
  Se  Se8  1  0.66658663  0.99633227  0.62840811  1
  Se  Se9  1  0.32967905  0.33369836  0.62855016  1
  Se  Se10  1  0.00361399  0.67003505  0.62852621  1
  Se  Se11  1  0.67025436  0.00366773  0.37159189  1
  Se  Se12  1  0.99598069  0.66630164  0.37144984  1
  Se  Se13  1  0.33357894  0.32996495  0.37147379  1
  Se  Se14  1  0.33345641  0.00371927  0.12840951  1
  Se  Se15  1  0.67034037  0.66633495  0.12854771  1
  Se  Se16  1  0.99641199  0.32999010  0.12851076  1
  Se  Se17  1  0.32973714  0.99628073  0.87159049  1
  Se  Se18  1  0.00400542  0.33366505  0.87145229  1
  Se  Se19  1  0.66642189  0.67000990  0.87148924  1
