# generated using pymatgen
data_Nd(HoS2)3
_symmetry_space_group_name_H-M   'P 1'
_cell_length_a   3.97504107
_cell_length_b   11.28966873
_cell_length_c   11.07151711
_cell_angle_alpha   108.77905928
_cell_angle_beta   90.00000000
_cell_angle_gamma   90.00000000
_symmetry_Int_Tables_number   1
_chemical_formula_structural   Nd(HoS2)3
_chemical_formula_sum   'Nd2 Ho6 S12'
_cell_volume   470.40622164
_cell_formula_units_Z   2
loop_
 _symmetry_equiv_pos_site_id
 _symmetry_equiv_pos_as_xyz
  1  'x, y, z'
loop_
 _atom_site_type_symbol
 _atom_site_label
 _atom_site_symmetry_multiplicity
 _atom_site_fract_x
 _atom_site_fract_y
 _atom_site_fract_z
 _atom_site_occupancy
  Nd  Nd0  1  0.25000000  0.19350956  0.54766601  1
  Nd  Nd1  1  0.75000000  0.80649044  0.45233399  1
  Ho  Ho2  1  0.25000000  0.00188244  0.18059669  1
  Ho  Ho3  1  0.75000000  0.99811756  0.81940331  1
  Ho  Ho4  1  0.25000000  0.33250206  0.93762615  1
  Ho  Ho5  1  0.75000000  0.66749794  0.06237385  1
  Ho  Ho6  1  0.25000000  0.58556819  0.66105589  1
  Ho  Ho7  1  0.75000000  0.41443181  0.33894411  1
  S  S8  1  0.25000000  0.11207094  0.97752963  1
  S  S9  1  0.75000000  0.88792906  0.02247037  1
  S  S10  1  0.25000000  0.25157082  0.30598277  1
  S  S11  1  0.75000000  0.74842918  0.69401723  1
  S  S12  1  0.25000000  0.56169904  0.89658230  1
  S  S13  1  0.75000000  0.43830096  0.10341770  1
  S  S14  1  0.25000000  0.59534750  0.41885596  1
  S  S15  1  0.75000000  0.40465250  0.58114404  1
  S  S16  1  0.25000000  0.77295519  0.23775037  1
  S  S17  1  0.75000000  0.22704481  0.76224963  1
  S  S18  1  0.25000000  0.96333800  0.61715875  1
  S  S19  1  0.75000000  0.03666200  0.38284125  1
