# generated using pymatgen
data_K2Ag2GeSe4
_symmetry_space_group_name_H-M   'P 1'
_cell_length_a   6.71415858
_cell_length_b   7.84137991
_cell_length_c   11.57656759
_cell_angle_alpha   82.86825922
_cell_angle_beta   73.14269203
_cell_angle_gamma   64.65146620
_symmetry_Int_Tables_number   1
_chemical_formula_structural   K2Ag2GeSe4
_chemical_formula_sum   'K4 Ag4 Ge2 Se8'
_cell_volume   527.13690233
_cell_formula_units_Z   2
loop_
 _symmetry_equiv_pos_site_id
 _symmetry_equiv_pos_as_xyz
  1  'x, y, z'
loop_
 _atom_site_type_symbol
 _atom_site_label
 _atom_site_symmetry_multiplicity
 _atom_site_fract_x
 _atom_site_fract_y
 _atom_site_fract_z
 _atom_site_occupancy
  K  K0  1  0.31094859  0.75000000  0.37810281  1
  K  K1  1  0.93905141  0.75000000  0.12189719  1
  K  K2  1  0.68905141  0.25000000  0.62189719  1
  K  K3  1  0.06094859  0.25000000  0.87810281  1
  Ag  Ag4  1  0.69956625  0.75000000  0.60086749  1
  Ag  Ag5  1  0.55043375  0.75000000  0.89913251  1
  Ag  Ag6  1  0.30043375  0.25000000  0.39913251  1
  Ag  Ag7  1  0.44956625  0.25000000  0.10086749  1
  Ge  Ge8  1  0.12500000  0.75000000  0.75000000  1
  Ge  Ge9  1  0.87500000  0.25000000  0.25000000  1
  Se  Se10  1  0.09497241  0.53916277  0.62685324  1
  Se  Se11  1  0.76098842  0.96083723  0.87314676  1
  Se  Se12  1  0.36586483  0.53916277  0.87314676  1
  Se  Se13  1  0.27817435  0.96083723  0.62685324  1
  Se  Se14  1  0.90502759  0.46083723  0.37314676  1
  Se  Se15  1  0.23901158  0.03916277  0.12685324  1
  Se  Se16  1  0.63413517  0.46083723  0.12685324  1
  Se  Se17  1  0.72182565  0.03916277  0.37314676  1
