# generated using pymatgen
data_Li2Co3OF6
_symmetry_space_group_name_H-M   'P 1'
_cell_length_a   5.04985554
_cell_length_b   11.85745958
_cell_length_c   10.39978513
_cell_angle_alpha   64.96208836
_cell_angle_beta   87.41901622
_cell_angle_gamma   101.81744024
_symmetry_Int_Tables_number   1
_chemical_formula_structural   Li2Co3OF6
_chemical_formula_sum   'Li8 Co12 O4 F24'
_cell_volume   546.12221342
_cell_formula_units_Z   4
loop_
 _symmetry_equiv_pos_site_id
 _symmetry_equiv_pos_as_xyz
  1  'x, y, z'
loop_
 _atom_site_type_symbol
 _atom_site_label
 _atom_site_symmetry_multiplicity
 _atom_site_fract_x
 _atom_site_fract_y
 _atom_site_fract_z
 _atom_site_occupancy
  Li  Li0  1  0.99587902  0.00406711  0.24483348  1
  Li  Li1  1  0.02849567  0.21404484  0.31006933  1
  Li  Li2  1  0.33954352  0.79132518  0.02952581  1
  Li  Li3  1  0.27299656  0.49630350  0.35326069  1
  Li  Li4  1  0.50165100  0.00940185  0.74317702  1
  Li  Li5  1  0.67077552  0.21649132  0.81864560  1
  Li  Li6  1  0.94120790  0.78846698  0.52737386  1
  Li  Li7  1  0.70299547  0.50112524  0.83440862  1
  Co  Co8  1  0.62883606  0.22722215  0.12660464  1
  Co  Co9  1  0.21616685  0.49173079  0.03510011  1
  Co  Co10  1  0.50071317  0.95241309  0.51009182  1
  Co  Co11  1  0.82400277  0.64656590  0.18921864  1
  Co  Co12  1  0.69024118  0.35855585  0.31765239  1
  Co  Co13  1  0.40792444  0.79735236  0.33777551  1
  Co  Co14  1  0.10817793  0.19469964  0.61955555  1
  Co  Co15  1  0.74080685  0.50463228  0.51704044  1
  Co  Co16  1  0.03219206  0.02715357  0.97461371  1
  Co  Co17  1  0.20906979  0.35815072  0.81124416  1
  Co  Co18  1  0.36671121  0.64510103  0.66356462  1
  Co  Co19  1  0.89248110  0.78784440  0.83849649  1
  O  O20  1  0.91308324  0.35129565  0.15984860  1
  O  O21  1  0.91179733  0.50189116  0.34637233  1
  O  O22  1  0.58377434  0.80079280  0.49933536  1
  O  O23  1  0.51329193  0.49371089  0.67860567  1
  F  F24  1  0.29068914  0.09328692  0.08324940  1
  F  F25  1  0.75684729  0.07766535  0.31041358  1
  F  F26  1  0.08229419  0.65783462  0.00756791  1
  F  F27  1  0.39006272  0.22204519  0.29256952  1
  F  F28  1  0.47110668  0.50766138  0.17892792  1
  F  F29  1  0.16412572  0.78342484  0.19289658  1
  F  F30  1  0.85991459  0.20981198  0.47652606  1
  F  F31  1  0.75226366  0.93177192  0.15109320  1
  F  F32  1  0.30406810  0.06172653  0.59086685  1
  F  F33  1  0.40173517  0.35281055  0.48064821  1
  F  F34  1  0.54025819  0.64158646  0.34501580  1
  F  F35  1  0.20400208  0.92314261  0.37895425  1
  F  F36  1  0.80348300  0.08146215  0.80711729  1
  F  F37  1  0.94543441  0.34179502  0.66709074  1
  F  F38  1  0.06412269  0.64821540  0.51764963  1
  F  F39  1  0.31382599  0.18998858  0.78943818  1
  F  F40  1  0.12865496  0.77823984  0.68649161  1
  F  F41  1  0.87159274  0.22510960  0.96052957  1
  F  F42  1  0.07074367  0.50654862  0.84141407  1
  F  F43  1  0.69962622  0.91316361  0.69286343  1
  F  F44  1  0.43178561  0.36196438  0.97881546  1
  F  F45  1  0.57404662  0.63424800  0.85118792  1
  F  F46  1  0.19840292  0.92075106  0.89132426  1
  F  F47  1  0.68809872  0.77541012  0.01513311  1
