# generated using pymatgen
data_IN4
_symmetry_space_group_name_H-M   'P 1'
_cell_length_a   5.97713508
_cell_length_b   8.99438752
_cell_length_c   9.51266066
_cell_angle_alpha   90.00000000
_cell_angle_beta   90.00000000
_cell_angle_gamma   90.00000000
_symmetry_Int_Tables_number   1
_chemical_formula_structural   IN4
_chemical_formula_sum   'I4 N16'
_cell_volume   511.40700266
_cell_formula_units_Z   4
loop_
 _symmetry_equiv_pos_site_id
 _symmetry_equiv_pos_as_xyz
  1  'x, y, z'
loop_
 _atom_site_type_symbol
 _atom_site_label
 _atom_site_symmetry_multiplicity
 _atom_site_fract_x
 _atom_site_fract_y
 _atom_site_fract_z
 _atom_site_occupancy
  I  I0  1  0.53213557  0.47825871  0.52128646  1
  I  I1  1  0.03213557  0.52174129  0.47871354  1
  I  I2  1  0.03213557  0.02174129  0.02128646  1
  I  I3  1  0.53213557  0.97825871  0.97871354  1
  N  N4  1  0.38130435  0.61666860  0.19094338  1
  N  N5  1  0.88130435  0.38333140  0.80905662  1
  N  N6  1  0.88130435  0.88333140  0.69094338  1
  N  N7  1  0.38130435  0.11666860  0.30905662  1
  N  N8  1  0.39511903  0.40021703  0.93987913  1
  N  N9  1  0.89511903  0.59978297  0.06012087  1
  N  N10  1  0.89511903  0.09978297  0.43987913  1
  N  N11  1  0.39511903  0.90021703  0.56012087  1
  N  N12  1  0.83413145  0.67353500  0.14631519  1
  N  N13  1  0.33413145  0.32646500  0.85368481  1
  N  N14  1  0.33413145  0.82646500  0.64631519  1
  N  N15  1  0.83413145  0.17353500  0.35368481  1
  N  N16  1  0.31480960  0.72895112  0.21865370  1
  N  N17  1  0.81480960  0.27104888  0.78134630  1
  N  N18  1  0.81480960  0.77104888  0.71865370  1
  N  N19  1  0.31480960  0.22895112  0.28134630  1
