# generated using pymatgen
data_Mg2GaB2Ir5
_symmetry_space_group_name_H-M   'P 1'
_cell_length_a   2.94113127
_cell_length_b   9.49382789
_cell_length_c   9.49382789
_cell_angle_alpha   90.00000000
_cell_angle_beta   90.00000000
_cell_angle_gamma   90.00000000
_symmetry_Int_Tables_number   1
_chemical_formula_structural   Mg2GaB2Ir5
_chemical_formula_sum   'Mg4 Ga2 B4 Ir10'
_cell_volume   265.09230243
_cell_formula_units_Z   2
loop_
 _symmetry_equiv_pos_site_id
 _symmetry_equiv_pos_as_xyz
  1  'x, y, z'
loop_
 _atom_site_type_symbol
 _atom_site_label
 _atom_site_symmetry_multiplicity
 _atom_site_fract_x
 _atom_site_fract_y
 _atom_site_fract_z
 _atom_site_occupancy
  Mg  Mg0  1  0.00000000  0.32487879  0.82487879  1
  Mg  Mg1  1  -0.00000000  0.67512121  0.17512121  1
  Mg  Mg2  1  -0.00000000  0.17512121  0.32487879  1
  Mg  Mg3  1  -0.00000000  0.82487879  0.67512121  1
  Ga  Ga4  1  -0.00000000  0.50000000  0.50000000  1
  Ga  Ga5  1  -0.00000000  -0.00000000  0.00000000  1
  B  B6  1  -0.00000000  0.12685185  0.62685185  1
  B  B7  1  0.00000000  0.87314815  0.37314815  1
  B  B8  1  0.00000000  0.37314815  0.12685185  1
  B  B9  1  -0.00000000  0.62685185  0.87314815  1
  Ir  Ir10  1  0.50000000  -0.00000000  0.50000000  1
  Ir  Ir11  1  0.50000000  0.50000000  0.00000000  1
  Ir  Ir12  1  0.50000000  0.57193434  0.71484515  1
  Ir  Ir13  1  0.50000000  0.42806566  0.28515485  1
  Ir  Ir14  1  0.50000000  0.92806566  0.21484515  1
  Ir  Ir15  1  0.50000000  0.07193434  0.78515485  1
  Ir  Ir16  1  0.50000000  0.71484515  0.42806566  1
  Ir  Ir17  1  0.50000000  0.28515485  0.57193434  1
  Ir  Ir18  1  0.50000000  0.21484515  0.07193434  1
  Ir  Ir19  1  0.50000000  0.78515485  0.92806566  1
