# generated using pymatgen
data_Gd3ReB7
_symmetry_space_group_name_H-M   'P 1'
_cell_length_a   3.55070786
_cell_length_b   8.20350973
_cell_length_c   9.43893700
_cell_angle_alpha   90.00000000
_cell_angle_beta   90.00000000
_cell_angle_gamma   102.49849376
_symmetry_Int_Tables_number   1
_chemical_formula_structural   Gd3ReB7
_chemical_formula_sum   'Gd6 Re2 B14'
_cell_volume   268.42426378
_cell_formula_units_Z   2
loop_
 _symmetry_equiv_pos_site_id
 _symmetry_equiv_pos_as_xyz
  1  'x, y, z'
loop_
 _atom_site_type_symbol
 _atom_site_label
 _atom_site_symmetry_multiplicity
 _atom_site_fract_x
 _atom_site_fract_y
 _atom_site_fract_z
 _atom_site_occupancy
  Gd  Gd0  1  0.10538240  0.21076480  0.43869301  1
  Gd  Gd1  1  0.89461760  0.78923520  0.56130699  1
  Gd  Gd2  1  0.10538240  0.21076480  0.06130699  1
  Gd  Gd3  1  0.89461760  0.78923520  0.93869301  1
  Gd  Gd4  1  0.75613523  0.51227047  0.25000000  1
  Gd  Gd5  1  0.24386477  0.48772953  0.75000000  1
  Re  Re6  1  0.94625506  0.89251012  0.25000000  1
  Re  Re7  1  0.05374494  0.10748988  0.75000000  1
  B  B8  1  0.27310927  0.54621854  0.46757932  1
  B  B9  1  0.72689073  0.45378146  0.53242068  1
  B  B10  1  0.27310927  0.54621854  0.03242068  1
  B  B11  1  0.72689073  0.45378146  0.96757932  1
  B  B12  1  0.36770568  0.73541136  0.15039100  1
  B  B13  1  0.63229432  0.26458864  0.84960900  1
  B  B14  1  0.36770568  0.73541136  0.34960900  1
  B  B15  1  0.63229432  0.26458864  0.65039100  1
  B  B16  1  0.47830775  0.95661550  0.09542852  1
  B  B17  1  0.52169225  0.04338450  0.90457148  1
  B  B18  1  0.47830775  0.95661550  0.40457148  1
  B  B19  1  0.52169225  0.04338450  0.59542852  1
  B  B20  1  0.54054044  0.08108088  0.25000000  1
  B  B21  1  0.45945956  0.91891912  0.75000000  1
