# generated using pymatgen
data_Ba2NdInSe5
_symmetry_space_group_name_H-M   'P 1'
_cell_length_a   4.36852172
_cell_length_b   9.86525966
_cell_length_c   13.50990485
_cell_angle_alpha   90.00000000
_cell_angle_beta   90.00000000
_cell_angle_gamma   102.79182517
_symmetry_Int_Tables_number   1
_chemical_formula_structural   Ba2NdInSe5
_chemical_formula_sum   'Ba4 Nd2 In2 Se10'
_cell_volume   567.78056291
_cell_formula_units_Z   2
loop_
 _symmetry_equiv_pos_site_id
 _symmetry_equiv_pos_as_xyz
  1  'x, y, z'
loop_
 _atom_site_type_symbol
 _atom_site_label
 _atom_site_symmetry_multiplicity
 _atom_site_fract_x
 _atom_site_fract_y
 _atom_site_fract_z
 _atom_site_occupancy
  Ba  Ba0  1  0.86959114  0.73918228  0.81498786  1
  Ba  Ba1  1  0.13040886  0.26081772  0.31498786  1
  Ba  Ba2  1  0.88400803  0.76801605  0.18118622  1
  Ba  Ba3  1  0.11599197  0.23198395  0.68118622  1
  Nd  Nd4  1  0.78851566  0.57703132  0.51754610  1
  Nd  Nd5  1  0.21148434  0.42296868  0.01754610  1
  In  In6  1  0.55120460  0.10240919  0.93639869  1
  In  In7  1  0.44879540  0.89759081  0.43639869  1
  Se  Se8  1  0.64065869  0.28131738  0.50059403  1
  Se  Se9  1  0.35934131  0.71868262  0.00059403  1
  Se  Se10  1  0.70917858  0.41835716  0.16219579  1
  Se  Se11  1  0.29082142  0.58164284  0.66219579  1
  Se  Se12  1  0.68458402  0.36916805  0.86556299  1
  Se  Se13  1  0.31541598  0.63083195  0.36556299  1
  Se  Se14  1  0.49494120  0.98988241  0.76515046  1
  Se  Se15  1  0.50505880  0.01011759  0.26515046  1
  Se  Se16  1  0.95244177  0.90488354  0.54904785  1
  Se  Se17  1  0.04755823  0.09511646  0.04904785  1
