# generated using pymatgen
data_Ba(Sn2Ru)3
_symmetry_space_group_name_H-M   'P 1'
_cell_length_a   4.47893509
_cell_length_b   8.23475537
_cell_length_c   13.88494335
_cell_angle_alpha   107.24962937
_cell_angle_beta   90.00000000
_cell_angle_gamma   90.00000000
_symmetry_Int_Tables_number   1
_chemical_formula_structural   Ba(Sn2Ru)3
_chemical_formula_sum   'Ba2 Sn12 Ru6'
_cell_volume   489.08337057
_cell_formula_units_Z   2
loop_
 _symmetry_equiv_pos_site_id
 _symmetry_equiv_pos_as_xyz
  1  'x, y, z'
loop_
 _atom_site_type_symbol
 _atom_site_label
 _atom_site_symmetry_multiplicity
 _atom_site_fract_x
 _atom_site_fract_y
 _atom_site_fract_z
 _atom_site_occupancy
  Ba  Ba0  1  0.25000000  0.58830317  0.17660635  1
  Ba  Ba1  1  0.75000000  0.41169683  0.82339365  1
  Sn  Sn2  1  0.25000000  0.13494684  0.26989368  1
  Sn  Sn3  1  0.75000000  0.86505316  0.73010632  1
  Sn  Sn4  1  0.25000000  0.14745543  0.90814488  1
  Sn  Sn5  1  0.75000000  0.23931056  0.09185512  1
  Sn  Sn6  1  0.75000000  0.85254457  0.09185512  1
  Sn  Sn7  1  0.25000000  0.76068944  0.90814488  1
  Sn  Sn8  1  0.25000000  0.75021253  0.50042507  1
  Sn  Sn9  1  0.75000000  0.24978747  0.49957493  1
  Sn  Sn10  1  0.25000000  0.13292715  0.64661358  1
  Sn  Sn11  1  0.75000000  0.48631357  0.35338642  1
  Sn  Sn12  1  0.75000000  0.86707285  0.35338642  1
  Sn  Sn13  1  0.25000000  0.51368643  0.64661358  1
  Ru  Ru14  1  0.25000000  0.02660860  0.43029977  1
  Ru  Ru15  1  0.75000000  0.59630882  0.56970023  1
  Ru  Ru16  1  0.75000000  0.97339140  0.56970023  1
  Ru  Ru17  1  0.25000000  0.40369118  0.43029977  1
  Ru  Ru18  1  0.25000000  0.03802009  0.07604018  1
  Ru  Ru19  1  0.75000000  0.96197991  0.92395982  1
