# generated using pymatgen
data_Nd2Ni12As7
_symmetry_space_group_name_H-M   'P 1'
_cell_length_a   3.86816410
_cell_length_b   9.36775900
_cell_length_c   9.36437603
_cell_angle_alpha   119.96853715
_cell_angle_beta   90.00000000
_cell_angle_gamma   90.00000000
_symmetry_Int_Tables_number   1
_chemical_formula_structural   Nd2Ni12As7
_chemical_formula_sum   'Nd2 Ni12 As7'
_cell_volume   293.95961994
_cell_formula_units_Z   1
loop_
 _symmetry_equiv_pos_site_id
 _symmetry_equiv_pos_as_xyz
  1  'x, y, z'
loop_
 _atom_site_type_symbol
 _atom_site_label
 _atom_site_symmetry_multiplicity
 _atom_site_fract_x
 _atom_site_fract_y
 _atom_site_fract_z
 _atom_site_occupancy
  Nd  Nd0  1  0.00000000  0.66659734  0.33325000  1
  Nd  Nd1  1  0.50000000  0.33332918  0.66653727  1
  Ni  Ni2  1  -0.00000000  0.38095877  0.94597038  1
  Ni  Ni3  1  0.00000000  0.05401532  0.43497606  1
  Ni  Ni4  1  -0.00000000  0.56497259  0.61896974  1
  Ni  Ni5  1  -0.00000000  0.87328757  0.72319508  1
  Ni  Ni6  1  0.00000000  0.27674592  0.15001191  1
  Ni  Ni7  1  -0.00000000  0.84996715  0.12675428  1
  Ni  Ni8  1  0.50000000  0.95391609  0.57537036  1
  Ni  Ni9  1  0.50000000  0.42477044  0.37876471  1
  Ni  Ni10  1  0.50000000  0.62136609  0.04605960  1
  Ni  Ni11  1  0.50000000  0.11380121  0.90371273  1
  Ni  Ni12  1  0.50000000  0.09635901  0.21018088  1
  Ni  Ni13  1  0.50000000  0.78987297  0.88617030  1
  As  As14  1  -0.00000000  0.11349029  0.71196905  1
  As  As15  1  -0.00000000  0.28795849  0.40156556  1
  As  As16  1  -0.00000000  0.59860921  0.88664803  1
  As  As17  1  0.50000000  0.70409902  0.59803292  1
  As  As18  1  0.50000000  0.40183015  0.10604496  1
  As  As19  1  0.50000000  0.89401203  0.29581549  1
  As  As20  1  -0.00000000  0.00004116  0.00000069  1
