# generated using pymatgen
data_Sm2Co3Ge5
_symmetry_space_group_name_H-M   'P 1'
_cell_length_a   5.81167895
_cell_length_b   8.15514852
_cell_length_c   8.15514852
_cell_angle_alpha   93.06400095
_cell_angle_beta   110.16778987
_cell_angle_gamma   110.16778987
_symmetry_Int_Tables_number   1
_chemical_formula_structural   Sm2Co3Ge5
_chemical_formula_sum   'Sm4 Co6 Ge10'
_cell_volume   333.99433960
_cell_formula_units_Z   2
loop_
 _symmetry_equiv_pos_site_id
 _symmetry_equiv_pos_as_xyz
  1  'x, y, z'
loop_
 _atom_site_type_symbol
 _atom_site_label
 _atom_site_symmetry_multiplicity
 _atom_site_fract_x
 _atom_site_fract_y
 _atom_site_fract_z
 _atom_site_occupancy
  Sm  Sm0  1  0.23379466  0.87108795  0.59561539  1
  Sm  Sm1  1  0.26620534  0.40438461  0.12891205  1
  Sm  Sm2  1  0.76620534  0.12891205  0.40438461  1
  Sm  Sm3  1  0.73379466  0.59561539  0.87108795  1
  Co  Co4  1  0.38540870  0.25999549  0.53904598  1
  Co  Co5  1  0.11459130  0.46095402  0.74000451  1
  Co  Co6  1  0.61459130  0.74000451  0.46095402  1
  Co  Co7  1  0.88540870  0.53904598  0.25999549  1
  Co  Co8  1  0.25000000  0.00227584  0.99772416  1
  Co  Co9  1  0.75000000  0.99772416  0.00227584  1
  Ge  Ge10  1  0.16802146  0.07214490  0.25951677  1
  Ge  Ge11  1  0.33197854  0.74048323  0.92785510  1
  Ge  Ge12  1  0.83197854  0.92785510  0.74048323  1
  Ge  Ge13  1  0.66802146  0.25951677  0.07214490  1
  Ge  Ge14  1  0.25000000  0.21937073  0.78062927  1
  Ge  Ge15  1  0.75000000  0.78062927  0.21937073  1
  Ge  Ge16  1  0.25000000  0.50579290  0.49420710  1
  Ge  Ge17  1  0.75000000  0.49420710  0.50579290  1
  Ge  Ge18  1  0.25000000  0.77179865  0.22820135  1
  Ge  Ge19  1  0.75000000  0.22820135  0.77179865  1
