# generated using pymatgen
data_LiMnOF2
_symmetry_space_group_name_H-M   'P 1'
_cell_length_a   10.94599814
_cell_length_b   8.68285688
_cell_length_c   5.38049537
_cell_angle_alpha   91.71576258
_cell_angle_beta   112.44053246
_cell_angle_gamma   89.48039116
_symmetry_Int_Tables_number   1
_chemical_formula_structural   LiMnOF2
_chemical_formula_sum   'Li8 Mn8 O8 F16'
_cell_volume   472.43915393
_cell_formula_units_Z   8
loop_
 _symmetry_equiv_pos_site_id
 _symmetry_equiv_pos_as_xyz
  1  'x, y, z'
loop_
 _atom_site_type_symbol
 _atom_site_label
 _atom_site_symmetry_multiplicity
 _atom_site_fract_x
 _atom_site_fract_y
 _atom_site_fract_z
 _atom_site_occupancy
  Li  Li0  1  0.20672840  0.38735429  0.42105433  1
  Li  Li1  1  0.29528361  0.09391512  0.07552443  1
  Li  Li2  1  0.21491670  0.60200465  0.88982751  1
  Li  Li3  1  0.28670842  0.91138365  0.57650676  1
  Li  Li4  1  0.68709137  0.09000330  0.38589075  1
  Li  Li5  1  0.81624320  0.40994263  0.13826649  1
  Li  Li6  1  0.70117894  0.90799809  0.88779862  1
  Li  Li7  1  0.80265538  0.59118423  0.62282055  1
  Mn  Mn8  1  0.05383583  0.64093303  0.15984215  1
  Mn  Mn9  1  0.00973408  0.08986363  0.26042294  1
  Mn  Mn10  1  0.00632394  0.91696365  0.73688310  1
  Mn  Mn11  1  0.01891510  0.28413412  0.77169791  1
  Mn  Mn12  1  0.48557598  0.79100788  0.23836859  1
  Mn  Mn13  1  0.48766754  0.40552461  0.24712351  1
  Mn  Mn14  1  0.49417169  0.58277502  0.76370260  1
  Mn  Mn15  1  0.48833670  0.22469646  0.75305049  1
  O  O16  1  0.09556530  0.09647521  0.95756856  1
  O  O17  1  0.11378038  0.46261735  0.03325240  1
  O  O18  1  0.08775108  0.92290711  0.49015951  1
  O  O19  1  0.09432899  0.24318489  0.51559618  1
  O  O20  1  0.11713987  0.78279094  0.97675620  1
  O  O21  1  0.39995275  0.25692912  0.98932058  1
  O  O22  1  0.41168592  0.57783951  0.02060551  1
  O  O23  1  0.40547514  0.40752313  0.55215231  1
  F  F24  1  0.14000069  0.57244533  0.52480638  1
  F  F25  1  0.35784539  0.07986218  0.45809414  1
  F  F26  1  0.37803276  0.74186586  0.48199472  1
  F  F27  1  0.35861217  0.92262618  0.94993416  1
  F  F28  1  0.62965864  0.41102490  0.04104377  1
  F  F29  1  0.61900033  0.08272142  0.99380263  1
  F  F30  1  0.60452213  0.57511078  0.52481283  1
  F  F31  1  0.59719015  0.24502608  0.51497610  1
  F  F32  1  0.63249423  0.91724946  0.51216915  1
  F  F33  1  0.60466650  0.74939200  0.98283853  1
  F  F34  1  0.90037778  0.25214943  0.00594656  1
  F  F35  1  0.89468383  0.93544091  0.97832141  1
  F  F36  1  0.87726949  0.41219514  0.52320635  1
  F  F37  1  0.88912990  0.75895641  0.54252064  1
  F  F38  1  0.87685898  0.07317666  0.49797173  1
  F  F39  1  0.85860969  0.59080266  0.00336790  1
