# generated using pymatgen
data_Sr2(ZnAu2)3
_symmetry_space_group_name_H-M   'P 1'
_cell_length_a   8.56650351
_cell_length_b   8.56650351
_cell_length_c   8.90474005
_cell_angle_alpha   61.24873916
_cell_angle_beta   61.24873916
_cell_angle_gamma   60.00000007
_symmetry_Int_Tables_number   1
_chemical_formula_structural   Sr2(ZnAu2)3
_chemical_formula_sum   'Sr4 Zn6 Au12'
_cell_volume   470.60634599
_cell_formula_units_Z   2
loop_
 _symmetry_equiv_pos_site_id
 _symmetry_equiv_pos_as_xyz
  1  'x, y, z'
loop_
 _atom_site_type_symbol
 _atom_site_label
 _atom_site_symmetry_multiplicity
 _atom_site_fract_x
 _atom_site_fract_y
 _atom_site_fract_z
 _atom_site_occupancy
  Sr  Sr0  1  0.59240614  0.59240614  0.22278157  1
  Sr  Sr1  1  0.09240614  0.09240614  0.72278157  1
  Sr  Sr2  1  0.40759386  0.40759386  0.77721843  1
  Sr  Sr3  1  0.90759386  0.90759386  0.27721843  1
  Zn  Zn4  1  0.75000000  0.94270032  0.75000000  1
  Zn  Zn5  1  0.94270032  0.55729968  0.75000000  1
  Zn  Zn6  1  0.55729968  0.75000000  0.75000000  1
  Zn  Zn7  1  0.25000000  0.05729968  0.25000000  1
  Zn  Zn8  1  0.05729968  0.44270032  0.25000000  1
  Zn  Zn9  1  0.44270032  0.25000000  0.25000000  1
  Au  Au10  1  0.63664689  0.02071547  0.04969486  1
  Au  Au11  1  0.02071547  0.29294277  0.04969486  1
  Au  Au12  1  0.29294277  0.63664689  0.04969486  1
  Au  Au13  1  0.13664689  0.79294277  0.54969486  1
  Au  Au14  1  0.79294277  0.52071547  0.54969486  1
  Au  Au15  1  0.52071547  0.13664689  0.54969486  1
  Au  Au16  1  0.36335311  0.97928453  0.95030514  1
  Au  Au17  1  0.97928453  0.70705723  0.95030514  1
  Au  Au18  1  0.70705723  0.36335311  0.95030514  1
  Au  Au19  1  0.86335311  0.20705723  0.45030514  1
  Au  Au20  1  0.20705723  0.47928453  0.45030514  1
  Au  Au21  1  0.47928453  0.86335311  0.45030514  1
