# generated using pymatgen
data_Cd(BH4)2
_symmetry_space_group_name_H-M   'P 1'
_cell_length_a   5.86476743
_cell_length_b   5.86476743
_cell_length_c   6.17218010
_cell_angle_alpha   90.00000000
_cell_angle_beta   90.00000000
_cell_angle_gamma   90.00000000
_symmetry_Int_Tables_number   1
_chemical_formula_structural   Cd(BH4)2
_chemical_formula_sum   'Cd2 B4 H16'
_cell_volume   212.29520216
_cell_formula_units_Z   2
loop_
 _symmetry_equiv_pos_site_id
 _symmetry_equiv_pos_as_xyz
  1  'x, y, z'
loop_
 _atom_site_type_symbol
 _atom_site_label
 _atom_site_symmetry_multiplicity
 _atom_site_fract_x
 _atom_site_fract_y
 _atom_site_fract_z
 _atom_site_occupancy
  Cd  Cd0  1  0.50000000  0.50000000  0.49102331  1
  Cd  Cd1  1  0.00000000  -0.00000000  0.99102331  1
  B  B2  1  0.23590915  0.76409085  0.72951589  1
  B  B3  1  0.76409085  0.23590915  0.72951589  1
  B  B4  1  0.73590915  0.73590915  0.22951589  1
  B  B5  1  0.26409085  0.26409085  0.22951589  1
  H  H6  1  0.04559094  0.69785029  0.78626534  1
  H  H7  1  0.95440906  0.30214971  0.78626534  1
  H  H8  1  0.54559094  0.80214971  0.28626534  1
  H  H9  1  0.45440906  0.19785029  0.28626534  1
  H  H10  1  0.30214971  0.95440906  0.78626534  1
  H  H11  1  0.69785029  0.04559094  0.78626534  1
  H  H12  1  0.80214971  0.54559094  0.28626534  1
  H  H13  1  0.19785029  0.45440906  0.28626534  1
  H  H14  1  0.37214328  0.62785672  0.80882555  1
  H  H15  1  0.62785672  0.37214328  0.80882555  1
  H  H16  1  0.87214328  0.87214328  0.30882555  1
  H  H17  1  0.12785672  0.12785672  0.30882555  1
  H  H18  1  0.22221319  0.77778681  0.53361621  1
  H  H19  1  0.77778681  0.22221319  0.53361621  1
  H  H20  1  0.72221319  0.72221319  0.03361621  1
  H  H21  1  0.27778681  0.27778681  0.03361621  1
