# generated using pymatgen
data_As3Pb2BrO6
_symmetry_space_group_name_H-M   'P 1'
_cell_length_a   5.46398230
_cell_length_b   8.42557916
_cell_length_c   10.82021392
_cell_angle_alpha   108.51430237
_cell_angle_beta   90.00000000
_cell_angle_gamma   90.00000000
_symmetry_Int_Tables_number   1
_chemical_formula_structural   As3Pb2BrO6
_chemical_formula_sum   'As6 Pb4 Br2 O12'
_cell_volume   472.35138091
_cell_formula_units_Z   2
loop_
 _symmetry_equiv_pos_site_id
 _symmetry_equiv_pos_as_xyz
  1  'x, y, z'
loop_
 _atom_site_type_symbol
 _atom_site_label
 _atom_site_symmetry_multiplicity
 _atom_site_fract_x
 _atom_site_fract_y
 _atom_site_fract_z
 _atom_site_occupancy
  As  As0  1  0.75000000  0.72635204  0.58051608  1
  As  As1  1  0.25000000  0.27364796  0.41948392  1
  As  As2  1  0.75000000  0.60815868  0.84063915  1
  As  As3  1  0.25000000  0.39184132  0.15936085  1
  As  As4  1  0.75000000  0.60004702  0.17871363  1
  As  As5  1  0.25000000  0.39995298  0.82128637  1
  Pb  Pb6  1  0.75000000  0.15660348  0.61104015  1
  Pb  Pb7  1  0.25000000  0.84339652  0.38895985  1
  Pb  Pb8  1  0.75000000  0.03927331  0.22085537  1
  Pb  Pb9  1  0.25000000  0.96072669  0.77914463  1
  Br  Br10  1  0.25000000  0.80560395  0.06867195  1
  Br  Br11  1  0.75000000  0.19439605  0.93132805  1
  O  O12  1  0.49681548  0.51978376  0.26004001  1
  O  O13  1  0.99681548  0.48021624  0.73995999  1
  O  O14  1  0.50318452  0.48021624  0.73995999  1
  O  O15  1  0.00318452  0.51978376  0.26004001  1
  O  O16  1  0.50688876  0.87325066  0.58784252  1
  O  O17  1  0.00688876  0.12674934  0.41215748  1
  O  O18  1  0.49311124  0.12674934  0.41215748  1
  O  O19  1  0.99311124  0.87325066  0.58784252  1
  O  O20  1  0.25000000  0.23140808  0.23749480  1
  O  O21  1  0.75000000  0.76859192  0.76250520  1
  O  O22  1  0.75000000  0.80432899  0.29448227  1
  O  O23  1  0.25000000  0.19567101  0.70551773  1
