# generated using pymatgen
data_Li2Mn2F7
_symmetry_space_group_name_H-M   'P 1'
_cell_length_a   5.42735726
_cell_length_b   5.42735726
_cell_length_c   9.82232861
_cell_angle_alpha   84.12321177
_cell_angle_beta   95.87678823
_cell_angle_gamma   71.83890307
_symmetry_Int_Tables_number   1
_chemical_formula_structural   Li2Mn2F7
_chemical_formula_sum   'Li4 Mn4 F14'
_cell_volume   270.69571872
_cell_formula_units_Z   2
loop_
 _symmetry_equiv_pos_site_id
 _symmetry_equiv_pos_as_xyz
  1  'x, y, z'
loop_
 _atom_site_type_symbol
 _atom_site_label
 _atom_site_symmetry_multiplicity
 _atom_site_fract_x
 _atom_site_fract_y
 _atom_site_fract_z
 _atom_site_occupancy
  Li  Li0  1  0.18743449  0.75040589  0.70699016  1
  Li  Li1  1  0.24959411  0.81256551  0.20699016  1
  Li  Li2  1  0.75040589  0.18743449  0.79300984  1
  Li  Li3  1  0.81256551  0.24959411  0.29300984  1
  Mn  Mn4  1  0.30298039  0.29606858  0.03583317  1
  Mn  Mn5  1  0.29606858  0.30298039  0.46416683  1
  Mn  Mn6  1  0.70393142  0.69701961  0.53583317  1
  Mn  Mn7  1  0.69701961  0.70393142  0.96416683  1
  F  F8  1  0.33482640  0.95412010  0.57147231  1
  F  F9  1  0.11418114  0.49521378  0.61351329  1
  F  F10  1  0.40080074  0.63012845  0.87387614  1
  F  F11  1  0.04587990  0.66517360  0.07147231  1
  F  F12  1  0.83574127  0.83574127  0.75000000  1
  F  F13  1  0.50478622  0.88581886  0.11351329  1
  F  F14  1  0.36987155  0.59919926  0.37387614  1
  F  F15  1  0.63012845  0.40080074  0.62612386  1
  F  F16  1  0.49521378  0.11418114  0.88648671  1
  F  F17  1  0.16425873  0.16425873  0.25000000  1
  F  F18  1  0.95412010  0.33482640  0.92852769  1
  F  F19  1  0.59919926  0.36987155  0.12612386  1
  F  F20  1  0.88581886  0.50478622  0.38648671  1
  F  F21  1  0.66517360  0.04587990  0.42852769  1
