# generated using pymatgen
data_PuB4W
_symmetry_space_group_name_H-M   'P 1'
_cell_length_a   3.62634240
_cell_length_b   6.02397475
_cell_length_c   11.71044313
_cell_angle_alpha   90.00000000
_cell_angle_beta   90.00000000
_cell_angle_gamma   90.00000000
_symmetry_Int_Tables_number   1
_chemical_formula_structural   PuB4W
_chemical_formula_sum   'Pu4 B16 W4'
_cell_volume   255.81457224
_cell_formula_units_Z   4
loop_
 _symmetry_equiv_pos_site_id
 _symmetry_equiv_pos_as_xyz
  1  'x, y, z'
loop_
 _atom_site_type_symbol
 _atom_site_label
 _atom_site_symmetry_multiplicity
 _atom_site_fract_x
 _atom_site_fract_y
 _atom_site_fract_z
 _atom_site_occupancy
  Pu  Pu0  1  0.00000000  0.62494590  0.34969677  1
  Pu  Pu1  1  0.00000000  0.37505410  0.65030323  1
  Pu  Pu2  1  -0.00000000  0.12494590  0.15030323  1
  Pu  Pu3  1  -0.00000000  0.87505410  0.84969677  1
  B  B4  1  0.50000000  0.78613840  0.18724431  1
  B  B5  1  0.50000000  0.21386160  0.81275569  1
  B  B6  1  0.50000000  0.28613840  0.31275569  1
  B  B7  1  0.50000000  0.71386160  0.68724431  1
  B  B8  1  0.50000000  0.86616133  0.03240701  1
  B  B9  1  0.50000000  0.13383867  0.96759299  1
  B  B10  1  0.50000000  0.36616133  0.46759299  1
  B  B11  1  0.50000000  0.63383867  0.53240701  1
  B  B12  1  0.50000000  0.88421130  0.45265394  1
  B  B13  1  0.50000000  0.11578870  0.54734606  1
  B  B14  1  0.50000000  0.38421130  0.04734606  1
  B  B15  1  0.50000000  0.61578870  0.95265394  1
  B  B16  1  0.50000000  0.97322328  0.30723035  1
  B  B17  1  0.50000000  0.02677672  0.69276965  1
  B  B18  1  0.50000000  0.47322328  0.19276965  1
  B  B19  1  0.50000000  0.52677672  0.80723035  1
  W  W20  1  -0.00000000  0.63211134  0.08620562  1
  W  W21  1  0.00000000  0.36788866  0.91379438  1
  W  W22  1  0.00000000  0.13211134  0.41379438  1
  W  W23  1  0.00000000  0.86788866  0.58620562  1
