# generated using pymatgen
data_Ca(BH4)2
_symmetry_space_group_name_H-M   'P 1'
_cell_length_a   5.80548235
_cell_length_b   5.80548235
_cell_length_c   7.59648061
_cell_angle_alpha   109.54129766
_cell_angle_beta   109.54129766
_cell_angle_gamma   97.16047422
_symmetry_Int_Tables_number   1
_chemical_formula_structural   Ca(BH4)2
_chemical_formula_sum   'Ca2 B4 H16'
_cell_volume   219.17168062
_cell_formula_units_Z   2
loop_
 _symmetry_equiv_pos_site_id
 _symmetry_equiv_pos_as_xyz
  1  'x, y, z'
loop_
 _atom_site_type_symbol
 _atom_site_label
 _atom_site_symmetry_multiplicity
 _atom_site_fract_x
 _atom_site_fract_y
 _atom_site_fract_z
 _atom_site_occupancy
  Ca  Ca0  1  0.24244933  0.75755067  0.50000000  1
  Ca  Ca1  1  0.99244933  0.00755067  -0.00000000  1
  B  B2  1  0.45732186  0.97026057  0.94207452  1
  B  B3  1  0.02973943  0.54267814  0.05792548  1
  B  B4  1  0.22181395  0.23475266  0.44207452  1
  B  B5  1  0.76524734  0.77818605  0.55792548  1
  H  H6  1  0.26405555  0.79723003  0.82670924  1
  H  H7  1  0.20276997  0.73594445  0.17329076  1
  H  H8  1  0.27947921  0.31265370  0.32670924  1
  H  H9  1  0.68734630  0.72052079  0.67329076  1
  H  H10  1  0.52287620  0.08905708  0.85218335  1
  H  H11  1  0.91094292  0.47712380  0.14781665  1
  H  H12  1  0.01312626  0.07930714  0.35218335  1
  H  H13  1  0.92069286  0.98687374  0.64781665  1
  H  H14  1  0.61452817  0.86649186  0.01271414  1
  H  H15  1  0.13350814  0.38547183  0.98728586  1
  H  H16  1  0.39622228  0.14818597  0.51271414  1
  H  H17  1  0.85181403  0.60377772  0.48728586  1
  H  H18  1  0.42681545  0.11920702  0.08436514  1
  H  H19  1  0.88079298  0.57318455  0.91563486  1
  H  H20  1  0.21515811  0.40754969  0.58436514  1
  H  H21  1  0.59245031  0.78484189  0.41563486  1
