# generated using pymatgen
data_Nb7(B4Ru3)2
_symmetry_space_group_name_H-M   'P 1'
_cell_length_a   3.12544281
_cell_length_b   9.63667789
_cell_length_c   9.63488996
_cell_angle_alpha   120.00330885
_cell_angle_beta   90.00000000
_cell_angle_gamma   90.00000000
_symmetry_Int_Tables_number   1
_chemical_formula_structural   Nb7(B4Ru3)2
_chemical_formula_sum   'Nb7 B8 Ru6'
_cell_volume   251.30539283
_cell_formula_units_Z   1
loop_
 _symmetry_equiv_pos_site_id
 _symmetry_equiv_pos_as_xyz
  1  'x, y, z'
loop_
 _atom_site_type_symbol
 _atom_site_label
 _atom_site_symmetry_multiplicity
 _atom_site_fract_x
 _atom_site_fract_y
 _atom_site_fract_z
 _atom_site_occupancy
  Nb  Nb0  1  -0.00000000  -0.00000000  -0.00000000  1
  Nb  Nb1  1  0.00000000  0.72368580  0.63853296  1
  Nb  Nb2  1  0.00000000  0.36137271  0.08512974  1
  Nb  Nb3  1  0.00000000  0.91479014  0.27621575  1
  Nb  Nb4  1  0.00000000  0.27631420  0.36146704  1
  Nb  Nb5  1  0.00000000  0.63862729  0.91487026  1
  Nb  Nb6  1  0.00000000  0.08520986  0.72378425  1
  B  B7  1  0.00000000  0.66661311  0.33330258  1
  B  B8  1  0.00000000  0.33338689  0.66669742  1
  B  B9  1  0.50000000  0.15245260  0.93426358  1
  B  B10  1  0.50000000  0.06576386  0.21830694  1
  B  B11  1  0.50000000  0.78173022  0.84765308  1
  B  B12  1  0.50000000  0.84754740  0.06573642  1
  B  B13  1  0.50000000  0.93423614  0.78169306  1
  B  B14  1  0.50000000  0.21826978  0.15234692  1
  Ru  Ru15  1  0.50000000  0.36019222  0.84565501  1
  Ru  Ru16  1  0.50000000  0.15434691  0.51447465  1
  Ru  Ru17  1  0.50000000  0.48557574  0.63985676  1
  Ru  Ru18  1  0.50000000  0.63980778  0.15434499  1
  Ru  Ru19  1  0.50000000  0.84565309  0.48552535  1
  Ru  Ru20  1  0.50000000  0.51442426  0.36014324  1
