# generated using pymatgen
data_K2U(PdS2)3
_symmetry_space_group_name_H-M   'P 1'
_cell_length_a   8.69668798
_cell_length_b   8.69668798
_cell_length_c   9.69451750
_cell_angle_alpha   106.37572665
_cell_angle_beta   106.37572665
_cell_angle_gamma   111.80404353
_symmetry_Int_Tables_number   1
_chemical_formula_structural   K2U(PdS2)3
_chemical_formula_sum   'K4 U2 Pd6 S12'
_cell_volume   588.41216604
_cell_formula_units_Z   2
loop_
 _symmetry_equiv_pos_site_id
 _symmetry_equiv_pos_as_xyz
  1  'x, y, z'
loop_
 _atom_site_type_symbol
 _atom_site_label
 _atom_site_symmetry_multiplicity
 _atom_site_fract_x
 _atom_site_fract_y
 _atom_site_fract_z
 _atom_site_occupancy
  K  K0  1  0.75000000  0.25000000  0.50000000  1
  K  K1  1  0.25000000  0.75000000  0.50000000  1
  K  K2  1  0.70544496  0.29455504  -0.00000000  1
  K  K3  1  0.29455504  0.70544496  -0.00000000  1
  U  U4  1  0.16906606  0.16906606  0.33813212  1
  U  U5  1  0.83093394  0.83093394  0.66186788  1
  Pd  Pd6  1  0.82124391  0.82124391  0.31699278  1
  Pd  Pd7  1  0.50425112  0.50425112  0.68300722  1
  Pd  Pd8  1  0.17875609  0.17875609  0.68300722  1
  Pd  Pd9  1  0.49574888  0.49574888  0.31699278  1
  Pd  Pd10  1  0.82723978  0.82723978  -0.00000000  1
  Pd  Pd11  1  0.17276022  0.17276022  -0.00000000  1
  S  S12  1  0.80895507  0.03635434  0.20808017  1
  S  S13  1  0.82827417  0.60087490  0.79191983  1
  S  S14  1  0.96364566  0.19104493  0.79191983  1
  S  S15  1  0.39912510  0.17172583  0.20808017  1
  S  S16  1  0.19104493  0.96364566  0.79191983  1
  S  S17  1  0.17172583  0.39912510  0.20808017  1
  S  S18  1  0.03635434  0.80895507  0.20808017  1
  S  S19  1  0.60087490  0.82827417  0.79191983  1
  S  S20  1  0.18117823  0.40773250  0.58891073  1
  S  S21  1  0.81882177  0.59226750  0.41108927  1
  S  S22  1  0.59226750  0.81882177  0.41108927  1
  S  S23  1  0.40773250  0.18117823  0.58891073  1
