# generated using pymatgen
data_RbZn2HSe2O7
_symmetry_space_group_name_H-M   'P 1'
_cell_length_a   5.02863427
_cell_length_b   7.58798379
_cell_length_c   12.11404237
_cell_angle_alpha   82.15818410
_cell_angle_beta   78.00677829
_cell_angle_gamma   70.81266313
_symmetry_Int_Tables_number   1
_chemical_formula_structural   RbZn2HSe2O7
_chemical_formula_sum   'Rb2 Zn4 H2 Se4 O14'
_cell_volume   425.86764764
_cell_formula_units_Z   2
loop_
 _symmetry_equiv_pos_site_id
 _symmetry_equiv_pos_as_xyz
  1  'x, y, z'
loop_
 _atom_site_type_symbol
 _atom_site_label
 _atom_site_symmetry_multiplicity
 _atom_site_fract_x
 _atom_site_fract_y
 _atom_site_fract_z
 _atom_site_occupancy
  Rb  Rb0  1  0.32516098  0.62208577  0.70885850  1
  Rb  Rb1  1  0.67483902  0.37791423  0.29114150  1
  Zn  Zn2  1  0.65495756  0.70263777  0.92454847  1
  Zn  Zn3  1  0.34504244  0.29736223  0.07545153  1
  Zn  Zn4  1  0.65678825  0.99051421  0.64283780  1
  Zn  Zn5  1  0.34321175  0.00948579  0.35716220  1
  H  H6  1  0.42125237  0.98061665  0.15535560  1
  H  H7  1  0.57874763  0.01938335  0.84464440  1
  Se  Se8  1  0.95081535  0.25921340  0.90640735  1
  Se  Se9  1  0.04918465  0.74078660  0.09359265  1
  Se  Se10  1  0.94352653  0.74339855  0.42618174  1
  Se  Se11  1  0.05647347  0.25660145  0.57381826  1
  O  O12  1  0.24340788  0.70336340  0.95965387  1
  O  O13  1  0.75659212  0.29663660  0.04034613  1
  O  O14  1  0.84989263  0.47984616  0.83605116  1
  O  O15  1  0.15010737  0.52015384  0.16394884  1
  O  O16  1  0.70946338  0.76279107  0.07048027  1
  O  O17  1  0.29053662  0.23720893  0.92951973  1
  O  O18  1  0.75116831  0.96179135  0.37717346  1
  O  O19  1  0.24883169  0.03820865  0.62282654  1
  O  O20  1  0.71308495  0.23904147  0.60200320  1
  O  O21  1  0.28691505  0.76095853  0.39799680  1
  O  O22  1  0.85199857  0.74993368  0.57209403  1
  O  O23  1  0.14800143  0.25006632  0.42790597  1
  O  O24  1  0.66848408  0.90547473  0.80384572  1
  O  O25  1  0.33151592  0.09452527  0.19615428  1
