# generated using pymatgen
data_KBaAsO4
_symmetry_space_group_name_H-M   'P 1'
_cell_length_a   5.99377893
_cell_length_b   7.92419819
_cell_length_c   10.48465878
_cell_angle_alpha   90.00000000
_cell_angle_beta   90.00000000
_cell_angle_gamma   90.00000000
_symmetry_Int_Tables_number   1
_chemical_formula_structural   KBaAsO4
_chemical_formula_sum   'K4 Ba4 As4 O16'
_cell_volume   497.97822263
_cell_formula_units_Z   4
loop_
 _symmetry_equiv_pos_site_id
 _symmetry_equiv_pos_as_xyz
  1  'x, y, z'
loop_
 _atom_site_type_symbol
 _atom_site_label
 _atom_site_symmetry_multiplicity
 _atom_site_fract_x
 _atom_site_fract_y
 _atom_site_fract_z
 _atom_site_occupancy
  K  K0  1  0.75000000  0.66595999  0.08068615  1
  K  K1  1  0.75000000  0.16595999  0.41931385  1
  K  K2  1  0.25000000  0.33404001  0.91931385  1
  K  K3  1  0.25000000  0.83404001  0.58068615  1
  Ba  Ba4  1  0.75000000  0.99537354  0.80164115  1
  Ba  Ba5  1  0.75000000  0.49537354  0.69835885  1
  Ba  Ba6  1  0.25000000  0.00462646  0.19835885  1
  Ba  Ba7  1  0.25000000  0.50462646  0.30164115  1
  As  As8  1  0.75000000  0.22931126  0.08176971  1
  As  As9  1  0.75000000  0.72931126  0.41823029  1
  As  As10  1  0.25000000  0.77068874  0.91823029  1
  As  As11  1  0.25000000  0.27068874  0.58176971  1
  O  O12  1  0.75000000  0.30853201  0.92769553  1
  O  O13  1  0.75000000  0.80853201  0.57230447  1
  O  O14  1  0.25000000  0.69146799  0.07230447  1
  O  O15  1  0.25000000  0.19146799  0.42769553  1
  O  O16  1  0.98685811  0.29690706  0.15969201  1
  O  O17  1  0.51314189  0.79690706  0.34030799  1
  O  O18  1  0.48685811  0.70309294  0.84030799  1
  O  O19  1  0.01314189  0.20309294  0.65969201  1
  O  O20  1  0.01314189  0.70309294  0.84030799  1
  O  O21  1  0.48685811  0.20309294  0.65969201  1
  O  O22  1  0.51314189  0.29690706  0.15969201  1
  O  O23  1  0.98685811  0.79690706  0.34030799  1
  O  O24  1  0.75000000  0.01164645  0.07618006  1
  O  O25  1  0.75000000  0.51164645  0.42381994  1
  O  O26  1  0.25000000  0.98835355  0.92381994  1
  O  O27  1  0.25000000  0.48835355  0.57618006  1
