# generated using pymatgen
data_Lu(Al5Os)2
_symmetry_space_group_name_H-M   'P 1'
_cell_length_a   6.85446307
_cell_length_b   6.85446307
_cell_length_c   9.12904914
_cell_angle_alpha   90.00000000
_cell_angle_beta   90.00000000
_cell_angle_gamma   96.51649307
_symmetry_Int_Tables_number   1
_chemical_formula_structural   Lu(Al5Os)2
_chemical_formula_sum   'Lu2 Al20 Os4'
_cell_volume   426.14504709
_cell_formula_units_Z   2
loop_
 _symmetry_equiv_pos_site_id
 _symmetry_equiv_pos_as_xyz
  1  'x, y, z'
loop_
 _atom_site_type_symbol
 _atom_site_label
 _atom_site_symmetry_multiplicity
 _atom_site_fract_x
 _atom_site_fract_y
 _atom_site_fract_z
 _atom_site_occupancy
  Lu  Lu0  1  0.86884542  0.13115458  0.75000000  1
  Lu  Lu1  1  0.13115458  0.86884542  0.25000000  1
  Al  Al2  1  0.21686694  0.48108800  0.75000000  1
  Al  Al3  1  0.48108800  0.21686694  0.25000000  1
  Al  Al4  1  0.78313306  0.51891200  0.25000000  1
  Al  Al5  1  0.51891200  0.78313306  0.75000000  1
  Al  Al6  1  0.62403459  0.37596541  0.54642873  1
  Al  Al7  1  0.37596541  0.62403459  0.45357127  1
  Al  Al8  1  0.62403459  0.37596541  0.95357127  1
  Al  Al9  1  0.37596541  0.62403459  0.04642873  1
  Al  Al10  1  0.85181248  0.58174094  0.75000000  1
  Al  Al11  1  0.58174094  0.85181248  0.25000000  1
  Al  Al12  1  0.14818752  0.41825906  0.25000000  1
  Al  Al13  1  0.41825906  0.14818752  0.75000000  1
  Al  Al14  1  0.84539856  0.15460144  0.10076805  1
  Al  Al15  1  0.15460144  0.84539856  0.89923195  1
  Al  Al16  1  0.84539856  0.15460144  0.39923195  1
  Al  Al17  1  0.15460144  0.84539856  0.60076805  1
  Al  Al18  1  0.22419348  0.22419348  0.50000000  1
  Al  Al19  1  0.22419348  0.22419348  0.00000000  1
  Al  Al20  1  0.77580652  0.77580652  0.50000000  1
  Al  Al21  1  0.77580652  0.77580652  0.00000000  1
  Os  Os22  1  -0.00000000  0.50000000  0.50000000  1
  Os  Os23  1  0.50000000  -0.00000000  0.50000000  1
  Os  Os24  1  -0.00000000  0.50000000  0.00000000  1
  Os  Os25  1  0.50000000  -0.00000000  0.00000000  1
