# generated using pymatgen
data_SbH5(Cl3O)2
_symmetry_space_group_name_H-M   'P 1'
_cell_length_a   7.23773337
_cell_length_b   7.07865994
_cell_length_c   12.91227888
_cell_angle_alpha   83.86223901
_cell_angle_beta   73.72394697
_cell_angle_gamma   59.25379736
_symmetry_Int_Tables_number   1
_chemical_formula_structural   SbH5(Cl3O)2
_chemical_formula_sum   'Sb2 H10 Cl12 O4'
_cell_volume   545.23805108
_cell_formula_units_Z   2
loop_
 _symmetry_equiv_pos_site_id
 _symmetry_equiv_pos_as_xyz
  1  'x, y, z'
loop_
 _atom_site_type_symbol
 _atom_site_label
 _atom_site_symmetry_multiplicity
 _atom_site_fract_x
 _atom_site_fract_y
 _atom_site_fract_z
 _atom_site_occupancy
  Sb  Sb0  1  0.00000000  0.50000000  0.50000000  1
  Sb  Sb1  1  0.00000000  -0.00000000  -0.00000000  1
  H  H2  1  0.53157555  0.25000000  0.75000000  1
  H  H3  1  0.46842445  0.75000000  0.25000000  1
  H  H4  1  0.63853910  0.99245634  0.66686901  1
  H  H5  1  0.29786445  0.50754366  0.83313099  1
  H  H6  1  0.36146090  0.00754366  0.33313099  1
  H  H7  1  0.70213555  0.49245634  0.16686901  1
  H  H8  1  0.62697003  0.20267064  0.60076572  1
  H  H9  1  0.43040640  0.29732936  0.89923428  1
  H  H10  1  0.37302997  0.79732936  0.39923428  1
  H  H11  1  0.56959360  0.70267064  0.10076572  1
  Cl  Cl12  1  0.19787774  0.62943730  0.56757678  1
  Cl  Cl13  1  0.39489181  0.87056270  0.93242322  1
  Cl  Cl14  1  0.80212226  0.37056270  0.43242322  1
  Cl  Cl15  1  0.60510819  0.12943730  0.06757678  1
  Cl  Cl16  1  0.31590782  0.33285064  0.34123822  1
  Cl  Cl17  1  0.98999667  0.16714936  0.15876178  1
  Cl  Cl18  1  0.68409218  0.66714936  0.65876178  1
  Cl  Cl19  1  0.01000333  0.83285064  0.84123822  1
  Cl  Cl20  1  0.16135252  0.16637275  0.59241844  1
  Cl  Cl21  1  0.92014371  0.33362725  0.90758156  1
  Cl  Cl22  1  0.83864748  0.83362725  0.40758156  1
  Cl  Cl23  1  0.07985629  0.66637275  0.09241844  1
  O  O24  1  0.64295338  0.13034814  0.66953793  1
  O  O25  1  0.44283946  0.36965186  0.83046207  1
  O  O26  1  0.35704662  0.86965186  0.33046207  1
  O  O27  1  0.55716054  0.63034814  0.16953793  1
