# generated using pymatgen
data_Cs2BeCl4
_symmetry_space_group_name_H-M   'P 1'
_cell_length_a   7.32664951
_cell_length_b   9.85592544
_cell_length_c   12.82551395
_cell_angle_alpha   90.00000000
_cell_angle_beta   90.00000000
_cell_angle_gamma   90.00000000
_symmetry_Int_Tables_number   1
_chemical_formula_structural   Cs2BeCl4
_chemical_formula_sum   'Cs8 Be4 Cl16'
_cell_volume   926.14205016
_cell_formula_units_Z   4
loop_
 _symmetry_equiv_pos_site_id
 _symmetry_equiv_pos_as_xyz
  1  'x, y, z'
loop_
 _atom_site_type_symbol
 _atom_site_label
 _atom_site_symmetry_multiplicity
 _atom_site_fract_x
 _atom_site_fract_y
 _atom_site_fract_z
 _atom_site_occupancy
  Cs  Cs0  1  0.75000000  0.35098433  0.89862957  1
  Cs  Cs1  1  0.75000000  0.85098433  0.60137043  1
  Cs  Cs2  1  0.25000000  0.64901567  0.10137043  1
  Cs  Cs3  1  0.25000000  0.14901567  0.39862957  1
  Cs  Cs4  1  0.75000000  0.02189353  0.17579811  1
  Cs  Cs5  1  0.75000000  0.52189353  0.32420189  1
  Cs  Cs6  1  0.25000000  0.97810647  0.82420189  1
  Cs  Cs7  1  0.25000000  0.47810647  0.67579811  1
  Be  Be8  1  0.75000000  0.25724688  0.58083838  1
  Be  Be9  1  0.75000000  0.75724688  0.91916162  1
  Be  Be10  1  0.25000000  0.74275312  0.41916162  1
  Be  Be11  1  0.25000000  0.24275312  0.08083838  1
  Cl  Cl12  1  0.75000000  0.96240840  0.90374660  1
  Cl  Cl13  1  0.75000000  0.46240840  0.59625340  1
  Cl  Cl14  1  0.25000000  0.03759160  0.09625340  1
  Cl  Cl15  1  0.25000000  0.53759160  0.40374660  1
  Cl  Cl16  1  0.75000000  0.19964405  0.42674411  1
  Cl  Cl17  1  0.75000000  0.69964405  0.07325589  1
  Cl  Cl18  1  0.25000000  0.80035595  0.57325589  1
  Cl  Cl19  1  0.25000000  0.30035595  0.92674411  1
  Cl  Cl20  1  0.02238405  0.82135899  0.34981330  1
  Cl  Cl21  1  0.47761595  0.32135899  0.15018670  1
  Cl  Cl22  1  0.52238405  0.17864101  0.65018670  1
  Cl  Cl23  1  0.97761595  0.67864101  0.84981330  1
  Cl  Cl24  1  0.97761595  0.17864101  0.65018670  1
  Cl  Cl25  1  0.52238405  0.67864101  0.84981330  1
  Cl  Cl26  1  0.47761595  0.82135899  0.34981330  1
  Cl  Cl27  1  0.02238405  0.32135899  0.15018670  1
