# generated using pymatgen
data_Li3MnO2F
_symmetry_space_group_name_H-M   'P 1'
_cell_length_a   5.32614411
_cell_length_b   5.51736202
_cell_length_c   5.98512327
_cell_angle_alpha   61.58989343
_cell_angle_beta   91.63123315
_cell_angle_gamma   95.79482564
_symmetry_Int_Tables_number   1
_chemical_formula_structural   Li3MnO2F
_chemical_formula_sum   'Li6 Mn2 O4 F2'
_cell_volume   153.86917071
_cell_formula_units_Z   2
loop_
 _symmetry_equiv_pos_site_id
 _symmetry_equiv_pos_as_xyz
  1  'x, y, z'
loop_
 _atom_site_type_symbol
 _atom_site_label
 _atom_site_symmetry_multiplicity
 _atom_site_fract_x
 _atom_site_fract_y
 _atom_site_fract_z
 _atom_site_occupancy
  Li  Li0  1  0.08079446  0.68803888  0.54206265  1
  Li  Li1  1  0.15009883  0.80610063  0.00880787  1
  Li  Li2  1  0.39907595  0.27549950  0.69100656  1
  Li  Li3  1  0.60092405  0.72450050  0.30899444  1
  Li  Li4  1  0.84990117  0.19389937  0.99119213  1
  Li  Li5  1  0.91920554  0.31196112  0.45793735  1
  Mn  Mn6  1  0.37709435  0.22974627  0.29354712  1
  Mn  Mn7  1  0.62290565  0.77025373  0.70645288  1
  O  O8  1  0.25650821  0.53682177  0.34448698  1
  O  O9  1  0.27658149  0.91594650  0.66819751  1
  O  O10  1  0.72341851  0.08405350  0.33180249  1
  O  O11  1  0.74349179  0.46317823  0.65551302  1
  F  F12  1  0.21151907  0.18527033  0.98787073  1
  F  F13  1  0.78848093  0.81472967  0.01212927  1
