# generated using pymatgen
data_Re(TeCl2)2
_symmetry_space_group_name_H-M   'P 1'
_cell_length_a   10.66836546
_cell_length_b   10.66836546
_cell_length_c   10.66836546
_cell_angle_alpha   95.89644912
_cell_angle_beta   116.65611210
_cell_angle_gamma   116.65611210
_symmetry_Int_Tables_number   1
_chemical_formula_structural   Re(TeCl2)2
_chemical_formula_sum   'Re4 Te8 Cl16'
_cell_volume   896.82881634
_cell_formula_units_Z   4
loop_
 _symmetry_equiv_pos_site_id
 _symmetry_equiv_pos_as_xyz
  1  'x, y, z'
loop_
 _atom_site_type_symbol
 _atom_site_label
 _atom_site_symmetry_multiplicity
 _atom_site_fract_x
 _atom_site_fract_y
 _atom_site_fract_z
 _atom_site_occupancy
  Re  Re0  1  0.16140038  0.61568992  0.69054593  1
  Re  Re1  1  0.83859962  0.52914555  0.45428954  1
  Re  Re2  1  0.92514399  0.30945407  0.47085445  1
  Re  Re3  1  0.07485601  0.54571046  0.38431008  1
  Te  Te4  1  0.88379507  0.41999709  0.66998462  1
  Te  Te5  1  0.11620493  0.78618955  0.53620201  1
  Te  Te6  1  0.75001247  0.33001538  0.21381045  1
  Te  Te7  1  0.24998753  0.46379799  0.58000291  1
  Te  Te8  1  0.49539053  0.84880560  0.89949007  1
  Te  Te9  1  0.50460947  0.40409953  0.35341507  1
  Te  Te10  1  0.94931554  0.10050993  0.59590047  1
  Te  Te11  1  0.05068446  0.64658493  0.15119440  1
  Cl  Cl12  1  0.31829767  0.57749029  0.92557627  1
  Cl  Cl13  1  0.68170233  0.60727861  0.25919262  1
  Cl  Cl14  1  0.65191402  0.07442373  0.39272139  1
  Cl  Cl15  1  0.34808598  0.74080738  0.42250971  1
  Cl  Cl16  1  0.21406065  0.81549064  0.89061345  1
  Cl  Cl17  1  0.78593935  0.67655279  0.60142999  1
  Cl  Cl18  1  0.92487720  0.10938655  0.32344721  1
  Cl  Cl19  1  0.07512280  0.39857001  0.18450936  1
  Cl  Cl20  1  0.55979771  0.06161466  0.82054237  1
  Cl  Cl21  1  0.44020229  0.26074466  0.50181695  1
  Cl  Cl22  1  0.24107229  0.17945763  0.73925534  1
  Cl  Cl23  1  0.75892771  0.49818305  0.93838534  1
  Cl  Cl24  1  0.66975823  0.79368948  0.85642125  1
  Cl  Cl25  1  0.33024177  0.18666303  0.12393126  1
  Cl  Cl26  1  0.93726823  0.14357875  0.81333697  1
  Cl  Cl27  1  0.06273177  0.87606874  0.20631052  1
