# generated using pymatgen
data_La(Sn2Rh)2
_symmetry_space_group_name_H-M   'P 1'
_cell_length_a   4.59281088
_cell_length_b   7.21732533
_cell_length_c   18.72251947
_cell_angle_alpha   90.00000000
_cell_angle_beta   90.00000000
_cell_angle_gamma   90.00000000
_symmetry_Int_Tables_number   1
_chemical_formula_structural   La(Sn2Rh)2
_chemical_formula_sum   'La4 Sn16 Rh8'
_cell_volume   620.61052373
_cell_formula_units_Z   4
loop_
 _symmetry_equiv_pos_site_id
 _symmetry_equiv_pos_as_xyz
  1  'x, y, z'
loop_
 _atom_site_type_symbol
 _atom_site_label
 _atom_site_symmetry_multiplicity
 _atom_site_fract_x
 _atom_site_fract_y
 _atom_site_fract_z
 _atom_site_occupancy
  La  La0  1  0.25000000  0.99841336  0.85809576  1
  La  La1  1  0.25000000  0.50158664  0.35809576  1
  La  La2  1  0.75000000  0.00158664  0.14190424  1
  La  La3  1  0.75000000  0.49841336  0.64190424  1
  Sn  Sn4  1  0.25000000  0.30451842  0.18207645  1
  Sn  Sn5  1  0.25000000  0.19548158  0.68207645  1
  Sn  Sn6  1  0.75000000  0.69548158  0.81792355  1
  Sn  Sn7  1  0.75000000  0.80451842  0.31792355  1
  Sn  Sn8  1  0.25000000  0.72082646  0.19433186  1
  Sn  Sn9  1  0.25000000  0.77917354  0.69433186  1
  Sn  Sn10  1  0.75000000  0.27917354  0.80566814  1
  Sn  Sn11  1  0.75000000  0.22082646  0.30566814  1
  Sn  Sn12  1  0.25000000  0.86168002  0.03093484  1
  Sn  Sn13  1  0.25000000  0.63831998  0.53093484  1
  Sn  Sn14  1  0.75000000  0.13831998  0.96906516  1
  Sn  Sn15  1  0.75000000  0.36168002  0.46906516  1
  Sn  Sn16  1  0.25000000  0.51552241  0.93171660  1
  Sn  Sn17  1  0.25000000  0.98447759  0.43171660  1
  Sn  Sn18  1  0.75000000  0.48447759  0.06828340  1
  Sn  Sn19  1  0.75000000  0.01552241  0.56828340  1
  Rh  Rh20  1  0.25000000  0.24938024  0.03470478  1
  Rh  Rh21  1  0.25000000  0.25061976  0.53470478  1
  Rh  Rh22  1  0.75000000  0.75061976  0.96529522  1
  Rh  Rh23  1  0.75000000  0.74938024  0.46529522  1
  Rh  Rh24  1  0.25000000  0.01817021  0.28646986  1
  Rh  Rh25  1  0.25000000  0.48182979  0.78646986  1
  Rh  Rh26  1  0.75000000  0.98182979  0.71353014  1
  Rh  Rh27  1  0.75000000  0.51817021  0.21353014  1
