# generated using pymatgen
data_Ba(YSe2)2
_symmetry_space_group_name_H-M   'P 1'
_cell_length_a   4.21040847
_cell_length_b   12.90460332
_cell_length_c   15.20759533
_cell_angle_alpha   90.00000000
_cell_angle_beta   90.00000000
_cell_angle_gamma   90.00000000
_symmetry_Int_Tables_number   1
_chemical_formula_structural   Ba(YSe2)2
_chemical_formula_sum   'Ba4 Y8 Se16'
_cell_volume   826.28417904
_cell_formula_units_Z   4
loop_
 _symmetry_equiv_pos_site_id
 _symmetry_equiv_pos_as_xyz
  1  'x, y, z'
loop_
 _atom_site_type_symbol
 _atom_site_label
 _atom_site_symmetry_multiplicity
 _atom_site_fract_x
 _atom_site_fract_y
 _atom_site_fract_z
 _atom_site_occupancy
  Ba  Ba0  1  0.75000000  0.25905290  0.16446714  1
  Ba  Ba1  1  0.75000000  0.75905290  0.33553286  1
  Ba  Ba2  1  0.25000000  0.74094710  0.83553286  1
  Ba  Ba3  1  0.25000000  0.24094710  0.66446714  1
  Y  Y4  1  0.75000000  0.42096058  0.90043090  1
  Y  Y5  1  0.75000000  0.92096058  0.59956910  1
  Y  Y6  1  0.25000000  0.57903942  0.09956910  1
  Y  Y7  1  0.25000000  0.07903942  0.40043090  1
  Y  Y8  1  0.75000000  0.93565589  0.10861337  1
  Y  Y9  1  0.75000000  0.43565589  0.39138663  1
  Y  Y10  1  0.25000000  0.06434411  0.89138663  1
  Y  Y11  1  0.25000000  0.56434411  0.60861337  1
  Se  Se12  1  0.75000000  0.41515607  0.57693552  1
  Se  Se13  1  0.75000000  0.91515607  0.92306448  1
  Se  Se14  1  0.25000000  0.58484393  0.42306448  1
  Se  Se15  1  0.25000000  0.08484393  0.07693552  1
  Se  Se16  1  0.75000000  0.20623279  0.83626935  1
  Se  Se17  1  0.75000000  0.70623279  0.66373065  1
  Se  Se18  1  0.25000000  0.79376721  0.16373065  1
  Se  Se19  1  0.25000000  0.29376721  0.33626935  1
  Se  Se20  1  0.75000000  0.12595790  0.52476193  1
  Se  Se21  1  0.75000000  0.62595790  0.97523807  1
  Se  Se22  1  0.25000000  0.87404210  0.47523807  1
  Se  Se23  1  0.25000000  0.37404210  0.02476193  1
  Se  Se24  1  0.75000000  0.02423281  0.28340843  1
  Se  Se25  1  0.75000000  0.52423281  0.21659157  1
  Se  Se26  1  0.25000000  0.97576719  0.71659157  1
  Se  Se27  1  0.25000000  0.47576719  0.78340843  1
