# generated using pymatgen
data_Cs3GeTe3
_symmetry_space_group_name_H-M   'P 1'
_cell_length_a   10.44991093
_cell_length_b   11.41788181
_cell_length_c   11.41788181
_cell_angle_alpha   80.23640265
_cell_angle_beta   85.30079254
_cell_angle_gamma   85.30079254
_symmetry_Int_Tables_number   1
_chemical_formula_structural   Cs3GeTe3
_chemical_formula_sum   'Cs12 Ge4 Te12'
_cell_volume   1334.87522120
_cell_formula_units_Z   4
loop_
 _symmetry_equiv_pos_site_id
 _symmetry_equiv_pos_as_xyz
  1  'x, y, z'
loop_
 _atom_site_type_symbol
 _atom_site_label
 _atom_site_symmetry_multiplicity
 _atom_site_fract_x
 _atom_site_fract_y
 _atom_site_fract_z
 _atom_site_occupancy
  Cs  Cs0  1  0.75000000  0.60255113  0.39744887  1
  Cs  Cs1  1  0.25000000  0.39744887  0.60255113  1
  Cs  Cs2  1  0.68566684  0.80952731  0.75498962  1
  Cs  Cs3  1  0.81433316  0.24501038  0.19047269  1
  Cs  Cs4  1  0.31433316  0.19047269  0.24501038  1
  Cs  Cs5  1  0.18566684  0.75498962  0.80952731  1
  Cs  Cs6  1  0.75000000  0.91677015  0.08322985  1
  Cs  Cs7  1  0.25000000  0.08322985  0.91677015  1
  Cs  Cs8  1  0.36729021  0.78509655  0.40313025  1
  Cs  Cs9  1  0.13270979  0.59686975  0.21490345  1
  Cs  Cs10  1  0.63270979  0.21490345  0.59686975  1
  Cs  Cs11  1  0.86729021  0.40313025  0.78509655  1
  Ge  Ge12  1  0.96055489  0.92385181  0.43918220  1
  Ge  Ge13  1  0.53944511  0.56081780  0.07614819  1
  Ge  Ge14  1  0.03944511  0.07614819  0.56081780  1
  Ge  Ge15  1  0.46055489  0.43918220  0.92385181  1
  Te  Te16  1  0.71002806  0.95443042  0.42153250  1
  Te  Te17  1  0.78997194  0.57846750  0.04556958  1
  Te  Te18  1  0.28997194  0.04556958  0.57846750  1
  Te  Te19  1  0.21002806  0.42153250  0.95443042  1
  Te  Te20  1  0.52146807  0.54525811  0.70455365  1
  Te  Te21  1  0.97853193  0.29544635  0.45474189  1
  Te  Te22  1  0.47853193  0.45474189  0.29544635  1
  Te  Te23  1  0.02146807  0.70455365  0.54525811  1
  Te  Te24  1  0.07484753  0.94974922  0.22475844  1
  Te  Te25  1  0.42515247  0.77524156  0.05025078  1
  Te  Te26  1  0.92515247  0.05025078  0.77524156  1
  Te  Te27  1  0.57484753  0.22475844  0.94974922  1
