# generated using pymatgen
data_KMn2P2HO9
_symmetry_space_group_name_H-M   'P 1'
_cell_length_a   6.35062698
_cell_length_b   7.02039820
_cell_length_c   8.97091266
_cell_angle_alpha   90.00000000
_cell_angle_beta   107.23019997
_cell_angle_gamma   90.00000000
_symmetry_Int_Tables_number   1
_chemical_formula_structural   KMn2P2HO9
_chemical_formula_sum   'K2 Mn4 P4 H2 O18'
_cell_volume   382.00935055
_cell_formula_units_Z   2
loop_
 _symmetry_equiv_pos_site_id
 _symmetry_equiv_pos_as_xyz
  1  'x, y, z'
loop_
 _atom_site_type_symbol
 _atom_site_label
 _atom_site_symmetry_multiplicity
 _atom_site_fract_x
 _atom_site_fract_y
 _atom_site_fract_z
 _atom_site_occupancy
  K  K0  1  0.95037089  0.25000000  0.82921567  1
  K  K1  1  0.04962911  0.75000000  0.17078433  1
  Mn  Mn2  1  0.50000000  0.50000000  0.00000000  1
  Mn  Mn3  1  0.50000000  0.00000000  0.00000000  1
  Mn  Mn4  1  0.45960922  0.25000000  0.28665717  1
  Mn  Mn5  1  0.54039078  0.75000000  0.71334283  1
  P  P6  1  0.88649831  0.25000000  0.18955584  1
  P  P7  1  0.11350169  0.75000000  0.81044416  1
  P  P8  1  0.43448111  0.25000000  0.65583518  1
  P  P9  1  0.56551889  0.75000000  0.34416482  1
  H  H10  1  0.08693640  0.25000000  0.49948392  1
  H  H11  1  0.91306360  0.75000000  0.50051608  1
  O  O12  1  0.78574215  0.25000000  0.32769115  1
  O  O13  1  0.21425785  0.75000000  0.67230885  1
  O  O14  1  0.41675324  0.25000000  0.06239220  1
  O  O15  1  0.58324676  0.75000000  0.93760780  1
  O  O16  1  0.51333701  0.25000000  0.51039551  1
  O  O17  1  0.48666299  0.75000000  0.48960449  1
  O  O18  1  0.13764503  0.25000000  0.25851847  1
  O  O19  1  0.86235497  0.75000000  0.74148153  1
  O  O20  1  0.17121006  0.25000000  0.61095769  1
  O  O21  1  0.82878994  0.75000000  0.38904231  1
  O  O22  1  0.81358424  0.43070409  0.08484444  1
  O  O23  1  0.18641576  0.93070409  0.91515556  1
  O  O24  1  0.18641576  0.56929591  0.91515556  1
  O  O25  1  0.81358424  0.06929591  0.08484444  1
  O  O26  1  0.51984274  0.42812778  0.75673936  1
  O  O27  1  0.48015726  0.92812778  0.24326064  1
  O  O28  1  0.48015726  0.57187222  0.24326064  1
  O  O29  1  0.51984274  0.07187222  0.75673936  1
