# generated using pymatgen
data_CsEuSiS4
_symmetry_space_group_name_H-M   'P 1'
_cell_length_a   6.60962486
_cell_length_b   6.81291280
_cell_length_c   18.25690008
_cell_angle_alpha   90.00000000
_cell_angle_beta   90.00000000
_cell_angle_gamma   90.00000000
_symmetry_Int_Tables_number   1
_chemical_formula_structural   CsEuSiS4
_chemical_formula_sum   'Cs4 Eu4 Si4 S16'
_cell_volume   822.12277617
_cell_formula_units_Z   4
loop_
 _symmetry_equiv_pos_site_id
 _symmetry_equiv_pos_as_xyz
  1  'x, y, z'
loop_
 _atom_site_type_symbol
 _atom_site_label
 _atom_site_symmetry_multiplicity
 _atom_site_fract_x
 _atom_site_fract_y
 _atom_site_fract_z
 _atom_site_occupancy
  Cs  Cs0  1  0.49914096  0.49380321  0.96622637  1
  Cs  Cs1  1  0.00085904  0.50619679  0.46622637  1
  Cs  Cs2  1  -0.00085904  0.00619679  0.03377363  1
  Cs  Cs3  1  0.50085904  0.99380321  0.53377363  1
  Eu  Eu4  1  0.29040592  0.47538333  0.22769175  1
  Eu  Eu5  1  0.20959408  0.52461667  0.72769175  1
  Eu  Eu6  1  0.79040592  0.02461667  0.77230825  1
  Eu  Eu7  1  0.70959408  0.97538333  0.27230825  1
  Si  Si8  1  0.78947868  0.51826540  0.16720206  1
  Si  Si9  1  0.71052132  0.48173460  0.66720206  1
  Si  Si10  1  0.28947868  0.98173460  0.83279794  1
  Si  Si11  1  0.21052132  0.01826540  0.33279794  1
  S  S12  1  0.04441204  0.51244493  0.09707557  1
  S  S13  1  0.45558796  0.48755507  0.59707557  1
  S  S14  1  0.54441204  0.98755507  0.90292443  1
  S  S15  1  0.95558796  0.01244493  0.40292443  1
  S  S16  1  0.61264847  0.43110169  0.77709425  1
  S  S17  1  0.88735153  0.56889831  0.27709425  1
  S  S18  1  0.11264847  0.06889831  0.22290575  1
  S  S19  1  0.38735153  0.93110169  0.72290575  1
  S  S20  1  0.57434204  0.74583311  0.14489366  1
  S  S21  1  0.92565796  0.25416689  0.64489366  1
  S  S22  1  0.07434204  0.75416689  0.85510634  1
  S  S23  1  0.42565796  0.24583311  0.35510634  1
  S  S24  1  0.61180116  0.25683929  0.15467562  1
  S  S25  1  0.88819884  0.74316071  0.65467562  1
  S  S26  1  0.11180116  0.24316071  0.84532438  1
  S  S27  1  0.38819884  0.75683929  0.34532438  1
