# generated using pymatgen
data_K2Pb3C3O9F2
_symmetry_space_group_name_H-M   'P 1'
_cell_length_a   5.37611718
_cell_length_b   5.37611718
_cell_length_c   23.62087343
_cell_angle_alpha   90.00000000
_cell_angle_beta   90.00000000
_cell_angle_gamma   120.00069385
_symmetry_Int_Tables_number   1
_chemical_formula_structural   K2Pb3C3O9F2
_chemical_formula_sum   'K4 Pb6 C6 O18 F4'
_cell_volume   591.23617752
_cell_formula_units_Z   2
loop_
 _symmetry_equiv_pos_site_id
 _symmetry_equiv_pos_as_xyz
  1  'x, y, z'
loop_
 _atom_site_type_symbol
 _atom_site_label
 _atom_site_symmetry_multiplicity
 _atom_site_fract_x
 _atom_site_fract_y
 _atom_site_fract_z
 _atom_site_occupancy
  K  K0  1  0.33331867  0.66668133  0.65322578  1
  K  K1  1  0.66668133  0.33331867  0.34677422  1
  K  K2  1  0.66668133  0.33331867  0.15322578  1
  K  K3  1  0.33331867  0.66668133  0.84677422  1
  Pb  Pb4  1  0.66667418  0.33332582  0.75000000  1
  Pb  Pb5  1  0.33332582  0.66667418  0.25000000  1
  Pb  Pb6  1  0.66668207  0.33331793  0.54808408  1
  Pb  Pb7  1  0.33331793  0.66668207  0.45191592  1
  Pb  Pb8  1  0.33331793  0.66668207  0.04808408  1
  Pb  Pb9  1  0.66668207  0.33331793  0.95191592  1
  C  C10  1  0.00000083  0.99999917  0.56515744  1
  C  C11  1  0.99999917  0.00000083  0.43484256  1
  C  C12  1  0.99999917  0.00000083  0.06515744  1
  C  C13  1  0.00000083  0.99999917  0.93484256  1
  C  C14  1  0.00000115  0.99999885  0.75000000  1
  C  C15  1  0.99999885  0.00000115  0.25000000  1
  O  O16  1  0.13999094  0.86000906  0.56488901  1
  O  O17  1  0.72001911  0.86000659  0.56489014  1
  O  O18  1  0.13999341  0.27998089  0.56489014  1
  O  O19  1  0.86000906  0.13999094  0.43511099  1
  O  O20  1  0.27998089  0.13999341  0.43510986  1
  O  O21  1  0.86000659  0.72001911  0.43510986  1
  O  O22  1  0.86000906  0.13999094  0.06488901  1
  O  O23  1  0.27998089  0.13999341  0.06489014  1
  O  O24  1  0.86000659  0.72001911  0.06489014  1
  O  O25  1  0.13999094  0.86000906  0.93511099  1
  O  O26  1  0.72001911  0.86000659  0.93510986  1
  O  O27  1  0.13999341  0.27998089  0.93510986  1
  O  O28  1  0.13992246  0.86007754  0.75000000  1
  O  O29  1  0.72015415  0.86007478  0.75000000  1
  O  O30  1  0.13992522  0.27984585  0.75000000  1
  O  O31  1  0.86007754  0.13992246  0.25000000  1
  O  O32  1  0.27984585  0.13992522  0.25000000  1
  O  O33  1  0.86007478  0.72015415  0.25000000  1
  F  F34  1  0.66669972  0.33330028  0.64581806  1
  F  F35  1  0.33330028  0.66669972  0.35418194  1
  F  F36  1  0.33330028  0.66669972  0.14581806  1
  F  F37  1  0.66669972  0.33330028  0.85418194  1
