# generated using pymatgen
data_V2Se2O9
_symmetry_space_group_name_H-M   'P 1'
_cell_length_a   7.31759559
_cell_length_b   7.41259172
_cell_length_c   14.52036525
_cell_angle_alpha   103.33050665
_cell_angle_beta   90.00000000
_cell_angle_gamma   90.00000000
_symmetry_Int_Tables_number   1
_chemical_formula_structural   V2Se2O9
_chemical_formula_sum   'V8 Se8 O36'
_cell_volume   766.39730770
_cell_formula_units_Z   4
loop_
 _symmetry_equiv_pos_site_id
 _symmetry_equiv_pos_as_xyz
  1  'x, y, z'
loop_
 _atom_site_type_symbol
 _atom_site_label
 _atom_site_symmetry_multiplicity
 _atom_site_fract_x
 _atom_site_fract_y
 _atom_site_fract_z
 _atom_site_occupancy
  V  V0  1  0.16582183  0.03324318  0.42814792  1
  V  V1  1  0.66582183  0.96675682  0.07185208  1
  V  V2  1  0.83417817  0.96675682  0.57185208  1
  V  V3  1  0.33417817  0.03324318  0.92814792  1
  V  V4  1  0.87803361  0.61750979  0.36711296  1
  V  V5  1  0.37803361  0.38249021  0.13288704  1
  V  V6  1  0.12196639  0.38249021  0.63288704  1
  V  V7  1  0.62196639  0.61750979  0.86711296  1
  Se  Se8  1  0.31711303  0.60652662  0.37132872  1
  Se  Se9  1  0.81711303  0.39347338  0.12867128  1
  Se  Se10  1  0.68288697  0.39347338  0.62867128  1
  Se  Se11  1  0.18288697  0.60652662  0.87132872  1
  Se  Se12  1  0.73150120  0.03403240  0.36057952  1
  Se  Se13  1  0.23150120  0.96596760  0.13942048  1
  Se  Se14  1  0.26849880  0.96596760  0.63942048  1
  Se  Se15  1  0.76849880  0.03403240  0.86057952  1
  O  O16  1  0.70223353  0.08637983  0.48261952  1
  O  O17  1  0.20223353  0.91362017  0.01738048  1
  O  O18  1  0.29776647  0.91362017  0.51738048  1
  O  O19  1  0.79776647  0.08637983  0.98261952  1
  O  O20  1  0.10589814  0.50319235  0.38328517  1
  O  O21  1  0.60589814  0.49680765  0.11671483  1
  O  O22  1  0.89410186  0.49680765  0.61671483  1
  O  O23  1  0.39410186  0.50319235  0.88328517  1
  O  O24  1  0.94192281  0.81703986  0.46774349  1
  O  O25  1  0.44192281  0.18296014  0.03225651  1
  O  O26  1  0.05807719  0.18296014  0.53225651  1
  O  O27  1  0.55807719  0.81703986  0.96774349  1
  O  O28  1  0.32030293  0.16390632  0.39702230  1
  O  O29  1  0.82030293  0.83609368  0.10297770  1
  O  O30  1  0.67969707  0.83609368  0.60297770  1
  O  O31  1  0.17969707  0.16390632  0.89702230  1
  O  O32  1  0.23417277  0.79985657  0.33613274  1
  O  O33  1  0.73417277  0.20014343  0.16386726  1
  O  O34  1  0.76582723  0.20014343  0.66386726  1
  O  O35  1  0.26582723  0.79985657  0.83613274  1
  O  O36  1  0.96629715  0.05865019  0.34528447  1
  O  O37  1  0.46629715  0.94134981  0.15471553  1
  O  O38  1  0.03370285  0.94134981  0.65471553  1
  O  O39  1  0.53370285  0.05865019  0.84528447  1
  O  O40  1  0.40036534  0.47471973  0.26658894  1
  O  O41  1  0.90036534  0.52528027  0.23341106  1
  O  O42  1  0.59963466  0.52528027  0.73341106  1
  O  O43  1  0.09963466  0.47471973  0.76658894  1
  O  O44  1  0.70588781  0.79530587  0.33335451  1
  O  O45  1  0.20588781  0.20469413  0.16664549  1
  O  O46  1  0.29411219  0.20469413  0.66664549  1
  O  O47  1  0.79411219  0.79530587  0.83335451  1
  O  O48  1  0.73916924  0.48199256  0.40501896  1
  O  O49  1  0.23916924  0.51800744  0.09498104  1
  O  O50  1  0.26083076  0.51800744  0.59498104  1
  O  O51  1  0.76083076  0.48199256  0.90501896  1
