# generated using pymatgen
data_Rb2CdP2O7
_symmetry_space_group_name_H-M   'P 1'
_cell_length_a   5.47822512
_cell_length_b   10.06426294
_cell_length_c   15.91657632
_cell_angle_alpha   90.00000000
_cell_angle_beta   92.18392473
_cell_angle_gamma   90.00000000
_symmetry_Int_Tables_number   1
_chemical_formula_structural   Rb2CdP2O7
_chemical_formula_sum   'Rb8 Cd4 P8 O28'
_cell_volume   876.91185243
_cell_formula_units_Z   4
loop_
 _symmetry_equiv_pos_site_id
 _symmetry_equiv_pos_as_xyz
  1  'x, y, z'
loop_
 _atom_site_type_symbol
 _atom_site_label
 _atom_site_symmetry_multiplicity
 _atom_site_fract_x
 _atom_site_fract_y
 _atom_site_fract_z
 _atom_site_occupancy
  Rb  Rb0  1  0.77749658  0.84513780  0.92426907  1
  Rb  Rb1  1  0.22250342  0.34513780  0.57573093  1
  Rb  Rb2  1  0.22250342  0.15486220  0.07573093  1
  Rb  Rb3  1  0.77749658  0.65486220  0.42426907  1
  Rb  Rb4  1  0.76070333  0.97827472  0.61056297  1
  Rb  Rb5  1  0.23929667  0.47827472  0.88943703  1
  Rb  Rb6  1  0.23929667  0.02172528  0.38943703  1
  Rb  Rb7  1  0.76070333  0.52172528  0.11056297  1
  Cd  Cd8  1  0.75785365  0.61254288  0.68658313  1
  Cd  Cd9  1  0.24214635  0.11254288  0.81341687  1
  Cd  Cd10  1  0.24214635  0.38745712  0.31341687  1
  Cd  Cd11  1  0.75785365  0.88745712  0.18658313  1
  P  P12  1  0.25515376  0.77366890  0.77049225  1
  P  P13  1  0.74484624  0.27366890  0.72950775  1
  P  P14  1  0.74484624  0.22633110  0.22950775  1
  P  P15  1  0.25515376  0.72633110  0.27049225  1
  P  P16  1  0.25524892  0.74315453  0.58610772  1
  P  P17  1  0.74475108  0.24315453  0.91389228  1
  P  P18  1  0.74475108  0.25684547  0.41389228  1
  P  P19  1  0.25524892  0.75684547  0.08610772  1
  O  O20  1  0.52556738  0.70224392  0.58102449  1
  O  O21  1  0.47443262  0.20224392  0.91897551  1
  O  O22  1  0.47443262  0.29775608  0.41897551  1
  O  O23  1  0.52556738  0.79775608  0.08102449  1
  O  O24  1  0.08382300  0.62398516  0.59703247  1
  O  O25  1  0.91617700  0.12398516  0.90296753  1
  O  O26  1  0.91617700  0.37601484  0.40296753  1
  O  O27  1  0.08382300  0.87601484  0.09703247  1
  O  O28  1  0.01026230  0.70393226  0.78475818  1
  O  O29  1  0.98973770  0.20393226  0.71524182  1
  O  O30  1  0.98973770  0.29606774  0.21524182  1
  O  O31  1  0.01026230  0.79606774  0.28475818  1
  O  O32  1  0.24277328  0.83375443  0.67444121  1
  O  O33  1  0.75722672  0.33375443  0.82555879  1
  O  O34  1  0.75722672  0.16624557  0.32555879  1
  O  O35  1  0.24277328  0.66624557  0.17444121  1
  O  O36  1  0.47188145  0.67778089  0.78035797  1
  O  O37  1  0.52811855  0.17778089  0.71964203  1
  O  O38  1  0.52811855  0.32221911  0.21964203  1
  O  O39  1  0.47188145  0.82221911  0.28035797  1
  O  O40  1  0.28726483  0.89575964  0.82754366  1
  O  O41  1  0.71273517  0.39575964  0.67245634  1
  O  O42  1  0.71273517  0.10424036  0.17245634  1
  O  O43  1  0.28726483  0.60424036  0.32754366  1
  O  O44  1  0.17443225  0.84107940  0.51812497  1
  O  O45  1  0.82556775  0.34107940  0.98187503  1
  O  O46  1  0.82556775  0.15892060  0.48187503  1
  O  O47  1  0.17443225  0.65892060  0.01812497  1
