# generated using pymatgen
data_Sr(TmS2)2
_symmetry_space_group_name_H-M   'P 1'
_cell_length_a   3.94442280
_cell_length_b   12.01022109
_cell_length_c   14.19870781
_cell_angle_alpha   90.00000000
_cell_angle_beta   90.00000000
_cell_angle_gamma   90.00000000
_symmetry_Int_Tables_number   1
_chemical_formula_structural   Sr(TmS2)2
_chemical_formula_sum   'Sr4 Tm8 S16'
_cell_volume   672.64092117
_cell_formula_units_Z   4
loop_
 _symmetry_equiv_pos_site_id
 _symmetry_equiv_pos_as_xyz
  1  'x, y, z'
loop_
 _atom_site_type_symbol
 _atom_site_label
 _atom_site_symmetry_multiplicity
 _atom_site_fract_x
 _atom_site_fract_y
 _atom_site_fract_z
 _atom_site_occupancy
  Sr  Sr0  1  0.75000000  0.73925241  0.16528294  1
  Sr  Sr1  1  0.75000000  0.23925241  0.33471706  1
  Sr  Sr2  1  0.25000000  0.26074759  0.83471706  1
  Sr  Sr3  1  0.25000000  0.76074759  0.66528294  1
  Tm  Tm4  1  0.75000000  0.06174867  0.11003776  1
  Tm  Tm5  1  0.75000000  0.56174867  0.38996224  1
  Tm  Tm6  1  0.25000000  0.93825133  0.88996224  1
  Tm  Tm7  1  0.25000000  0.43825133  0.61003776  1
  Tm  Tm8  1  0.75000000  0.08251073  0.59896682  1
  Tm  Tm9  1  0.75000000  0.58251073  0.90103318  1
  Tm  Tm10  1  0.25000000  0.91748927  0.40103318  1
  Tm  Tm11  1  0.25000000  0.41748927  0.09896682  1
  S  S12  1  0.75000000  0.29566604  0.66726696  1
  S  S13  1  0.75000000  0.79566604  0.83273304  1
  S  S14  1  0.25000000  0.70433396  0.33273304  1
  S  S15  1  0.25000000  0.20433396  0.16726696  1
  S  S16  1  0.75000000  0.37339047  0.97089140  1
  S  S17  1  0.75000000  0.87339047  0.52910860  1
  S  S18  1  0.25000000  0.62660953  0.02910860  1
  S  S19  1  0.25000000  0.12660953  0.47089140  1
  S  S20  1  0.75000000  0.47341213  0.21550724  1
  S  S21  1  0.75000000  0.97341213  0.28449276  1
  S  S22  1  0.25000000  0.52658787  0.78449276  1
  S  S23  1  0.25000000  0.02658787  0.71550724  1
  S  S24  1  0.75000000  0.08856059  0.92276140  1
  S  S25  1  0.75000000  0.58856059  0.57723860  1
  S  S26  1  0.25000000  0.91143941  0.07723860  1
  S  S27  1  0.25000000  0.41143941  0.42276140  1
