# generated using pymatgen
data_Nb3Fe3N
_symmetry_space_group_name_H-M   'P 1'
_cell_length_a   7.98801002
_cell_length_b   7.98801002
_cell_length_c   7.98801002
_cell_angle_alpha   60.00000000
_cell_angle_beta   60.00000000
_cell_angle_gamma   60.00000000
_symmetry_Int_Tables_number   1
_chemical_formula_structural   Nb3Fe3N
_chemical_formula_sum   'Nb12 Fe12 N4'
_cell_volume   360.41329613
_cell_formula_units_Z   4
loop_
 _symmetry_equiv_pos_site_id
 _symmetry_equiv_pos_as_xyz
  1  'x, y, z'
loop_
 _atom_site_type_symbol
 _atom_site_label
 _atom_site_symmetry_multiplicity
 _atom_site_fract_x
 _atom_site_fract_y
 _atom_site_fract_z
 _atom_site_occupancy
  Nb  Nb0  1  0.42602366  0.82397634  0.82397634  1
  Nb  Nb1  1  0.82397634  0.42602366  0.42602366  1
  Nb  Nb2  1  0.82397634  0.42602366  0.82397634  1
  Nb  Nb3  1  0.42602366  0.82397634  0.42602366  1
  Nb  Nb4  1  0.82397634  0.82397634  0.42602366  1
  Nb  Nb5  1  0.42602366  0.42602366  0.82397634  1
  Nb  Nb6  1  0.57397634  0.17602366  0.17602366  1
  Nb  Nb7  1  0.17602366  0.57397634  0.57397634  1
  Nb  Nb8  1  0.17602366  0.57397634  0.17602366  1
  Nb  Nb9  1  0.57397634  0.17602366  0.57397634  1
  Nb  Nb10  1  0.17602366  0.17602366  0.57397634  1
  Nb  Nb11  1  0.57397634  0.57397634  0.17602366  1
  Fe  Fe12  1  -0.00000000  -0.00000000  0.50000000  1
  Fe  Fe13  1  -0.00000000  0.50000000  0.00000000  1
  Fe  Fe14  1  0.50000000  -0.00000000  0.00000000  1
  Fe  Fe15  1  -0.00000000  -0.00000000  0.00000000  1
  Fe  Fe16  1  0.20028820  0.20028820  0.89913541  1
  Fe  Fe17  1  0.20028820  0.89913541  0.20028820  1
  Fe  Fe18  1  0.89913541  0.20028820  0.20028820  1
  Fe  Fe19  1  0.20028820  0.20028820  0.20028820  1
  Fe  Fe20  1  0.79971180  0.79971180  0.10086459  1
  Fe  Fe21  1  0.79971180  0.10086459  0.79971180  1
  Fe  Fe22  1  0.10086459  0.79971180  0.79971180  1
  Fe  Fe23  1  0.79971180  0.79971180  0.79971180  1
  N  N24  1  0.50000000  0.50000000  0.00000000  1
  N  N25  1  0.50000000  -0.00000000  0.50000000  1
  N  N26  1  -0.00000000  0.50000000  0.50000000  1
  N  N27  1  0.50000000  0.50000000  0.50000000  1
