# generated using pymatgen
data_Hf9Re4Ge
_symmetry_space_group_name_H-M   'P 1'
_cell_length_a   8.58376530
_cell_length_b   8.58376530
_cell_length_c   8.70060163
_cell_angle_alpha   90.00000000
_cell_angle_beta   90.00000000
_cell_angle_gamma   119.96786387
_symmetry_Int_Tables_number   1
_chemical_formula_structural   Hf9Re4Ge
_chemical_formula_sum   'Hf18 Re8 Ge2'
_cell_volume   555.36196049
_cell_formula_units_Z   2
loop_
 _symmetry_equiv_pos_site_id
 _symmetry_equiv_pos_as_xyz
  1  'x, y, z'
loop_
 _atom_site_type_symbol
 _atom_site_label
 _atom_site_symmetry_multiplicity
 _atom_site_fract_x
 _atom_site_fract_y
 _atom_site_fract_z
 _atom_site_occupancy
  Hf  Hf0  1  0.80512433  0.61038371  0.54445438  1
  Hf  Hf1  1  0.80513075  0.19486925  0.54449978  1
  Hf  Hf2  1  0.38961629  0.19487567  0.54445438  1
  Hf  Hf3  1  0.19487567  0.38961629  0.45554562  1
  Hf  Hf4  1  0.19486925  0.80513075  0.45550022  1
  Hf  Hf5  1  0.61038371  0.80512433  0.45554562  1
  Hf  Hf6  1  0.19487567  0.38961629  0.04445438  1
  Hf  Hf7  1  0.19486925  0.80513075  0.04449978  1
  Hf  Hf8  1  0.61038371  0.80512433  0.04445438  1
  Hf  Hf9  1  0.80512433  0.61038371  0.95554562  1
  Hf  Hf10  1  0.80513075  0.19486925  0.95550022  1
  Hf  Hf11  1  0.38961629  0.19487567  0.95554562  1
  Hf  Hf12  1  0.45930377  0.91871230  0.75000000  1
  Hf  Hf13  1  0.45924878  0.54075122  0.75000000  1
  Hf  Hf14  1  0.08128770  0.54069623  0.75000000  1
  Hf  Hf15  1  0.54069623  0.08128770  0.25000000  1
  Hf  Hf16  1  0.54075122  0.45924878  0.25000000  1
  Hf  Hf17  1  0.91871230  0.45930377  0.25000000  1
  Re  Re18  1  0.10858302  0.21716279  0.75000000  1
  Re  Re19  1  0.10846705  0.89153295  0.75000000  1
  Re  Re20  1  0.78283721  0.89141698  0.75000000  1
  Re  Re21  1  0.89141698  0.78283721  0.25000000  1
  Re  Re22  1  0.89153295  0.10846705  0.25000000  1
  Re  Re23  1  0.21716279  0.10858302  0.25000000  1
  Re  Re24  1  -0.00000000  0.00000000  0.50000000  1
  Re  Re25  1  -0.00000000  0.00000000  0.00000000  1
  Ge  Ge26  1  0.66669215  0.33330785  0.75000000  1
  Ge  Ge27  1  0.33330785  0.66669215  0.25000000  1
