# generated using pymatgen
data_B10H11C2
_symmetry_space_group_name_H-M   'P 1'
_cell_length_a   7.31098951
_cell_length_b   7.45161344
_cell_length_c   20.52567737
_cell_angle_alpha   93.73562893
_cell_angle_beta   90.00000000
_cell_angle_gamma   119.37767133
_symmetry_Int_Tables_number   1
_chemical_formula_structural   B10H11C2
_chemical_formula_sum   'B40 H44 C8'
_cell_volume   971.68780191
_cell_formula_units_Z   4
loop_
 _symmetry_equiv_pos_site_id
 _symmetry_equiv_pos_as_xyz
  1  'x, y, z'
loop_
 _atom_site_type_symbol
 _atom_site_label
 _atom_site_symmetry_multiplicity
 _atom_site_fract_x
 _atom_site_fract_y
 _atom_site_fract_z
 _atom_site_occupancy
  B  B0  1  0.17717170  0.41948979  0.92942729  1
  B  B1  1  0.75768191  0.58051021  0.57057271  1
  B  B2  1  0.82282830  0.58051021  0.07057271  1
  B  B3  1  0.24231809  0.41948979  0.42942729  1
  B  B4  1  0.14951677  0.63554944  0.91008288  1
  B  B5  1  0.51396733  0.36445056  0.58991712  1
  B  B6  1  0.85048323  0.36445056  0.08991712  1
  B  B7  1  0.48603267  0.63554944  0.41008288  1
  B  B8  1  0.87914854  0.55929136  0.90946128  1
  B  B9  1  0.31985718  0.44070864  0.59053872  1
  B  B10  1  0.12085146  0.44070864  0.09053872  1
  B  B11  1  0.68014282  0.55929136  0.40946128  1
  B  B12  1  0.73961358  0.29668503  0.92832898  1
  B  B13  1  0.44292855  0.70331497  0.57167102  1
  B  B14  1  0.26038642  0.70331497  0.07167102  1
  B  B15  1  0.55707145  0.29668503  0.42832898  1
  B  B16  1  0.92380223  0.21059718  0.94081413  1
  B  B17  1  0.71320504  0.78940282  0.55918587  1
  B  B18  1  0.07619777  0.78940282  0.05918587  1
  B  B19  1  0.28679496  0.21059718  0.44081413  1
  B  B20  1  0.00517968  0.56974940  0.83518726  1
  B  B21  1  0.43543028  0.43025060  0.66481274  1
  B  B22  1  0.99482032  0.43025060  0.16481274  1
  B  B23  1  0.56456972  0.56974940  0.33518726  1
  B  B24  1  0.75098879  0.36044610  0.84617639  1
  B  B25  1  0.39054269  0.63955390  0.65382361  1
  B  B26  1  0.24901121  0.63955390  0.15382361  1
  B  B27  1  0.60945731  0.36044610  0.34617639  1
  B  B28  1  0.77861172  0.14535518  0.86552931  1
  B  B29  1  0.63325654  0.85464482  0.63447069  1
  B  B30  1  0.22138828  0.85464482  0.13447069  1
  B  B31  1  0.36674346  0.14535518  0.36552931  1
  B  B32  1  0.04953802  0.22232184  0.86634718  1
  B  B33  1  0.82721618  0.77767816  0.63365282  1
  B  B34  1  0.95046198  0.77767816  0.13365282  1
  B  B35  1  0.17278382  0.22232184  0.36634718  1
  B  B36  1  0.94290913  0.31424935  0.80766437  1
  B  B37  1  0.62865978  0.68575065  0.69233563  1
  B  B38  1  0.05709087  0.68575065  0.19233563  1
  B  B39  1  0.37134022  0.31424935  0.30766437  1
  H  H40  1  0.33398996  0.45403553  0.95755452  1
  H  H41  1  0.87995444  0.54596447  0.54244548  1
  H  H42  1  0.66601004  0.54596447  0.04244548  1
  H  H43  1  0.12004556  0.45403553  0.45755452  1
  H  H44  1  0.28921948  0.80280336  0.92627266  1
  H  H45  1  0.48641612  0.19719664  0.57372734  1
  H  H46  1  0.71078052  0.19719664  0.07372734  1
  H  H47  1  0.51358388  0.80280336  0.42627266  1
  H  H48  1  0.82587918  0.67960621  0.92894346  1
  H  H49  1  0.14627296  0.32039379  0.57105654  1
  H  H50  1  0.17412082  0.32039379  0.07105654  1
  H  H51  1  0.85372704  0.67960621  0.42894346  1
  H  H52  1  0.58948474  0.23856505  0.96100060  1
  H  H53  1  0.35091969  0.76143495  0.53899940  1
  H  H54  1  0.41051526  0.76143495  0.03899940  1
  H  H55  1  0.64908031  0.23856505  0.46100060  1
  H  H56  1  0.90020298  0.09534292  0.98144309  1
  H  H57  1  0.80486007  0.90465708  0.51855691  1
  H  H58  1  0.09979702  0.90465708  0.01855691  1
  H  H59  1  0.19513993  0.09534292  0.48144309  1
  H  H60  1  0.31745449  0.53950497  0.82636230  1
  H  H61  1  0.77794952  0.46049503  0.67363770  1
  H  H62  1  0.68254551  0.46049503  0.17363770  1
  H  H63  1  0.22205048  0.53950497  0.32636230  1
  H  H64  1  0.05421694  0.70066044  0.79819011  1
  H  H65  1  0.35355649  0.29933956  0.70180989  1
  H  H66  1  0.94578306  0.29933956  0.20180989  1
  H  H67  1  0.64644351  0.70066044  0.29819011  1
  H  H68  1  0.60033012  0.34174221  0.81746485  1
  H  H69  1  0.25858790  0.65825779  0.68253515  1
  H  H70  1  0.39966988  0.65825779  0.18253515  1
  H  H71  1  0.74141210  0.34174221  0.31746485  1
  H  H72  1  0.64832553  0.97145216  0.85074603  1
  H  H73  1  0.67687336  0.02854784  0.64925397  1
  H  H74  1  0.35167447  0.02854784  0.14925397  1
  H  H75  1  0.32312664  0.97145216  0.35074603  1
  H  H76  1  0.12788732  0.12044143  0.85014001  1
  H  H77  1  0.00744588  0.87955857  0.64985999  1
  H  H78  1  0.87211268  0.87955857  0.14985999  1
  H  H79  1  0.99255412  0.12044143  0.35014001  1
  H  H80  1  0.95064646  0.27288297  0.75102213  1
  H  H81  1  0.67776349  0.72711703  0.74897787  1
  H  H82  1  0.04935354  0.72711703  0.24897787  1
  H  H83  1  0.32223651  0.27288297  0.25102213  1
  C  C84  1  0.98706495  0.46355450  0.96347749  1
  C  C85  1  0.52351045  0.53644550  0.53652251  1
  C  C86  1  0.01293505  0.53644550  0.03652251  1
  C  C87  1  0.47648955  0.46355450  0.46347749  1
  C  C88  1  0.17032354  0.47683005  0.85140942  1
  C  C89  1  0.69349349  0.52316995  0.64859058  1
  C  C90  1  0.82967646  0.52316995  0.14859058  1
  C  C91  1  0.30650651  0.47683005  0.35140942  1
