# generated using pymatgen
data_CsBa2SnS4Cl
_symmetry_space_group_name_H-M   'P 1'
_cell_length_a   8.97425729
_cell_length_b   10.12217604
_cell_length_c   12.78173539
_cell_angle_alpha   90.87731467
_cell_angle_beta   90.00000000
_cell_angle_gamma   90.00000000
_symmetry_Int_Tables_number   1
_chemical_formula_structural   CsBa2SnS4Cl
_chemical_formula_sum   'Cs4 Ba8 Sn4 S16 Cl4'
_cell_volume   1160.94410623
_cell_formula_units_Z   4
loop_
 _symmetry_equiv_pos_site_id
 _symmetry_equiv_pos_as_xyz
  1  'x, y, z'
loop_
 _atom_site_type_symbol
 _atom_site_label
 _atom_site_symmetry_multiplicity
 _atom_site_fract_x
 _atom_site_fract_y
 _atom_site_fract_z
 _atom_site_occupancy
  Cs  Cs0  1  0.58457676  0.52192275  0.32830565  1
  Cs  Cs1  1  0.08457676  0.47807725  0.17169435  1
  Cs  Cs2  1  0.41542324  0.47807725  0.67169435  1
  Cs  Cs3  1  0.91542324  0.52192275  0.82830565  1
  Ba  Ba4  1  0.59263575  0.97959190  0.32225720  1
  Ba  Ba5  1  0.09263575  0.02040810  0.17774280  1
  Ba  Ba6  1  0.40736425  0.02040810  0.67774280  1
  Ba  Ba7  1  0.90736425  0.97959190  0.82225720  1
  Ba  Ba8  1  0.60136983  0.25184450  0.02283712  1
  Ba  Ba9  1  0.10136983  0.74815550  0.47716288  1
  Ba  Ba10  1  0.39863017  0.74815550  0.97716288  1
  Ba  Ba11  1  0.89863017  0.25184450  0.52283712  1
  Sn  Sn12  1  0.31245883  0.24247591  0.40008602  1
  Sn  Sn13  1  0.81245883  0.75752409  0.09991398  1
  Sn  Sn14  1  0.68754117  0.75752409  0.59991398  1
  Sn  Sn15  1  0.18754117  0.24247591  0.90008602  1
  S  S16  1  0.67466965  0.56101141  0.05911852  1
  S  S17  1  0.17466965  0.43898859  0.44088148  1
  S  S18  1  0.32533035  0.43898859  0.94088148  1
  S  S19  1  0.82533035  0.56101141  0.55911852  1
  S  S20  1  0.37134314  0.21782839  0.21641478  1
  S  S21  1  0.87134314  0.78217161  0.28358522  1
  S  S22  1  0.62865686  0.78217161  0.78358522  1
  S  S23  1  0.12865686  0.21782839  0.71641478  1
  S  S24  1  0.65836954  0.94573835  0.06255886  1
  S  S25  1  0.15836954  0.05426165  0.43744114  1
  S  S26  1  0.34163046  0.05426165  0.93744114  1
  S  S27  1  0.84163046  0.94573835  0.56255886  1
  S  S28  1  0.53746877  0.21689519  0.49995980  1
  S  S29  1  0.03746877  0.78310481  0.00004020  1
  S  S30  1  0.46253123  0.78310481  0.50004020  1
  S  S31  1  0.96253123  0.21689519  0.99995980  1
  Cl  Cl32  1  0.32840415  0.78450768  0.22533843  1
  Cl  Cl33  1  0.82840415  0.21549232  0.27466157  1
  Cl  Cl34  1  0.67159585  0.21549232  0.77466157  1
  Cl  Cl35  1  0.17159585  0.78450768  0.72533843  1
