# generated using pymatgen
data_Rb4Th(MoO4)4
_symmetry_space_group_name_H-M   'P 1'
_cell_length_a   6.51718511
_cell_length_b   11.57476396
_cell_length_c   14.04506215
_cell_angle_alpha   113.21533459
_cell_angle_beta   103.41542605
_cell_angle_gamma   90.00000000
_symmetry_Int_Tables_number   1
_chemical_formula_structural   Rb4Th(MoO4)4
_chemical_formula_sum   'Rb8 Th2 Mo8 O32'
_cell_volume   942.16230412
_cell_formula_units_Z   2
loop_
 _symmetry_equiv_pos_site_id
 _symmetry_equiv_pos_as_xyz
  1  'x, y, z'
loop_
 _atom_site_type_symbol
 _atom_site_label
 _atom_site_symmetry_multiplicity
 _atom_site_fract_x
 _atom_site_fract_y
 _atom_site_fract_z
 _atom_site_occupancy
  Rb  Rb0  1  0.02875684  0.85105098  0.54864796  1
  Rb  Rb1  1  0.48010888  0.64894902  0.45135204  1
  Rb  Rb2  1  0.97124316  0.14894902  0.45135204  1
  Rb  Rb3  1  0.51989112  0.35105098  0.54864796  1
  Rb  Rb4  1  0.85730088  0.70273400  0.21929372  1
  Rb  Rb5  1  0.63800716  0.79726600  0.78070628  1
  Rb  Rb6  1  0.14269912  0.29726600  0.78070628  1
  Rb  Rb7  1  0.36199284  0.20273400  0.21929372  1
  Th  Th8  1  0.24972455  0.75000000  1.00000000  1
  Th  Th9  1  0.75027545  0.25000000  0.00000000  1
  Mo  Mo10  1  0.20198579  0.02718438  0.89906958  1
  Mo  Mo11  1  0.30291620  0.47281562  0.10093042  1
  Mo  Mo12  1  0.79801421  0.97281562  0.10093042  1
  Mo  Mo13  1  0.69708380  0.52718438  0.89906958  1
  Mo  Mo14  1  0.44436426  0.91605196  0.32644376  1
  Mo  Mo15  1  0.11792051  0.58394804  0.67355624  1
  Mo  Mo16  1  0.55563574  0.08394804  0.67355624  1
  Mo  Mo17  1  0.88207949  0.41605196  0.32644376  1
  O  O18  1  0.11008285  0.90785076  0.93771580  1
  O  O19  1  0.17236706  0.59214924  0.06228420  1
  O  O20  1  0.88991715  0.09214924  0.06228420  1
  O  O21  1  0.82763294  0.40785076  0.93771580  1
  O  O22  1  0.99779087  0.86630367  0.10891387  1
  O  O23  1  0.88887700  0.63369633  0.89108613  1
  O  O24  1  0.00220913  0.13369633  0.89108613  1
  O  O25  1  0.11112300  0.36630367  0.10891387  1
  O  O26  1  0.54787369  0.61939152  0.99269203  1
  O  O27  1  0.55518166  0.88060848  0.00730797  1
  O  O28  1  0.45212631  0.38060848  0.00730797  1
  O  O29  1  0.44481834  0.11939152  0.99269203  1
  O  O30  1  0.24713073  0.94647767  0.77173146  1
  O  O31  1  0.47539927  0.55352233  0.22826854  1
  O  O32  1  0.75286927  0.05352233  0.22826854  1
  O  O33  1  0.52460073  0.44647767  0.77173146  1
  O  O34  1  0.42851126  0.83823064  0.18048683  1
  O  O35  1  0.24802442  0.66176936  0.81951317  1
  O  O36  1  0.57148874  0.16176936  0.81951317  1
  O  O37  1  0.75197558  0.33823064  0.18048683  1
  O  O38  1  0.40643545  0.07989857  0.36779888  1
  O  O39  1  0.03863657  0.42010143  0.63220112  1
  O  O40  1  0.59356455  0.92010143  0.63220112  1
  O  O41  1  0.96136343  0.57989857  0.36779888  1
  O  O42  1  0.25223217  0.83980898  0.36004616  1
  O  O43  1  0.89218602  0.66019102  0.63995384  1
  O  O44  1  0.74776783  0.16019102  0.63995384  1
  O  O45  1  0.10781398  0.33980898  0.36004616  1
  O  O46  1  0.70234403  0.89883986  0.39487723  1
  O  O47  1  0.30746680  0.60116014  0.60512277  1
  O  O48  1  0.29765597  0.10116014  0.60512277  1
  O  O49  1  0.69253320  0.39883986  0.39487723  1
