# generated using pymatgen
data_Li2Mn4OF8
_symmetry_space_group_name_H-M   'P 1'
_cell_length_a   10.09071044
_cell_length_b   8.27541880
_cell_length_c   10.46824564
_cell_angle_alpha   89.49596187
_cell_angle_beta   113.23722129
_cell_angle_gamma   90.64549129
_symmetry_Int_Tables_number   1
_chemical_formula_structural   Li2Mn4OF8
_chemical_formula_sum   'Li8 Mn16 O4 F32'
_cell_volume   803.17767993
_cell_formula_units_Z   4
loop_
 _symmetry_equiv_pos_site_id
 _symmetry_equiv_pos_as_xyz
  1  'x, y, z'
loop_
 _atom_site_type_symbol
 _atom_site_label
 _atom_site_symmetry_multiplicity
 _atom_site_fract_x
 _atom_site_fract_y
 _atom_site_fract_z
 _atom_site_occupancy
  Li  Li0  1  0.22655948  0.53458312  0.71625132  1
  Li  Li1  1  0.27823633  0.02769008  0.76665207  1
  Li  Li2  1  0.10227726  0.93648894  0.26155697  1
  Li  Li3  1  0.58486691  0.53792162  0.77383915  1
  Li  Li4  1  0.40651392  0.46783288  0.23967817  1
  Li  Li5  1  0.93343964  0.02309301  0.72251738  1
  Li  Li6  1  0.74428073  0.96824547  0.21048317  1
  Li  Li7  1  0.77645545  0.47302040  0.28621061  1
  Mn  Mn8  1  0.15880518  0.76060783  0.92736018  1
  Mn  Mn9  1  0.04497004  0.77593393  0.48599649  1
  Mn  Mn10  1  0.07522768  0.51668041  0.19139877  1
  Mn  Mn11  1  0.49454414  0.70211951  0.03299905  1
  Mn  Mn12  1  0.30184410  0.27717973  0.49326627  1
  Mn  Mn13  1  0.31393201  0.63867841  0.44692970  1
  Mn  Mn14  1  0.17853707  0.18285534  0.02710342  1
  Mn  Mn15  1  0.56976933  0.97134807  0.67347847  1
  Mn  Mn16  1  0.44937489  0.04312596  0.30432928  1
  Mn  Mn17  1  0.81601363  0.84331960  0.96782071  1
  Mn  Mn18  1  0.69335051  0.35768836  0.54317536  1
  Mn  Mn19  1  0.69042209  0.75582487  0.46212518  1
  Mn  Mn20  1  0.49900716  0.30984768  0.99214234  1
  Mn  Mn21  1  0.96842476  0.46044960  0.82495401  1
  Mn  Mn22  1  0.98692840  0.17989148  0.49088341  1
  Mn  Mn23  1  0.83769990  0.23818110  0.03255002  1
  O  O24  1  0.08026077  0.61605474  0.76573920  1
  O  O25  1  0.10674741  0.71930783  0.32538964  1
  O  O26  1  0.02072337  0.33954463  0.01154962  1
  O  O27  1  0.27130131  0.42622568  0.32691819  1
  F  F28  1  0.04949917  0.98401190  0.90845908  1
  F  F29  1  0.07888492  0.99270730  0.64622942  1
  F  F30  1  0.28827100  0.20954231  0.89048560  1
  F  F31  1  0.14723374  0.35832171  0.57381725  1
  F  F32  1  0.34911514  0.87911618  0.92095925  1
  F  F33  1  0.26043463  0.71970289  0.61509667  1
  F  F34  1  0.13985043  0.09373200  0.40880181  1
  F  F35  1  0.41360600  0.52703806  0.87289622  1
  F  F36  1  0.39585053  0.10004030  0.67079693  1
  F  F37  1  0.23919847  0.99533869  0.18392533  1
  F  F38  1  0.44891135  0.46351541  0.60704832  1
  F  F39  1  0.61647040  0.76680401  0.80561177  1
  F  F40  1  0.66055449  0.38057221  0.91309940  1
  F  F41  1  0.46950032  0.84534169  0.46888701  1
  F  F42  1  0.53747278  0.16802145  0.49588255  1
  F  F43  1  0.32439541  0.64645072  0.10398384  1
  F  F44  1  0.40985022  0.24263492  0.16772972  1
  F  F45  1  0.57191050  0.54157592  0.40639533  1
  F  F46  1  0.74312830  0.06248461  0.85335566  1
  F  F47  1  0.74865852  0.52639020  0.69916448  1
  F  F48  1  0.58557837  0.88485594  0.26929619  1
  F  F49  1  0.97972284  0.68195145  0.99915696  1
  F  F50  1  0.58433151  0.49103533  0.15107086  1
  F  F51  1  0.75603779  0.91306147  0.62530509  1
  F  F52  1  0.89551675  0.24685202  0.67642635  1
  F  F53  1  0.78115089  0.28921503  0.40167936  1
  F  F54  1  0.65693916  0.13970773  0.08862110  1
  F  F55  1  0.85254678  0.63067861  0.43559072  1
  F  F56  1  0.70737649  0.77944609  0.09460832  1
  F  F57  1  0.87485156  0.95855505  0.39799339  1
  F  F58  1  0.90159516  0.38950392  0.21406801  1
  F  F59  1  0.92103989  0.00805558  0.13026186  1
