# generated using pymatgen
data_Pu2SiO10
_symmetry_space_group_name_H-M   'P 1'
_cell_length_a   7.11612219
_cell_length_b   7.11612219
_cell_length_c   10.27760262
_cell_angle_alpha   110.25479841
_cell_angle_beta   110.25479841
_cell_angle_gamma   90.00000000
_symmetry_Int_Tables_number   1
_chemical_formula_structural   Pu2SiO10
_chemical_formula_sum   'Pu4 Si2 O20'
_cell_volume   453.80607314
_cell_formula_units_Z   2
loop_
 _symmetry_equiv_pos_site_id
 _symmetry_equiv_pos_as_xyz
  1  'x, y, z'
loop_
 _atom_site_type_symbol
 _atom_site_label
 _atom_site_symmetry_multiplicity
 _atom_site_fract_x
 _atom_site_fract_y
 _atom_site_fract_z
 _atom_site_occupancy
  Pu  Pu0  1  0.19774717  0.44774717  0.39549435  1
  Pu  Pu1  1  0.44774717  0.19774717  0.89549435  1
  Pu  Pu2  1  0.80225283  0.55225283  0.60450565  1
  Pu  Pu3  1  0.55225283  0.80225283  0.10450565  1
  Si  Si4  1  0.37500000  0.62500000  0.75000000  1
  Si  Si5  1  0.62500000  0.37500000  0.25000000  1
  O  O6  1  0.20427257  0.70397604  0.40854513  1
  O  O7  1  0.20427257  0.20456910  0.40854513  1
  O  O8  1  0.70397604  0.20427257  0.90854513  1
  O  O9  1  0.20456910  0.20427257  0.90854513  1
  O  O10  1  0.79572743  0.29602396  0.59145487  1
  O  O11  1  0.79572743  0.79543090  0.59145487  1
  O  O12  1  0.29602396  0.79572743  0.09145487  1
  O  O13  1  0.79543090  0.79572743  0.09145487  1
  O  O14  1  0.48683670  0.56446507  0.62893015  1
  O  O15  1  0.56446507  0.48683670  0.12893015  1
  O  O16  1  0.56446507  0.14209345  0.12893015  1
  O  O17  1  0.14209345  0.56446507  0.62893015  1
  O  O18  1  0.51316330  0.43553493  0.37106985  1
  O  O19  1  0.43553493  0.51316330  0.87106985  1
  O  O20  1  0.43553493  0.85790655  0.87106985  1
  O  O21  1  0.85790655  0.43553493  0.37106985  1
  O  O22  1  0.09449478  0.34449478  0.18898956  1
  O  O23  1  0.34449478  0.09449478  0.68898956  1
  O  O24  1  0.90550522  0.65550522  0.81101044  1
  O  O25  1  0.65550522  0.90550522  0.31101044  1
