# generated using pymatgen
data_CaYSiO5
_symmetry_space_group_name_H-M   'P 1'
_cell_length_a   5.69880723
_cell_length_b   5.69880723
_cell_length_c   8.00193641
_cell_angle_alpha   101.11049488
_cell_angle_beta   101.11049488
_cell_angle_gamma   108.50302051
_symmetry_Int_Tables_number   1
_chemical_formula_structural   CaYSiO5
_chemical_formula_sum   'Ca2 Y2 Si2 O10'
_cell_volume   232.64886581
_cell_formula_units_Z   2
loop_
 _symmetry_equiv_pos_site_id
 _symmetry_equiv_pos_as_xyz
  1  'x, y, z'
loop_
 _atom_site_type_symbol
 _atom_site_label
 _atom_site_symmetry_multiplicity
 _atom_site_fract_x
 _atom_site_fract_y
 _atom_site_fract_z
 _atom_site_occupancy
  Ca  Ca0  1  0.64853571  0.35146429  0.75000000  1
  Ca  Ca1  1  0.35146429  0.64853571  0.25000000  1
  Y  Y2  1  0.00000000  -0.00000000  0.00000000  1
  Y  Y3  1  0.00000000  -0.00000000  0.50000000  1
  Si  Si4  1  0.31709993  0.68290007  0.75000000  1
  Si  Si5  1  0.68290007  0.31709993  0.25000000  1
  O  O6  1  0.89128631  0.10871369  0.75000000  1
  O  O7  1  0.10871369  0.89128631  0.25000000  1
  O  O8  1  0.58681907  0.72870368  0.89742933  1
  O  O9  1  0.41318093  0.27129632  0.10257067  1
  O  O10  1  0.27129632  0.41318093  0.60257067  1
  O  O11  1  0.72870368  0.58681907  0.39742933  1
  O  O12  1  0.34109536  0.91957743  0.65501534  1
  O  O13  1  0.65890464  0.08042257  0.34498466  1
  O  O14  1  0.08042257  0.65890464  0.84498466  1
  O  O15  1  0.91957743  0.34109536  0.15501534  1
