# generated using pymatgen
data_Ca3BI3N2
_symmetry_space_group_name_H-M   'P 1'
_cell_length_a   10.61113381
_cell_length_b   10.61113381
_cell_length_c   10.61113409
_cell_angle_alpha   105.66232002
_cell_angle_beta   105.66232002
_cell_angle_gamma   105.66231722
_symmetry_Int_Tables_number   1
_chemical_formula_structural   Ca3BI3N2
_chemical_formula_sum   'Ca12 B4 I12 N8'
_cell_volume   1029.17144746
_cell_formula_units_Z   4
loop_
 _symmetry_equiv_pos_site_id
 _symmetry_equiv_pos_as_xyz
  1  'x, y, z'
loop_
 _atom_site_type_symbol
 _atom_site_label
 _atom_site_symmetry_multiplicity
 _atom_site_fract_x
 _atom_site_fract_y
 _atom_site_fract_z
 _atom_site_occupancy
  Ca  Ca0  1  0.76113095  0.97610861  0.73506050  1
  Ca  Ca1  1  0.73506050  0.76113095  0.97610861  1
  Ca  Ca2  1  0.97610861  0.73506050  0.76113095  1
  Ca  Ca3  1  0.26493950  0.02389139  0.23886905  1
  Ca  Ca4  1  0.02389139  0.23886905  0.26493950  1
  Ca  Ca5  1  0.23886905  0.26493950  0.02389139  1
  Ca  Ca6  1  0.22024291  0.50000000  0.77975709  1
  Ca  Ca7  1  0.77975709  0.22024291  0.50000000  1
  Ca  Ca8  1  0.50000000  0.77975709  0.22024291  1
  Ca  Ca9  1  0.01572171  0.50000000  0.98427829  1
  Ca  Ca10  1  0.98427829  0.01572171  0.50000000  1
  Ca  Ca11  1  0.50000000  0.98427829  0.01572171  1
  B  B12  1  0.76481791  1.00000000  0.23518209  1
  B  B13  1  0.23518209  0.76481791  0.00000000  1
  B  B14  1  0.00000000  0.23518209  0.76481791  1
  B  B15  1  0.00000000  0.00000000  0.00000000  1
  I  I16  1  0.47037744  0.74527684  0.73471532  1
  I  I17  1  0.73471532  0.47037744  0.74527684  1
  I  I18  1  0.74527684  0.73471532  0.47037744  1
  I  I19  1  0.26528468  0.25472316  0.52962256  1
  I  I20  1  0.25472316  0.52962256  0.26528468  1
  I  I21  1  0.52962256  0.26528468  0.25472316  1
  I  I22  1  0.50168855  1.00000000  0.49831145  1
  I  I23  1  0.49831145  0.50168855  0.00000000  1
  I  I24  1  0.00000000  0.49831145  0.50168855  1
  I  I25  1  0.22810900  0.00000000  0.77189100  1
  I  I26  1  0.77189100  0.22810900  0.00000000  1
  I  I27  1  1.00000000  0.77189100  0.22810900  1
  N  N28  1  0.65475556  0.89410179  0.12769826  1
  N  N29  1  0.12769826  0.65475556  0.89410179  1
  N  N30  1  0.89410179  0.12769826  0.65475556  1
  N  N31  1  0.87230174  0.10589821  0.34524444  1
  N  N32  1  0.10589821  0.34524444  0.87230174  1
  N  N33  1  0.34524444  0.87230174  0.10589821  1
  N  N34  1  0.89145961  0.89145961  0.89145961  1
  N  N35  1  0.10854039  0.10854039  0.10854039  1
