# generated using pymatgen
data_SrU2S5
_symmetry_space_group_name_H-M   'P 1'
_cell_length_a   7.42338509
_cell_length_b   8.25206432
_cell_length_c   11.62675442
_cell_angle_alpha   90.30153677
_cell_angle_beta   90.00000000
_cell_angle_gamma   90.00000000
_symmetry_Int_Tables_number   1
_chemical_formula_structural   SrU2S5
_chemical_formula_sum   'Sr4 U8 S20'
_cell_volume   712.22478021
_cell_formula_units_Z   4
loop_
 _symmetry_equiv_pos_site_id
 _symmetry_equiv_pos_as_xyz
  1  'x, y, z'
loop_
 _atom_site_type_symbol
 _atom_site_label
 _atom_site_symmetry_multiplicity
 _atom_site_fract_x
 _atom_site_fract_y
 _atom_site_fract_z
 _atom_site_occupancy
  Sr  Sr0  1  0.54724061  0.49190817  0.17058640  1
  Sr  Sr1  1  0.04724061  0.50809183  0.32941360  1
  Sr  Sr2  1  0.45275939  0.50809183  0.82941360  1
  Sr  Sr3  1  0.95275939  0.49190817  0.67058640  1
  U  U4  1  0.51923960  0.00077259  0.18143214  1
  U  U5  1  0.01923960  0.99922741  0.31856786  1
  U  U6  1  0.48076040  0.99922741  0.81856786  1
  U  U7  1  0.98076040  0.00077259  0.68143214  1
  U  U8  1  0.57118812  0.75447247  0.49114454  1
  U  U9  1  0.07118812  0.24552753  0.00885546  1
  U  U10  1  0.42881188  0.24552753  0.50885546  1
  U  U11  1  0.92881188  0.75447247  0.99114454  1
  S  S12  1  0.16276576  0.95523184  0.09782018  1
  S  S13  1  0.66276576  0.04476816  0.40217982  1
  S  S14  1  0.83723424  0.04476816  0.90217982  1
  S  S15  1  0.33723424  0.95523184  0.59782018  1
  S  S16  1  0.95336876  0.78461814  0.49863547  1
  S  S17  1  0.45336876  0.21538186  0.00136453  1
  S  S18  1  0.04663124  0.21538186  0.50136453  1
  S  S19  1  0.54663124  0.78461814  0.99863547  1
  S  S20  1  0.33590683  0.77695482  0.31180606  1
  S  S21  1  0.83590683  0.22304518  0.18819394  1
  S  S22  1  0.66409317  0.22304518  0.68819394  1
  S  S23  1  0.16409317  0.77695482  0.81180606  1
  S  S24  1  0.80789155  0.76672884  0.21614449  1
  S  S25  1  0.30789155  0.23327116  0.28385551  1
  S  S26  1  0.19210845  0.23327116  0.78385551  1
  S  S27  1  0.69210845  0.76672884  0.71614449  1
  S  S28  1  0.67493953  0.46035282  0.42200891  1
  S  S29  1  0.17493953  0.53964718  0.07799109  1
  S  S30  1  0.32506047  0.53964718  0.57799109  1
  S  S31  1  0.82506047  0.46035282  0.92200891  1
