# generated using pymatgen
data_TbH(CO2)3
_symmetry_space_group_name_H-M   'P 1'
_cell_length_a   6.62152849
_cell_length_b   7.17383174
_cell_length_c   10.61975668
_cell_angle_alpha   90.00000000
_cell_angle_beta   90.00000000
_cell_angle_gamma   90.00000000
_symmetry_Int_Tables_number   1
_chemical_formula_structural   TbH(CO2)3
_chemical_formula_sum   'Tb4 H4 C12 O24'
_cell_volume   504.45682774
_cell_formula_units_Z   4
loop_
 _symmetry_equiv_pos_site_id
 _symmetry_equiv_pos_as_xyz
  1  'x, y, z'
loop_
 _atom_site_type_symbol
 _atom_site_label
 _atom_site_symmetry_multiplicity
 _atom_site_fract_x
 _atom_site_fract_y
 _atom_site_fract_z
 _atom_site_occupancy
  Tb  Tb0  1  0.86720083  0.69680908  0.75000000  1
  Tb  Tb1  1  0.63279917  0.19680908  0.75000000  1
  Tb  Tb2  1  0.13279917  0.30319092  0.25000000  1
  Tb  Tb3  1  0.36720083  0.80319092  0.25000000  1
  H  H4  1  0.11663830  0.27117478  0.75000000  1
  H  H5  1  0.38336170  0.77117478  0.75000000  1
  H  H6  1  0.88336170  0.72882522  0.25000000  1
  H  H7  1  0.61663830  0.22882522  0.25000000  1
  C  C8  1  0.12883316  0.11863279  0.75000000  1
  C  C9  1  0.37116684  0.61863279  0.75000000  1
  C  C10  1  0.87116684  0.88136721  0.25000000  1
  C  C11  1  0.62883316  0.38136721  0.25000000  1
  C  C12  1  0.04775840  0.59383200  0.47943256  1
  C  C13  1  0.45224160  0.09383200  0.02056744  1
  C  C14  1  0.95224160  0.40616800  0.97943256  1
  C  C15  1  0.54775840  0.90616800  0.52056744  1
  C  C16  1  0.95224160  0.40616800  0.52056744  1
  C  C17  1  0.54775840  0.90616800  0.97943256  1
  C  C18  1  0.04775840  0.59383200  0.02056744  1
  C  C19  1  0.45224160  0.09383200  0.47943256  1
  O  O20  1  0.96209548  0.02707671  0.75000000  1
  O  O21  1  0.53790452  0.52707671  0.75000000  1
  O  O22  1  0.03790452  0.97292329  0.25000000  1
  O  O23  1  0.46209548  0.47292329  0.25000000  1
  O  O24  1  0.30204256  0.04721912  0.75000000  1
  O  O25  1  0.19795744  0.54721912  0.75000000  1
  O  O26  1  0.69795744  0.95278088  0.25000000  1
  O  O27  1  0.80204256  0.45278088  0.25000000  1
  O  O28  1  0.02076047  0.73408679  0.54737886  1
  O  O29  1  0.47923953  0.23408679  0.95262114  1
  O  O30  1  0.97923953  0.26591321  0.04737886  1
  O  O31  1  0.52076047  0.76591321  0.45262114  1
  O  O32  1  0.97923953  0.26591321  0.45262114  1
  O  O33  1  0.52076047  0.76591321  0.04737886  1
  O  O34  1  0.02076047  0.73408679  0.95262114  1
  O  O35  1  0.47923953  0.23408679  0.54737886  1
  O  O36  1  0.14765093  0.58852699  0.37622225  1
  O  O37  1  0.35234907  0.08852699  0.12377775  1
  O  O38  1  0.85234907  0.41147301  0.87622225  1
  O  O39  1  0.64765093  0.91147301  0.62377775  1
  O  O40  1  0.85234907  0.41147301  0.62377775  1
  O  O41  1  0.64765093  0.91147301  0.87622225  1
  O  O42  1  0.14765093  0.58852699  0.12377775  1
  O  O43  1  0.35234907  0.08852699  0.37622225  1
