# generated using pymatgen
data_Eu2CuH4(SO6)2
_symmetry_space_group_name_H-M   'P 1'
_cell_length_a   6.46208111
_cell_length_b   6.98904676
_cell_length_c   10.94499506
_cell_angle_alpha   90.00000000
_cell_angle_beta   98.36353951
_cell_angle_gamma   90.00000000
_symmetry_Int_Tables_number   1
_chemical_formula_structural   Eu2CuH4(SO6)2
_chemical_formula_sum   'Eu4 Cu2 H8 S4 O24'
_cell_volume   489.06040662
_cell_formula_units_Z   2
loop_
 _symmetry_equiv_pos_site_id
 _symmetry_equiv_pos_as_xyz
  1  'x, y, z'
loop_
 _atom_site_type_symbol
 _atom_site_label
 _atom_site_symmetry_multiplicity
 _atom_site_fract_x
 _atom_site_fract_y
 _atom_site_fract_z
 _atom_site_occupancy
  Eu  Eu0  1  0.91709567  0.48759111  0.67501841  1
  Eu  Eu1  1  0.08290433  0.98759111  0.82498159  1
  Eu  Eu2  1  0.08290433  0.51240889  0.32498159  1
  Eu  Eu3  1  0.91709567  0.01240889  0.17501841  1
  Cu  Cu4  1  -0.00000000  0.50000000  0.00000000  1
  Cu  Cu5  1  -0.00000000  0.00000000  0.50000000  1
  H  H6  1  0.24386610  0.30180495  0.11846879  1
  H  H7  1  0.75613390  0.80180495  0.38153121  1
  H  H8  1  0.75613390  0.69819505  0.88153121  1
  H  H9  1  0.24386610  0.19819505  0.61846879  1
  H  H10  1  0.27306265  0.39376518  0.89551268  1
  H  H11  1  0.72693735  0.89376518  0.60448732  1
  H  H12  1  0.72693735  0.60623482  0.10448732  1
  H  H13  1  0.27306265  0.10623482  0.39551268  1
  S  S14  1  0.64129806  0.32727029  0.36926010  1
  S  S15  1  0.35870194  0.82727029  0.13073990  1
  S  S16  1  0.35870194  0.67272971  0.63073990  1
  S  S17  1  0.64129806  0.17272971  0.86926010  1
  O  O18  1  0.09951458  0.33030482  0.12993936  1
  O  O19  1  0.90048542  0.83030482  0.37006064  1
  O  O20  1  0.90048542  0.66969518  0.87006064  1
  O  O21  1  0.09951458  0.16969518  0.62993936  1
  O  O22  1  0.12483571  0.35554943  0.88347145  1
  O  O23  1  0.87516429  0.85554943  0.61652855  1
  O  O24  1  0.87516429  0.64445057  0.11652855  1
  O  O25  1  0.12483571  0.14445057  0.38347145  1
  O  O26  1  0.74882117  0.30334840  0.25692787  1
  O  O27  1  0.25117883  0.80334840  0.24307213  1
  O  O28  1  0.25117883  0.69665160  0.74307213  1
  O  O29  1  0.74882117  0.19665160  0.75692787  1
  O  O30  1  0.79670517  0.44528699  0.45514033  1
  O  O31  1  0.20329483  0.94528699  0.04485967  1
  O  O32  1  0.20329483  0.55471301  0.54485967  1
  O  O33  1  0.79670517  0.05471301  0.95514033  1
  O  O34  1  0.44864974  0.43900496  0.33608362  1
  O  O35  1  0.55135026  0.93900496  0.16391638  1
  O  O36  1  0.55135026  0.56099504  0.66391638  1
  O  O37  1  0.44864974  0.06099504  0.83608362  1
  O  O38  1  0.60217713  0.14416879  0.42617947  1
  O  O39  1  0.39782287  0.64416879  0.07382053  1
  O  O40  1  0.39782287  0.85583121  0.57382053  1
  O  O41  1  0.60217713  0.35583121  0.92617947  1
