# generated using pymatgen
data_LiV3(CoO6)2
_symmetry_space_group_name_H-M   'P 1'
_cell_length_a   8.58974730
_cell_length_b   12.11085217
_cell_length_c   8.87610531
_cell_angle_alpha   90.00000000
_cell_angle_beta   90.00000000
_cell_angle_gamma   90.29835528
_symmetry_Int_Tables_number   1
_chemical_formula_structural   LiV3(CoO6)2
_chemical_formula_sum   'Li4 V12 Co8 O48'
_cell_volume   923.36125802
_cell_formula_units_Z   4
loop_
 _symmetry_equiv_pos_site_id
 _symmetry_equiv_pos_as_xyz
  1  'x, y, z'
loop_
 _atom_site_type_symbol
 _atom_site_label
 _atom_site_symmetry_multiplicity
 _atom_site_fract_x
 _atom_site_fract_y
 _atom_site_fract_z
 _atom_site_occupancy
  Li  Li0  1  0.18078159  0.18511050  0.78342556  1
  Li  Li1  1  0.31921841  0.31488950  0.28342556  1
  Li  Li2  1  0.68078159  0.68511050  0.71657444  1
  Li  Li3  1  0.81921841  0.81488950  0.21657444  1
  V  V4  1  0.02927225  0.49155209  0.25057530  1
  V  V5  1  0.11488097  0.85562921  0.38454466  1
  V  V6  1  0.11034208  0.13869060  0.11531034  1
  V  V7  1  0.38511903  0.64437079  0.88454466  1
  V  V8  1  0.38965792  0.36130940  0.61531034  1
  V  V9  1  0.47072775  0.00844791  0.75057530  1
  V  V10  1  0.52927225  0.99155209  0.24942470  1
  V  V11  1  0.61034208  0.63869060  0.38468966  1
  V  V12  1  0.61488097  0.35562921  0.11545534  1
  V  V13  1  0.88965792  0.86130940  0.88468966  1
  V  V14  1  0.88511903  0.14437079  0.61545534  1
  V  V15  1  0.97072775  0.50844791  0.74942470  1
  Co  Co16  1  0.25230486  0.88630259  0.02524949  1
  Co  Co17  1  0.24769514  0.61369741  0.52524949  1
  Co  Co18  1  0.25168832  0.37948871  0.97219051  1
  Co  Co19  1  0.24831168  0.12051129  0.47219051  1
  Co  Co20  1  0.75168832  0.87948871  0.52780949  1
  Co  Co21  1  0.74831168  0.62051129  0.02780949  1
  Co  Co22  1  0.75230486  0.38630259  0.47475051  1
  Co  Co23  1  0.74769514  0.11369741  0.97475051  1
  O  O24  1  0.08159347  0.90218054  0.88945990  1
  O  O25  1  0.07805598  0.61208375  0.65944403  1
  O  O26  1  0.07960600  0.43864600  0.88147268  1
  O  O27  1  0.08070392  0.18175401  0.57802304  1
  O  O28  1  0.10648017  0.59070488  0.37065192  1
  O  O29  1  0.12227487  0.85044137  0.18568223  1
  O  O30  1  0.14408828  0.99031312  0.43774531  1
  O  O31  1  0.13850593  0.24660479  0.98849357  1
  O  O32  1  0.17349941  0.18163276  0.29347665  1
  O  O33  1  0.18619637  0.42264039  0.16609033  1
  O  O34  1  0.23909661  0.76669926  0.47564635  1
  O  O35  1  0.26090339  0.73330074  0.97564635  1
  O  O36  1  0.26169713  0.46344057  0.55688445  1
  O  O37  1  0.23830287  0.03655943  0.05688445  1
  O  O38  1  0.31380363  0.07735961  0.66609033  1
  O  O39  1  0.32650059  0.31836724  0.79347665  1
  O  O40  1  0.35591172  0.50968688  0.93774531  1
  O  O41  1  0.37772513  0.64955863  0.68568223  1
  O  O42  1  0.39351983  0.90929512  0.87065192  1
  O  O43  1  0.36149407  0.25339521  0.48849357  1
  O  O44  1  0.42194402  0.88791625  0.15944403  1
  O  O45  1  0.41840653  0.59781946  0.38945990  1
  O  O46  1  0.41929608  0.31824599  0.07802304  1
  O  O47  1  0.42039400  0.06135400  0.38147268  1
  O  O48  1  0.57960600  0.93864600  0.61852732  1
  O  O49  1  0.58070392  0.68175401  0.92197696  1
  O  O50  1  0.58159347  0.40218054  0.61054010  1
  O  O51  1  0.57805598  0.11208375  0.84055597  1
  O  O52  1  0.63850593  0.74660479  0.51150643  1
  O  O53  1  0.60648017  0.09070488  0.12934808  1
  O  O54  1  0.62227487  0.35044137  0.31431777  1
  O  O55  1  0.64408828  0.49031312  0.06225469  1
  O  O56  1  0.67349941  0.68163276  0.20652335  1
  O  O57  1  0.68619637  0.92264039  0.33390967  1
  O  O58  1  0.76169713  0.96344057  0.94311555  1
  O  O59  1  0.73830287  0.53655943  0.44311555  1
  O  O60  1  0.73909661  0.26669926  0.02435365  1
  O  O61  1  0.76090339  0.23330074  0.52435365  1
  O  O62  1  0.81380363  0.57735961  0.83390967  1
  O  O63  1  0.82650059  0.81836724  0.70652335  1
  O  O64  1  0.86149407  0.75339521  0.01150643  1
  O  O65  1  0.85591172  0.00968688  0.56225469  1
  O  O66  1  0.87772513  0.14955863  0.81431777  1
  O  O67  1  0.89351983  0.40929512  0.62934808  1
  O  O68  1  0.91929608  0.81824599  0.42197696  1
  O  O69  1  0.92039400  0.56135400  0.11852732  1
  O  O70  1  0.92194402  0.38791625  0.34055597  1
  O  O71  1  0.91840653  0.09781946  0.11054010  1
