# generated using pymatgen
data_CsCrAs2O7
_symmetry_space_group_name_H-M   'P 1'
_cell_length_a   8.09993810
_cell_length_b   8.89561827
_cell_length_c   10.31803019
_cell_angle_alpha   90.00000000
_cell_angle_beta   90.00000000
_cell_angle_gamma   106.03035257
_symmetry_Int_Tables_number   1
_chemical_formula_structural   CsCrAs2O7
_chemical_formula_sum   'Cs4 Cr4 As8 O28'
_cell_volume   714.54606620
_cell_formula_units_Z   4
loop_
 _symmetry_equiv_pos_site_id
 _symmetry_equiv_pos_as_xyz
  1  'x, y, z'
loop_
 _atom_site_type_symbol
 _atom_site_label
 _atom_site_symmetry_multiplicity
 _atom_site_fract_x
 _atom_site_fract_y
 _atom_site_fract_z
 _atom_site_occupancy
  Cs  Cs0  1  0.68082530  0.04367399  0.69540730  1
  Cs  Cs1  1  0.31917470  0.45632601  0.19540730  1
  Cs  Cs2  1  0.31917470  0.95632601  0.30459270  1
  Cs  Cs3  1  0.68082530  0.54367399  0.80459270  1
  Cr  Cr4  1  0.25894192  0.73568067  0.89854792  1
  Cr  Cr5  1  0.74105808  0.76431933  0.39854792  1
  Cr  Cr6  1  0.74105808  0.26431933  0.10145208  1
  Cr  Cr7  1  0.25894192  0.23568067  0.60145208  1
  As  As8  1  0.07173597  0.81575732  0.63028079  1
  As  As9  1  0.92826403  0.68424268  0.13028079  1
  As  As10  1  0.92826403  0.18424268  0.36971921  1
  As  As11  1  0.07173597  0.31575732  0.86971921  1
  As  As12  1  0.36606283  0.65985570  0.59160227  1
  As  As13  1  0.63393717  0.84014430  0.09160227  1
  As  As14  1  0.63393717  0.34014430  0.40839773  1
  As  As15  1  0.36606283  0.15985570  0.90839773  1
  O  O16  1  0.20261082  -0.00192895  0.60298630  1
  O  O17  1  0.79738918  0.50192895  0.10298630  1
  O  O18  1  0.79738918  0.00192895  0.39701370  1
  O  O19  1  0.20261082  0.49807105  0.89701370  1
  O  O20  1  0.86733033  0.77766505  0.57333833  1
  O  O21  1  0.13266967  0.72233495  0.07333833  1
  O  O22  1  0.13266967  0.22233495  0.42666167  1
  O  O23  1  0.86733033  0.27766505  0.92666167  1
  O  O24  1  0.05859969  0.74859930  0.78709137  1
  O  O25  1  0.94140031  0.75140070  0.28709137  1
  O  O26  1  0.94140031  0.25140070  0.21290863  1
  O  O27  1  0.05859969  0.24859930  0.71290863  1
  O  O28  1  0.16682223  0.69032583  0.53501355  1
  O  O29  1  0.83317777  0.80967417  0.03501355  1
  O  O30  1  0.83317777  0.30967417  0.46498645  1
  O  O31  1  0.16682223  0.19032583  0.96498645  1
  O  O32  1  0.34692256  0.46781666  0.58071649  1
  O  O33  1  0.65307744  0.03218334  0.08071649  1
  O  O34  1  0.65307744  0.53218334  0.41928351  1
  O  O35  1  0.34692256  0.96781666  0.91928351  1
  O  O36  1  0.52010330  0.77487225  0.49428456  1
  O  O37  1  0.47989670  0.72512775  0.99428456  1
  O  O38  1  0.47989670  0.22512775  0.50571544  1
  O  O39  1  0.52010330  0.27487225  0.00571544  1
  O  O40  1  0.40625388  0.74189527  0.74239289  1
  O  O41  1  0.59374612  0.75810473  0.24239289  1
  O  O42  1  0.59374612  0.25810473  0.25760711  1
  O  O43  1  0.40625388  0.24189527  0.75760711  1
