# generated using pymatgen
data_RbSb2P(SO6)2
_symmetry_space_group_name_H-M   'P 1'
_cell_length_a   5.24570775
_cell_length_b   8.20302092
_cell_length_c   13.11502978
_cell_angle_alpha   82.02016276
_cell_angle_beta   87.76969141
_cell_angle_gamma   86.77709312
_symmetry_Int_Tables_number   1
_chemical_formula_structural   RbSb2P(SO6)2
_chemical_formula_sum   'Rb2 Sb4 P2 S4 O24'
_cell_volume   557.72341909
_cell_formula_units_Z   2
loop_
 _symmetry_equiv_pos_site_id
 _symmetry_equiv_pos_as_xyz
  1  'x, y, z'
loop_
 _atom_site_type_symbol
 _atom_site_label
 _atom_site_symmetry_multiplicity
 _atom_site_fract_x
 _atom_site_fract_y
 _atom_site_fract_z
 _atom_site_occupancy
  Rb  Rb0  1  0.72437176  0.33502907  0.64715984  1
  Rb  Rb1  1  0.27562824  0.66497093  0.35284016  1
  Sb  Sb2  1  0.78034395  0.23909578  0.96338137  1
  Sb  Sb3  1  0.21965605  0.76090422  0.03661863  1
  Sb  Sb4  1  0.18756028  0.80374791  0.67598261  1
  Sb  Sb5  1  0.81243972  0.19625209  0.32401739  1
  P  P6  1  0.26587714  0.46887937  0.86037416  1
  P  P7  1  0.73412286  0.53112063  0.13962584  1
  S  S8  1  0.74100035  0.79037733  0.52806270  1
  S  S9  1  0.25899965  0.20962267  0.47193730  1
  S  S10  1  0.70889749  0.89136954  0.84315367  1
  S  S11  1  0.29110251  0.10863046  0.15684633  1
  O  O12  1  0.76836384  0.78882895  0.41676788  1
  O  O13  1  0.23163616  0.21117105  0.58323212  1
  O  O14  1  0.74636063  0.95256015  0.56224929  1
  O  O15  1  0.25363937  0.04743985  0.43775071  1
  O  O16  1  0.50495007  0.70152561  0.56853263  1
  O  O17  1  0.49504993  0.29847439  0.43146737  1
  O  O18  1  0.96842279  0.68012135  0.57869759  1
  O  O19  1  0.03157721  0.31987865  0.42130241  1
  O  O20  1  0.43561549  0.89528964  0.81725124  1
  O  O21  1  0.56438451  0.10471036  0.18274876  1
  O  O22  1  0.81865497  0.05561271  0.81612468  1
  O  O23  1  0.18134503  0.94438729  0.18387532  1
  O  O24  1  0.73457327  0.83182415  0.95514210  1
  O  O25  1  0.26542673  0.16817585  0.04485790  1
  O  O26  1  0.85525896  0.76840826  0.78315148  1
  O  O27  1  0.14474104  0.23159174  0.21684852  1
  O  O28  1  0.24928264  0.56720765  0.95163635  1
  O  O29  1  0.75071736  0.43279235  0.04836365  1
  O  O30  1  0.51230418  0.35463268  0.86405576  1
  O  O31  1  0.48769582  0.64536732  0.13594424  1
  O  O32  1  0.97287070  0.63465677  0.14001179  1
  O  O33  1  0.02712930  0.36534323  0.85998821  1
  O  O34  1  0.28578491  0.57448914  0.75271041  1
  O  O35  1  0.71421509  0.42551086  0.24728959  1
