# generated using pymatgen
data_Cs6U5(AsO7)4
_symmetry_space_group_name_H-M   'P 1'
_cell_length_a   8.06999958
_cell_length_b   9.46745444
_cell_length_c   12.08920179
_cell_angle_alpha   75.69099221
_cell_angle_beta   73.88835545
_cell_angle_gamma   86.73298055
_symmetry_Int_Tables_number   1
_chemical_formula_structural   Cs6U5(AsO7)4
_chemical_formula_sum   'Cs6 U5 As4 O28'
_cell_volume   859.76975015
_cell_formula_units_Z   1
loop_
 _symmetry_equiv_pos_site_id
 _symmetry_equiv_pos_as_xyz
  1  'x, y, z'
loop_
 _atom_site_type_symbol
 _atom_site_label
 _atom_site_symmetry_multiplicity
 _atom_site_fract_x
 _atom_site_fract_y
 _atom_site_fract_z
 _atom_site_occupancy
  Cs  Cs0  1  0.87353113  0.29920298  0.53197935  1
  Cs  Cs1  1  0.12646887  0.70079702  0.46802065  1
  Cs  Cs2  1  0.93613616  0.37342111  0.87554265  1
  Cs  Cs3  1  0.06386384  0.62657889  0.12445735  1
  Cs  Cs4  1  0.00977447  0.87868991  0.76672361  1
  Cs  Cs5  1  0.99022553  0.12131009  0.23327639  1
  U  U6  1  0.45201827  0.98310084  0.84308004  1
  U  U7  1  0.54798173  0.01689916  0.15691996  1
  U  U8  1  0.50883144  0.62589044  0.72197465  1
  U  U9  1  0.49116856  0.37410956  0.27802535  1
  U  U10  1  0.50000000  -0.00000000  0.50000000  1
  As  As11  1  0.39799394  0.31029855  0.99243437  1
  As  As12  1  0.60200606  0.68970145  0.00756563  1
  As  As13  1  0.36650885  0.32300091  0.61512951  1
  As  As14  1  0.63349115  0.67699909  0.38487049  1
  O  O15  1  0.18880991  0.35420376  0.02528100  1
  O  O16  1  0.81119009  0.64579624  0.97471900  1
  O  O17  1  0.53444550  0.42720990  0.87572181  1
  O  O18  1  0.46555450  0.57279010  0.12427819  1
  O  O19  1  0.43396194  0.13140030  0.97568790  1
  O  O20  1  0.56603806  0.86859970  0.02431210  1
  O  O21  1  0.48108342  0.27602730  0.11611134  1
  O  O22  1  0.51891658  0.72397270  0.88388866  1
  O  O23  1  0.17299266  0.39432831  0.60986233  1
  O  O24  1  0.82700734  0.60567169  0.39013767  1
  O  O25  1  0.51323645  0.43495139  0.63344314  1
  O  O26  1  0.48676355  0.56504861  0.36655686  1
  O  O27  1  0.33977180  0.16474580  0.72916024  1
  O  O28  1  0.66022820  0.83525420  0.27083976  1
  O  O29  1  0.47797204  0.25754795  0.49047552  1
  O  O30  1  0.52202796  0.74245205  0.50952448  1
  O  O31  1  0.22981273  0.91924297  0.92336973  1
  O  O32  1  0.77018727  0.08075703  0.07663027  1
  O  O33  1  0.67419411  0.05005953  0.76488478  1
  O  O34  1  0.32580589  0.94994047  0.23511522  1
  O  O35  1  0.74523797  0.63517517  0.67644123  1
  O  O36  1  0.25476203  0.36482483  0.32355877  1
  O  O37  1  0.27204363  0.61387230  0.76686460  1
  O  O38  1  0.72795637  0.38612770  0.23313540  1
  O  O39  1  0.73442178  0.01623093  0.48069255  1
  O  O40  1  0.26557822  0.98376907  0.51930745  1
  O  O41  1  0.46324149  0.88133964  0.68716556  1
  O  O42  1  0.53675851  0.11866036  0.31283444  1
