# generated using pymatgen
data_Na2Yb2B2TeO10
_symmetry_space_group_name_H-M   'P 1'
_cell_length_a   6.39665260
_cell_length_b   6.81219462
_cell_length_c   10.18324070
_cell_angle_alpha   90.00000000
_cell_angle_beta   90.00000000
_cell_angle_gamma   103.40012312
_symmetry_Int_Tables_number   1
_chemical_formula_structural   Na2Yb2B2TeO10
_chemical_formula_sum   'Na4 Yb4 B4 Te2 O20'
_cell_volume   431.65660619
_cell_formula_units_Z   2
loop_
 _symmetry_equiv_pos_site_id
 _symmetry_equiv_pos_as_xyz
  1  'x, y, z'
loop_
 _atom_site_type_symbol
 _atom_site_label
 _atom_site_symmetry_multiplicity
 _atom_site_fract_x
 _atom_site_fract_y
 _atom_site_fract_z
 _atom_site_occupancy
  Na  Na0  1  0.41510018  0.33624214  0.10994806  1
  Na  Na1  1  0.58489982  0.16375786  0.60994806  1
  Na  Na2  1  0.58489982  0.66375786  0.89005194  1
  Na  Na3  1  0.41510018  0.83624214  0.39005194  1
  Yb  Yb4  1  0.87641115  0.47815594  0.33210075  1
  Yb  Yb5  1  0.12358885  0.02184406  0.83210075  1
  Yb  Yb6  1  0.12358885  0.52184406  0.66789925  1
  Yb  Yb7  1  0.87641115  0.97815594  0.16789925  1
  B  B8  1  0.66819106  0.13307693  0.90035636  1
  B  B9  1  0.33180894  0.36692307  0.40035636  1
  B  B10  1  0.33180894  0.86692307  0.09964364  1
  B  B11  1  0.66819106  0.63307693  0.59964364  1
  Te  Te12  1  -0.00000000  0.50000000  0.00000000  1
  Te  Te13  1  -0.00000000  0.00000000  0.50000000  1
  O  O14  1  0.50818025  0.44674089  0.32607306  1
  O  O15  1  0.49181975  0.05325911  0.82607306  1
  O  O16  1  0.49181975  0.55325911  0.67392694  1
  O  O17  1  0.50818025  0.94674089  0.17392694  1
  O  O18  1  0.00615400  0.32382938  0.14596804  1
  O  O19  1  0.99384600  0.17617062  0.64596804  1
  O  O20  1  0.99384600  0.67617062  0.85403196  1
  O  O21  1  0.00615400  0.82382938  0.35403196  1
  O  O22  1  0.70692947  0.33520992  0.93854859  1
  O  O23  1  0.29307053  0.16479008  0.43854859  1
  O  O24  1  0.29307053  0.66479008  0.06145141  1
  O  O25  1  0.70692947  0.83520992  0.56145141  1
  O  O26  1  0.20353830  0.49320823  0.43625553  1
  O  O27  1  0.79646170  0.00679177  0.93625553  1
  O  O28  1  0.79646170  0.50679177  0.56374447  1
  O  O29  1  0.20353830  0.99320823  0.06374447  1
  O  O30  1  0.16215499  0.36394287  0.88885297  1
  O  O31  1  0.83784501  0.13605713  0.38885297  1
  O  O32  1  0.83784501  0.63605713  0.11114703  1
  O  O33  1  0.16215499  0.86394287  0.61114703  1
