# generated using pymatgen
data_Sr5(IO6)2
_symmetry_space_group_name_H-M   'P 1'
_cell_length_a   10.17013307
_cell_length_b   10.17013307
_cell_length_c   20.02764509
_cell_angle_alpha   75.29144569
_cell_angle_beta   75.29144569
_cell_angle_gamma   59.99999969
_symmetry_Int_Tables_number   1
_chemical_formula_structural   Sr5(IO6)2
_chemical_formula_sum   'Sr30 I12 O72'
_cell_volume   1715.13190975
_cell_formula_units_Z   6
loop_
 _symmetry_equiv_pos_site_id
 _symmetry_equiv_pos_as_xyz
  1  'x, y, z'
loop_
 _atom_site_type_symbol
 _atom_site_label
 _atom_site_symmetry_multiplicity
 _atom_site_fract_x
 _atom_site_fract_y
 _atom_site_fract_z
 _atom_site_occupancy
  Sr  Sr0  1  0.01990173  0.68955133  0.94333973  1
  Sr  Sr1  1  0.68955133  0.34720721  0.94333973  1
  Sr  Sr2  1  0.34720721  0.01990173  0.94333973  1
  Sr  Sr3  1  0.51990173  0.84720721  0.44333973  1
  Sr  Sr4  1  0.84720721  0.18955133  0.44333973  1
  Sr  Sr5  1  0.18955133  0.51990173  0.44333973  1
  Sr  Sr6  1  0.98009827  0.31044867  0.05666027  1
  Sr  Sr7  1  0.31044867  0.65279279  0.05666027  1
  Sr  Sr8  1  0.65279279  0.98009827  0.05666027  1
  Sr  Sr9  1  0.48009827  0.15279279  0.55666027  1
  Sr  Sr10  1  0.15279279  0.81044867  0.55666027  1
  Sr  Sr11  1  0.81044867  0.48009827  0.55666027  1
  Sr  Sr12  1  0.23243682  0.89696145  0.35136938  1
  Sr  Sr13  1  0.89696145  0.51923234  0.35136938  1
  Sr  Sr14  1  0.51923234  0.23243682  0.35136938  1
  Sr  Sr15  1  0.73243682  0.01923234  0.85136938  1
  Sr  Sr16  1  0.01923234  0.39696145  0.85136938  1
  Sr  Sr17  1  0.39696145  0.73243682  0.85136938  1
  Sr  Sr18  1  0.76756318  0.10303855  0.64863062  1
  Sr  Sr19  1  0.10303855  0.48076766  0.64863062  1
  Sr  Sr20  1  0.48076766  0.76756318  0.64863062  1
  Sr  Sr21  1  0.26756318  0.98076766  0.14863062  1
  Sr  Sr22  1  0.98076766  0.60303855  0.14863062  1
  Sr  Sr23  1  0.60303855  0.26756318  0.14863062  1
  Sr  Sr24  1  0.60408900  0.60408900  0.18773300  1
  Sr  Sr25  1  0.10408900  0.10408900  0.68773300  1
  Sr  Sr26  1  0.39591100  0.39591100  0.81226700  1
  Sr  Sr27  1  0.89591100  0.89591100  0.31226700  1
  Sr  Sr28  1  0.75000000  0.75000000  0.75000000  1
  Sr  Sr29  1  0.25000000  0.25000000  0.25000000  1
  I  I30  1  0.42321210  0.07678790  0.75000000  1
  I  I31  1  0.07678790  0.75000000  0.75000000  1
  I  I32  1  0.75000000  0.42321210  0.75000000  1
  I  I33  1  0.92321210  0.25000000  0.25000000  1
  I  I34  1  0.25000000  0.57678790  0.25000000  1
  I  I35  1  0.57678790  0.92321210  0.25000000  1
  I  I36  1  0.66298051  0.66298051  0.01105848  1
  I  I37  1  0.16298051  0.16298051  0.51105848  1
  I  I38  1  0.33701949  0.33701949  0.98894152  1
  I  I39  1  0.83701949  0.83701949  0.48894152  1
  I  I40  1  0.50000000  0.50000000  0.50000000  1
  I  I41  1  0.00000000  -0.00000000  0.00000000  1
  O  O42  1  0.92114655  0.72736251  0.82368871  1
  O  O43  1  0.72736251  0.52780223  0.82368871  1
  O  O44  1  0.52780223  0.92114655  0.82368871  1
  O  O45  1  0.42114655  0.02780223  0.32368871  1
  O  O46  1  0.02780223  0.22736251  0.32368871  1
  O  O47  1  0.22736251  0.42114655  0.32368871  1
  O  O48  1  0.07885345  0.27263749  0.17631129  1
  O  O49  1  0.27263749  0.47219777  0.17631129  1
  O  O50  1  0.47219777  0.07885345  0.17631129  1
  O  O51  1  0.57885345  0.97219777  0.67631129  1
  O  O52  1  0.97219777  0.77263749  0.67631129  1
  O  O53  1  0.77263749  0.57885345  0.67631129  1
  O  O54  1  0.68496948  0.49755840  0.44519888  1
  O  O55  1  0.49755840  0.37227323  0.44519888  1
  O  O56  1  0.37227323  0.68496948  0.44519888  1
  O  O57  1  0.18496948  0.87227323  0.94519888  1
  O  O58  1  0.87227323  0.99755840  0.94519888  1
  O  O59  1  0.99755840  0.18496948  0.94519888  1
  O  O60  1  0.31503052  0.50244160  0.55480112  1
  O  O61  1  0.50244160  0.62772677  0.55480112  1
  O  O62  1  0.62772677  0.31503052  0.55480112  1
  O  O63  1  0.81503052  0.12772677  0.05480112  1
  O  O64  1  0.12772677  0.00244160  0.05480112  1
  O  O65  1  0.00244160  0.81503052  0.05480112  1
  O  O66  1  0.71065921  0.82118137  0.95839804  1
  O  O67  1  0.82118137  0.50976139  0.95839804  1
  O  O68  1  0.50976139  0.71065921  0.95839804  1
  O  O69  1  0.21065921  0.00976139  0.45839804  1
  O  O70  1  0.00976139  0.32118137  0.45839804  1
  O  O71  1  0.32118137  0.21065921  0.45839804  1
  O  O72  1  0.28934079  0.17881863  0.04160196  1
  O  O73  1  0.17881863  0.49023861  0.04160196  1
  O  O74  1  0.49023861  0.28934079  0.04160196  1
  O  O75  1  0.78934079  0.99023861  0.54160196  1
  O  O76  1  0.99023861  0.67881863  0.54160196  1
  O  O77  1  0.67881863  0.78934079  0.54160196  1
  O  O78  1  0.50953884  0.81153768  0.06998524  1
  O  O79  1  0.81153768  0.60893823  0.06998524  1
  O  O80  1  0.60893823  0.50953884  0.06998524  1
  O  O81  1  0.00953884  0.10893823  0.56998524  1
  O  O82  1  0.10893823  0.31153768  0.56998524  1
  O  O83  1  0.31153768  0.00953884  0.56998524  1
  O  O84  1  0.49046116  0.18846232  0.93001476  1
  O  O85  1  0.18846232  0.39106177  0.93001476  1
  O  O86  1  0.39106177  0.49046116  0.93001476  1
  O  O87  1  0.99046116  0.89106177  0.43001476  1
  O  O88  1  0.89106177  0.68846232  0.43001476  1
  O  O89  1  0.68846232  0.99046116  0.43001476  1
  O  O90  1  0.72022021  0.81167344  0.17882207  1
  O  O91  1  0.81167344  0.28928428  0.17882207  1
  O  O92  1  0.28928428  0.72022021  0.17882207  1
  O  O93  1  0.22022021  0.78928428  0.67882207  1
  O  O94  1  0.78928428  0.31167344  0.67882207  1
  O  O95  1  0.31167344  0.22022021  0.67882207  1
  O  O96  1  0.27977979  0.18832656  0.82117793  1
  O  O97  1  0.18832656  0.71071572  0.82117793  1
  O  O98  1  0.71071572  0.27977979  0.82117793  1
  O  O99  1  0.77977979  0.21071572  0.32117793  1
  O  O100  1  0.21071572  0.68832656  0.32117793  1
  O  O101  1  0.68832656  0.77977979  0.32117793  1
  O  O102  1  0.45107455  0.83190339  0.25057831  1
  O  O103  1  0.83190339  0.46644374  0.25057831  1
  O  O104  1  0.46644374  0.45107455  0.25057831  1
  O  O105  1  0.95107455  0.96644374  0.75057831  1
  O  O106  1  0.96644374  0.33190339  0.75057831  1
  O  O107  1  0.33190339  0.95107455  0.75057831  1
  O  O108  1  0.54892545  0.16809661  0.74942169  1
  O  O109  1  0.16809661  0.53355626  0.74942169  1
  O  O110  1  0.53355626  0.54892545  0.74942169  1
  O  O111  1  0.04892545  0.03355626  0.24942169  1
  O  O112  1  0.03355626  0.66809661  0.24942169  1
  O  O113  1  0.66809661  0.04892545  0.24942169  1
