# generated using pymatgen
data_Ba2UTiTe7
_symmetry_space_group_name_H-M   'P 1'
_cell_length_a   6.18216007
_cell_length_b   12.70974502
_cell_length_c   18.99342049
_cell_angle_alpha   90.00000000
_cell_angle_beta   90.00000000
_cell_angle_gamma   90.00000000
_symmetry_Int_Tables_number   1
_chemical_formula_structural   Ba2UTiTe7
_chemical_formula_sum   'Ba8 U4 Ti4 Te28'
_cell_volume   1492.38290879
_cell_formula_units_Z   4
loop_
 _symmetry_equiv_pos_site_id
 _symmetry_equiv_pos_as_xyz
  1  'x, y, z'
loop_
 _atom_site_type_symbol
 _atom_site_label
 _atom_site_symmetry_multiplicity
 _atom_site_fract_x
 _atom_site_fract_y
 _atom_site_fract_z
 _atom_site_occupancy
  Ba  Ba0  1  0.75000000  0.17643836  0.55808488  1
  Ba  Ba1  1  0.75000000  0.67643836  0.94191512  1
  Ba  Ba2  1  0.25000000  0.82356164  0.44191512  1
  Ba  Ba3  1  0.25000000  0.32356164  0.05808488  1
  Ba  Ba4  1  0.75000000  0.05476209  0.22323352  1
  Ba  Ba5  1  0.75000000  0.55476209  0.27676648  1
  Ba  Ba6  1  0.25000000  0.94523791  0.77676648  1
  Ba  Ba7  1  0.25000000  0.44523791  0.72323352  1
  U  U8  1  0.75000000  0.20716337  0.87670162  1
  U  U9  1  0.75000000  0.70716337  0.62329838  1
  U  U10  1  0.25000000  0.79283663  0.12329838  1
  U  U11  1  0.25000000  0.29283663  0.37670162  1
  Ti  Ti12  1  -0.00000000  0.50000000  0.50000000  1
  Ti  Ti13  1  0.50000000  -0.00000000  -0.00000000  1
  Ti  Ti14  1  0.50000000  0.50000000  0.50000000  1
  Ti  Ti15  1  -0.00000000  -0.00000000  -0.00000000  1
  Te  Te16  1  0.99825326  0.41936913  0.89818761  1
  Te  Te17  1  0.50174674  0.91936913  0.60181239  1
  Te  Te18  1  0.49825326  0.58063087  0.10181239  1
  Te  Te19  1  0.00174674  0.08063087  0.39818761  1
  Te  Te20  1  0.00174674  0.58063087  0.10181239  1
  Te  Te21  1  0.49825326  0.08063087  0.39818761  1
  Te  Te22  1  0.50174674  0.41936913  0.89818761  1
  Te  Te23  1  0.99825326  0.91936913  0.60181239  1
  Te  Te24  1  0.99776592  0.19207803  0.73301416  1
  Te  Te25  1  0.50223408  0.69207803  0.76698584  1
  Te  Te26  1  0.49776592  0.80792197  0.26698584  1
  Te  Te27  1  0.00223408  0.30792197  0.23301416  1
  Te  Te28  1  0.00223408  0.80792197  0.26698584  1
  Te  Te29  1  0.49776592  0.30792197  0.23301416  1
  Te  Te30  1  0.50223408  0.19207803  0.73301416  1
  Te  Te31  1  0.99776592  0.69207803  0.76698584  1
  Te  Te32  1  0.75000000  0.46090888  0.62292886  1
  Te  Te33  1  0.75000000  0.96090888  0.87707114  1
  Te  Te34  1  0.25000000  0.53909112  0.37707114  1
  Te  Te35  1  0.25000000  0.03909112  0.12292886  1
  Te  Te36  1  0.75000000  0.17833099  0.04020759  1
  Te  Te37  1  0.75000000  0.67833099  0.45979241  1
  Te  Te38  1  0.25000000  0.82166901  0.95979241  1
  Te  Te39  1  0.25000000  0.32166901  0.54020759  1
  Te  Te40  1  0.75000000  0.86013966  0.08441953  1
  Te  Te41  1  0.75000000  0.36013966  0.41558047  1
  Te  Te42  1  0.25000000  0.13986034  0.91558047  1
  Te  Te43  1  0.25000000  0.63986034  0.58441953  1
