# generated using pymatgen
data_LiSb2F7
_symmetry_space_group_name_H-M   'P 1'
_cell_length_a   4.90612026
_cell_length_b   8.90048351
_cell_length_c   14.67474994
_cell_angle_alpha   90.00000000
_cell_angle_beta   90.00000000
_cell_angle_gamma   90.00000000
_symmetry_Int_Tables_number   1
_chemical_formula_structural   LiSb2F7
_chemical_formula_sum   'Li4 Sb8 F28'
_cell_volume   640.79999395
_cell_formula_units_Z   4
loop_
 _symmetry_equiv_pos_site_id
 _symmetry_equiv_pos_as_xyz
  1  'x, y, z'
loop_
 _atom_site_type_symbol
 _atom_site_label
 _atom_site_symmetry_multiplicity
 _atom_site_fract_x
 _atom_site_fract_y
 _atom_site_fract_z
 _atom_site_occupancy
  Li  Li0  1  0.86830697  0.92895516  0.25000000  1
  Li  Li1  1  0.63169303  0.42895516  0.25000000  1
  Li  Li2  1  0.13169303  0.07104484  0.75000000  1
  Li  Li3  1  0.36830697  0.57104484  0.75000000  1
  Sb  Sb4  1  0.31259526  0.11402466  0.39893787  1
  Sb  Sb5  1  0.18740474  0.61402466  0.10106213  1
  Sb  Sb6  1  0.68740474  0.88597534  0.89893787  1
  Sb  Sb7  1  0.81259526  0.38597534  0.60106213  1
  Sb  Sb8  1  0.68740474  0.88597534  0.60106213  1
  Sb  Sb9  1  0.81259526  0.38597534  0.89893787  1
  Sb  Sb10  1  0.31259526  0.11402466  0.10106213  1
  Sb  Sb11  1  0.18740474  0.61402466  0.39893787  1
  F  F12  1  0.61700314  0.00353249  0.34290366  1
  F  F13  1  0.88299686  0.50353249  0.15709634  1
  F  F14  1  0.38299686  0.99646751  0.84290366  1
  F  F15  1  0.11700314  0.49646751  0.65709634  1
  F  F16  1  0.38299686  0.99646751  0.65709634  1
  F  F17  1  0.11700314  0.49646751  0.84290366  1
  F  F18  1  0.61700314  0.00353249  0.15709634  1
  F  F19  1  0.88299686  0.50353249  0.34290366  1
  F  F20  1  0.45248756  0.30402951  0.34692236  1
  F  F21  1  0.04751244  0.80402951  0.15307764  1
  F  F22  1  0.54751244  0.69597049  0.84692236  1
  F  F23  1  0.95248756  0.19597049  0.65307764  1
  F  F24  1  0.54751244  0.69597049  0.65307764  1
  F  F25  1  0.95248756  0.19597049  0.84692236  1
  F  F26  1  0.45248756  0.30402951  0.15307764  1
  F  F27  1  0.04751244  0.80402951  0.34692236  1
  F  F28  1  0.59382566  0.15095765  0.49883994  1
  F  F29  1  0.90617434  0.65095765  0.00116006  1
  F  F30  1  0.40617434  0.84904235  0.99883994  1
  F  F31  1  0.09382566  0.34904235  0.50116006  1
  F  F32  1  0.40617434  0.84904235  0.50116006  1
  F  F33  1  0.09382566  0.34904235  0.99883994  1
  F  F34  1  0.59382566  0.15095765  0.00116006  1
  F  F35  1  0.90617434  0.65095765  0.49883994  1
  F  F36  1  0.14677034  0.09022655  0.25000000  1
  F  F37  1  0.35322966  0.59022655  0.25000000  1
  F  F38  1  0.85322966  0.90977345  0.75000000  1
  F  F39  1  0.64677034  0.40977345  0.75000000  1
