# generated using pymatgen
data_Sm2Co14B
_symmetry_space_group_name_H-M   'P 1'
_cell_length_a   8.61721148
_cell_length_b   8.61721148
_cell_length_c   11.77580806
_cell_angle_alpha   90.00000000
_cell_angle_beta   90.00000000
_cell_angle_gamma   90.00000000
_symmetry_Int_Tables_number   1
_chemical_formula_structural   Sm2Co14B
_chemical_formula_sum   'Sm8 Co56 B4'
_cell_volume   874.42833279
_cell_formula_units_Z   4
loop_
 _symmetry_equiv_pos_site_id
 _symmetry_equiv_pos_as_xyz
  1  'x, y, z'
loop_
 _atom_site_type_symbol
 _atom_site_label
 _atom_site_symmetry_multiplicity
 _atom_site_fract_x
 _atom_site_fract_y
 _atom_site_fract_z
 _atom_site_occupancy
  Sm  Sm0  1  0.22350417  0.77649583  0.50000000  1
  Sm  Sm1  1  0.77649583  0.22350417  0.50000000  1
  Sm  Sm2  1  0.27649583  0.27649583  -0.00000000  1
  Sm  Sm3  1  0.72350417  0.72350417  -0.00000000  1
  Sm  Sm4  1  0.64674534  0.64674534  0.50000000  1
  Sm  Sm5  1  0.35325466  0.35325466  0.50000000  1
  Sm  Sm6  1  0.85325466  0.14674534  -0.00000000  1
  Sm  Sm7  1  0.14674534  0.85325466  -0.00000000  1
  Co  Co8  1  0.00000000  0.50000000  0.50000000  1
  Co  Co9  1  0.50000000  -0.00000000  -0.00000000  1
  Co  Co10  1  0.50000000  -0.00000000  0.50000000  1
  Co  Co11  1  0.00000000  0.50000000  -0.00000000  1
  Co  Co12  1  0.50000000  0.50000000  0.11670697  1
  Co  Co13  1  0.00000000  -0.00000000  0.61670697  1
  Co  Co14  1  0.50000000  0.50000000  0.88329303  1
  Co  Co15  1  0.00000000  -0.00000000  0.38329303  1
  Co  Co16  1  0.18209581  0.81790419  0.25332564  1
  Co  Co17  1  0.81790419  0.18209581  0.25332564  1
  Co  Co18  1  0.31790419  0.31790419  0.75332564  1
  Co  Co19  1  0.68209581  0.68209581  0.75332564  1
  Co  Co20  1  0.81790419  0.18209581  0.74667436  1
  Co  Co21  1  0.18209581  0.81790419  0.74667436  1
  Co  Co22  1  0.68209581  0.68209581  0.24667436  1
  Co  Co23  1  0.31790419  0.31790419  0.24667436  1
  Co  Co24  1  0.40124442  0.59875558  0.29498227  1
  Co  Co25  1  0.59875558  0.40124442  0.29498227  1
  Co  Co26  1  0.09875558  0.09875558  0.79498227  1
  Co  Co27  1  0.90124442  0.90124442  0.79498227  1
  Co  Co28  1  0.59875558  0.40124442  0.70501773  1
  Co  Co29  1  0.40124442  0.59875558  0.70501773  1
  Co  Co30  1  0.90124442  0.90124442  0.20501773  1
  Co  Co31  1  0.09875558  0.09875558  0.20501773  1
  Co  Co32  1  0.13932337  0.53616207  0.32123673  1
  Co  Co33  1  0.86067663  0.46383793  0.32123673  1
  Co  Co34  1  0.36067663  0.03616207  0.82123673  1
  Co  Co35  1  0.63932337  0.96383793  0.82123673  1
  Co  Co36  1  0.86067663  0.46383793  0.67876327  1
  Co  Co37  1  0.13932337  0.53616207  0.67876327  1
  Co  Co38  1  0.63932337  0.96383793  0.17876327  1
  Co  Co39  1  0.36067663  0.03616207  0.17876327  1
  Co  Co40  1  0.53616207  0.13932337  0.32123673  1
  Co  Co41  1  0.46383793  0.86067663  0.32123673  1
  Co  Co42  1  0.03616207  0.36067663  0.82123673  1
  Co  Co43  1  0.96383793  0.63932337  0.82123673  1
  Co  Co44  1  0.46383793  0.86067663  0.67876327  1
  Co  Co45  1  0.53616207  0.13932337  0.67876327  1
  Co  Co46  1  0.96383793  0.63932337  0.17876327  1
  Co  Co47  1  0.03616207  0.36067663  0.17876327  1
  Co  Co48  1  0.93093448  0.72466632  0.37316262  1
  Co  Co49  1  0.06906552  0.27533368  0.37316262  1
  Co  Co50  1  0.56906552  0.22466632  0.87316262  1
  Co  Co51  1  0.43093448  0.77533368  0.87316262  1
  Co  Co52  1  0.06906552  0.27533368  0.62683738  1
  Co  Co53  1  0.93093448  0.72466632  0.62683738  1
  Co  Co54  1  0.43093448  0.77533368  0.12683738  1
  Co  Co55  1  0.56906552  0.22466632  0.12683738  1
  Co  Co56  1  0.72466632  0.93093448  0.37316262  1
  Co  Co57  1  0.27533368  0.06906552  0.37316262  1
  Co  Co58  1  0.22466632  0.56906552  0.87316262  1
  Co  Co59  1  0.77533368  0.43093448  0.87316262  1
  Co  Co60  1  0.27533368  0.06906552  0.62683738  1
  Co  Co61  1  0.72466632  0.93093448  0.62683738  1
  Co  Co62  1  0.77533368  0.43093448  0.12683738  1
  Co  Co63  1  0.22466632  0.56906552  0.12683738  1
  B  B64  1  0.87810518  0.87810518  0.50000000  1
  B  B65  1  0.12189482  0.12189482  0.50000000  1
  B  B66  1  0.62189482  0.37810518  -0.00000000  1
  B  B67  1  0.37810518  0.62189482  -0.00000000  1
