# generated using pymatgen
data_Li2Fe7(OF2)4
_symmetry_space_group_name_H-M   'P 1'
_cell_length_a   8.55067890
_cell_length_b   11.11856906
_cell_length_c   6.35540751
_cell_angle_alpha   73.11425048
_cell_angle_beta   89.97872353
_cell_angle_gamma   67.34079202
_symmetry_Int_Tables_number   1
_chemical_formula_structural   Li2Fe7(OF2)4
_chemical_formula_sum   'Li4 Fe14 O8 F16'
_cell_volume   529.26666277
_cell_formula_units_Z   2
loop_
 _symmetry_equiv_pos_site_id
 _symmetry_equiv_pos_as_xyz
  1  'x, y, z'
loop_
 _atom_site_type_symbol
 _atom_site_label
 _atom_site_symmetry_multiplicity
 _atom_site_fract_x
 _atom_site_fract_y
 _atom_site_fract_z
 _atom_site_occupancy
  Li  Li0  1  0.00002018  0.99588946  0.02196615  1
  Li  Li1  1  0.49986970  0.99496432  0.52189473  1
  Li  Li2  1  0.64565495  0.49605262  0.24282221  1
  Li  Li3  1  0.35821764  0.49760637  0.74316797  1
  Fe  Fe4  1  0.15189662  0.16819479  0.16234703  1
  Fe  Fe5  1  0.97770806  0.52527379  0.98796411  1
  Fe  Fe6  1  0.35513753  0.33996564  0.36469673  1
  Fe  Fe7  1  0.82023259  0.15452598  0.39488243  1
  Fe  Fe8  1  0.17914281  0.67134519  0.19966490  1
  Fe  Fe9  1  0.47597846  0.83158065  0.06728593  1
  Fe  Fe10  1  0.17815099  0.16765578  0.66227212  1
  Fe  Fe11  1  0.99697929  0.52477848  0.48857735  1
  Fe  Fe12  1  0.85336648  0.81891378  0.35005155  1
  Fe  Fe13  1  0.52168123  0.15741733  0.89184867  1
  Fe  Fe14  1  0.64763243  0.67183862  0.69936574  1
  Fe  Fe15  1  0.80450524  0.34019790  0.86451565  1
  Fe  Fe16  1  0.18780147  0.83237492  0.56632278  1
  Fe  Fe17  1  0.82404107  0.81928997  0.85065918  1
  O  O18  1  0.92539240  0.16299524  0.12499434  1
  O  O19  1  0.76304673  0.49759843  0.97465781  1
  O  O20  1  0.92560547  0.67572715  0.15610790  1
  O  O21  1  0.40970431  0.16247470  0.62341248  1
  O  O22  1  0.08114800  0.84172662  0.29382460  1
  O  O23  1  0.23939027  0.49711748  0.47608097  1
  O  O24  1  0.89686936  0.67580736  0.65613373  1
  O  O25  1  0.57339057  0.84182798  0.79463907  1
  F  F26  1  0.39789221  0.17144924  0.17294785  1
  F  F27  1  0.60655130  0.32817307  0.34003148  1
  F  F28  1  0.09103055  0.32688049  0.32823251  1
  F  F29  1  0.43597205  0.65854037  0.18645995  1
  F  F30  1  0.23226483  0.01706544  0.48644214  1
  F  F31  1  0.74916296  0.98304337  0.01626571  1
  F  F32  1  0.76630131  0.49741090  0.51827504  1
  F  F33  1  0.92887066  0.17042578  0.67532268  1
  F  F34  1  0.57732615  0.84152088  0.34904300  1
  F  F35  1  0.76463872  0.98211950  0.51756158  1
  F  F36  1  0.08175211  0.32605732  0.82867077  1
  F  F37  1  0.24798665  0.01712885  0.98706332  1
  F  F38  1  0.56437312  0.32916377  0.84063113  1
  F  F39  1  0.40311796  0.66048508  0.68487820  1
  F  F40  1  0.23579678  0.49898692  0.01892616  1
  F  F41  1  0.07757980  0.84259046  0.84792034  1
