# generated using pymatgen
data_Y5(Ge5Os2)2
_symmetry_space_group_name_H-M   'P 1'
_cell_length_a   4.28804625
_cell_length_b   13.20418884
_cell_length_c   13.20418884
_cell_angle_alpha   90.00000000
_cell_angle_beta   90.00000000
_cell_angle_gamma   90.00000000
_symmetry_Int_Tables_number   1
_chemical_formula_structural   Y5(Ge5Os2)2
_chemical_formula_sum   'Y10 Ge20 Os8'
_cell_volume   747.62344905
_cell_formula_units_Z   2
loop_
 _symmetry_equiv_pos_site_id
 _symmetry_equiv_pos_as_xyz
  1  'x, y, z'
loop_
 _atom_site_type_symbol
 _atom_site_label
 _atom_site_symmetry_multiplicity
 _atom_site_fract_x
 _atom_site_fract_y
 _atom_site_fract_z
 _atom_site_occupancy
  Y  Y0  1  0.00000000  0.50000000  0.50000000  1
  Y  Y1  1  -0.00000000  0.00000000  0.00000000  1
  Y  Y2  1  0.50000000  0.17203580  0.67203580  1
  Y  Y3  1  0.50000000  0.82796420  0.32796420  1
  Y  Y4  1  0.50000000  0.32796420  0.17203580  1
  Y  Y5  1  0.50000000  0.67203580  0.82796420  1
  Y  Y6  1  0.50000000  0.38330075  0.88330075  1
  Y  Y7  1  0.50000000  0.61669925  0.11669925  1
  Y  Y8  1  0.50000000  0.11669925  0.38330075  1
  Y  Y9  1  0.50000000  0.88330075  0.61669925  1
  Ge  Ge10  1  -0.00000000  0.06748660  0.56748660  1
  Ge  Ge11  1  0.00000000  0.93251340  0.43251340  1
  Ge  Ge12  1  0.00000000  0.43251340  0.06748660  1
  Ge  Ge13  1  -0.00000000  0.56748660  0.93251340  1
  Ge  Ge14  1  0.00000000  0.69772337  0.66350174  1
  Ge  Ge15  1  -0.00000000  0.30227663  0.33649826  1
  Ge  Ge16  1  -0.00000000  0.80227663  0.16350174  1
  Ge  Ge17  1  0.00000000  0.19772337  0.83649826  1
  Ge  Ge18  1  -0.00000000  0.66350174  0.30227663  1
  Ge  Ge19  1  0.00000000  0.33649826  0.69772337  1
  Ge  Ge20  1  -0.00000000  0.16350174  0.19772337  1
  Ge  Ge21  1  0.00000000  0.83649826  0.80227663  1
  Ge  Ge22  1  0.50000000  0.50799723  0.65831652  1
  Ge  Ge23  1  0.50000000  0.49200277  0.34168348  1
  Ge  Ge24  1  0.50000000  0.99200277  0.15831652  1
  Ge  Ge25  1  0.50000000  0.00799723  0.84168348  1
  Ge  Ge26  1  0.50000000  0.65831652  0.49200277  1
  Ge  Ge27  1  0.50000000  0.34168348  0.50799723  1
  Ge  Ge28  1  0.50000000  0.15831652  0.00799723  1
  Ge  Ge29  1  0.50000000  0.84168348  0.99200277  1
  Os  Os30  1  -0.00000000  0.51834116  0.74735060  1
  Os  Os31  1  0.00000000  0.48165884  0.25264940  1
  Os  Os32  1  0.00000000  0.98165884  0.24735060  1
  Os  Os33  1  -0.00000000  0.01834116  0.75264940  1
  Os  Os34  1  0.00000000  0.74735060  0.48165884  1
  Os  Os35  1  -0.00000000  0.25264940  0.51834116  1
  Os  Os36  1  0.00000000  0.24735060  0.01834116  1
  Os  Os37  1  -0.00000000  0.75264940  0.98165884  1
