# generated using pymatgen
data_U2B6Mo
_symmetry_space_group_name_H-M   'P 1'
_cell_length_a   3.69632150
_cell_length_b   9.26424331
_cell_length_c   11.35156005
_cell_angle_alpha   90.00000000
_cell_angle_beta   90.00000000
_cell_angle_gamma   90.00000000
_symmetry_Int_Tables_number   1
_chemical_formula_structural   U2B6Mo
_chemical_formula_sum   'U8 B24 Mo4'
_cell_volume   388.71852837
_cell_formula_units_Z   4
loop_
 _symmetry_equiv_pos_site_id
 _symmetry_equiv_pos_as_xyz
  1  'x, y, z'
loop_
 _atom_site_type_symbol
 _atom_site_label
 _atom_site_symmetry_multiplicity
 _atom_site_fract_x
 _atom_site_fract_y
 _atom_site_fract_z
 _atom_site_occupancy
  U  U0  1  -0.00000000  0.33481447  0.40773740  1
  U  U1  1  -0.00000000  0.66518553  0.59226260  1
  U  U2  1  0.00000000  0.83481447  0.09226260  1
  U  U3  1  -0.00000000  0.16518553  0.90773740  1
  U  U4  1  -0.00000000  0.95587693  0.39444908  1
  U  U5  1  -0.00000000  0.04412307  0.60555092  1
  U  U6  1  0.00000000  0.45587693  0.10555092  1
  U  U7  1  0.00000000  0.54412307  0.89444908  1
  B  B8  1  0.50000000  0.54948058  0.43325941  1
  B  B9  1  0.50000000  0.45051942  0.56674059  1
  B  B10  1  0.50000000  0.04948058  0.06674059  1
  B  B11  1  0.50000000  0.95051942  0.93325941  1
  B  B12  1  0.50000000  0.74281085  0.42420957  1
  B  B13  1  0.50000000  0.25718915  0.57579043  1
  B  B14  1  0.50000000  0.24281085  0.07579043  1
  B  B15  1  0.50000000  0.75718915  0.92420957  1
  B  B16  1  0.50000000  0.80303221  0.27264620  1
  B  B17  1  0.50000000  0.19696779  0.72735380  1
  B  B18  1  0.50000000  0.30303221  0.22735380  1
  B  B19  1  0.50000000  0.69696779  0.77264620  1
  B  B20  1  0.50000000  0.64400354  0.18725852  1
  B  B21  1  0.50000000  0.35599646  0.81274148  1
  B  B22  1  0.50000000  0.14400354  0.31274148  1
  B  B23  1  0.50000000  0.85599646  0.68725852  1
  B  B24  1  0.50000000  0.98486156  0.21838461  1
  B  B25  1  0.50000000  0.01513844  0.78161539  1
  B  B26  1  0.50000000  0.48486156  0.28161539  1
  B  B27  1  0.50000000  0.51513844  0.71838461  1
  B  B28  1  0.50000000  0.64191802  0.03920675  1
  B  B29  1  0.50000000  0.35808198  0.96079325  1
  B  B30  1  0.50000000  0.14191802  0.46079325  1
  B  B31  1  0.50000000  0.85808198  0.53920675  1
  Mo  Mo32  1  -0.00000000  0.64443838  0.32009481  1
  Mo  Mo33  1  -0.00000000  0.35556162  0.67990519  1
  Mo  Mo34  1  0.00000000  0.14443838  0.17990519  1
  Mo  Mo35  1  -0.00000000  0.85556162  0.82009481  1
