# generated using pymatgen
data_RbFe2F6
_symmetry_space_group_name_H-M   'P 1'
_cell_length_a   7.13761850
_cell_length_b   7.57743749
_cell_length_c   10.33528860
_cell_angle_alpha   90.00000000
_cell_angle_beta   90.00000000
_cell_angle_gamma   90.00000000
_symmetry_Int_Tables_number   1
_chemical_formula_structural   RbFe2F6
_chemical_formula_sum   'Rb4 Fe8 F24'
_cell_volume   558.98261644
_cell_formula_units_Z   4
loop_
 _symmetry_equiv_pos_site_id
 _symmetry_equiv_pos_as_xyz
  1  'x, y, z'
loop_
 _atom_site_type_symbol
 _atom_site_label
 _atom_site_symmetry_multiplicity
 _atom_site_fract_x
 _atom_site_fract_y
 _atom_site_fract_z
 _atom_site_occupancy
  Rb  Rb0  1  0.49229755  0.25000000  0.12181289  1
  Rb  Rb1  1  0.99229755  0.25000000  0.37818711  1
  Rb  Rb2  1  0.50770245  0.75000000  0.87818711  1
  Rb  Rb3  1  0.00770245  0.75000000  0.62181289  1
  Fe  Fe4  1  0.29717949  0.25000000  0.76830516  1
  Fe  Fe5  1  0.79717949  0.25000000  0.73169484  1
  Fe  Fe6  1  0.70282051  0.75000000  0.23169484  1
  Fe  Fe7  1  0.20282051  0.75000000  0.26830516  1
  Fe  Fe8  1  0.00000000  0.00000000  -0.00000000  1
  Fe  Fe9  1  0.50000000  0.50000000  0.50000000  1
  Fe  Fe10  1  -0.00000000  0.50000000  -0.00000000  1
  Fe  Fe11  1  0.50000000  0.00000000  0.50000000  1
  F  F12  1  0.23818825  0.06297828  0.91917770  1
  F  F13  1  0.73818825  0.43702172  0.58082230  1
  F  F14  1  0.76181175  0.56297828  0.08082230  1
  F  F15  1  0.26181175  0.93702172  0.41917770  1
  F  F16  1  0.76181175  0.93702172  0.08082230  1
  F  F17  1  0.26181175  0.56297828  0.41917770  1
  F  F18  1  0.23818825  0.43702172  0.91917770  1
  F  F19  1  0.73818825  0.06297828  0.58082230  1
  F  F20  1  0.87330870  0.00947386  0.83300768  1
  F  F21  1  0.37330870  0.49052614  0.66699232  1
  F  F22  1  0.12669130  0.50947386  0.16699232  1
  F  F23  1  0.62669130  0.99052614  0.33300768  1
  F  F24  1  0.12669130  0.99052614  0.16699232  1
  F  F25  1  0.62669130  0.50947386  0.33300768  1
  F  F26  1  0.87330870  0.49052614  0.83300768  1
  F  F27  1  0.37330870  0.00947386  0.66699232  1
  F  F28  1  0.93374219  0.25000000  0.03601891  1
  F  F29  1  0.43374219  0.25000000  0.46398109  1
  F  F30  1  0.06625781  0.75000000  0.96398109  1
  F  F31  1  0.56625781  0.75000000  0.53601891  1
  F  F32  1  0.06412285  0.25000000  0.66010475  1
  F  F33  1  0.56412285  0.25000000  0.83989525  1
  F  F34  1  0.93587715  0.75000000  0.33989525  1
  F  F35  1  0.43587715  0.75000000  0.16010475  1
