# generated using pymatgen
data_K2Gd(BH4)5
_symmetry_space_group_name_H-M   'P 1'
_cell_length_a   8.81438277
_cell_length_b   11.82741008
_cell_length_c   12.56976575
_cell_angle_alpha   90.00000000
_cell_angle_beta   90.00000000
_cell_angle_gamma   105.01920258
_symmetry_Int_Tables_number   1
_chemical_formula_structural   K2Gd(BH4)5
_chemical_formula_sum   'K8 Gd4 B20 H80'
_cell_volume   1265.64962965
_cell_formula_units_Z   4
loop_
 _symmetry_equiv_pos_site_id
 _symmetry_equiv_pos_as_xyz
  1  'x, y, z'
loop_
 _atom_site_type_symbol
 _atom_site_label
 _atom_site_symmetry_multiplicity
 _atom_site_fract_x
 _atom_site_fract_y
 _atom_site_fract_z
 _atom_site_occupancy
  K  K0  1  0.42136886  0.65639362  0.04651604  1
  K  K1  1  0.57863114  0.34360638  0.54651604  1
  K  K2  1  0.57863114  0.34360638  0.95348396  1
  K  K3  1  0.42136886  0.65639362  0.45348396  1
  K  K4  1  0.17878627  0.31082745  0.25000000  1
  K  K5  1  0.82121373  0.68917255  0.75000000  1
  K  K6  1  0.00000000  -0.00000000  -0.00000000  1
  K  K7  1  0.00000000  -0.00000000  0.50000000  1
  Gd  Gd8  1  0.13119765  0.37261139  0.75000000  1
  Gd  Gd9  1  0.86880235  0.62738861  0.25000000  1
  Gd  Gd10  1  0.44037939  0.91327075  0.75000000  1
  Gd  Gd11  1  0.55962061  0.08672925  0.25000000  1
  B  B12  1  0.43844962  0.52202783  0.75000000  1
  B  B13  1  0.56155038  0.47797217  0.25000000  1
  B  B14  1  0.87900139  0.43190374  0.75000000  1
  B  B15  1  0.12099861  0.56809626  0.25000000  1
  B  B16  1  0.04466069  0.15143903  0.75000000  1
  B  B17  1  0.95533931  0.84856097  0.25000000  1
  B  B18  1  0.49751962  0.13392775  0.75000000  1
  B  B19  1  0.50248038  0.86607225  0.25000000  1
  B  B20  1  0.20453616  0.40637720  0.98003737  1
  B  B21  1  0.79546384  0.59362280  0.48003737  1
  B  B22  1  0.79546384  0.59362280  0.01996263  1
  B  B23  1  0.20453616  0.40637720  0.51996263  1
  B  B24  1  0.66511998  0.87143689  0.60691706  1
  B  B25  1  0.33488002  0.12856311  0.10691706  1
  B  B26  1  0.33488002  0.12856311  0.39308294  1
  B  B27  1  0.66511998  0.87143689  0.89308294  1
  B  B28  1  0.21763440  0.83083491  0.60085428  1
  B  B29  1  0.78236560  0.16916509  0.10085428  1
  B  B30  1  0.78236560  0.16916509  0.39914572  1
  B  B31  1  0.21763440  0.83083491  0.89914572  1
  H  H32  1  0.31583384  0.55494428  0.75000000  1
  H  H33  1  0.68416616  0.44505572  0.25000000  1
  H  H34  1  0.40405889  0.41194082  0.75000000  1
  H  H35  1  0.59594111  0.58805918  0.25000000  1
  H  H36  1  0.51199912  0.55658714  0.66934969  1
  H  H37  1  0.48800088  0.44341286  0.16934969  1
  H  H38  1  0.48800088  0.44341286  0.33065031  1
  H  H39  1  0.51199912  0.55658714  0.83065031  1
  H  H40  1  0.75496142  0.45667332  0.75000000  1
  H  H41  1  0.24503858  0.54332668  0.25000000  1
  H  H42  1  0.85746319  0.32467128  0.75000000  1
  H  H43  1  0.14253681  0.67532872  0.25000000  1
  H  H44  1  0.95894334  0.47114825  0.67057571  1
  H  H45  1  0.04105666  0.52885175  0.17057571  1
  H  H46  1  0.04105666  0.52885175  0.32942429  1
  H  H47  1  0.95894334  0.47114825  0.82942429  1
  H  H48  1  0.99048115  0.04696637  0.75000000  1
  H  H49  1  0.00951885  0.95303363  0.25000000  1
  H  H50  1  0.19007622  0.18339037  0.75000000  1
  H  H51  1  0.80992378  0.81660963  0.25000000  1
  H  H52  1  -0.00025997  0.19744775  0.67137447  1
  H  H53  1  0.00025997  0.80255225  0.17137447  1
  H  H54  1  0.00025997  0.80255225  0.32862553  1
  H  H55  1  -0.00025997  0.19744775  0.82862553  1
  H  H56  1  0.62155892  0.10437758  0.75000000  1
  H  H57  1  0.37844108  0.89562242  0.25000000  1
  H  H58  1  0.51665606  0.23925838  0.75000000  1
  H  H59  1  0.48334394  0.76074162  0.25000000  1
  H  H60  1  0.42179949  0.08915414  0.67077266  1
  H  H61  1  0.57820051  0.91084586  0.17077266  1
  H  H62  1  0.57820051  0.91084586  0.32922734  1
  H  H63  1  0.42179949  0.08915414  0.82922734  1
  H  H64  1  0.15828954  0.49397998  -0.00555047  1
  H  H65  1  0.84171046  0.50602002  0.49444953  1
  H  H66  1  0.84171046  0.50602002  0.00555047  1
  H  H67  1  0.15828954  0.49397998  0.50555047  1
  H  H68  1  0.09796428  0.31744481  0.98630079  1
  H  H69  1  0.90203572  0.68255519  0.48630079  1
  H  H70  1  0.90203572  0.68255519  0.01369921  1
  H  H71  1  0.09796428  0.31744481  0.51369921  1
  H  H72  1  0.27217065  0.41495310  0.89354303  1
  H  H73  1  0.72782935  0.58504690  0.39354303  1
  H  H74  1  0.72782935  0.58504690  0.10645697  1
  H  H75  1  0.27217065  0.41495310  0.60645697  1
  H  H76  1  0.31201301  0.40249847  0.04117200  1
  H  H77  1  0.68798699  0.59750153  0.54117200  1
  H  H78  1  0.68798699  0.59750153  0.95882800  1
  H  H79  1  0.31201301  0.40249847  0.45882800  1
  H  H80  1  0.79771867  0.87902737  0.63935811  1
  H  H81  1  0.20228133  0.12097263  0.13935811  1
  H  H82  1  0.20228133  0.12097263  0.36064189  1
  H  H83  1  0.79771867  0.87902737  0.86064189  1
  H  H84  1  0.63497591  0.96638569  0.62304265  1
  H  H85  1  0.36502409  0.03361431  0.12304265  1
  H  H86  1  0.36502409  0.03361431  0.37695735  1
  H  H87  1  0.63497591  0.96638569  0.87695735  1
  H  H88  1  0.65193450  0.85116145  0.51205439  1
  H  H89  1  0.34806550  0.14883855  0.01205439  1
  H  H90  1  0.34806550  0.14883855  0.48794561  1
  H  H91  1  0.65193450  0.85116145  0.98794561  1
  H  H92  1  0.57354804  0.79126364  0.65676392  1
  H  H93  1  0.42645196  0.20873636  0.15676392  1
  H  H94  1  0.42645196  0.20873636  0.34323608  1
  H  H95  1  0.57354804  0.79126364  0.84323608  1
  H  H96  1  0.16868305  0.83155970  0.51081933  1
  H  H97  1  0.83131695  0.16844030  0.01081933  1
  H  H98  1  0.83131695  0.16844030  0.48918067  1
  H  H99  1  0.16868305  0.83155970  0.98918067  1
  H  H100  1  0.22399222  0.92620322  0.64505164  1
  H  H101  1  0.77600778  0.07379678  0.14505164  1
  H  H102  1  0.77600778  0.07379678  0.35494836  1
  H  H103  1  0.22399222  0.92620322  0.85494836  1
  H  H104  1  0.14118477  0.75054062  0.65460233  1
  H  H105  1  0.85881523  0.24945938  0.15460233  1
  H  H106  1  0.85881523  0.24945938  0.34539767  1
  H  H107  1  0.14118477  0.75054062  0.84539767  1
  H  H108  1  0.35359506  0.82113016  0.59367962  1
  H  H109  1  0.64640494  0.17886984  0.09367962  1
  H  H110  1  0.64640494  0.17886984  0.40632038  1
  H  H111  1  0.35359506  0.82113016  0.90632038  1
