# generated using pymatgen
data_KBOF2
_symmetry_space_group_name_H-M   'P 1'
_cell_length_a   7.01340535
_cell_length_b   9.88129383
_cell_length_c   11.98994844
_cell_angle_alpha   91.80717318
_cell_angle_beta   90.00000000
_cell_angle_gamma   90.00000000
_symmetry_Int_Tables_number   1
_chemical_formula_structural   KBOF2
_chemical_formula_sum   'K12 B12 O12 F24'
_cell_volume   830.50835538
_cell_formula_units_Z   12
loop_
 _symmetry_equiv_pos_site_id
 _symmetry_equiv_pos_as_xyz
  1  'x, y, z'
loop_
 _atom_site_type_symbol
 _atom_site_label
 _atom_site_symmetry_multiplicity
 _atom_site_fract_x
 _atom_site_fract_y
 _atom_site_fract_z
 _atom_site_occupancy
  K  K0  1  0.42903621  0.79837575  0.07924230  1
  K  K1  1  0.07096379  0.29837575  0.57924230  1
  K  K2  1  0.57096379  0.20162425  0.92075770  1
  K  K3  1  0.92903621  0.70162425  0.42075770  1
  K  K4  1  0.27626370  0.00431489  0.35284212  1
  K  K5  1  0.22373630  0.50431489  0.85284212  1
  K  K6  1  0.72373630  0.99568511  0.64715788  1
  K  K7  1  0.77626370  0.49568511  0.14715788  1
  K  K8  1  0.90550743  0.82437266  0.92743894  1
  K  K9  1  0.59449257  0.32437266  0.42743894  1
  K  K10  1  0.09449257  0.17562734  0.07256106  1
  K  K11  1  0.40550743  0.67562734  0.57256106  1
  B  B12  1  0.76577563  0.01472000  0.36442568  1
  B  B13  1  0.73422437  0.51472000  0.86442568  1
  B  B14  1  0.23422437  0.98528000  0.63557432  1
  B  B15  1  0.26577563  0.48528000  0.13557432  1
  B  B16  1  0.11155909  0.09522459  0.81092897  1
  B  B17  1  0.38844091  0.59522459  0.31092897  1
  B  B18  1  0.88844091  0.90477541  0.18907103  1
  B  B19  1  0.61155909  0.40477541  0.68907103  1
  B  B20  1  0.35397273  0.91000788  0.82119653  1
  B  B21  1  0.14602727  0.41000788  0.32119653  1
  B  B22  1  0.64602727  0.08999212  0.17880347  1
  B  B23  1  0.85397273  0.58999212  0.67880347  1
  O  O24  1  0.91144982  0.94198265  0.30456601  1
  O  O25  1  0.58855018  0.44198265  0.80456601  1
  O  O26  1  0.08855018  0.05801735  0.69543399  1
  O  O27  1  0.41144982  0.55801735  0.19543399  1
  O  O28  1  0.63496503  0.08965476  0.29812626  1
  O  O29  1  0.86503497  0.58965476  0.79812626  1
  O  O30  1  0.36503497  0.91034524  0.70187374  1
  O  O31  1  0.13496503  0.41034524  0.20187374  1
  O  O32  1  0.23888887  0.01347954  0.87408425  1
  O  O33  1  0.26111113  0.51347954  0.37408425  1
  O  O34  1  0.76111113  0.98652046  0.12591575  1
  O  O35  1  0.73888887  0.48652046  0.62591575  1
  F  F36  1  0.54982165  0.92031955  0.86733204  1
  F  F37  1  0.95017835  0.42031955  0.36733204  1
  F  F38  1  0.45017835  0.07968045  0.13266796  1
  F  F39  1  0.04982165  0.57968045  0.63266796  1
  F  F40  1  0.34247448  0.08061589  0.56645001  1
  F  F41  1  0.15752552  0.58061589  0.06645001  1
  F  F42  1  0.65752552  0.91938411  0.43354999  1
  F  F43  1  0.84247448  0.41938411  0.93354999  1
  F  F44  1  0.92062469  0.09224431  0.86468666  1
  F  F45  1  0.57937531  0.59224431  0.36468666  1
  F  F46  1  0.07937531  0.90775569  0.13531334  1
  F  F47  1  0.42062469  0.40775569  0.63531334  1
  F  F48  1  0.32920215  0.73800928  0.32503039  1
  F  F49  1  0.17079785  0.23800928  0.82503039  1
  F  F50  1  0.67079785  0.26199072  0.67496961  1
  F  F51  1  0.82920215  0.76199072  0.17496961  1
  F  F52  1  0.21207617  0.27615438  0.35851230  1
  F  F53  1  0.28792383  0.77615438  0.85851230  1
  F  F54  1  0.78792383  0.72384562  0.64148770  1
  F  F55  1  0.71207617  0.22384562  0.14148770  1
  F  F56  1  0.14654845  0.89252419  0.55131975  1
  F  F57  1  0.35345155  0.39252419  0.05131975  1
  F  F58  1  0.85345155  0.10747581  0.44868025  1
  F  F59  1  0.64654845  0.60747581  0.94868025  1
