# generated using pymatgen
data_Ba4Ta2O9
_symmetry_space_group_name_H-M   'P 1'
_cell_length_a   6.18418721
_cell_length_b   10.70151710
_cell_length_c   16.63961829
_cell_angle_alpha   90.00000000
_cell_angle_beta   90.00000000
_cell_angle_gamma   90.00341924
_symmetry_Int_Tables_number   1
_chemical_formula_structural   Ba4Ta2O9
_chemical_formula_sum   'Ba16 Ta8 O36'
_cell_volume   1101.21301702
_cell_formula_units_Z   4
loop_
 _symmetry_equiv_pos_site_id
 _symmetry_equiv_pos_as_xyz
  1  'x, y, z'
loop_
 _atom_site_type_symbol
 _atom_site_label
 _atom_site_symmetry_multiplicity
 _atom_site_fract_x
 _atom_site_fract_y
 _atom_site_fract_z
 _atom_site_occupancy
  Ba  Ba0  1  0.50254366  0.49927921  0.25227481  1
  Ba  Ba1  1  0.99745634  0.00072079  0.75227481  1
  Ba  Ba2  1  0.49745634  0.50072079  0.74772519  1
  Ba  Ba3  1  0.00254366  0.99927921  0.24772519  1
  Ba  Ba4  1  0.49577992  0.82838245  0.36610431  1
  Ba  Ba5  1  0.00422008  0.67161755  0.86610431  1
  Ba  Ba6  1  0.50422008  0.17161755  0.63389569  1
  Ba  Ba7  1  0.99577992  0.32838245  0.13389569  1
  Ba  Ba8  1  0.01239811  0.34076187  0.36520167  1
  Ba  Ba9  1  0.48760189  0.15923813  0.86520167  1
  Ba  Ba10  1  0.98760189  0.65923813  0.63479833  1
  Ba  Ba11  1  0.51239811  0.84076187  0.13479833  1
  Ba  Ba12  1  0.50000000  0.50000000  0.50000000  1
  Ba  Ba13  1  -0.00000000  -0.00000000  0.00000000  1
  Ba  Ba14  1  -0.00000000  -0.00000000  0.50000000  1
  Ba  Ba15  1  0.50000000  0.50000000  -0.00000000  1
  Ta  Ta16  1  0.48551671  0.83561578  0.65338705  1
  Ta  Ta17  1  0.01448329  0.66438422  0.15338705  1
  Ta  Ta18  1  0.51448329  0.16438422  0.34661295  1
  Ta  Ta19  1  0.98551671  0.33561578  0.84661295  1
  Ta  Ta20  1  0.00363979  0.33022962  0.66462948  1
  Ta  Ta21  1  0.49636021  0.16977038  0.16462948  1
  Ta  Ta22  1  0.99636021  0.66977038  0.33537052  1
  Ta  Ta23  1  0.50363979  0.83022962  0.83537052  1
  O  O24  1  0.06107672  0.52449401  0.24399478  1
  O  O25  1  0.43892328  0.97550599  0.74399478  1
  O  O26  1  0.93892328  0.47550599  0.75600522  1
  O  O27  1  0.56107672  0.02449401  0.25600522  1
  O  O28  1  0.23504612  0.29265076  0.75743806  1
  O  O29  1  0.26495388  0.20734924  0.25743806  1
  O  O30  1  0.76495388  0.70734924  0.24256194  1
  O  O31  1  0.73504612  0.79265076  0.74256194  1
  O  O32  1  0.69193560  0.26661753  0.25098823  1
  O  O33  1  0.80806440  0.23338247  0.75098823  1
  O  O34  1  0.30806440  0.73338247  0.74901177  1
  O  O35  1  0.19193560  0.76661753  0.24901177  1
  O  O36  1  0.43404546  0.31914664  0.39604223  1
  O  O37  1  0.06595454  0.18085336  0.89604223  1
  O  O38  1  0.56595454  0.68085336  0.60395777  1
  O  O39  1  0.93404546  0.81914664  0.10395777  1
  O  O40  1  0.92659519  0.82456067  0.38620463  1
  O  O41  1  0.57340481  0.67543933  0.88620463  1
  O  O42  1  0.07340481  0.17543933  0.61379537  1
  O  O43  1  0.42659519  0.32456067  0.11379537  1
  O  O44  1  0.70785591  0.36305454  0.89300739  1
  O  O45  1  0.79214409  0.13694546  0.39300739  1
  O  O46  1  0.29214409  0.63694546  0.10699261  1
  O  O47  1  0.20785591  0.86305454  0.60699261  1
  O  O48  1  0.24545725  0.88009366  0.89044741  1
  O  O49  1  0.25454275  0.61990634  0.39044741  1
  O  O50  1  0.75454275  0.11990634  0.10955259  1
  O  O51  1  0.74545725  0.38009366  0.60955259  1
  O  O52  1  0.79337385  0.55878751  0.38573966  1
  O  O53  1  0.70662615  0.94121249  0.88573966  1
  O  O54  1  0.20662615  0.44121249  0.61426034  1
  O  O55  1  0.29337385  0.05878751  0.11426034  1
  O  O56  1  0.34153297  0.04955394  0.40532610  1
  O  O57  1  0.15846703  0.45044606  0.90532610  1
  O  O58  1  0.65846703  0.95044606  0.59467390  1
  O  O59  1  0.84153297  0.54955394  0.09467390  1
