# generated using pymatgen
data_Rb7SmFe6(P4O17)2
_symmetry_space_group_name_H-M   'P 1'
_cell_length_a   9.43739336
_cell_length_b   10.03820342
_cell_length_c   10.15917054
_cell_angle_alpha   92.09282475
_cell_angle_beta   93.74803849
_cell_angle_gamma   116.32235016
_symmetry_Int_Tables_number   1
_chemical_formula_structural   Rb7SmFe6(P4O17)2
_chemical_formula_sum   'Rb7 Sm1 Fe6 P8 O34'
_cell_volume   858.47662563
_cell_formula_units_Z   1
loop_
 _symmetry_equiv_pos_site_id
 _symmetry_equiv_pos_as_xyz
  1  'x, y, z'
loop_
 _atom_site_type_symbol
 _atom_site_label
 _atom_site_symmetry_multiplicity
 _atom_site_fract_x
 _atom_site_fract_y
 _atom_site_fract_z
 _atom_site_occupancy
  Rb  Rb0  1  0.07141233  0.20905755  0.34209762  1
  Rb  Rb1  1  0.92858767  0.79094245  0.65790238  1
  Rb  Rb2  1  0.62472624  0.97646022  0.37338499  1
  Rb  Rb3  1  0.37527376  0.02353978  0.62661501  1
  Rb  Rb4  1  0.67607638  0.43840305  0.90392647  1
  Rb  Rb5  1  0.32392362  0.56159695  0.09607353  1
  Rb  Rb6  1  0.50000000  0.00000000  0.00000000  1
  Sm  Sm7  1  0.50000000  0.50000000  0.50000000  1
  Fe  Fe8  1  0.15591986  0.10774515  0.96540655  1
  Fe  Fe9  1  0.84408014  0.89225485  0.03459345  1
  Fe  Fe10  1  0.83462998  0.09426898  0.75490696  1
  Fe  Fe11  1  0.16537002  0.90573102  0.24509304  1
  Fe  Fe12  1  0.84290710  0.42356980  0.27695434  1
  Fe  Fe13  1  0.15709290  0.57643020  0.72304566  1
  P  P14  1  0.78693478  0.33215546  0.57260418  1
  P  P15  1  0.21306522  0.66784454  0.42739582  1
  P  P16  1  0.19427149  0.26357684  0.68972721  1
  P  P17  1  0.80572851  0.73642316  0.31027279  1
  P  P18  1  0.91133448  0.23210581  0.03862288  1
  P  P19  1  0.08866552  0.76789419  0.96137712  1
  P  P20  1  0.55795780  0.75574183  0.78507911  1
  P  P21  1  0.44204220  0.24425817  0.21492089  1
  O  O22  1  0.37476158  0.22119846  0.06708582  1
  O  O23  1  0.62523842  0.77880154  0.93291418  1
  O  O24  1  0.83277841  0.30863016  0.43101897  1
  O  O25  1  0.16722159  0.69136984  0.56898103  1
  O  O26  1  0.01596757  0.15742114  0.64276189  1
  O  O27  1  0.98403243  0.84257886  0.35723811  1
  O  O28  1  0.17958588  0.91426317  0.89211901  1
  O  O29  1  0.82041412  0.08573683  0.10788099  1
  O  O30  1  0.25887876  0.19698394  0.79987771  1
  O  O31  1  0.74112124  0.80301606  0.20012229  1
  O  O32  1  0.93254920  0.00539823  0.87618834  1
  O  O33  1  0.06745080  0.99460177  0.12381166  1
  O  O34  1  0.21272807  0.41705763  0.74471832  1
  O  O35  1  0.78727193  0.58294237  0.25528168  1
  O  O36  1  0.08755116  0.26805313  0.02729960  1
  O  O37  1  0.91244884  0.73194687  0.97270040  1
  O  O38  1  0.61788550  0.27439558  0.21399856  1
  O  O39  1  0.38211450  0.72560442  0.78600144  1
  O  O40  1  0.29190233  0.28337388  0.56940391  1
  O  O41  1  0.70809767  0.71662612  0.43059609  1
  O  O42  1  0.71634057  0.17570929  0.62963608  1
  O  O43  1  0.28365943  0.82429071  0.37036392  1
  O  O44  1  0.65972097  0.38934600  0.56203308  1
  O  O45  1  0.34027903  0.61065400  0.43796692  1
  O  O46  1  0.81871415  0.22032993  0.90099553  1
  O  O47  1  0.18128585  0.77967007  0.09900447  1
  O  O48  1  0.91337509  0.36687583  0.12006294  1
  O  O49  1  0.08662491  0.63312417  0.87993706  1
  O  O50  1  0.57918791  0.62942130  0.71114504  1
  O  O51  1  0.42081209  0.37057870  0.28885496  1
  O  O52  1  0.64400536  0.90352050  0.71343613  1
  O  O53  1  0.35599464  0.09647950  0.28656387  1
  O  O54  1  0.93130745  0.44376582  0.66289745  1
  O  O55  1  0.06869255  0.55623418  0.33710255  1
