# generated using pymatgen
data_EuP7
_symmetry_space_group_name_H-M   'P 1'
_cell_length_a   5.75598109
_cell_length_b   10.71017584
_cell_length_c   11.53712936
_cell_angle_alpha   106.16049856
_cell_angle_beta   90.00000000
_cell_angle_gamma   90.00000000
_symmetry_Int_Tables_number   1
_chemical_formula_structural   EuP7
_chemical_formula_sum   'Eu4 P28'
_cell_volume   683.13206628
_cell_formula_units_Z   4
loop_
 _symmetry_equiv_pos_site_id
 _symmetry_equiv_pos_as_xyz
  1  'x, y, z'
loop_
 _atom_site_type_symbol
 _atom_site_label
 _atom_site_symmetry_multiplicity
 _atom_site_fract_x
 _atom_site_fract_y
 _atom_site_fract_z
 _atom_site_occupancy
  Eu  Eu0  1  0.89297947  0.46236801  0.21448070  1
  Eu  Eu1  1  0.60702053  0.96236801  0.71448070  1
  Eu  Eu2  1  0.10702053  0.53763199  0.78551930  1
  Eu  Eu3  1  0.39297947  0.03763199  0.28551930  1
  P  P4  1  0.54097123  0.42010427  0.41493232  1
  P  P5  1  0.95902877  0.92010427  0.91493232  1
  P  P6  1  0.45902877  0.57989573  0.58506768  1
  P  P7  1  0.04097123  0.07989573  0.08506768  1
  P  P8  1  0.71860885  0.35266718  0.93490654  1
  P  P9  1  0.78139115  0.85266718  0.43490654  1
  P  P10  1  0.28139115  0.64733282  0.06509346  1
  P  P11  1  0.21860885  0.14733282  0.56509346  1
  P  P12  1  0.70712597  0.25377959  0.46979406  1
  P  P13  1  0.79287403  0.75377959  0.96979406  1
  P  P14  1  0.29287403  0.74622041  0.53020594  1
  P  P15  1  0.20712597  0.24622041  0.03020594  1
  P  P16  1  0.70354440  0.17547356  0.13735215  1
  P  P17  1  0.79645560  0.67547356  0.63735215  1
  P  P18  1  0.29645560  0.82452644  0.86264785  1
  P  P19  1  0.20354440  0.32452644  0.36264785  1
  P  P20  1  0.56690519  0.22276363  0.63849783  1
  P  P21  1  0.93309481  0.72276363  0.13849783  1
  P  P22  1  0.43309481  0.77723637  0.36150217  1
  P  P23  1  0.06690519  0.27723637  0.86150217  1
  P  P24  1  0.59506390  0.41358363  0.77783909  1
  P  P25  1  0.90493610  0.91358363  0.27783909  1
  P  P26  1  0.40493610  0.58641637  0.22216091  1
  P  P27  1  0.09506390  0.08641637  0.72216091  1
  P  P28  1  0.55411112  0.16947562  0.95854046  1
  P  P29  1  0.94588888  0.66947562  0.45854046  1
  P  P30  1  0.44588888  0.83052438  0.04145954  1
  P  P31  1  0.05411112  0.33052438  0.54145954  1
