# generated using pymatgen
data_Li2V(OF)2
_symmetry_space_group_name_H-M   'P 1'
_cell_length_a   5.04606285
_cell_length_b   11.23899673
_cell_length_c   5.16359574
_cell_angle_alpha   90.00000000
_cell_angle_beta   88.76518949
_cell_angle_gamma   90.00000000
_symmetry_Int_Tables_number   1
_chemical_formula_structural   Li2V(OF)2
_chemical_formula_sum   'Li8 V4 O8 F8'
_cell_volume   292.77336792
_cell_formula_units_Z   4
loop_
 _symmetry_equiv_pos_site_id
 _symmetry_equiv_pos_as_xyz
  1  'x, y, z'
loop_
 _atom_site_type_symbol
 _atom_site_label
 _atom_site_symmetry_multiplicity
 _atom_site_fract_x
 _atom_site_fract_y
 _atom_site_fract_z
 _atom_site_occupancy
  Li  Li0  1  0.00172347  0.36057908  0.24847752  1
  Li  Li1  1  0.00172347  0.63942092  0.74847752  1
  Li  Li2  1  0.99848516  0.21578029  0.74491601  1
  Li  Li3  1  0.99848516  0.78421971  0.24491601  1
  Li  Li4  1  0.49656380  0.85933613  0.22569870  1
  Li  Li5  1  0.50923680  0.28651480  0.24848895  1
  Li  Li6  1  0.50923680  0.71348520  0.74848895  1
  Li  Li7  1  0.49656380  0.14066387  0.72569870  1
  V  V8  1  0.00570192  0.07341361  0.28632059  1
  V  V9  1  0.00570192  0.92658639  0.78632059  1
  V  V10  1  0.50136616  0.55191839  0.24796473  1
  V  V11  1  0.50136616  0.44808161  0.74796473  1
  O  O12  1  0.19044911  0.05205362  0.59176830  1
  O  O13  1  0.19044911  0.94794638  0.09176830  1
  O  O14  1  0.29059007  0.55246078  0.57473578  1
  O  O15  1  0.29059007  0.44753922  0.07473578  1
  O  O16  1  0.70985128  0.44606319  0.41914155  1
  O  O17  1  0.70985128  0.55393681  0.91914155  1
  O  O18  1  0.78065273  0.18102965  0.40052836  1
  O  O19  1  0.78065273  0.81897035  0.90052836  1
  F  F20  1  0.22468095  0.19318405  0.08967957  1
  F  F21  1  0.22468095  0.80681595  0.58967957  1
  F  F22  1  0.28917468  0.30629496  0.59017968  1
  F  F23  1  0.28917468  0.69370504  0.09017968  1
  F  F24  1  0.71800574  0.30921014  0.90650348  1
  F  F25  1  0.71800574  0.69078986  0.40650348  1
  F  F26  1  0.78351913  0.06534867  0.92559379  1
  F  F27  1  0.78351913  0.93465133  0.42559379  1
