# generated using pymatgen
data_Eu2TiO5
_symmetry_space_group_name_H-M   'P 1'
_cell_length_a   3.80069226
_cell_length_b   10.70309465
_cell_length_c   11.49474576
_cell_angle_alpha   90.00000000
_cell_angle_beta   90.00000000
_cell_angle_gamma   90.00000000
_symmetry_Int_Tables_number   1
_chemical_formula_structural   Eu2TiO5
_chemical_formula_sum   'Eu8 Ti4 O20'
_cell_volume   467.59670532
_cell_formula_units_Z   4
loop_
 _symmetry_equiv_pos_site_id
 _symmetry_equiv_pos_as_xyz
  1  'x, y, z'
loop_
 _atom_site_type_symbol
 _atom_site_label
 _atom_site_symmetry_multiplicity
 _atom_site_fract_x
 _atom_site_fract_y
 _atom_site_fract_z
 _atom_site_occupancy
  Eu  Eu0  1  0.25000000  0.63608937  0.43946087  1
  Eu  Eu1  1  0.25000000  0.13608937  0.06053913  1
  Eu  Eu2  1  0.75000000  0.36391063  0.56053913  1
  Eu  Eu3  1  0.75000000  0.86391063  0.93946087  1
  Eu  Eu4  1  0.75000000  0.89202419  0.28015625  1
  Eu  Eu5  1  0.75000000  0.39202419  0.21984375  1
  Eu  Eu6  1  0.25000000  0.10797581  0.71984375  1
  Eu  Eu7  1  0.25000000  0.60797581  0.78015625  1
  Ti  Ti8  1  0.25000000  0.68033979  0.12306628  1
  Ti  Ti9  1  0.25000000  0.18033979  0.37693372  1
  Ti  Ti10  1  0.75000000  0.31966021  0.87693372  1
  Ti  Ti11  1  0.75000000  0.81966021  0.62306628  1
  O  O12  1  0.75000000  0.50677569  0.39707500  1
  O  O13  1  0.75000000  0.00677569  0.10292500  1
  O  O14  1  0.25000000  0.49322431  0.60292500  1
  O  O15  1  0.25000000  0.99322431  0.89707500  1
  O  O16  1  0.75000000  0.77336291  0.45985481  1
  O  O17  1  0.75000000  0.27336291  0.04014519  1
  O  O18  1  0.25000000  0.22663709  0.54014519  1
  O  O19  1  0.25000000  0.72663709  0.95985481  1
  O  O20  1  0.75000000  0.73234861  0.11762368  1
  O  O21  1  0.75000000  0.23234861  0.38237632  1
  O  O22  1  0.25000000  0.26765139  0.88237632  1
  O  O23  1  0.25000000  0.76765139  0.61762368  1
  O  O24  1  0.25000000  0.76345744  0.26906136  1
  O  O25  1  0.25000000  0.26345744  0.23093864  1
  O  O26  1  0.75000000  0.23654256  0.73093864  1
  O  O27  1  0.75000000  0.73654256  0.76906136  1
  O  O28  1  0.25000000  0.51880603  0.15862463  1
  O  O29  1  0.25000000  0.01880603  0.34137537  1
  O  O30  1  0.75000000  0.48119397  0.84137537  1
  O  O31  1  0.75000000  0.98119397  0.65862463  1
