# generated using pymatgen
data_La13(B2O13)2
_symmetry_space_group_name_H-M   'P 1'
_cell_length_a   6.93503173
_cell_length_b   12.95964290
_cell_length_c   14.73342346
_cell_angle_alpha   90.00000000
_cell_angle_beta   99.53666994
_cell_angle_gamma   90.00000000
_symmetry_Int_Tables_number   1
_chemical_formula_structural   La13(B2O13)2
_chemical_formula_sum   'La26 B8 O52'
_cell_volume   1305.87391400
_cell_formula_units_Z   2
loop_
 _symmetry_equiv_pos_site_id
 _symmetry_equiv_pos_as_xyz
  1  'x, y, z'
loop_
 _atom_site_type_symbol
 _atom_site_label
 _atom_site_symmetry_multiplicity
 _atom_site_fract_x
 _atom_site_fract_y
 _atom_site_fract_z
 _atom_site_occupancy
  La  La0  1  0.00000000  0.50000000  0.50000000  1
  La  La1  1  0.00000000  -0.00000000  0.00000000  1
  La  La2  1  0.51370826  0.39026561  0.58861457  1
  La  La3  1  0.48629174  0.89026561  0.91138543  1
  La  La4  1  0.48629174  0.60973439  0.41138543  1
  La  La5  1  0.51370826  0.10973439  0.08861457  1
  La  La6  1  0.14773962  0.30677634  0.97042759  1
  La  La7  1  0.85226038  0.80677634  0.52957241  1
  La  La8  1  0.85226038  0.69322366  0.02957241  1
  La  La9  1  0.14773962  0.19322366  0.47042759  1
  La  La10  1  0.67517475  0.11204055  0.55815278  1
  La  La11  1  0.32482525  0.61204055  0.94184722  1
  La  La12  1  0.32482525  0.88795945  0.44184722  1
  La  La13  1  0.67517475  0.38795945  0.05815278  1
  La  La14  1  0.62321761  0.19893153  0.84062605  1
  La  La15  1  0.37678239  0.69893153  0.65937395  1
  La  La16  1  0.37678239  0.80106847  0.15937395  1
  La  La17  1  0.62321761  0.30106847  0.34062605  1
  La  La18  1  0.22892148  0.00138971  0.66775962  1
  La  La19  1  0.77107852  0.50138971  0.83224038  1
  La  La20  1  0.77107852  0.99861029  0.33224038  1
  La  La21  1  0.22892148  0.49861029  0.16775962  1
  La  La22  1  0.05392524  0.28809968  0.70091159  1
  La  La23  1  0.94607476  0.78809968  0.79908841  1
  La  La24  1  0.94607476  0.71190032  0.29908841  1
  La  La25  1  0.05392524  0.21190032  0.20091159  1
  B  B26  1  0.13676039  0.09520394  0.83765786  1
  B  B27  1  0.86323961  0.59520394  0.66234214  1
  B  B28  1  0.86323961  0.90479606  0.16234214  1
  B  B29  1  0.13676039  0.40479606  0.33765786  1
  B  B30  1  0.32487467  0.44922206  0.79006357  1
  B  B31  1  0.67512533  0.94922206  0.70993643  1
  B  B32  1  0.67512533  0.55077794  0.20993643  1
  B  B33  1  0.32487467  0.05077794  0.29006357  1
  O  O34  1  0.00987175  0.64720373  0.62844819  1
  O  O35  1  0.99012825  0.14720373  0.87155181  1
  O  O36  1  0.99012825  0.35279627  0.37155181  1
  O  O37  1  0.00987175  0.85279627  0.12844819  1
  O  O38  1  0.15886046  0.98865792  0.84726259  1
  O  O39  1  0.84113954  0.48865792  0.65273741  1
  O  O40  1  0.84113954  0.01134208  0.15273741  1
  O  O41  1  0.15886046  0.51134208  0.34726259  1
  O  O42  1  0.26228390  0.15036774  0.79072296  1
  O  O43  1  0.73771610  0.65036774  0.70927704  1
  O  O44  1  0.73771610  0.84963226  0.20927704  1
  O  O45  1  0.26228390  0.34963226  0.29072296  1
  O  O46  1  0.42136807  0.36704603  0.75721992  1
  O  O47  1  0.57863193  0.86704603  0.74278008  1
  O  O48  1  0.57863193  0.63295397  0.24278008  1
  O  O49  1  0.42136807  0.13295397  0.25721992  1
  O  O50  1  0.59539571  0.04716780  0.71331014  1
  O  O51  1  0.40460429  0.54716780  0.78668986  1
  O  O52  1  0.40460429  0.95283220  0.28668986  1
  O  O53  1  0.59539571  0.45283220  0.21331014  1
  O  O54  1  0.15466091  0.43102022  0.82697289  1
  O  O55  1  0.84533909  0.93102022  0.67302711  1
  O  O56  1  0.84533909  0.56897978  0.17302711  1
  O  O57  1  0.15466091  0.06897978  0.32697289  1
  O  O58  1  0.16234210  0.34561981  0.57013841  1
  O  O59  1  0.83765790  0.84561981  0.92986159  1
  O  O60  1  0.83765790  0.65438019  0.42986159  1
  O  O61  1  0.16234210  0.15438019  0.07013841  1
  O  O62  1  0.34533233  0.55365225  0.54829581  1
  O  O63  1  0.65466767  0.05365225  0.95170419  1
  O  O64  1  0.65466767  0.44634775  0.45170419  1
  O  O65  1  0.34533233  0.94634775  0.04829581  1
  O  O66  1  0.72159241  0.26186917  0.67973004  1
  O  O67  1  0.27840759  0.76186917  0.82026996  1
  O  O68  1  0.27840759  0.73813083  0.32026996  1
  O  O69  1  0.72159241  0.23813083  0.17973004  1
  O  O70  1  0.02523139  0.13857455  0.60609532  1
  O  O71  1  0.97476861  0.63857455  0.89390468  1
  O  O72  1  0.97476861  0.86142545  0.39390468  1
  O  O73  1  0.02523139  0.36142545  0.10609532  1
  O  O74  1  0.48284598  0.24905119  0.98207330  1
  O  O75  1  0.51715402  0.74905119  0.51792670  1
  O  O76  1  0.51715402  0.75094881  0.01792670  1
  O  O77  1  0.48284598  0.25094881  0.48207330  1
  O  O78  1  0.19114551  0.84382154  0.58992902  1
  O  O79  1  0.80885449  0.34382154  0.91007098  1
  O  O80  1  0.80885449  0.15617846  0.41007098  1
  O  O81  1  0.19114551  0.65617846  0.08992902  1
  O  O82  1  0.33468266  0.04618477  0.53307947  1
  O  O83  1  0.66531734  0.54618477  0.96692053  1
  O  O84  1  0.66531734  0.95381523  0.46692053  1
  O  O85  1  0.33468266  0.45381523  0.03307947  1
