# generated using pymatgen
data_Ba2U(AsO5)2
_symmetry_space_group_name_H-M   'P 1'
_cell_length_a   8.91421345
_cell_length_b   11.38750272
_cell_length_c   21.67109104
_cell_angle_alpha   104.88150367
_cell_angle_beta   90.00000000
_cell_angle_gamma   90.00000000
_symmetry_Int_Tables_number   1
_chemical_formula_structural   Ba2U(AsO5)2
_chemical_formula_sum   'Ba16 U8 As16 O80'
_cell_volume   2126.06114515
_cell_formula_units_Z   8
loop_
 _symmetry_equiv_pos_site_id
 _symmetry_equiv_pos_as_xyz
  1  'x, y, z'
loop_
 _atom_site_type_symbol
 _atom_site_label
 _atom_site_symmetry_multiplicity
 _atom_site_fract_x
 _atom_site_fract_y
 _atom_site_fract_z
 _atom_site_occupancy
  Ba  Ba0  1  0.98474899  0.77404817  0.21925827  1
  Ba  Ba1  1  0.51525101  0.27404817  0.71925827  1
  Ba  Ba2  1  0.01525101  0.22595183  0.78074173  1
  Ba  Ba3  1  0.48474899  0.72595183  0.28074173  1
  Ba  Ba4  1  0.70442239  0.45880526  0.94419516  1
  Ba  Ba5  1  0.79557761  0.95880526  0.44419516  1
  Ba  Ba6  1  0.29557761  0.54119474  0.05580484  1
  Ba  Ba7  1  0.20442239  0.04119474  0.55580484  1
  Ba  Ba8  1  0.00202682  0.23890813  0.28135752  1
  Ba  Ba9  1  0.49797318  0.73890813  0.78135752  1
  Ba  Ba10  1  0.99797318  0.76109187  0.71864248  1
  Ba  Ba11  1  0.50202682  0.26109187  0.21864248  1
  Ba  Ba12  1  0.70165520  0.47508410  0.43708712  1
  Ba  Ba13  1  0.79834480  0.97508410  0.93708712  1
  Ba  Ba14  1  0.29834480  0.52491590  0.56291288  1
  Ba  Ba15  1  0.20165520  0.02491590  0.06291288  1
  U  U16  1  0.90428601  0.35531245  0.10659570  1
  U  U17  1  0.59571399  0.85531245  0.60659570  1
  U  U18  1  0.09571399  0.64468755  0.89340430  1
  U  U19  1  0.40428601  0.14468755  0.39340430  1
  U  U20  1  0.09398158  0.62375725  0.37311501  1
  U  U21  1  0.40601842  0.12375725  0.87311501  1
  U  U22  1  0.90601842  0.37624275  0.62688499  1
  U  U23  1  0.59398158  0.87624275  0.12688499  1
  As  As24  1  0.77820106  0.51453953  0.79050712  1
  As  As25  1  0.72179894  0.01453953  0.29050712  1
  As  As26  1  0.22179894  0.48546047  0.20949288  1
  As  As27  1  0.27820106  0.98546047  0.70949288  1
  As  As28  1  0.26352144  0.99676312  0.22886464  1
  As  As29  1  0.23647856  0.49676312  0.72886464  1
  As  As30  1  0.73647856  0.00323688  0.77113536  1
  As  As31  1  0.76352144  0.50323688  0.27113536  1
  As  As32  1  0.96400894  0.73700742  0.53532914  1
  As  As33  1  0.53599106  0.23700742  0.03532914  1
  As  As34  1  0.03599106  0.26299258  0.46467086  1
  As  As35  1  0.46400894  0.76299258  0.96467086  1
  As  As36  1  0.04439676  0.23831798  0.95137681  1
  As  As37  1  0.45560324  0.73831798  0.45137681  1
  As  As38  1  0.95560324  0.76168202  0.04862319  1
  As  As39  1  0.54439676  0.26168202  0.54862319  1
  O  O40  1  0.91885264  0.50423544  0.84554711  1
  O  O41  1  0.58114736  0.00423544  0.34554711  1
  O  O42  1  0.08114736  0.49576456  0.15445289  1
  O  O43  1  0.41885264  0.99576456  0.65445289  1
  O  O44  1  0.29890170  0.12443619  0.29248250  1
  O  O45  1  0.20109830  0.62443619  0.79248250  1
  O  O46  1  0.70109830  0.87556381  0.70751750  1
  O  O47  1  0.79890170  0.37556381  0.20751750  1
  O  O48  1  0.40395965  0.00859486  0.17418794  1
  O  O49  1  0.09604035  0.50859486  0.67418794  1
  O  O50  1  0.59604035  0.99140514  0.82581206  1
  O  O51  1  0.90395965  0.49140514  0.32581206  1
  O  O52  1  0.78347894  0.64565732  0.76737448  1
  O  O53  1  0.71652106  0.14565732  0.26737448  1
  O  O54  1  0.21652106  0.35434268  0.23262552  1
  O  O55  1  0.28347894  0.85434268  0.73262552  1
  O  O56  1  0.09647696  0.02051442  0.19583627  1
  O  O57  1  0.40352304  0.52051442  0.69583627  1
  O  O58  1  0.90352304  0.97948558  0.80416373  1
  O  O59  1  0.59647696  0.47948558  0.30416373  1
  O  O60  1  0.82098244  0.38649085  0.72819516  1
  O  O61  1  0.67901756  0.88649085  0.22819516  1
  O  O62  1  0.17901756  0.61350915  0.27180484  1
  O  O63  1  0.32098244  0.11350915  0.77180484  1
  O  O64  1  0.26962791  0.86478502  0.25106077  1
  O  O65  1  0.23037209  0.36478502  0.75106077  1
  O  O66  1  0.73037209  0.13521498  0.74893923  1
  O  O67  1  0.76962791  0.63521498  0.24893923  1
  O  O68  1  0.98414253  0.75719313  0.36568870  1
  O  O69  1  0.51585747  0.25719313  0.86568870  1
  O  O70  1  0.01585747  0.24280687  0.63431130  1
  O  O71  1  0.48414253  0.74280687  0.13431130  1
  O  O72  1  0.01206109  0.22839122  0.12287353  1
  O  O73  1  0.48793891  0.72839122  0.62287353  1
  O  O74  1  0.98793891  0.77160878  0.87712647  1
  O  O75  1  0.51206109  0.27160878  0.37712647  1
  O  O76  1  0.20124542  0.24188075  0.90435150  1
  O  O77  1  0.29875458  0.74188075  0.40435150  1
  O  O78  1  0.79875458  0.75811925  0.09564850  1
  O  O79  1  0.70124542  0.25811925  0.59564850  1
  O  O80  1  0.04349665  0.10952070  0.97758168  1
  O  O81  1  0.45650335  0.60952070  0.47758168  1
  O  O82  1  0.95650335  0.89047930  0.02241832  1
  O  O83  1  0.54349665  0.39047930  0.52241832  1
  O  O84  1  0.98243504  0.61667785  0.46689078  1
  O  O85  1  0.51756496  0.11667785  0.96689078  1
  O  O86  1  0.01756496  0.38332215  0.53310922  1
  O  O87  1  0.48243504  0.88332215  0.03310922  1
  O  O88  1  0.61055220  0.48516828  0.82065596  1
  O  O89  1  0.88944780  0.98516828  0.32065596  1
  O  O90  1  0.38944780  0.51483172  0.17934404  1
  O  O91  1  0.11055220  0.01483172  0.67934404  1
  O  O92  1  0.19644282  0.48748923  0.37592683  1
  O  O93  1  0.30355718  0.98748923  0.87592683  1
  O  O94  1  0.80355718  0.51251077  0.62407317  1
  O  O95  1  0.69644282  0.01251077  0.12407317  1
  O  O96  1  0.99834304  0.86846898  0.51400456  1
  O  O97  1  0.50165696  0.36846898  0.01400456  1
  O  O98  1  0.00165696  0.13153102  0.48599544  1
  O  O99  1  0.49834304  0.63153102  0.98599544  1
  O  O100  1  0.05199652  0.36132530  0.01879118  1
  O  O101  1  0.44800348  0.86132530  0.51879118  1
  O  O102  1  0.94800348  0.63867470  0.98120882  1
  O  O103  1  0.55199652  0.13867470  0.48120882  1
  O  O104  1  0.79608669  0.47889459  0.08911384  1
  O  O105  1  0.70391331  0.97889459  0.58911384  1
  O  O106  1  0.20391331  0.52110541  0.91088616  1
  O  O107  1  0.29608669  0.02110541  0.41088616  1
  O  O108  1  0.08056075  0.71084314  0.59239964  1
  O  O109  1  0.41943925  0.21084314  0.09239964  1
  O  O110  1  0.91943925  0.28915686  0.40760036  1
  O  O111  1  0.58056075  0.78915686  0.90760036  1
  O  O112  1  0.88985065  0.25283860  0.90717764  1
  O  O113  1  0.61014935  0.75283860  0.40717764  1
  O  O114  1  0.11014935  0.74716140  0.09282236  1
  O  O115  1  0.38985065  0.24716140  0.59282236  1
  O  O116  1  0.77587487  0.72776670  0.55634514  1
  O  O117  1  0.72412513  0.22776670  0.05634514  1
  O  O118  1  0.22412513  0.27223330  0.44365486  1
  O  O119  1  0.27587487  0.77223330  0.94365486  1
