# generated using pymatgen
data_ScH7(NO5)2
_symmetry_space_group_name_H-M   'P 1'
_cell_length_a   7.63873551
_cell_length_b   8.03440372
_cell_length_c   8.71856712
_cell_angle_alpha   68.04633679
_cell_angle_beta   90.83163297
_cell_angle_gamma   66.95110908
_symmetry_Int_Tables_number   1
_chemical_formula_structural   ScH7(NO5)2
_chemical_formula_sum   'Sc2 H14 N4 O20'
_cell_volume   448.47602251
_cell_formula_units_Z   2
loop_
 _symmetry_equiv_pos_site_id
 _symmetry_equiv_pos_as_xyz
  1  'x, y, z'
loop_
 _atom_site_type_symbol
 _atom_site_label
 _atom_site_symmetry_multiplicity
 _atom_site_fract_x
 _atom_site_fract_y
 _atom_site_fract_z
 _atom_site_occupancy
  Sc  Sc0  1  0.80815924  0.14665869  0.34184701  1
  Sc  Sc1  1  0.19184076  0.85334131  0.65815299  1
  H  H2  1  0.92997006  0.75053337  0.53998655  1
  H  H3  1  0.07002994  0.24946663  0.46001345  1
  H  H4  1  0.85507226  0.51469919  0.17895065  1
  H  H5  1  0.14492774  0.48530081  0.82104935  1
  H  H6  1  0.65806774  0.54160405  0.08753271  1
  H  H7  1  0.34193226  0.45839595  0.91246729  1
  H  H8  1  0.06705609  0.94540004  0.17543388  1
  H  H9  1  0.93294391  0.05459996  0.82456612  1
  H  H10  1  0.98446115  0.17649469  0.04965030  1
  H  H11  1  0.01553885  0.82350531  0.95034970  1
  H  H12  1  0.46786281  0.30571498  0.47522648  1
  H  H13  1  0.53213719  0.69428502  0.52477352  1
  H  H14  1  0.65396933  0.28415651  0.58400789  1
  H  H15  1  0.34603067  0.71584349  0.41599211  1
  N  N16  1  0.51146202  0.12403588  0.18650993  1
  N  N17  1  0.48853798  0.87596412  0.81349007  1
  N  N18  1  0.15309139  0.58226379  0.26240988  1
  N  N19  1  0.84690861  0.41773621  0.73759012  1
  O  O20  1  0.97935186  0.85184591  0.51078508  1
  O  O21  1  0.02064814  0.14815409  0.48921492  1
  O  O22  1  0.63787972  0.97993809  0.31468578  1
  O  O23  1  0.36212028  0.02006191  0.68531422  1
  O  O24  1  0.53054934  0.28939271  0.13857089  1
  O  O25  1  0.46945066  0.71060729  0.86142911  1
  O  O26  1  0.38325896  0.10987555  0.11364063  1
  O  O27  1  0.61674104  0.89012445  0.88635937  1
  O  O28  1  0.76200627  0.45480019  0.18692341  1
  O  O29  1  0.23799373  0.54519981  0.81307659  1
  O  O30  1  0.96823823  0.08066860  0.15298905  1
  O  O31  1  0.03176177  0.91933140  0.84701095  1
  O  O32  1  0.61082609  0.24995776  0.49672839  1
  O  O33  1  0.38917391  0.75004224  0.50327161  1
  O  O34  1  0.21215234  0.41752080  0.38833815  1
  O  O35  1  0.78784766  0.58247920  0.61166185  1
  O  O36  1  0.01471533  0.63372486  0.14710616  1
  O  O37  1  0.98528467  0.36627514  0.85289384  1
  O  O38  1  0.23217375  0.69903059  0.24842910  1
  O  O39  1  0.76782625  0.30096941  0.75157090  1
