# generated using pymatgen
data_Cs3B3Se10
_symmetry_space_group_name_H-M   'P 1'
_cell_length_a   7.88005669
_cell_length_b   8.77252569
_cell_length_c   15.67438433
_cell_angle_alpha   73.21431729
_cell_angle_beta   84.23405369
_cell_angle_gamma   77.70019487
_symmetry_Int_Tables_number   1
_chemical_formula_structural   Cs3B3Se10
_chemical_formula_sum   'Cs6 B6 Se20'
_cell_volume   1012.68078036
_cell_formula_units_Z   2
loop_
 _symmetry_equiv_pos_site_id
 _symmetry_equiv_pos_as_xyz
  1  'x, y, z'
loop_
 _atom_site_type_symbol
 _atom_site_label
 _atom_site_symmetry_multiplicity
 _atom_site_fract_x
 _atom_site_fract_y
 _atom_site_fract_z
 _atom_site_occupancy
  Cs  Cs0  1  0.66364666  0.68710373  0.48433237  1
  Cs  Cs1  1  0.33635334  0.31289627  0.51566763  1
  Cs  Cs2  1  0.25570366  0.33567919  0.14232113  1
  Cs  Cs3  1  0.74429634  0.66432081  0.85767887  1
  Cs  Cs4  1  0.04080077  0.84636756  0.21629384  1
  Cs  Cs5  1  0.95919923  0.15363244  0.78370616  1
  B  B6  1  0.61227349  0.80417696  0.09334480  1
  B  B7  1  0.38772651  0.19582304  0.90665520  1
  B  B8  1  0.72932632  0.45821984  0.23689438  1
  B  B9  1  0.27067368  0.54178016  0.76310562  1
  B  B10  1  0.90339537  0.19353524  0.40747288  1
  B  B11  1  0.09660463  0.80646476  0.59252712  1
  Se  Se12  1  0.76434793  0.96430899  0.01987429  1
  Se  Se13  1  0.23565207  0.03569101  0.98012571  1
  Se  Se14  1  0.42009669  0.77001795  0.02553371  1
  Se  Se15  1  0.57990331  0.22998205  0.97446629  1
  Se  Se16  1  0.53826636  0.84070326  0.21733109  1
  Se  Se17  1  0.46173364  0.15929674  0.78266891  1
  Se  Se18  1  0.79378377  0.58858136  0.10941324  1
  Se  Se19  1  0.20621623  0.41141864  0.89058676  1
  Se  Se20  1  0.49079172  0.56977120  0.28132649  1
  Se  Se21  1  0.50920828  0.43022880  0.71867351  1
  Se  Se22  1  0.71091708  0.23825128  0.22141305  1
  Se  Se23  1  0.28908292  0.76174872  0.77858695  1
  Se  Se24  1  0.92253177  0.42397537  0.32798610  1
  Se  Se25  1  0.07746823  0.57602463  0.67201390  1
  Se  Se26  1  0.69556017  0.11235765  0.37810171  1
  Se  Se27  1  0.30443983  0.88764235  0.62189829  1
  Se  Se28  1  0.85695429  0.21216717  0.53609609  1
  Se  Se29  1  0.14304571  0.78783283  0.46390391  1
  Se  Se30  1  0.14435058  0.06855894  0.37919943  1
  Se  Se31  1  0.85564942  0.93144106  0.62080057  1
