# generated using pymatgen
data_Mn3P4H2(PbO8)2
_symmetry_space_group_name_H-M   'P 1'
_cell_length_a   8.07851653
_cell_length_b   9.00288494
_cell_length_c   9.71874384
_cell_angle_alpha   90.00000000
_cell_angle_beta   100.98798167
_cell_angle_gamma   90.00000000
_symmetry_Int_Tables_number   1
_chemical_formula_structural   Mn3P4H2(PbO8)2
_chemical_formula_sum   'Mn6 P8 H4 Pb4 O32'
_cell_volume   693.88536427
_cell_formula_units_Z   2
loop_
 _symmetry_equiv_pos_site_id
 _symmetry_equiv_pos_as_xyz
  1  'x, y, z'
loop_
 _atom_site_type_symbol
 _atom_site_label
 _atom_site_symmetry_multiplicity
 _atom_site_fract_x
 _atom_site_fract_y
 _atom_site_fract_z
 _atom_site_occupancy
  Mn  Mn0  1  -0.00000000  -0.00000000  -0.00000000  1
  Mn  Mn1  1  -0.00000000  0.50000000  0.50000000  1
  Mn  Mn2  1  0.10753901  0.36201659  0.09176877  1
  Mn  Mn3  1  0.89246099  0.86201659  0.40823123  1
  Mn  Mn4  1  0.89246099  0.63798341  0.90823123  1
  Mn  Mn5  1  0.10753901  0.13798341  0.59176877  1
  P  P6  1  0.14094355  0.79547410  0.73221171  1
  P  P7  1  0.85905645  0.29547410  0.76778829  1
  P  P8  1  0.85905645  0.20452590  0.26778829  1
  P  P9  1  0.14094355  0.70452590  0.23221171  1
  P  P10  1  0.65979280  0.79377135  0.06753070  1
  P  P11  1  0.34020720  0.29377135  0.43246930  1
  P  P12  1  0.34020720  0.20622865  0.93246930  1
  P  P13  1  0.65979280  0.70622865  0.56753070  1
  H  H14  1  0.39767602  0.82968641  0.93152649  1
  H  H15  1  0.60232398  0.32968641  0.56847351  1
  H  H16  1  0.60232398  0.17031359  0.06847351  1
  H  H17  1  0.39767602  0.67031359  0.43152649  1
  Pb  Pb18  1  0.40685622  0.97215718  0.25276731  1
  Pb  Pb19  1  0.59314378  0.47215718  0.24723269  1
  Pb  Pb20  1  0.59314378  0.02784282  0.74723269  1
  Pb  Pb21  1  0.40685622  0.52784282  0.75276731  1
  O  O22  1  0.04702553  0.81781426  0.85579073  1
  O  O23  1  0.95297447  0.31781426  0.64420927  1
  O  O24  1  0.95297447  0.18218574  0.14420927  1
  O  O25  1  0.04702553  0.68218574  0.35579073  1
  O  O26  1  0.07473490  0.90312677  0.60942403  1
  O  O27  1  0.92526510  0.40312677  0.89057597  1
  O  O28  1  0.92526510  0.09687323  0.39057597  1
  O  O29  1  0.07473490  0.59687323  0.10942403  1
  O  O30  1  0.11705368  0.63114258  0.68083421  1
  O  O31  1  0.88294632  0.13114258  0.81916579  1
  O  O32  1  0.88294632  0.36885742  0.31916579  1
  O  O33  1  0.11705368  0.86885742  0.18083421  1
  O  O34  1  0.33580497  0.81527216  0.78647569  1
  O  O35  1  0.66419503  0.31527216  0.71352431  1
  O  O36  1  0.66419503  0.18472784  0.21352431  1
  O  O37  1  0.33580497  0.68472784  0.28647569  1
  O  O38  1  0.70894071  0.82568886  0.22442509  1
  O  O39  1  0.29105929  0.32568886  0.27557491  1
  O  O40  1  0.29105929  0.17431114  0.77557491  1
  O  O41  1  0.70894071  0.67431114  0.72442509  1
  O  O42  1  0.75328552  0.89087360  0.97477177  1
  O  O43  1  0.24671448  0.39087360  0.52522823  1
  O  O44  1  0.24671448  0.10912640  0.02522823  1
  O  O45  1  0.75328552  0.60912640  0.47477177  1
  O  O46  1  0.67968622  0.62907357  0.02826455  1
  O  O47  1  0.32031378  0.12907357  0.47173545  1
  O  O48  1  0.32031378  0.37092643  0.97173545  1
  O  O49  1  0.67968622  0.87092643  0.52826455  1
  O  O50  1  0.46394126  0.83677478  0.03693954  1
  O  O51  1  0.53605874  0.33677478  0.46306046  1
  O  O52  1  0.53605874  0.16322522  0.96306046  1
  O  O53  1  0.46394126  0.66322522  0.53693954  1
