# generated using pymatgen
data_Mn2PHO3F2
_symmetry_space_group_name_H-M   'P 1'
_cell_length_a   5.69336960
_cell_length_b   7.67101702
_cell_length_c   10.32440012
_cell_angle_alpha   90.00000000
_cell_angle_beta   90.00000000
_cell_angle_gamma   90.00000000
_symmetry_Int_Tables_number   1
_chemical_formula_structural   Mn2PHO3F2
_chemical_formula_sum   'Mn8 P4 H4 O12 F8'
_cell_volume   450.90718082
_cell_formula_units_Z   4
loop_
 _symmetry_equiv_pos_site_id
 _symmetry_equiv_pos_as_xyz
  1  'x, y, z'
loop_
 _atom_site_type_symbol
 _atom_site_label
 _atom_site_symmetry_multiplicity
 _atom_site_fract_x
 _atom_site_fract_y
 _atom_site_fract_z
 _atom_site_occupancy
  Mn  Mn0  1  0.25007907  0.59798357  0.43989285  1
  Mn  Mn1  1  0.24992093  0.09798357  0.06010715  1
  Mn  Mn2  1  0.74992093  0.40201643  0.93989285  1
  Mn  Mn3  1  0.75007907  0.90201643  0.56010715  1
  Mn  Mn4  1  0.74992093  0.40201643  0.56010715  1
  Mn  Mn5  1  0.75007907  0.90201643  0.93989285  1
  Mn  Mn6  1  0.25007907  0.59798357  0.06010715  1
  Mn  Mn7  1  0.24992093  0.09798357  0.43989285  1
  P  P8  1  0.42818753  0.66289128  0.75000000  1
  P  P9  1  0.07181247  0.16289128  0.75000000  1
  P  P10  1  0.57181247  0.33710872  0.25000000  1
  P  P11  1  0.92818753  0.83710872  0.25000000  1
  H  H12  1  0.20208430  0.73407221  0.75000000  1
  H  H13  1  0.29791570  0.23407221  0.75000000  1
  H  H14  1  0.79791570  0.26592779  0.25000000  1
  H  H15  1  0.70208430  0.76592779  0.25000000  1
  O  O16  1  0.44947509  0.55103047  0.62618748  1
  O  O17  1  0.05052491  0.05103047  0.87381252  1
  O  O18  1  0.55052491  0.44896953  0.12618748  1
  O  O19  1  0.94947509  0.94896953  0.37381252  1
  O  O20  1  0.55052491  0.44896953  0.37381252  1
  O  O21  1  0.94947509  0.94896953  0.12618748  1
  O  O22  1  0.44947509  0.55103047  0.87381252  1
  O  O23  1  0.05052491  0.05103047  0.62618748  1
  O  O24  1  0.10640631  0.68371151  0.25000000  1
  O  O25  1  0.39359369  0.18371151  0.25000000  1
  O  O26  1  0.89359369  0.31628849  0.75000000  1
  O  O27  1  0.60640631  0.81628849  0.75000000  1
  F  F28  1  0.42663112  0.84575109  0.45657853  1
  F  F29  1  0.07336888  0.34575109  0.04342147  1
  F  F30  1  0.57336888  0.15424891  0.95657853  1
  F  F31  1  0.92663112  0.65424891  0.54342147  1
  F  F32  1  0.57336888  0.15424891  0.54342147  1
  F  F33  1  0.92663112  0.65424891  0.95657853  1
  F  F34  1  0.42663112  0.84575109  0.04342147  1
  F  F35  1  0.07336888  0.34575109  0.45657853  1
