# generated using pymatgen
data_La16Sn3Rh8
_symmetry_space_group_name_H-M   'P 1'
_cell_length_a   9.92444606
_cell_length_b   12.30269633
_cell_length_c   12.30269633
_cell_angle_alpha   90.00000000
_cell_angle_beta   90.00000000
_cell_angle_gamma   90.00000000
_symmetry_Int_Tables_number   1
_chemical_formula_structural   La16Sn3Rh8
_chemical_formula_sum   'La32 Sn6 Rh16'
_cell_volume   1502.12780228
_cell_formula_units_Z   2
loop_
 _symmetry_equiv_pos_site_id
 _symmetry_equiv_pos_as_xyz
  1  'x, y, z'
loop_
 _atom_site_type_symbol
 _atom_site_label
 _atom_site_symmetry_multiplicity
 _atom_site_fract_x
 _atom_site_fract_y
 _atom_site_fract_z
 _atom_site_occupancy
  La  La0  1  0.69597021  0.70383274  0.58469258  1
  La  La1  1  0.69597021  0.29616726  0.41530742  1
  La  La2  1  0.69597021  0.79616726  0.08469258  1
  La  La3  1  0.69597021  0.20383274  0.91530742  1
  La  La4  1  0.69597021  0.58469258  0.29616726  1
  La  La5  1  0.69597021  0.41530742  0.70383274  1
  La  La6  1  0.69597021  0.08469258  0.20383274  1
  La  La7  1  0.69597021  0.91530742  0.79616726  1
  La  La8  1  0.30402979  0.29616726  0.41530742  1
  La  La9  1  0.30402979  0.70383274  0.58469258  1
  La  La10  1  0.30402979  0.20383274  0.91530742  1
  La  La11  1  0.30402979  0.79616726  0.08469258  1
  La  La12  1  0.30402979  0.41530742  0.70383274  1
  La  La13  1  0.30402979  0.58469258  0.29616726  1
  La  La14  1  0.30402979  0.91530742  0.79616726  1
  La  La15  1  0.30402979  0.08469258  0.20383274  1
  La  La16  1  -0.00000000  0.57770399  0.71424716  1
  La  La17  1  -0.00000000  0.42229601  0.28575284  1
  La  La18  1  -0.00000000  0.92229601  0.21424716  1
  La  La19  1  -0.00000000  0.07770399  0.78575284  1
  La  La20  1  -0.00000000  0.71424716  0.42229601  1
  La  La21  1  -0.00000000  0.28575284  0.57770399  1
  La  La22  1  -0.00000000  0.21424716  0.07770399  1
  La  La23  1  -0.00000000  0.78575284  0.92229601  1
  La  La24  1  0.50000000  0.13751283  0.63751283  1
  La  La25  1  0.50000000  0.86248717  0.36248717  1
  La  La26  1  0.50000000  0.36248717  0.13751283  1
  La  La27  1  0.50000000  0.63751283  0.86248717  1
  La  La28  1  0.78996046  -0.00000000  0.50000000  1
  La  La29  1  0.78996046  0.50000000  -0.00000000  1
  La  La30  1  0.21003954  -0.00000000  0.50000000  1
  La  La31  1  0.21003954  0.50000000  -0.00000000  1
  Sn  Sn32  1  -0.00000000  0.65418166  0.15418166  1
  Sn  Sn33  1  -0.00000000  0.34581834  0.84581834  1
  Sn  Sn34  1  -0.00000000  0.84581834  0.65418166  1
  Sn  Sn35  1  -0.00000000  0.15418166  0.34581834  1
  Sn  Sn36  1  0.50000000  0.50000000  0.50000000  1
  Sn  Sn37  1  0.50000000  -0.00000000  -0.00000000  1
  Rh  Rh38  1  0.76821975  0.17330158  0.67330158  1
  Rh  Rh39  1  0.76821975  0.82669842  0.32669842  1
  Rh  Rh40  1  0.76821975  0.32669842  0.17330158  1
  Rh  Rh41  1  0.76821975  0.67330158  0.82669842  1
  Rh  Rh42  1  0.23178025  0.82669842  0.32669842  1
  Rh  Rh43  1  0.23178025  0.17330158  0.67330158  1
  Rh  Rh44  1  0.23178025  0.67330158  0.82669842  1
  Rh  Rh45  1  0.23178025  0.32669842  0.17330158  1
  Rh  Rh46  1  0.50000000  0.61803625  0.11803625  1
  Rh  Rh47  1  0.50000000  0.38196375  0.88196375  1
  Rh  Rh48  1  0.50000000  0.88196375  0.61803625  1
  Rh  Rh49  1  0.50000000  0.11803625  0.38196375  1
  Rh  Rh50  1  0.83590459  0.50000000  0.50000000  1
  Rh  Rh51  1  0.83590459  -0.00000000  -0.00000000  1
  Rh  Rh52  1  0.16409541  0.50000000  0.50000000  1
  Rh  Rh53  1  0.16409541  -0.00000000  0.00000000  1
