# generated using pymatgen
data_Rb2Mn2(MoO4)3
_symmetry_space_group_name_H-M   'P 1'
_cell_length_a   11.21138654
_cell_length_b   11.21138654
_cell_length_c   11.21138654
_cell_angle_alpha   90.00000000
_cell_angle_beta   90.00000000
_cell_angle_gamma   90.00000000
_symmetry_Int_Tables_number   1
_chemical_formula_structural   Rb2Mn2(MoO4)3
_chemical_formula_sum   'Rb8 Mn8 Mo12 O48'
_cell_volume   1409.21734056
_cell_formula_units_Z   4
loop_
 _symmetry_equiv_pos_site_id
 _symmetry_equiv_pos_as_xyz
  1  'x, y, z'
loop_
 _atom_site_type_symbol
 _atom_site_label
 _atom_site_symmetry_multiplicity
 _atom_site_fract_x
 _atom_site_fract_y
 _atom_site_fract_z
 _atom_site_occupancy
  Rb  Rb0  1  0.54712907  0.95287093  0.04712907  1
  Rb  Rb1  1  0.95287093  0.04712907  0.54712907  1
  Rb  Rb2  1  0.45287093  0.45287093  0.45287093  1
  Rb  Rb3  1  0.04712907  0.54712907  0.95287093  1
  Rb  Rb4  1  0.68063373  0.68063373  0.68063373  1
  Rb  Rb5  1  0.31936627  0.18063373  0.81936627  1
  Rb  Rb6  1  0.18063373  0.81936627  0.31936627  1
  Rb  Rb7  1  0.81936627  0.31936627  0.18063373  1
  Mn  Mn8  1  0.38863196  0.61136804  0.11136804  1
  Mn  Mn9  1  0.88863196  0.88863196  0.88863196  1
  Mn  Mn10  1  0.11136804  0.38863196  0.61136804  1
  Mn  Mn11  1  0.61136804  0.11136804  0.38863196  1
  Mn  Mn12  1  0.83710027  0.66289973  0.33710027  1
  Mn  Mn13  1  0.66289973  0.33710027  0.83710027  1
  Mn  Mn14  1  0.16289973  0.16289973  0.16289973  1
  Mn  Mn15  1  0.33710027  0.83710027  0.66289973  1
  Mo  Mo16  1  0.70341344  0.62089771  0.02440091  1
  Mo  Mo17  1  0.97559909  0.20341344  0.87910229  1
  Mo  Mo18  1  0.12089771  0.47559909  0.29658656  1
  Mo  Mo19  1  0.20341344  0.87910229  0.97559909  1
  Mo  Mo20  1  0.47559909  0.29658656  0.12089771  1
  Mo  Mo21  1  0.62089771  0.02440091  0.70341344  1
  Mo  Mo22  1  0.29658656  0.12089771  0.47559909  1
  Mo  Mo23  1  0.02440091  0.70341344  0.62089771  1
  Mo  Mo24  1  0.87910229  0.97559909  0.20341344  1
  Mo  Mo25  1  0.79658656  0.37910229  0.52440091  1
  Mo  Mo26  1  0.52440091  0.79658656  0.37910229  1
  Mo  Mo27  1  0.37910229  0.52440091  0.79658656  1
  O  O28  1  0.75476732  0.60334237  0.17462037  1
  O  O29  1  0.82537963  0.25476732  0.89665763  1
  O  O30  1  0.10334237  0.32537963  0.24523268  1
  O  O31  1  0.25476732  0.89665763  0.82537963  1
  O  O32  1  0.32537963  0.24523268  0.10334237  1
  O  O33  1  0.60334237  0.17462037  0.75476732  1
  O  O34  1  0.24523268  0.10334237  0.32537963  1
  O  O35  1  0.17462037  0.75476732  0.60334237  1
  O  O36  1  0.89665763  0.82537963  0.25476732  1
  O  O37  1  0.74523268  0.39665763  0.67462037  1
  O  O38  1  0.67462037  0.74523268  0.39665763  1
  O  O39  1  0.39665763  0.67462037  0.74523268  1
  O  O40  1  0.79264364  0.72859453  0.94487210  1
  O  O41  1  0.05512790  0.29264364  0.77140547  1
  O  O42  1  0.22859453  0.55512790  0.20735636  1
  O  O43  1  0.29264364  0.77140547  0.05512790  1
  O  O44  1  0.55512790  0.20735636  0.22859453  1
  O  O45  1  0.72859453  0.94487210  0.79264364  1
  O  O46  1  0.20735636  0.22859453  0.55512790  1
  O  O47  1  0.94487210  0.79264364  0.72859453  1
  O  O48  1  0.77140547  0.05512790  0.29264364  1
  O  O49  1  0.70735636  0.27140547  0.44487210  1
  O  O50  1  0.44487210  0.70735636  0.27140547  1
  O  O51  1  0.27140547  0.44487210  0.70735636  1
  O  O52  1  0.54996397  0.67025438  0.01890871  1
  O  O53  1  0.98109129  0.04996397  0.82974562  1
  O  O54  1  0.17025438  0.48109129  0.45003603  1
  O  O55  1  0.04996397  0.82974562  0.98109129  1
  O  O56  1  0.48109129  0.45003603  0.17025438  1
  O  O57  1  0.67025438  0.01890871  0.54996397  1
  O  O58  1  0.45003603  0.17025438  0.48109129  1
  O  O59  1  0.01890871  0.54996397  0.67025438  1
  O  O60  1  0.82974562  0.98109129  0.04996397  1
  O  O61  1  0.95003603  0.32974562  0.51890871  1
  O  O62  1  0.51890871  0.95003603  0.32974562  1
  O  O63  1  0.32974562  0.51890871  0.95003603  1
  O  O64  1  0.72370435  0.48024482  0.95099965  1
  O  O65  1  0.04900035  0.22370435  0.01975518  1
  O  O66  1  0.98024482  0.54900035  0.27629565  1
  O  O67  1  0.22370435  0.01975518  0.04900035  1
  O  O68  1  0.54900035  0.27629565  0.98024482  1
  O  O69  1  0.48024482  0.95099965  0.72370435  1
  O  O70  1  0.27629565  0.98024482  0.54900035  1
  O  O71  1  0.95099965  0.72370435  0.48024482  1
  O  O72  1  0.01975518  0.04900035  0.22370435  1
  O  O73  1  0.77629565  0.51975518  0.45099965  1
  O  O74  1  0.45099965  0.77629565  0.51975518  1
  O  O75  1  0.51975518  0.45099965  0.77629565  1
