# generated using pymatgen
data_K5Li2PrF10
_symmetry_space_group_name_H-M   'P 1'
_cell_length_a   7.01375566
_cell_length_b   7.85906603
_cell_length_c   21.00590134
_cell_angle_alpha   90.00000000
_cell_angle_beta   90.00000000
_cell_angle_gamma   90.00000000
_symmetry_Int_Tables_number   1
_chemical_formula_structural   K5Li2PrF10
_chemical_formula_sum   'K20 Li8 Pr4 F40'
_cell_volume   1157.87823697
_cell_formula_units_Z   4
loop_
 _symmetry_equiv_pos_site_id
 _symmetry_equiv_pos_as_xyz
  1  'x, y, z'
loop_
 _atom_site_type_symbol
 _atom_site_label
 _atom_site_symmetry_multiplicity
 _atom_site_fract_x
 _atom_site_fract_y
 _atom_site_fract_z
 _atom_site_occupancy
  K  K0  1  0.75203121  0.02170181  0.04332235  1
  K  K1  1  0.74796879  0.47829819  0.54332235  1
  K  K2  1  0.24796879  0.52170181  0.95667765  1
  K  K3  1  0.25203121  0.97829819  0.45667765  1
  K  K4  1  0.24796879  0.97829819  0.95667765  1
  K  K5  1  0.25203121  0.52170181  0.45667765  1
  K  K6  1  0.75203121  0.47829819  0.04332235  1
  K  K7  1  0.74796879  0.02170181  0.54332235  1
  K  K8  1  0.92684978  0.97256519  0.21702800  1
  K  K9  1  0.57315022  0.52743481  0.71702800  1
  K  K10  1  0.07315022  0.47256519  0.78297200  1
  K  K11  1  0.42684978  0.02743481  0.28297200  1
  K  K12  1  0.07315022  0.02743481  0.78297200  1
  K  K13  1  0.42684978  0.47256519  0.28297200  1
  K  K14  1  0.92684978  0.52743481  0.21702800  1
  K  K15  1  0.57315022  0.97256519  0.71702800  1
  K  K16  1  0.43884808  0.75000000  0.14049419  1
  K  K17  1  0.06115192  0.75000000  0.64049419  1
  K  K18  1  0.56115192  0.25000000  0.85950581  1
  K  K19  1  0.93884808  0.25000000  0.35950581  1
  Li  Li20  1  0.46907956  0.75000000  0.57729543  1
  Li  Li21  1  0.03092044  0.75000000  0.07729543  1
  Li  Li22  1  0.53092044  0.25000000  0.42270457  1
  Li  Li23  1  0.96907956  0.25000000  0.92270457  1
  Li  Li24  1  0.34042591  0.75000000  0.82643098  1
  Li  Li25  1  0.15957409  0.75000000  0.32643098  1
  Li  Li26  1  0.65957409  0.25000000  0.17356902  1
  Li  Li27  1  0.84042591  0.25000000  0.67356902  1
  Pr  Pr28  1  0.73937068  0.75000000  0.39274848  1
  Pr  Pr29  1  0.76062932  0.75000000  0.89274848  1
  Pr  Pr30  1  0.26062932  0.25000000  0.60725152  1
  Pr  Pr31  1  0.23937068  0.25000000  0.10725152  1
  F  F32  1  0.54674908  0.75000000  0.49128961  1
  F  F33  1  0.95325092  0.75000000  0.99128961  1
  F  F34  1  0.45325092  0.25000000  0.50871039  1
  F  F35  1  0.04674908  0.25000000  0.00871039  1
  F  F36  1  0.95731770  0.75000000  0.48046647  1
  F  F37  1  0.54268230  0.75000000  0.98046647  1
  F  F38  1  0.04268230  0.25000000  0.51953353  1
  F  F39  1  0.45731770  0.25000000  0.01953353  1
  F  F40  1  0.65856135  0.04191572  0.41001693  1
  F  F41  1  0.84143865  0.45808428  0.91001693  1
  F  F42  1  0.34143865  0.54191572  0.58998307  1
  F  F43  1  0.15856135  0.95808428  0.08998307  1
  F  F44  1  0.34143865  0.95808428  0.58998307  1
  F  F45  1  0.15856135  0.54191572  0.08998307  1
  F  F46  1  0.65856135  0.45808428  0.41001693  1
  F  F47  1  0.84143865  0.04191572  0.91001693  1
  F  F48  1  0.00374534  0.92599239  0.35239327  1
  F  F49  1  0.49625466  0.57400761  0.85239327  1
  F  F50  1  0.99625466  0.42599239  0.64760673  1
  F  F51  1  0.50374534  0.07400761  0.14760673  1
  F  F52  1  0.99625466  0.07400761  0.64760673  1
  F  F53  1  0.50374534  0.42599239  0.14760673  1
  F  F54  1  0.00374534  0.57400761  0.35239327  1
  F  F55  1  0.49625466  0.92599239  0.85239327  1
  F  F56  1  0.69254538  0.75000000  0.28101857  1
  F  F57  1  0.80745462  0.75000000  0.78101857  1
  F  F58  1  0.30745462  0.25000000  0.71898143  1
  F  F59  1  0.19254538  0.25000000  0.21898143  1
  F  F60  1  0.81314303  0.75000000  0.12626415  1
  F  F61  1  0.68685697  0.75000000  0.62626415  1
  F  F62  1  0.18685697  0.25000000  0.87373585  1
  F  F63  1  0.31314303  0.25000000  0.37373585  1
  F  F64  1  0.29110674  0.75000000  0.74030398  1
  F  F65  1  0.20889326  0.75000000  0.24030398  1
  F  F66  1  0.70889326  0.25000000  0.25969602  1
  F  F67  1  0.79110674  0.25000000  0.75969602  1
  F  F68  1  0.10579339  0.75000000  0.86872349  1
  F  F69  1  0.39420661  0.75000000  0.36872349  1
  F  F70  1  0.89420661  0.25000000  0.13127651  1
  F  F71  1  0.60579339  0.25000000  0.63127651  1
