# generated using pymatgen
data_Tb3(Si3Ru)4
_symmetry_space_group_name_H-M   'P 1'
_cell_length_a   8.14417284
_cell_length_b   8.14524275
_cell_length_c   10.12178090
_cell_angle_alpha   90.00000000
_cell_angle_beta   113.72262252
_cell_angle_gamma   90.00000000
_symmetry_Int_Tables_number   1
_chemical_formula_structural   Tb3(Si3Ru)4
_chemical_formula_sum   'Tb6 Si24 Ru8'
_cell_volume   614.70692531
_cell_formula_units_Z   2
loop_
 _symmetry_equiv_pos_site_id
 _symmetry_equiv_pos_as_xyz
  1  'x, y, z'
loop_
 _atom_site_type_symbol
 _atom_site_label
 _atom_site_symmetry_multiplicity
 _atom_site_fract_x
 _atom_site_fract_y
 _atom_site_fract_z
 _atom_site_occupancy
  Tb  Tb0  1  0.50000000  0.50000000  0.00000000  1
  Tb  Tb1  1  -0.00000000  -0.00000000  0.00000000  1
  Tb  Tb2  1  0.00362423  0.75000000  0.50000000  1
  Tb  Tb3  1  0.49637577  0.25000000  0.50000000  1
  Tb  Tb4  1  0.99637577  0.25000000  0.50000000  1
  Tb  Tb5  1  0.50362423  0.75000000  0.50000000  1
  Si  Si6  1  0.20464055  0.50000000  0.40928110  1
  Si  Si7  1  0.70464055  -0.00000000  0.40928110  1
  Si  Si8  1  0.79535945  0.50000000  0.59071890  1
  Si  Si9  1  0.29535945  -0.00000000  0.59071890  1
  Si  Si10  1  0.33330645  0.83335527  0.00000000  1
  Si  Si11  1  0.66669355  0.16664473  0.00000000  1
  Si  Si12  1  0.16669355  0.33335527  0.00000000  1
  Si  Si13  1  0.83330645  0.66664473  0.00000000  1
  Si  Si14  1  0.88892096  0.72852200  0.76569715  1
  Si  Si15  1  0.87677619  0.27147800  0.76569715  1
  Si  Si16  1  0.37677619  0.22852200  0.76569715  1
  Si  Si17  1  0.38892096  0.77147800  0.76569715  1
  Si  Si18  1  0.11107904  0.27147800  0.23430285  1
  Si  Si19  1  0.12322381  0.72852200  0.23430285  1
  Si  Si20  1  0.62322381  0.77147800  0.23430285  1
  Si  Si21  1  0.61107904  0.22852200  0.23430285  1
  Si  Si22  1  0.11192761  0.50697199  0.76575258  1
  Si  Si23  1  0.65382496  0.49302801  0.76575258  1
  Si  Si24  1  0.15382496  0.00697199  0.76575258  1
  Si  Si25  1  0.61192761  0.99302801  0.76575258  1
  Si  Si26  1  0.88807239  0.49302801  0.23424742  1
  Si  Si27  1  0.34617504  0.50697199  0.23424742  1
  Si  Si28  1  0.84617504  0.99302801  0.23424742  1
  Si  Si29  1  0.38807239  0.00697199  0.23424742  1
  Ru  Ru30  1  0.33088258  0.50000000  0.66176515  1
  Ru  Ru31  1  0.83088258  -0.00000000  0.66176515  1
  Ru  Ru32  1  0.66911742  0.50000000  0.33823485  1
  Ru  Ru33  1  0.16911742  -0.00000000  0.33823485  1
  Ru  Ru34  1  0.12723436  0.62714431  0.00000000  1
  Ru  Ru35  1  0.87276564  0.37285569  0.00000000  1
  Ru  Ru36  1  0.37276564  0.12714431  0.00000000  1
  Ru  Ru37  1  0.62723436  0.87285569  0.00000000  1
