# generated using pymatgen
data_Pt(SO4)2
_symmetry_space_group_name_H-M   'P 1'
_cell_length_a   8.38918025
_cell_length_b   9.02203667
_cell_length_c   9.54767523
_cell_angle_alpha   117.24447297
_cell_angle_beta   90.00000000
_cell_angle_gamma   90.00000000
_symmetry_Int_Tables_number   1
_chemical_formula_structural   Pt(SO4)2
_chemical_formula_sum   'Pt4 S8 O32'
_cell_volume   642.47089903
_cell_formula_units_Z   4
loop_
 _symmetry_equiv_pos_site_id
 _symmetry_equiv_pos_as_xyz
  1  'x, y, z'
loop_
 _atom_site_type_symbol
 _atom_site_label
 _atom_site_symmetry_multiplicity
 _atom_site_fract_x
 _atom_site_fract_y
 _atom_site_fract_z
 _atom_site_occupancy
  Pt  Pt0  1  0.94323635  0.96199453  0.36589498  1
  Pt  Pt1  1  0.44323635  0.03800547  0.13410502  1
  Pt  Pt2  1  0.05676365  0.03800547  0.63410502  1
  Pt  Pt3  1  0.55676365  0.96199453  0.86589498  1
  S  S4  1  0.22548568  0.21197093  0.45293954  1
  S  S5  1  0.72548568  0.78802907  0.04706046  1
  S  S6  1  0.77451432  0.78802907  0.54706046  1
  S  S7  1  0.27451432  0.21197093  0.95293954  1
  S  S8  1  0.21252870  0.72216231  0.36873726  1
  S  S9  1  0.71252870  0.27783769  0.13126274  1
  S  S10  1  0.78747130  0.27783769  0.63126274  1
  S  S11  1  0.28747130  0.72216231  0.86873726  1
  O  O12  1  0.57276959  0.85830729  0.14968773  1
  O  O13  1  0.07276959  0.14169271  0.35031227  1
  O  O14  1  0.42723041  0.14169271  0.85031227  1
  O  O15  1  0.92723041  0.85830729  0.64968773  1
  O  O16  1  0.85384380  0.91425249  0.12994227  1
  O  O17  1  0.35384380  0.08574751  0.37005773  1
  O  O18  1  0.14615620  0.08574751  0.87005773  1
  O  O19  1  0.64615620  0.91425249  0.62994227  1
  O  O20  1  0.80340732  0.78915460  0.38753526  1
  O  O21  1  0.30340732  0.21084540  0.11246474  1
  O  O22  1  0.19659268  0.21084540  0.61246474  1
  O  O23  1  0.69659268  0.78915460  0.88753526  1
  O  O24  1  0.25704711  0.37671601  0.47705469  1
  O  O25  1  0.75704711  0.62328399  0.02294531  1
  O  O26  1  0.74295289  0.62328399  0.52294531  1
  O  O27  1  0.24295289  0.37671601  0.97705469  1
  O  O28  1  0.11722094  0.79401976  0.26924169  1
  O  O29  1  0.61722094  0.20598024  0.23075831  1
  O  O30  1  0.88277906  0.20598024  0.73075831  1
  O  O31  1  0.38277906  0.79401976  0.76924169  1
  O  O32  1  0.23237988  0.87425644  0.53863754  1
  O  O33  1  0.73237988  0.12574356  0.96136246  1
  O  O34  1  0.76762012  0.12574356  0.46136246  1
  O  O35  1  0.26762012  0.87425644  0.03863754  1
  O  O36  1  0.10830023  0.60174688  0.38180132  1
  O  O37  1  0.60830023  0.39825312  0.11819868  1
  O  O38  1  0.89169977  0.39825312  0.61819868  1
  O  O39  1  0.39169977  0.60174688  0.88180132  1
  O  O40  1  0.36890634  0.67790664  0.30410744  1
  O  O41  1  0.86890634  0.32209336  0.19589256  1
  O  O42  1  0.63109366  0.32209336  0.69589256  1
  O  O43  1  0.13109366  0.67790664  0.80410744  1
