# generated using pymatgen
data_Li3MgZn5(BH4)15
_symmetry_space_group_name_H-M   'P 1'
_cell_length_a   8.69839795
_cell_length_b   15.59808489
_cell_length_c   15.63177763
_cell_angle_alpha   120.07147982
_cell_angle_beta   90.00000000
_cell_angle_gamma   90.00000000
_symmetry_Int_Tables_number   1
_chemical_formula_structural   Li3MgZn5(BH4)15
_chemical_formula_sum   'Li6 Mg2 Zn10 B30 H120'
_cell_volume   1835.42350372
_cell_formula_units_Z   2
loop_
 _symmetry_equiv_pos_site_id
 _symmetry_equiv_pos_as_xyz
  1  'x, y, z'
loop_
 _atom_site_type_symbol
 _atom_site_label
 _atom_site_symmetry_multiplicity
 _atom_site_fract_x
 _atom_site_fract_y
 _atom_site_fract_z
 _atom_site_occupancy
  Li  Li0  1  0.25000000  0.60513355  0.99523492  1
  Li  Li1  1  0.75000000  0.60513355  0.60989863  1
  Li  Li2  1  0.75000000  0.39486645  0.00476508  1
  Li  Li3  1  0.25000000  0.39486645  0.39010137  1
  Li  Li4  1  0.75000000  0.00000000  0.00364216  1
  Li  Li5  1  0.25000000  0.00000000  0.99635784  1
  Mg  Mg6  1  0.75000000  0.00000000  0.39338739  1
  Mg  Mg7  1  0.25000000  0.00000000  0.60661261  1
  Zn  Zn8  1  0.75000000  0.66948264  0.33457375  1
  Zn  Zn9  1  0.25000000  0.66948264  0.33490889  1
  Zn  Zn10  1  0.25000000  0.33051736  0.66542625  1
  Zn  Zn11  1  0.75000000  0.33051736  0.66509111  1
  Zn  Zn12  1  0.25000000  0.00000000  0.28360167  1
  Zn  Zn13  1  0.75000000  0.00000000  0.71639833  1
  Zn  Zn14  1  0.75000000  0.70738803  0.99693413  1
  Zn  Zn15  1  0.25000000  0.70738803  0.71045390  1
  Zn  Zn16  1  0.25000000  0.29261197  0.00306587  1
  Zn  Zn17  1  0.75000000  0.29261197  0.28954610  1
  B  B18  1  0.25000000  0.00000000  0.14548333  1
  B  B19  1  0.75000000  0.00000000  0.85451667  1
  B  B20  1  0.02133845  0.00000000  0.34757063  1
  B  B21  1  0.97866155  0.00000000  0.65242937  1
  B  B22  1  0.47866155  0.00000000  0.34757063  1
  B  B23  1  0.52133845  0.00000000  0.65242937  1
  B  B24  1  0.75000000  0.54263342  0.18417970  1
  B  B25  1  0.25000000  0.54263342  0.35845372  1
  B  B26  1  0.25000000  0.45736658  0.81582030  1
  B  B27  1  0.75000000  0.45736658  0.64154628  1
  B  B28  1  0.75000000  0.66541053  0.47288599  1
  B  B29  1  0.25000000  0.66541053  0.19252453  1
  B  B30  1  0.25000000  0.33458947  0.52711401  1
  B  B31  1  0.75000000  0.33458947  0.80747547  1
  B  B32  1  0.75000000  0.82799569  0.35630919  1
  B  B33  1  0.25000000  0.82799569  0.47168650  1
  B  B34  1  0.25000000  0.17200431  0.64369081  1
  B  B35  1  0.75000000  0.17200431  0.52831350  1
  B  B36  1  0.75000000  0.85241572  0.00186920  1
  B  B37  1  0.25000000  0.85241572  0.85054652  1
  B  B38  1  0.25000000  0.14758428  0.99813080  1
  B  B39  1  0.75000000  0.14758428  0.14945348  1
  B  B40  1  0.98090019  0.65101856  0.99860671  1
  B  B41  1  0.01909981  0.65101856  0.65241185  1
  B  B42  1  0.51909981  0.65101856  0.99860671  1
  B  B43  1  0.48090019  0.65101856  0.65241185  1
  B  B44  1  0.01909981  0.34898144  0.00139329  1
  B  B45  1  0.98090019  0.34898144  0.34758815  1
  B  B46  1  0.48090019  0.34898144  0.00139329  1
  B  B47  1  0.51909981  0.34898144  0.34758815  1
  H  H48  1  0.36982547  0.00000000  0.10603318  1
  H  H49  1  0.63017453  0.00000000  0.89396682  1
  H  H50  1  0.13017453  0.00000000  0.10603318  1
  H  H51  1  0.86982547  0.00000000  0.89396682  1
  H  H52  1  0.25000000  0.07909821  0.22749652  1
  H  H53  1  0.75000000  0.07909821  0.85160169  1
  H  H54  1  0.75000000  0.92090179  0.77250348  1
  H  H55  1  0.25000000  0.92090179  0.14839831  1
  H  H56  1  0.91396145  0.00000000  0.29661251  1
  H  H57  1  0.08603855  0.00000000  0.70338749  1
  H  H58  1  0.58603855  0.00000000  0.29661251  1
  H  H59  1  0.41396145  0.00000000  0.70338749  1
  H  H60  1  0.98870929  0.00000000  0.42351383  1
  H  H61  1  0.01129071  0.00000000  0.57648617  1
  H  H62  1  0.51129071  0.00000000  0.42351383  1
  H  H63  1  0.48870929  0.00000000  0.57648617  1
  H  H64  1  0.09289794  0.92151635  0.29692779  1
  H  H65  1  0.90710206  0.92151635  0.62458856  1
  H  H66  1  0.40710206  0.92151635  0.29692779  1
  H  H67  1  0.59289794  0.92151635  0.62458856  1
  H  H68  1  0.90710206  0.07848365  0.70307221  1
  H  H69  1  0.09289794  0.07848365  0.37541144  1
  H  H70  1  0.59289794  0.07848365  0.70307221  1
  H  H71  1  0.40710206  0.07848365  0.37541144  1
  H  H72  1  0.75000000  0.84866625  0.29024778  1
  H  H73  1  0.25000000  0.84866625  0.55841846  1
  H  H74  1  0.25000000  0.15133375  0.70975222  1
  H  H75  1  0.75000000  0.15133375  0.44158154  1
  H  H76  1  0.75000000  0.73537948  0.55623221  1
  H  H77  1  0.25000000  0.73537948  0.17914727  1
  H  H78  1  0.25000000  0.26462052  0.44376779  1
  H  H79  1  0.75000000  0.26462052  0.82085273  1
  H  H80  1  0.75000000  0.45919394  0.17085373  1
  H  H81  1  0.25000000  0.45919394  0.28834022  1
  H  H82  1  0.25000000  0.54080606  0.82914627  1
  H  H83  1  0.75000000  0.54080606  0.71165978  1
  H  H84  1  0.75000000  0.55306948  0.11248513  1
  H  H85  1  0.25000000  0.55306948  0.44058435  1
  H  H86  1  0.25000000  0.44693052  0.88751487  1
  H  H87  1  0.75000000  0.44693052  0.55941565  1
  H  H88  1  0.75000000  0.58304257  0.46246667  1
  H  H89  1  0.25000000  0.58304257  0.12057590  1
  H  H90  1  0.25000000  0.41695743  0.53753333  1
  H  H91  1  0.75000000  0.41695743  0.87942410  1
  H  H92  1  0.75000000  0.89873497  0.44152054  1
  H  H93  1  0.25000000  0.89873497  0.45721444  1
  H  H94  1  0.25000000  0.10126503  0.55847946  1
  H  H95  1  0.75000000  0.10126503  0.54278556  1
  H  H96  1  0.62916725  0.78258129  0.34652395  1
  H  H97  1  0.37083275  0.78258129  0.43605734  1
  H  H98  1  0.87083275  0.78258129  0.34652395  1
  H  H99  1  0.12916725  0.78258129  0.43605734  1
  H  H100  1  0.37083275  0.21741871  0.65347605  1
  H  H101  1  0.62916725  0.21741871  0.56394266  1
  H  H102  1  0.12916725  0.21741871  0.65347605  1
  H  H103  1  0.87083275  0.21741871  0.56394266  1
  H  H104  1  0.87173347  0.67294753  0.43338679  1
  H  H105  1  0.12826653  0.67294753  0.23956073  1
  H  H106  1  0.62826653  0.67294753  0.43338679  1
  H  H107  1  0.37173347  0.67294753  0.23956073  1
  H  H108  1  0.12826653  0.32705247  0.56661321  1
  H  H109  1  0.87173347  0.32705247  0.76043927  1
  H  H110  1  0.37173347  0.32705247  0.56661321  1
  H  H111  1  0.62826653  0.32705247  0.76043927  1
  H  H112  1  0.62784586  0.58248778  0.23061855  1
  H  H113  1  0.37215414  0.58248778  0.35186922  1
  H  H114  1  0.87215414  0.58248778  0.23061855  1
  H  H115  1  0.12784586  0.58248778  0.35186922  1
  H  H116  1  0.37215414  0.41751222  0.76938145  1
  H  H117  1  0.62784586  0.41751222  0.64813078  1
  H  H118  1  0.12784586  0.41751222  0.76938145  1
  H  H119  1  0.87215414  0.41751222  0.64813078  1
  H  H120  1  0.63055595  0.89312677  0.00213718  1
  H  H121  1  0.36944405  0.89312677  0.89098959  1
  H  H122  1  0.86944405  0.89312677  0.00213718  1
  H  H123  1  0.13055595  0.89312677  0.89098959  1
  H  H124  1  0.36944405  0.10687323  0.99786282  1
  H  H125  1  0.63055595  0.10687323  0.10901041  1
  H  H126  1  0.13055595  0.10687323  0.99786282  1
  H  H127  1  0.86944405  0.10687323  0.10901041  1
  H  H128  1  0.75000000  0.77143821  0.92285486  1
  H  H129  1  0.25000000  0.77143821  0.84858334  1
  H  H130  1  0.25000000  0.22856179  0.07714514  1
  H  H131  1  0.75000000  0.22856179  0.15141666  1
  H  H132  1  0.75000000  0.84771699  0.07909060  1
  H  H133  1  0.25000000  0.84771699  0.76862639  1
  H  H134  1  0.25000000  0.15228301  0.92090940  1
  H  H135  1  0.75000000  0.15228301  0.23137361  1
  H  H136  1  0.08478042  0.70300114  0.99849805  1
  H  H137  1  0.91521958  0.70300114  0.70450310  1
  H  H138  1  0.41521958  0.70300114  0.99849805  1
  H  H139  1  0.58478042  0.70300114  0.70450310  1
  H  H140  1  0.91521958  0.29699886  0.00150195  1
  H  H141  1  0.08478042  0.29699886  0.29549690  1
  H  H142  1  0.58478042  0.29699886  0.00150195  1
  H  H143  1  0.41521958  0.29699886  0.29549690  1
  H  H144  1  0.01596127  0.57589507  0.99885857  1
  H  H145  1  0.98403873  0.57589507  0.57703650  1
  H  H146  1  0.48403873  0.57589507  0.99885857  1
  H  H147  1  0.51596127  0.57589507  0.57703650  1
  H  H148  1  0.98403873  0.42410493  0.00114143  1
  H  H149  1  0.01596127  0.42410493  0.42296350  1
  H  H150  1  0.51596127  0.42410493  0.00114143  1
  H  H151  1  0.48403873  0.42410493  0.42296350  1
  H  H152  1  0.90517335  0.70016609  0.07652504  1
  H  H153  1  0.09482665  0.70016609  0.62364105  1
  H  H154  1  0.59482665  0.70016609  0.07652504  1
  H  H155  1  0.40517335  0.70016609  0.62364105  1
  H  H156  1  0.09482665  0.29983391  0.92347496  1
  H  H157  1  0.90517335  0.29983391  0.37635895  1
  H  H158  1  0.40517335  0.29983391  0.92347496  1
  H  H159  1  0.59482665  0.29983391  0.37635895  1
  H  H160  1  0.59424733  0.62173628  0.92026126  1
  H  H161  1  0.40575267  0.62173628  0.70147502  1
  H  H162  1  0.90575267  0.62173628  0.92026126  1
  H  H163  1  0.09424733  0.62173628  0.70147502  1
  H  H164  1  0.40575267  0.37826372  0.07973874  1
  H  H165  1  0.59424733  0.37826372  0.29852498  1
  H  H166  1  0.09424733  0.37826372  0.07973874  1
  H  H167  1  0.90575267  0.37826372  0.29852498  1
