# generated using pymatgen
data_K4B10H4O19
_symmetry_space_group_name_H-M   'P 1'
_cell_length_a   6.95657937
_cell_length_b   9.83135919
_cell_length_c   13.47511177
_cell_angle_alpha   95.32588165
_cell_angle_beta   90.00000000
_cell_angle_gamma   110.71963774
_symmetry_Int_Tables_number   1
_chemical_formula_structural   K4B10H4O19
_chemical_formula_sum   'K8 B20 H8 O38'
_cell_volume   857.73686105
_cell_formula_units_Z   2
loop_
 _symmetry_equiv_pos_site_id
 _symmetry_equiv_pos_as_xyz
  1  'x, y, z'
loop_
 _atom_site_type_symbol
 _atom_site_label
 _atom_site_symmetry_multiplicity
 _atom_site_fract_x
 _atom_site_fract_y
 _atom_site_fract_z
 _atom_site_occupancy
  K  K0  1  0.07571985  0.87872501  0.56674790  1
  K  K1  1  0.19699484  0.12127499  0.93325210  1
  K  K2  1  0.92428015  0.12127499  0.43325210  1
  K  K3  1  0.80300516  0.87872501  0.06674790  1
  K  K4  1  0.82203934  0.43397795  0.34706960  1
  K  K5  1  0.38806139  0.56602205  0.15293040  1
  K  K6  1  0.17796066  0.56602205  0.65293040  1
  K  K7  1  0.61193861  0.43397795  0.84706960  1
  B  B8  1  0.93014217  0.16395583  0.68964598  1
  B  B9  1  0.76618634  0.83604417  0.81035402  1
  B  B10  1  0.06985783  0.83604417  0.31035402  1
  B  B11  1  0.23381366  0.16395583  0.18964598  1
  B  B12  1  0.63124807  0.92835406  0.67074377  1
  B  B13  1  0.70289401  0.07164594  0.82925623  1
  B  B14  1  0.36875193  0.07164594  0.32925623  1
  B  B15  1  0.29710599  0.92835406  0.17074377  1
  B  B16  1  0.50903252  0.78490834  0.50329637  1
  B  B17  1  0.72412418  0.21509166  0.99670363  1
  B  B18  1  0.49096748  0.21509166  0.49670363  1
  B  B19  1  0.27587582  0.78490834  0.00329637  1
  B  B20  1  0.37549836  0.55364652  0.40162606  1
  B  B21  1  0.82185184  0.44635348  0.09837394  1
  B  B22  1  0.62450164  0.44635348  0.59837394  1
  B  B23  1  0.17814816  0.55364652  0.90162606  1
  B  B24  1  0.70606377  0.74110527  0.35441866  1
  B  B25  1  0.96495850  0.25889473  0.14558134  1
  B  B26  1  0.29393623  0.25889473  0.64558134  1
  B  B27  1  0.03504150  0.74110527  0.85441866  1
  H  H28  1  0.59222383  0.87389487  0.27773837  1
  H  H29  1  0.71832896  0.12610513  0.22226163  1
  H  H30  1  0.40777617  0.12610513  0.72226163  1
  H  H31  1  0.28167104  0.87389487  0.77773837  1
  H  H32  1  0.25935087  0.34368129  0.34617382  1
  H  H33  1  0.91566958  0.65631871  0.15382618  1
  H  H34  1  0.74064913  0.65631871  0.65382618  1
  H  H35  1  0.08433042  0.34368129  0.84617382  1
  O  O36  1  0.69355967  0.81012594  0.71238579  1
  O  O37  1  0.88343373  0.18987406  0.78761421  1
  O  O38  1  0.30644033  0.18987406  0.28761421  1
  O  O39  1  0.11656627  0.81012594  0.21238579  1
  O  O40  1  0.91066117  0.73006704  0.35274081  1
  O  O41  1  0.18059412  0.26993296  0.14725919  1
  O  O42  1  0.08933883  0.26993296  0.64725919  1
  O  O43  1  0.81940588  0.73006704  0.85274081  1
  O  O44  1  0.81876242  0.03729612  0.63188481  1
  O  O45  1  0.78146630  0.96270388  0.86811519  1
  O  O46  1  0.18123758  0.96270388  0.36811519  1
  O  O47  1  0.21853370  0.03729612  0.13188481  1
  O  O48  1  0.54603334  0.00000000  0.75000000  1
  O  O49  1  0.45396666  1.00000000  0.25000000  1
  O  O50  1  0.47677516  0.85487939  0.59055454  1
  O  O51  1  0.62189577  0.14512061  0.90944546  1
  O  O52  1  0.52322484  0.14512061  0.40944546  1
  O  O53  1  0.37810423  0.85487939  0.09055454  1
  O  O54  1  0.34071710  0.65667017  0.47013769  1
  O  O55  1  0.68404694  0.34332983  0.02986231  1
  O  O56  1  0.65928290  0.34332983  0.52986231  1
  O  O57  1  0.31595306  0.65667017  0.97013769  1
  O  O58  1  0.22112551  0.41833363  0.38904440  1
  O  O59  1  0.80279188  0.58166637  0.11095560  1
  O  O60  1  0.77887449  0.58166637  0.61095560  1
  O  O61  1  0.19720812  0.41833363  0.88904440  1
  O  O62  1  0.55240280  0.58586514  0.35014352  1
  O  O63  1  0.96653765  0.41413486  0.14985648  1
  O  O64  1  0.44759720  0.41413486  0.64985648  1
  O  O65  1  0.03346235  0.58586514  0.85014352  1
  O  O66  1  0.67527400  0.81094015  0.26759252  1
  O  O67  1  0.86433385  0.18905985  0.23240748  1
  O  O68  1  0.32472600  0.18905985  0.73240748  1
  O  O69  1  0.13566615  0.81094015  0.76759252  1
  O  O70  1  0.68357940  0.82516112  0.45012046  1
  O  O71  1  0.85841828  0.17483888  0.04987954  1
  O  O72  1  0.31642060  0.17483888  0.54987954  1
  O  O73  1  0.14158172  0.82516112  0.95012046  1
