# generated using pymatgen
data_BH5(OF2)2
_symmetry_space_group_name_H-M   'P 1'
_cell_length_a   6.86328992
_cell_length_b   7.15854223
_cell_length_c   9.94202497
_cell_angle_alpha   90.00000000
_cell_angle_beta   90.00000000
_cell_angle_gamma   95.90999503
_symmetry_Int_Tables_number   1
_chemical_formula_structural   BH5(OF2)2
_chemical_formula_sum   'B4 H20 O8 F16'
_cell_volume   485.86688289
_cell_formula_units_Z   4
loop_
 _symmetry_equiv_pos_site_id
 _symmetry_equiv_pos_as_xyz
  1  'x, y, z'
loop_
 _atom_site_type_symbol
 _atom_site_label
 _atom_site_symmetry_multiplicity
 _atom_site_fract_x
 _atom_site_fract_y
 _atom_site_fract_z
 _atom_site_occupancy
  B  B0  1  0.78926611  0.13840022  0.87649465  1
  B  B1  1  0.21073389  0.36159978  0.37649465  1
  B  B2  1  0.21073389  0.86159978  0.12350535  1
  B  B3  1  0.78926611  0.63840022  0.62350535  1
  H  H4  1  0.70816397  0.58442280  0.08890719  1
  H  H5  1  0.29183603  0.91557720  0.58890719  1
  H  H6  1  0.29183603  0.41557720  0.91109281  1
  H  H7  1  0.70816397  0.08442280  0.41109281  1
  H  H8  1  0.60919493  0.47797298  0.25447370  1
  H  H9  1  0.39080507  0.02202702  0.75447370  1
  H  H10  1  0.39080507  0.52202702  0.74552630  1
  H  H11  1  0.60919493  0.97797298  0.24552630  1
  H  H12  1  0.84238829  0.49905707  0.24128878  1
  H  H13  1  0.15761171  0.00094293  0.74128878  1
  H  H14  1  0.15761171  0.50094293  0.75871122  1
  H  H15  1  0.84238829  0.99905707  0.25871122  1
  H  H16  1  0.72193463  0.76370536  0.96690838  1
  H  H17  1  0.27806537  0.73629464  0.46690838  1
  H  H18  1  0.27806537  0.23629464  0.03309162  1
  H  H19  1  0.72193463  0.26370536  0.53309162  1
  H  H20  1  0.78046013  0.56018614  0.92112543  1
  H  H21  1  0.21953987  0.93981386  0.42112543  1
  H  H22  1  0.21953987  0.43981386  0.07887457  1
  H  H23  1  0.78046013  0.06018614  0.57887457  1
  O  O24  1  0.72302505  0.55544690  0.21611912  1
  O  O25  1  0.27697495  0.94455310  0.71611912  1
  O  O26  1  0.27697495  0.44455310  0.78388088  1
  O  O27  1  0.72302505  0.05544690  0.28388088  1
  O  O28  1  0.69168251  0.62467218  0.97824670  1
  O  O29  1  0.30831749  0.87532782  0.47824670  1
  O  O30  1  0.30831749  0.37532782  0.02175330  1
  O  O31  1  0.69168251  0.12467218  0.52175330  1
  F  F32  1  0.87286852  0.29855198  0.94475032  1
  F  F33  1  0.12713148  0.20144802  0.44475032  1
  F  F34  1  0.12713148  0.70144802  0.05524968  1
  F  F35  1  0.87286852  0.79855198  0.55524968  1
  F  F36  1  0.91427015  0.09125051  0.76950460  1
  F  F37  1  0.08572985  0.40874949  0.26950460  1
  F  F38  1  0.08572985  0.90874949  0.23049540  1
  F  F39  1  0.91427015  0.59125051  0.73049540  1
  F  F40  1  0.60519781  0.17123733  0.82115137  1
  F  F41  1  0.39480219  0.32876267  0.32115137  1
  F  F42  1  0.39480219  0.82876267  0.17884863  1
  F  F43  1  0.60519781  0.67123733  0.67884863  1
  F  F44  1  0.76251748  0.98534581  0.96883833  1
  F  F45  1  0.23748252  0.51465419  0.46883833  1
  F  F46  1  0.23748252  0.01465419  0.03116167  1
  F  F47  1  0.76251748  0.48534581  0.53116167  1
