# generated using pymatgen
data_Y2Fe3Si5
_symmetry_space_group_name_H-M   'P 1'
_cell_length_a   5.48654635
_cell_length_b   10.35946303
_cell_length_c   10.35946303
_cell_angle_alpha   90.00000000
_cell_angle_beta   90.00000000
_cell_angle_gamma   90.00000000
_symmetry_Int_Tables_number   1
_chemical_formula_structural   Y2Fe3Si5
_chemical_formula_sum   'Y8 Fe12 Si20'
_cell_volume   588.80778329
_cell_formula_units_Z   4
loop_
 _symmetry_equiv_pos_site_id
 _symmetry_equiv_pos_as_xyz
  1  'x, y, z'
loop_
 _atom_site_type_symbol
 _atom_site_label
 _atom_site_symmetry_multiplicity
 _atom_site_fract_x
 _atom_site_fract_y
 _atom_site_fract_z
 _atom_site_occupancy
  Y  Y0  1  0.50000000  0.73635388  0.56981636  1
  Y  Y1  1  0.50000000  0.26364612  0.43018364  1
  Y  Y2  1  0.00000000  0.76364612  0.06981636  1
  Y  Y3  1  -0.00000000  0.23635388  0.93018364  1
  Y  Y4  1  0.50000000  0.56981636  0.26364612  1
  Y  Y5  1  0.50000000  0.43018364  0.73635388  1
  Y  Y6  1  -0.00000000  0.06981636  0.23635388  1
  Y  Y7  1  0.00000000  0.93018364  0.76364612  1
  Fe  Fe8  1  0.50000000  0.85452276  0.87715835  1
  Fe  Fe9  1  0.50000000  0.14547724  0.12284165  1
  Fe  Fe10  1  -0.00000000  0.64547724  0.37715835  1
  Fe  Fe11  1  0.00000000  0.35452276  0.62284165  1
  Fe  Fe12  1  0.50000000  0.87715835  0.14547724  1
  Fe  Fe13  1  0.50000000  0.12284165  0.85452276  1
  Fe  Fe14  1  -0.00000000  0.37715835  0.35452276  1
  Fe  Fe15  1  0.00000000  0.62284165  0.64547724  1
  Fe  Fe16  1  0.25000000  -0.00000000  0.50000000  1
  Fe  Fe17  1  0.75000000  0.50000000  -0.00000000  1
  Fe  Fe18  1  0.25000000  0.50000000  -0.00000000  1
  Fe  Fe19  1  0.75000000  -0.00000000  0.50000000  1
  Si  Si20  1  0.25000000  0.17702507  0.67702507  1
  Si  Si21  1  0.25000000  0.82297493  0.32297493  1
  Si  Si22  1  0.75000000  0.32297493  0.17702507  1
  Si  Si23  1  0.75000000  0.67702507  0.82297493  1
  Si  Si24  1  0.25000000  0.67702507  0.82297493  1
  Si  Si25  1  0.25000000  0.32297493  0.17702507  1
  Si  Si26  1  0.75000000  0.17702507  0.67702507  1
  Si  Si27  1  0.75000000  0.82297493  0.32297493  1
  Si  Si28  1  0.23017051  0.50000000  0.50000000  1
  Si  Si29  1  0.73017051  -0.00000000  -0.00000000  1
  Si  Si30  1  0.76982949  0.50000000  0.50000000  1
  Si  Si31  1  0.26982949  -0.00000000  -0.00000000  1
  Si  Si32  1  0.50000000  0.97834392  0.67984366  1
  Si  Si33  1  0.50000000  0.02165608  0.32015634  1
  Si  Si34  1  -0.00000000  0.52165608  0.17984366  1
  Si  Si35  1  0.00000000  0.47834392  0.82015634  1
  Si  Si36  1  0.50000000  0.67984366  0.02165608  1
  Si  Si37  1  0.50000000  0.32015634  0.97834392  1
  Si  Si38  1  0.00000000  0.17984366  0.47834392  1
  Si  Si39  1  -0.00000000  0.82015634  0.52165608  1
