# generated using pymatgen
data_Be3H42N13(ClO)3
_symmetry_space_group_name_H-M   'P 1'
_cell_length_a   10.96712424
_cell_length_b   11.95469629
_cell_length_c   20.02865930
_cell_angle_alpha   101.26834913
_cell_angle_beta   90.00000000
_cell_angle_gamma   90.00000000
_symmetry_Int_Tables_number   1
_chemical_formula_structural   Be3H42N13(ClO)3
_chemical_formula_sum   'Be12 H168 N52 Cl12 O12'
_cell_volume   2575.30956088
_cell_formula_units_Z   4
loop_
 _symmetry_equiv_pos_site_id
 _symmetry_equiv_pos_as_xyz
  1  'x, y, z'
loop_
 _atom_site_type_symbol
 _atom_site_label
 _atom_site_symmetry_multiplicity
 _atom_site_fract_x
 _atom_site_fract_y
 _atom_site_fract_z
 _atom_site_occupancy
  Be  Be0  1  0.99669574  0.79373123  0.89626991  1
  Be  Be1  1  0.50330426  0.29373123  0.39626991  1
  Be  Be2  1  0.00330426  0.20626877  0.10373009  1
  Be  Be3  1  0.49669574  0.70626877  0.60373009  1
  Be  Be4  1  0.78742106  0.87895572  0.97601550  1
  Be  Be5  1  0.71257894  0.37895572  0.47601550  1
  Be  Be6  1  0.21257894  0.12104428  0.02398450  1
  Be  Be7  1  0.28742106  0.62104428  0.52398450  1
  Be  Be8  1  0.99040035  0.78751527  0.03732934  1
  Be  Be9  1  0.50959965  0.28751527  0.53732934  1
  Be  Be10  1  0.00959965  0.21248473  0.96267066  1
  Be  Be11  1  0.49040035  0.71248473  0.46267066  1
  H  H12  1  0.07206668  0.89135856  0.80818701  1
  H  H13  1  0.42793332  0.39135856  0.30818701  1
  H  H14  1  0.92793332  0.10864144  0.19181299  1
  H  H15  1  0.57206668  0.60864144  0.69181299  1
  H  H16  1  0.18499565  0.84338187  0.85029545  1
  H  H17  1  0.31500435  0.34338187  0.35029545  1
  H  H18  1  0.81500435  0.15661813  0.14970455  1
  H  H19  1  0.68499565  0.65661813  0.64970455  1
  H  H20  1  0.10376021  0.95190920  0.88742715  1
  H  H21  1  0.39623979  0.45190920  0.38742715  1
  H  H22  1  0.89623979  0.04809080  0.11257285  1
  H  H23  1  0.60376021  0.54809080  0.61257285  1
  H  H24  1  0.05363574  0.60496036  0.83704541  1
  H  H25  1  0.44636426  0.10496036  0.33704541  1
  H  H26  1  0.94636426  0.39503964  0.16295459  1
  H  H27  1  0.55363574  0.89503964  0.66295459  1
  H  H28  1  0.95212768  0.65815923  0.79245683  1
  H  H29  1  0.54787232  0.15815923  0.29245683  1
  H  H30  1  0.04787232  0.34184077  0.20754317  1
  H  H31  1  0.45212768  0.84184077  0.70754317  1
  H  H32  1  0.91032125  0.60991102  0.86104161  1
  H  H33  1  0.58967875  0.10991102  0.36104161  1
  H  H34  1  0.08967875  0.39008898  0.13895839  1
  H  H35  1  0.41032125  0.89008898  0.63895839  1
  H  H36  1  0.67055477  0.03563276  0.03576744  1
  H  H37  1  0.82944523  0.53563276  0.53576744  1
  H  H38  1  0.32944523  0.96436724  0.96423256  1
  H  H39  1  0.17055477  0.46436724  0.46423256  1
  H  H40  1  0.68165031  0.04551230  0.95420357  1
  H  H41  1  0.81834969  0.54551230  0.45420357  1
  H  H42  1  0.31834969  0.95448770  0.04579643  1
  H  H43  1  0.18165031  0.45448770  0.54579643  1
  H  H44  1  0.79862635  0.07529291  0.00579493  1
  H  H45  1  0.70137365  0.57529291  0.50579493  1
  H  H46  1  0.20137365  0.92470709  0.99420507  1
  H  H47  1  0.29862635  0.42470709  0.49420507  1
  H  H48  1  0.69017326  0.70221071  0.94143891  1
  H  H49  1  0.80982674  0.20221071  0.44143891  1
  H  H50  1  0.30982674  0.29778929  0.05856109  1
  H  H51  1  0.19017326  0.79778929  0.55856109  1
  H  H52  1  0.61264146  0.77330282  0.00472545  1
  H  H53  1  0.88735854  0.27330282  0.50472545  1
  H  H54  1  0.38735854  0.22669718  0.99527455  1
  H  H55  1  0.11264146  0.72669718  0.49527455  1
  H  H56  1  0.59548251  0.80391898  0.92843591  1
  H  H57  1  0.90451749  0.30391898  0.42843591  1
  H  H58  1  0.40451749  0.19608102  0.07156409  1
  H  H59  1  0.09548251  0.69608102  0.57156409  1
  H  H60  1  0.06313370  0.82593087  0.15042637  1
  H  H61  1  0.43686630  0.32593087  0.65042637  1
  H  H62  1  0.93686630  0.17406913  0.84957363  1
  H  H63  1  0.56313370  0.67406913  0.34957363  1
  H  H64  1  0.17658686  0.82706260  0.09609721  1
  H  H65  1  0.32341314  0.32706260  0.59609721  1
  H  H66  1  0.82341314  0.17293740  0.90390279  1
  H  H67  1  0.67658686  0.67293740  0.40390279  1
  H  H68  1  0.08710127  0.93723805  0.11172773  1
  H  H69  1  0.41289873  0.43723805  0.61172773  1
  H  H70  1  0.91289873  0.06276195  0.88827227  1
  H  H71  1  0.58710127  0.56276195  0.38827227  1
  H  H72  1  0.90478281  0.60228020  0.01338629  1
  H  H73  1  0.59521719  0.10228020  0.51338629  1
  H  H74  1  0.09521719  0.39771980  0.98661371  1
  H  H75  1  0.40478281  0.89771980  0.48661371  1
  H  H76  1  0.03466895  0.59967078  0.05572566  1
  H  H77  1  0.46533105  0.09967078  0.55572566  1
  H  H78  1  0.96533105  0.40032922  0.94427434  1
  H  H79  1  0.53466895  0.90032922  0.44427434  1
  H  H80  1  0.90962829  0.64614144  0.09625838  1
  H  H81  1  0.59037171  0.14614144  0.59625838  1
  H  H82  1  0.09037171  0.35385856  0.90374162  1
  H  H83  1  0.40962829  0.85385856  0.40374162  1
  H  H84  1  0.82390452  0.85915135  0.86487636  1
  H  H85  1  0.67609548  0.35915135  0.36487636  1
  H  H86  1  0.17609548  0.14084865  0.13512364  1
  H  H87  1  0.32390452  0.64084865  0.63512364  1
  H  H88  1  0.82342563  0.86564641  0.08477864  1
  H  H89  1  0.67657437  0.36564641  0.58477864  1
  H  H90  1  0.17657437  0.13435359  0.91522136  1
  H  H91  1  0.32342563  0.63435359  0.41522136  1
  H  H92  1  0.13712459  0.73359053  0.96002979  1
  H  H93  1  0.36287541  0.23359053  0.46002979  1
  H  H94  1  0.86287541  0.26640947  0.03997021  1
  H  H95  1  0.63712459  0.76640947  0.53997021  1
  H  H96  1  0.24744024  0.58096258  0.73258527  1
  H  H97  1  0.25255976  0.08096258  0.23258527  1
  H  H98  1  0.75255976  0.41903742  0.26741473  1
  H  H99  1  0.74744024  0.91903742  0.76741473  1
  H  H100  1  0.28128057  0.71718067  0.74768495  1
  H  H101  1  0.21871943  0.21718067  0.24768495  1
  H  H102  1  0.71871943  0.28281933  0.25231505  1
  H  H103  1  0.78128057  0.78281933  0.75231505  1
  H  H104  1  0.15742759  0.67018243  0.70300816  1
  H  H105  1  0.34257241  0.17018243  0.20300816  1
  H  H106  1  0.84257241  0.32981757  0.29699184  1
  H  H107  1  0.65742759  0.82981757  0.79699184  1
  H  H108  1  0.32305964  0.08604257  0.83034091  1
  H  H109  1  0.17694036  0.58604257  0.33034091  1
  H  H110  1  0.67694036  0.91395743  0.16965909  1
  H  H111  1  0.82305964  0.41395743  0.66965909  1
  H  H112  1  0.24755127  0.20364131  0.82280392  1
  H  H113  1  0.25244873  0.70364131  0.32280392  1
  H  H114  1  0.75244873  0.79635869  0.17719608  1
  H  H115  1  0.74755127  0.29635869  0.67719608  1
  H  H116  1  0.18495629  0.07622538  0.79812724  1
  H  H117  1  0.31504371  0.57622538  0.29812724  1
  H  H118  1  0.81504371  0.92377462  0.20187276  1
  H  H119  1  0.68495629  0.42377462  0.70187276  1
  H  H120  1  0.26257869  0.58831409  0.90854479  1
  H  H121  1  0.23742131  0.08831409  0.40854479  1
  H  H122  1  0.73742131  0.41168591  0.09145521  1
  H  H123  1  0.76257869  0.91168591  0.59145521  1
  H  H124  1  0.29414734  0.62971585  0.99014665  1
  H  H125  1  0.20585266  0.12971585  0.49014665  1
  H  H126  1  0.70585266  0.37028415  0.00985335  1
  H  H127  1  0.79414734  0.87028415  0.50985335  1
  H  H128  1  0.33779238  0.70813290  0.93425374  1
  H  H129  1  0.16220762  0.20813290  0.43425374  1
  H  H130  1  0.66220762  0.29186710  0.06574626  1
  H  H131  1  0.83779238  0.79186710  0.56574626  1
  H  H132  1  0.64376449  0.12090248  0.82867649  1
  H  H133  1  0.85623551  0.62090248  0.32867649  1
  H  H134  1  0.35623551  0.87909752  0.17132351  1
  H  H135  1  0.14376449  0.37909752  0.67132351  1
  H  H136  1  0.55403883  0.18545959  0.89044984  1
  H  H137  1  0.94596117  0.68545959  0.39044984  1
  H  H138  1  0.44596117  0.81454041  0.10955016  1
  H  H139  1  0.05403883  0.31454041  0.60955016  1
  H  H140  1  0.54556263  0.04621181  0.86316572  1
  H  H141  1  0.95443737  0.54621181  0.36316572  1
  H  H142  1  0.45443737  0.95378819  0.13683428  1
  H  H143  1  0.04556263  0.45378819  0.63683428  1
  H  H144  1  0.09561105  0.95886934  0.68310445  1
  H  H145  1  0.40438895  0.45886934  0.18310445  1
  H  H146  1  0.90438895  0.04113066  0.31689555  1
  H  H147  1  0.59561105  0.54113066  0.81689555  1
  H  H148  1  0.00313536  0.85582648  0.69230253  1
  H  H149  1  0.49686464  0.35582648  0.19230253  1
  H  H150  1  0.99686464  0.14417352  0.30769747  1
  H  H151  1  0.50313536  0.64417352  0.80769747  1
  H  H152  1  0.95628527  0.98708372  0.71245403  1
  H  H153  1  0.54371473  0.48708372  0.21245403  1
  H  H154  1  0.04371473  0.01291628  0.28754597  1
  H  H155  1  0.45628527  0.51291628  0.78754597  1
  H  H156  1  0.59108361  0.58817868  0.02514839  1
  H  H157  1  0.90891639  0.08817868  0.52514839  1
  H  H158  1  0.40891639  0.41182132  0.97485161  1
  H  H159  1  0.09108361  0.91182132  0.47485161  1
  H  H160  1  0.47279078  0.59491719  0.07574832  1
  H  H161  1  0.02720922  0.09491719  0.57574832  1
  H  H162  1  0.52720922  0.40508281  0.92425168  1
  H  H163  1  0.97279078  0.90508281  0.42425168  1
  H  H164  1  0.61048853  0.61966200  0.10725240  1
  H  H165  1  0.88951147  0.11966200  0.60725240  1
  H  H166  1  0.38951147  0.38033800  0.89274760  1
  H  H167  1  0.11048853  0.88033800  0.39274760  1
  H  H168  1  0.96533379  0.81353735  0.25634398  1
  H  H169  1  0.53466621  0.31353735  0.75634398  1
  H  H170  1  0.03466621  0.18646265  0.74365602  1
  H  H171  1  0.46533379  0.68646265  0.24365602  1
  H  H172  1  0.98719115  0.67970156  0.22269418  1
  H  H173  1  0.51280885  0.17970156  0.72269418  1
  H  H174  1  0.01280885  0.32029844  0.77730582  1
  H  H175  1  0.48719115  0.82029844  0.27730582  1
  H  H176  1  0.10488835  0.76458756  0.25175898  1
  H  H177  1  0.39511165  0.26458756  0.75175898  1
  H  H178  1  0.89511165  0.23541244  0.74824102  1
  H  H179  1  0.60488835  0.73541244  0.24824102  1
  N  N180  1  0.09725719  0.87399209  0.85518115  1
  N  N181  1  0.40274281  0.37399209  0.35518115  1
  N  N182  1  0.90274281  0.12600791  0.14481885  1
  N  N183  1  0.59725719  0.62600791  0.64481885  1
  N  N184  1  0.97734243  0.65598138  0.84149321  1
  N  N185  1  0.52265757  0.15598138  0.34149321  1
  N  N186  1  0.02265757  0.34401862  0.15850679  1
  N  N187  1  0.47734243  0.84401862  0.65850679  1
  N  N188  1  0.72676985  0.01914289  0.99395788  1
  N  N189  1  0.77323015  0.51914289  0.49395788  1
  N  N190  1  0.27323015  0.98085711  0.00604212  1
  N  N191  1  0.22676985  0.48085711  0.50604212  1
  N  N192  1  0.65946749  0.78389375  0.96175020  1
  N  N193  1  0.84053251  0.28389375  0.46175020  1
  N  N194  1  0.34053251  0.21610625  0.03824980  1
  N  N195  1  0.15946749  0.71610625  0.53824980  1
  N  N196  1  0.08719991  0.85001365  0.10457576  1
  N  N197  1  0.41280009  0.35001365  0.60457576  1
  N  N198  1  0.91280009  0.14998635  0.89542424  1
  N  N199  1  0.58719991  0.64998635  0.39542424  1
  N  N200  1  0.95744197  0.64749311  0.05217837  1
  N  N201  1  0.54255803  0.14749311  0.55217837  1
  N  N202  1  0.04255803  0.35250689  0.94782163  1
  N  N203  1  0.45744197  0.85250689  0.44782163  1
  N  N204  1  0.24707207  0.65260793  0.71139401  1
  N  N205  1  0.25292793  0.15260793  0.21139401  1
  N  N206  1  0.75292793  0.34739207  0.28860599  1
  N  N207  1  0.74707207  0.84739207  0.78860599  1
  N  N208  1  0.23927251  0.12420235  0.83431405  1
  N  N209  1  0.26072749  0.62420235  0.33431405  1
  N  N210  1  0.76072749  0.87579765  0.16568595  1
  N  N211  1  0.73927251  0.37579765  0.66568595  1
  N  N212  1  0.26921131  0.65879733  0.94725378  1
  N  N213  1  0.23078869  0.15879733  0.44725378  1
  N  N214  1  0.73078869  0.34120267  0.05274622  1
  N  N215  1  0.76921131  0.84120267  0.55274622  1
  N  N216  1  0.60516561  0.11319597  0.87435306  1
  N  N217  1  0.89483439  0.61319597  0.37435306  1
  N  N218  1  0.39483439  0.88680403  0.12564694  1
  N  N219  1  0.10516561  0.38680403  0.62564694  1
  N  N220  1  0.03094478  0.93628165  0.71510520  1
  N  N221  1  0.46905522  0.43628165  0.21510520  1
  N  N222  1  0.96905522  0.06371835  0.28489480  1
  N  N223  1  0.53094478  0.56371835  0.78489480  1
  N  N224  1  0.55334199  0.63412766  0.06900151  1
  N  N225  1  0.94665801  0.13412766  0.56900151  1
  N  N226  1  0.44665801  0.36587234  0.93099849  1
  N  N227  1  0.05334199  0.86587234  0.43099849  1
  N  N228  1  0.02382138  0.75934668  0.22616642  1
  N  N229  1  0.47617862  0.25934668  0.72616642  1
  N  N230  1  0.97617862  0.24065332  0.77383358  1
  N  N231  1  0.52382138  0.74065332  0.27383358  1
  Cl  Cl232  1  0.27075562  0.98073209  0.57769384  1
  Cl  Cl233  1  0.22924438  0.48073209  0.07769384  1
  Cl  Cl234  1  0.72924438  0.01926791  0.42230616  1
  Cl  Cl235  1  0.77075562  0.51926791  0.92230616  1
  Cl  Cl236  1  0.42690004  0.85295422  0.84908314  1
  Cl  Cl237  1  0.07309996  0.35295422  0.34908314  1
  Cl  Cl238  1  0.57309996  0.14704578  0.15091686  1
  Cl  Cl239  1  0.92690004  0.64704578  0.65091686  1
  Cl  Cl240  1  0.77657793  0.57113251  0.19075410  1
  Cl  Cl241  1  0.72342207  0.07113251  0.69075410  1
  Cl  Cl242  1  0.22342207  0.42886749  0.80924590  1
  Cl  Cl243  1  0.27657793  0.92886749  0.30924590  1
  O  O244  1  0.87034215  0.86172356  0.90877468  1
  O  O245  1  0.62965785  0.36172356  0.40877468  1
  O  O246  1  0.12965785  0.13827644  0.09122532  1
  O  O247  1  0.37034215  0.63827644  0.59122532  1
  O  O248  1  0.86743688  0.86127580  0.04024604  1
  O  O249  1  0.63256312  0.36127580  0.54024604  1
  O  O250  1  0.13256312  0.13872420  0.95975396  1
  O  O251  1  0.36743688  0.63872420  0.45975396  1
  O  O252  1  0.05963989  0.78141645  0.96643608  1
  O  O253  1  0.44036011  0.28141645  0.46643608  1
  O  O254  1  0.94036011  0.21858355  0.03356392  1
  O  O255  1  0.55963989  0.71858355  0.53356392  1
