# generated using pymatgen
data_ErCo3P2
_symmetry_space_group_name_H-M   'P 1'
_cell_length_a   3.66704988
_cell_length_b   10.49529322
_cell_length_c   12.14399596
_cell_angle_alpha   90.00000000
_cell_angle_beta   90.00000000
_cell_angle_gamma   90.00000000
_symmetry_Int_Tables_number   1
_chemical_formula_structural   ErCo3P2
_chemical_formula_sum   'Er6 Co18 P12'
_cell_volume   467.38310341
_cell_formula_units_Z   6
loop_
 _symmetry_equiv_pos_site_id
 _symmetry_equiv_pos_as_xyz
  1  'x, y, z'
loop_
 _atom_site_type_symbol
 _atom_site_label
 _atom_site_symmetry_multiplicity
 _atom_site_fract_x
 _atom_site_fract_y
 _atom_site_fract_z
 _atom_site_occupancy
  Er  Er0  1  0.75000000  0.25000000  0.47803888  1
  Er  Er1  1  0.25000000  0.75000000  0.52196112  1
  Er  Er2  1  0.25000000  0.93314684  0.79396940  1
  Er  Er3  1  0.25000000  0.56685316  0.79396940  1
  Er  Er4  1  0.75000000  0.06685316  0.20603060  1
  Er  Er5  1  0.75000000  0.43314684  0.20603060  1
  Co  Co6  1  0.25000000  0.25000000  0.84194822  1
  Co  Co7  1  0.75000000  0.75000000  0.15805178  1
  Co  Co8  1  0.25000000  0.25000000  0.29717488  1
  Co  Co9  1  0.75000000  0.75000000  0.70282512  1
  Co  Co10  1  0.75000000  0.25000000  0.01444428  1
  Co  Co11  1  0.25000000  0.75000000  0.98555572  1
  Co  Co12  1  0.25000000  0.41657072  0.00564954  1
  Co  Co13  1  0.25000000  0.08342928  0.00564954  1
  Co  Co14  1  0.75000000  0.58342928  0.99435046  1
  Co  Co15  1  0.75000000  0.91657072  0.99435046  1
  Co  Co16  1  0.25000000  0.45329760  0.56917298  1
  Co  Co17  1  0.25000000  0.04670240  0.56917298  1
  Co  Co18  1  0.75000000  0.54670240  0.43082702  1
  Co  Co19  1  0.75000000  0.95329760  0.43082702  1
  Co  Co20  1  0.25000000  0.87135961  0.29074414  1
  Co  Co21  1  0.25000000  0.62864039  0.29074414  1
  Co  Co22  1  0.75000000  0.12864039  0.70925586  1
  Co  Co23  1  0.75000000  0.37135961  0.70925586  1
  P  P24  1  0.25000000  0.25000000  0.11898124  1
  P  P25  1  0.75000000  0.75000000  0.88101876  1
  P  P26  1  0.25000000  0.25000000  0.65601752  1
  P  P27  1  0.75000000  0.75000000  0.34398248  1
  P  P28  1  0.25000000  0.43770530  0.38354399  1
  P  P29  1  0.25000000  0.06229470  0.38354399  1
  P  P30  1  0.75000000  0.56229470  0.61645601  1
  P  P31  1  0.75000000  0.93770530  0.61645601  1
  P  P32  1  0.25000000  0.90266428  0.10703635  1
  P  P33  1  0.25000000  0.59733572  0.10703635  1
  P  P34  1  0.75000000  0.09733572  0.89296365  1
  P  P35  1  0.75000000  0.40266428  0.89296365  1
