# generated using pymatgen
data_Ce4(HoS2)11
_symmetry_space_group_name_H-M   'P 1'
_cell_length_a   3.95364472
_cell_length_b   11.37197600
_cell_length_c   19.74496228
_cell_angle_alpha   91.73709684
_cell_angle_beta   95.74595590
_cell_angle_gamma   90.00000000
_symmetry_Int_Tables_number   1
_chemical_formula_structural   Ce4(HoS2)11
_chemical_formula_sum   'Ce4 Ho11 S22'
_cell_volume   882.87792328
_cell_formula_units_Z   1
loop_
 _symmetry_equiv_pos_site_id
 _symmetry_equiv_pos_as_xyz
  1  'x, y, z'
loop_
 _atom_site_type_symbol
 _atom_site_label
 _atom_site_symmetry_multiplicity
 _atom_site_fract_x
 _atom_site_fract_y
 _atom_site_fract_z
 _atom_site_occupancy
  Ce  Ce0  1  0.10433250  0.01186911  0.20866499  1
  Ce  Ce1  1  0.89566750  0.98813089  0.79133501  1
  Ce  Ce2  1  0.36878292  0.34886656  0.73756583  1
  Ce  Ce3  1  0.63121708  0.65113344  0.26243417  1
  Ho  Ho4  1  0.79831526  0.05898944  0.59663052  1
  Ho  Ho5  1  0.20168474  0.94101056  0.40336948  1
  Ho  Ho6  1  0.46212413  0.26959877  0.92424825  1
  Ho  Ho7  1  0.53787587  0.73040123  0.07575175  1
  Ho  Ho8  1  0.65768421  0.30060189  0.31536843  1
  Ho  Ho9  1  0.34231579  0.69939811  0.68463157  1
  Ho  Ho10  1  0.26493654  0.35201112  0.52987308  1
  Ho  Ho11  1  0.73506346  0.64798888  0.47012692  1
  Ho  Ho12  1  0.06979658  0.35993405  0.13959317  1
  Ho  Ho13  1  0.93020342  0.64006595  0.86040683  1
  Ho  Ho14  1  -0.00000000  0.00000000  -0.00000000  1
  S  S15  1  0.08732321  0.75312222  0.17464643  1
  S  S16  1  0.91267679  0.24687778  0.82535357  1
  S  S17  1  0.18687557  0.69135175  0.37375114  1
  S  S18  1  0.81312443  0.30864825  0.62624886  1
  S  S19  1  0.27939215  0.59161786  0.55878429  1
  S  S20  1  0.72060785  0.40838214  0.44121571  1
  S  S21  1  0.44468590  0.49356487  0.88937181  1
  S  S22  1  0.55531410  0.50643513  0.11062819  1
  S  S23  1  0.13483643  0.45238498  0.26967286  1
  S  S24  1  0.86516357  0.54761502  0.73032714  1
  S  S25  1  0.59278727  0.21060004  0.18557453  1
  S  S26  1  0.40721273  0.78939996  0.81442547  1
  S  S27  1  0.45290433  0.02967409  0.90580867  1
  S  S28  1  0.54709567  0.97032591  0.09419133  1
  S  S29  1  0.35109646  0.09028627  0.70219292  1
  S  S30  1  0.64890354  0.90971373  0.29780708  1
  S  S31  1  0.16860007  0.15084498  0.33720014  1
  S  S32  1  0.83139993  0.84915502  0.66279986  1
  S  S33  1  0.00791638  0.24021177  0.01583275  1
  S  S34  1  0.99208362  0.75978823  0.98416725  1
  S  S35  1  0.25547959  0.11912541  0.51095917  1
  S  S36  1  0.74452041  0.88087459  0.48904083  1
