# generated using pymatgen
data_Tb5(Ge5Rh2)2
_symmetry_space_group_name_H-M   'P 1'
_cell_length_a   4.32536532
_cell_length_b   13.09832859
_cell_length_c   13.09832859
_cell_angle_alpha   90.00000000
_cell_angle_beta   90.00000000
_cell_angle_gamma   90.00000000
_symmetry_Int_Tables_number   1
_chemical_formula_structural   Tb5(Ge5Rh2)2
_chemical_formula_sum   'Tb10 Ge20 Rh8'
_cell_volume   742.08654283
_cell_formula_units_Z   2
loop_
 _symmetry_equiv_pos_site_id
 _symmetry_equiv_pos_as_xyz
  1  'x, y, z'
loop_
 _atom_site_type_symbol
 _atom_site_label
 _atom_site_symmetry_multiplicity
 _atom_site_fract_x
 _atom_site_fract_y
 _atom_site_fract_z
 _atom_site_occupancy
  Tb  Tb0  1  0.00000000  0.50000000  0.50000000  1
  Tb  Tb1  1  0.00000000  0.00000000  -0.00000000  1
  Tb  Tb2  1  0.50000000  0.17577202  0.67577202  1
  Tb  Tb3  1  0.50000000  0.82422798  0.32422798  1
  Tb  Tb4  1  0.50000000  0.32422798  0.17577202  1
  Tb  Tb5  1  0.50000000  0.67577202  0.82422798  1
  Tb  Tb6  1  0.50000000  0.38648914  0.88648914  1
  Tb  Tb7  1  0.50000000  0.61351086  0.11351086  1
  Tb  Tb8  1  0.50000000  0.11351086  0.38648914  1
  Tb  Tb9  1  0.50000000  0.88648914  0.61351086  1
  Ge  Ge10  1  -0.00000000  0.06631365  0.56631365  1
  Ge  Ge11  1  0.00000000  0.93368635  0.43368635  1
  Ge  Ge12  1  0.00000000  0.43368635  0.06631365  1
  Ge  Ge13  1  -0.00000000  0.56631365  0.93368635  1
  Ge  Ge14  1  -0.00000000  0.70011985  0.66093953  1
  Ge  Ge15  1  0.00000000  0.29988015  0.33906047  1
  Ge  Ge16  1  0.00000000  0.79988015  0.16093953  1
  Ge  Ge17  1  -0.00000000  0.20011985  0.83906047  1
  Ge  Ge18  1  0.00000000  0.66093953  0.29988015  1
  Ge  Ge19  1  -0.00000000  0.33906047  0.70011985  1
  Ge  Ge20  1  0.00000000  0.16093953  0.20011985  1
  Ge  Ge21  1  -0.00000000  0.83906047  0.79988015  1
  Ge  Ge22  1  0.50000000  0.50289240  0.65980447  1
  Ge  Ge23  1  0.50000000  0.49710760  0.34019553  1
  Ge  Ge24  1  0.50000000  0.99710760  0.15980447  1
  Ge  Ge25  1  0.50000000  0.00289240  0.84019553  1
  Ge  Ge26  1  0.50000000  0.65980447  0.49710760  1
  Ge  Ge27  1  0.50000000  0.34019553  0.50289240  1
  Ge  Ge28  1  0.50000000  0.15980447  0.00289240  1
  Ge  Ge29  1  0.50000000  0.84019553  0.99710760  1
  Rh  Rh30  1  -0.00000000  0.52205064  0.74566843  1
  Rh  Rh31  1  0.00000000  0.47794936  0.25433157  1
  Rh  Rh32  1  0.00000000  0.97794936  0.24566843  1
  Rh  Rh33  1  -0.00000000  0.02205064  0.75433157  1
  Rh  Rh34  1  -0.00000000  0.74566843  0.47794936  1
  Rh  Rh35  1  0.00000000  0.25433157  0.52205064  1
  Rh  Rh36  1  -0.00000000  0.24566843  0.02205064  1
  Rh  Rh37  1  0.00000000  0.75433157  0.97794936  1
