# generated using pymatgen
data_Li3V2(O2F)2
_symmetry_space_group_name_H-M   'P 1'
_cell_length_a   5.92425324
_cell_length_b   5.19685790
_cell_length_c   14.92245275
_cell_angle_alpha   89.68397579
_cell_angle_beta   90.00000000
_cell_angle_gamma   90.00000000
_symmetry_Int_Tables_number   1
_chemical_formula_structural   Li3V2(O2F)2
_chemical_formula_sum   'Li12 V8 O16 F8'
_cell_volume   459.41805939
_cell_formula_units_Z   4
loop_
 _symmetry_equiv_pos_site_id
 _symmetry_equiv_pos_as_xyz
  1  'x, y, z'
loop_
 _atom_site_type_symbol
 _atom_site_label
 _atom_site_symmetry_multiplicity
 _atom_site_fract_x
 _atom_site_fract_y
 _atom_site_fract_z
 _atom_site_occupancy
  Li  Li0  1  0.02133394  0.33333300  0.16666700  1
  Li  Li1  1  0.00790945  0.33333300  0.66666700  1
  Li  Li2  1  0.99718438  0.98721335  0.03890129  1
  Li  Li3  1  0.99718438  0.67945265  0.29443171  1
  Li  Li4  1  0.25000000  0.83333300  0.16666700  1
  Li  Li5  1  0.47866606  0.33333300  0.16666700  1
  Li  Li6  1  0.49209055  0.33333300  0.66666700  1
  Li  Li7  1  0.50281562  0.98721335  0.03890129  1
  Li  Li8  1  0.50281562  0.67945265  0.29443171  1
  Li  Li9  1  0.75000000  0.83333300  0.66666700  1
  Li  Li10  1  0.75000000  0.52678316  0.03717683  1
  Li  Li11  1  0.75000000  0.13988384  0.29615717  1
  V  V12  1  0.01027278  0.99868761  0.50082858  1
  V  V13  1  0.01027278  0.66797839  0.83250442  1
  V  V14  1  0.25000000  0.50625139  0.50239840  1
  V  V15  1  0.25000000  0.16041561  0.83093560  1
  V  V16  1  0.48972722  0.99868761  0.50082858  1
  V  V17  1  0.48972722  0.66797839  0.83250442  1
  V  V18  1  0.75000000  0.50148099  0.49706398  1
  V  V19  1  0.75000000  0.16518501  0.83626902  1
  O  O20  1  0.99242126  0.33485342  0.43722131  1
  O  O21  1  0.99242126  0.33181258  0.89611269  1
  O  O22  1  0.98589981  0.00332555  0.76020137  1
  O  O23  1  0.98589981  0.66334045  0.57313163  1
  O  O24  1  0.25000000  0.83535848  0.43274959  1
  O  O25  1  0.25000000  0.83130752  0.90058341  1
  O  O26  1  0.25000000  0.48775980  0.75701545  1
  O  O27  1  0.25000000  0.17890720  0.57631755  1
  O  O28  1  0.50757874  0.33485342  0.43722131  1
  O  O29  1  0.50757874  0.33181258  0.89611269  1
  O  O30  1  0.51410019  0.00332555  0.76020137  1
  O  O31  1  0.51410019  0.66334045  0.57313163  1
  O  O32  1  0.75000000  0.83121921  0.43286836  1
  O  O33  1  0.75000000  0.83544779  0.90046464  1
  O  O34  1  0.75000000  0.50640244  0.75875150  1
  O  O35  1  0.75000000  0.16026356  0.57458150  1
  F  F36  1  0.00463624  0.00522757  0.24676047  1
  F  F37  1  0.00463624  0.66143843  0.08657253  1
  F  F38  1  0.25000000  0.52267506  0.24311632  1
  F  F39  1  0.25000000  0.14399094  0.09021768  1
  F  F40  1  0.49536376  0.00522757  0.24676047  1
  F  F41  1  0.49536376  0.66143843  0.08657253  1
  F  F42  1  0.75000000  0.47950587  0.25812199  1
  F  F43  1  0.75000000  0.18716113  0.07521101  1
