# generated using pymatgen
data_K3AsSe4
_symmetry_space_group_name_H-M   'P 1'
_cell_length_a   9.59466032
_cell_length_b   10.01792404
_cell_length_c   11.19978833
_cell_angle_alpha   90.00000000
_cell_angle_beta   90.00000000
_cell_angle_gamma   90.00000000
_symmetry_Int_Tables_number   1
_chemical_formula_structural   K3AsSe4
_chemical_formula_sum   'K12 As4 Se16'
_cell_volume   1076.50773126
_cell_formula_units_Z   4
loop_
 _symmetry_equiv_pos_site_id
 _symmetry_equiv_pos_as_xyz
  1  'x, y, z'
loop_
 _atom_site_type_symbol
 _atom_site_label
 _atom_site_symmetry_multiplicity
 _atom_site_fract_x
 _atom_site_fract_y
 _atom_site_fract_z
 _atom_site_occupancy
  K  K0  1  0.36102943  0.58458939  0.75000000  1
  K  K1  1  0.86102943  0.91541061  0.75000000  1
  K  K2  1  0.63897057  0.41541061  0.25000000  1
  K  K3  1  0.13897057  0.08458939  0.25000000  1
  K  K4  1  0.43599089  0.80396691  0.45408487  1
  K  K5  1  0.93599089  0.69603309  0.04591513  1
  K  K6  1  0.56400911  0.19603309  0.95408487  1
  K  K7  1  0.06400911  0.30396691  0.54591513  1
  K  K8  1  0.56400911  0.19603309  0.54591513  1
  K  K9  1  0.06400911  0.30396691  0.95408487  1
  K  K10  1  0.43599089  0.80396691  0.04591513  1
  K  K11  1  0.93599089  0.69603309  0.45408487  1
  As  As12  1  0.27882834  0.02304507  0.75000000  1
  As  As13  1  0.77882834  0.47695493  0.75000000  1
  As  As14  1  0.72117166  0.97695493  0.25000000  1
  As  As15  1  0.22117166  0.52304507  0.25000000  1
  Se  Se16  1  0.15277770  0.96801915  0.92445284  1
  Se  Se17  1  0.65277770  0.53198085  0.57554716  1
  Se  Se18  1  0.84722230  0.03198085  0.42445284  1
  Se  Se19  1  0.34722230  0.46801915  0.07554716  1
  Se  Se20  1  0.84722230  0.03198085  0.07554716  1
  Se  Se21  1  0.34722230  0.46801915  0.42445284  1
  Se  Se22  1  0.15277770  0.96801915  0.57554716  1
  Se  Se23  1  0.65277770  0.53198085  0.92445284  1
  Se  Se24  1  0.32136293  0.25497641  0.75000000  1
  Se  Se25  1  0.82136293  0.24502359  0.75000000  1
  Se  Se26  1  0.67863707  0.74502359  0.25000000  1
  Se  Se27  1  0.17863707  0.75497641  0.25000000  1
  Se  Se28  1  0.49421588  0.90617955  0.75000000  1
  Se  Se29  1  0.99421588  0.59382045  0.75000000  1
  Se  Se30  1  0.50578412  0.09382045  0.25000000  1
  Se  Se31  1  0.00578412  0.40617955  0.25000000  1
