# generated using pymatgen
data_Ga4Cu9
_symmetry_space_group_name_H-M   'P 1'
_cell_length_a   8.74334661
_cell_length_b   8.74334661
_cell_length_c   8.74334661
_cell_angle_alpha   90.00000000
_cell_angle_beta   90.00000000
_cell_angle_gamma   90.00000000
_symmetry_Int_Tables_number   1
_chemical_formula_structural   Ga4Cu9
_chemical_formula_sum   'Ga16 Cu36'
_cell_volume   668.39483621
_cell_formula_units_Z   4
loop_
 _symmetry_equiv_pos_site_id
 _symmetry_equiv_pos_as_xyz
  1  'x, y, z'
loop_
 _atom_site_type_symbol
 _atom_site_label
 _atom_site_symmetry_multiplicity
 _atom_site_fract_x
 _atom_site_fract_y
 _atom_site_fract_z
 _atom_site_occupancy
  Ga  Ga0  1  0.88093710  0.88093710  0.11906290  1
  Ga  Ga1  1  0.88093710  0.11906290  0.88093710  1
  Ga  Ga2  1  0.11906290  0.88093710  0.88093710  1
  Ga  Ga3  1  0.11906290  0.11906290  0.11906290  1
  Ga  Ga4  1  0.46480114  0.19097736  0.80902264  1
  Ga  Ga5  1  0.19097736  0.19097736  0.53519886  1
  Ga  Ga6  1  0.19097736  0.46480114  0.80902264  1
  Ga  Ga7  1  0.46480114  0.80902264  0.19097736  1
  Ga  Ga8  1  0.19097736  0.80902264  0.46480114  1
  Ga  Ga9  1  0.19097736  0.53519886  0.19097736  1
  Ga  Ga10  1  0.53519886  0.19097736  0.19097736  1
  Ga  Ga11  1  0.80902264  0.19097736  0.46480114  1
  Ga  Ga12  1  0.80902264  0.46480114  0.19097736  1
  Ga  Ga13  1  0.53519886  0.80902264  0.80902264  1
  Ga  Ga14  1  0.80902264  0.80902264  0.53519886  1
  Ga  Ga15  1  0.80902264  0.53519886  0.80902264  1
  Cu  Cu16  1  0.17162873  0.17162873  0.82837127  1
  Cu  Cu17  1  0.17162873  0.82837127  0.17162873  1
  Cu  Cu18  1  0.82837127  0.17162873  0.17162873  1
  Cu  Cu19  1  0.82837127  0.82837127  0.82837127  1
  Cu  Cu20  1  0.39491222  0.39491222  0.60508778  1
  Cu  Cu21  1  0.39491222  0.60508778  0.39491222  1
  Cu  Cu22  1  0.60508778  0.39491222  0.39491222  1
  Cu  Cu23  1  0.60508778  0.60508778  0.60508778  1
  Cu  Cu24  1  0.67357011  0.67357011  0.32642989  1
  Cu  Cu25  1  0.67357011  0.32642989  0.67357011  1
  Cu  Cu26  1  0.32642989  0.67357011  0.67357011  1
  Cu  Cu27  1  0.32642989  0.32642989  0.32642989  1
  Cu  Cu28  1  0.00000000  0.00000000  0.35630311  1
  Cu  Cu29  1  0.00000000  0.64369689  -0.00000000  1
  Cu  Cu30  1  0.64369689  0.00000000  -0.00000000  1
  Cu  Cu31  1  0.00000000  0.00000000  0.64369689  1
  Cu  Cu32  1  0.00000000  0.35630311  -0.00000000  1
  Cu  Cu33  1  0.35630311  0.00000000  -0.00000000  1
  Cu  Cu34  1  0.50000000  0.50000000  0.85664029  1
  Cu  Cu35  1  0.50000000  0.14335971  0.50000000  1
  Cu  Cu36  1  0.14335971  0.50000000  0.50000000  1
  Cu  Cu37  1  0.50000000  0.50000000  0.14335971  1
  Cu  Cu38  1  0.50000000  0.85664029  0.50000000  1
  Cu  Cu39  1  0.85664029  0.50000000  0.50000000  1
  Cu  Cu40  1  0.96693188  0.68539063  0.31460937  1
  Cu  Cu41  1  0.68539063  0.68539063  0.03306812  1
  Cu  Cu42  1  0.68539063  0.96693188  0.31460937  1
  Cu  Cu43  1  0.96693188  0.31460937  0.68539063  1
  Cu  Cu44  1  0.68539063  0.31460937  0.96693188  1
  Cu  Cu45  1  0.68539063  0.03306812  0.68539063  1
  Cu  Cu46  1  0.03306812  0.68539063  0.68539063  1
  Cu  Cu47  1  0.31460937  0.68539063  0.96693188  1
  Cu  Cu48  1  0.31460937  0.96693188  0.68539063  1
  Cu  Cu49  1  0.03306812  0.31460937  0.31460937  1
  Cu  Cu50  1  0.31460937  0.31460937  0.03306812  1
  Cu  Cu51  1  0.31460937  0.03306812  0.31460937  1
