# generated using pymatgen
data_LiCoSiO4
_symmetry_space_group_name_H-M   'P 1'
_cell_length_a   5.07771588
_cell_length_b   8.82976753
_cell_length_c   5.09156041
_cell_angle_alpha   109.77208135
_cell_angle_beta   65.32772523
_cell_angle_gamma   90.09307756
_symmetry_Int_Tables_number   1
_chemical_formula_structural   LiCoSiO4
_chemical_formula_sum   'Li2 Co2 Si2 O8'
_cell_volume   192.59309381
_cell_formula_units_Z   2
loop_
 _symmetry_equiv_pos_site_id
 _symmetry_equiv_pos_as_xyz
  1  'x, y, z'
loop_
 _atom_site_type_symbol
 _atom_site_label
 _atom_site_symmetry_multiplicity
 _atom_site_fract_x
 _atom_site_fract_y
 _atom_site_fract_z
 _atom_site_occupancy
  Li  Li0  1  0.66674123  0.46220337  0.75317831  1
  Li  Li1  1  0.78279817  0.95790049  0.13148509  1
  Co  Co2  1  0.59467229  0.13931246  0.81202272  1
  Co  Co3  1  0.17558166  0.63974430  0.73018848  1
  Si  Si4  1  0.23543424  0.25519874  0.52861336  1
  Si  Si5  1  0.77675523  0.75487274  0.48875513  1
  O  O6  1  0.26404204  0.21103864  0.17754338  1
  O  O7  1  0.46598771  0.11371925  0.50364849  1
  O  O8  1  0.88131181  0.27213273  0.75301302  1
  O  O9  1  0.33110610  0.43144428  0.67235241  1
  O  O10  1  0.46790813  0.71316810  0.47357959  1
  O  O11  1  0.88864027  0.61383845  0.58134619  1
  O  O12  1  0.98532905  0.76961665  0.15064141  1
  O  O13  1  0.74761707  0.93108780  0.75849541  1
