# generated using pymatgen
data_CsCuPS3
_symmetry_space_group_name_H-M   'P 1'
_cell_length_a   9.71695328
_cell_length_b   10.70153561
_cell_length_c   13.22073339
_cell_angle_alpha   90.00000000
_cell_angle_beta   90.00000000
_cell_angle_gamma   105.99153949
_symmetry_Int_Tables_number   1
_chemical_formula_structural   CsCuPS3
_chemical_formula_sum   'Cs8 Cu8 P8 S24'
_cell_volume   1321.57490652
_cell_formula_units_Z   8
loop_
 _symmetry_equiv_pos_site_id
 _symmetry_equiv_pos_as_xyz
  1  'x, y, z'
loop_
 _atom_site_type_symbol
 _atom_site_label
 _atom_site_symmetry_multiplicity
 _atom_site_fract_x
 _atom_site_fract_y
 _atom_site_fract_z
 _atom_site_occupancy
  Cs  Cs0  1  0.88852680  0.38217120  0.18411610  1
  Cs  Cs1  1  0.11147320  0.11782880  0.68411610  1
  Cs  Cs2  1  0.11147320  0.61782880  0.81588390  1
  Cs  Cs3  1  0.88852680  0.88217120  0.31588390  1
  Cs  Cs4  1  0.36304291  0.82711534  0.15068425  1
  Cs  Cs5  1  0.63695709  0.67288466  0.65068425  1
  Cs  Cs6  1  0.63695709  0.17288466  0.84931575  1
  Cs  Cs7  1  0.36304291  0.32711534  0.34931575  1
  Cu  Cu8  1  0.48107029  0.95577874  0.40240073  1
  Cu  Cu9  1  0.51892971  0.54422126  0.90240073  1
  Cu  Cu10  1  0.51892971  0.04422126  0.59759927  1
  Cu  Cu11  1  0.48107029  0.45577874  0.09759927  1
  Cu  Cu12  1  0.95241890  0.59623953  0.45554646  1
  Cu  Cu13  1  0.04758110  0.90376047  0.95554646  1
  Cu  Cu14  1  0.04758110  0.40376047  0.54445354  1
  Cu  Cu15  1  0.95241890  0.09623953  0.04445354  1
  P  P16  1  0.21913967  0.83295985  0.53640117  1
  P  P17  1  0.78086033  0.66704015  0.03640117  1
  P  P18  1  0.78086033  0.16704015  0.46359883  1
  P  P19  1  0.21913967  0.33295985  0.96359883  1
  P  P20  1  0.71668130  0.33359615  0.54146994  1
  P  P21  1  0.28331870  0.16640385  0.04146994  1
  P  P22  1  0.28331870  0.66640385  0.45853006  1
  P  P23  1  0.71668130  0.83359615  0.95853006  1
  S  S24  1  0.00803576  0.75866265  0.57194792  1
  S  S25  1  0.99196424  0.74133735  0.07194792  1
  S  S26  1  0.99196424  0.24133735  0.42805208  1
  S  S27  1  0.00803576  0.25866265  0.92805208  1
  S  S28  1  0.72391221  0.47542174  0.43580752  1
  S  S29  1  0.27608779  0.02457826  0.93580752  1
  S  S30  1  0.27608779  0.52457826  0.56419248  1
  S  S31  1  0.72391221  0.97542174  0.06419248  1
  S  S32  1  0.13495605  0.60895838  0.34618878  1
  S  S33  1  0.86504395  0.89104162  0.84618878  1
  S  S34  1  0.86504395  0.39104162  0.65381122  1
  S  S35  1  0.13495605  0.10895838  0.15381122  1
  S  S36  1  0.25817704  0.97697253  0.43024691  1
  S  S37  1  0.74182296  0.52302747  0.93024691  1
  S  S38  1  0.74182296  0.02302747  0.56975309  1
  S  S39  1  0.25817704  0.47697253  0.06975309  1
  S  S40  1  0.48652752  0.74517419  0.40732819  1
  S  S41  1  0.51347248  0.75482581  0.90732819  1
  S  S42  1  0.51347248  0.25482581  0.59267181  1
  S  S43  1  0.48652752  0.24517419  0.09267181  1
  S  S44  1  0.33962190  0.88368249  0.66455532  1
  S  S45  1  0.66037810  0.61631751  0.16455532  1
  S  S46  1  0.66037810  0.11631751  0.33544468  1
  S  S47  1  0.33962190  0.38368249  0.83544468  1
