# generated using pymatgen
data_Cs4BaV6O18
_symmetry_space_group_name_H-M   'P 1'
_cell_length_a   10.66849146
_cell_length_b   10.66849146
_cell_length_c   10.66849157
_cell_angle_alpha   83.63643192
_cell_angle_beta   83.63643192
_cell_angle_gamma   83.63643066
_symmetry_Int_Tables_number   1
_chemical_formula_structural   Cs4BaV6O18
_chemical_formula_sum   'Cs8 Ba2 V12 O36'
_cell_volume   1193.35069840
_cell_formula_units_Z   2
loop_
 _symmetry_equiv_pos_site_id
 _symmetry_equiv_pos_as_xyz
  1  'x, y, z'
loop_
 _atom_site_type_symbol
 _atom_site_label
 _atom_site_symmetry_multiplicity
 _atom_site_fract_x
 _atom_site_fract_y
 _atom_site_fract_z
 _atom_site_occupancy
  Cs  Cs0  1  0.49915466  0.49915466  0.49915466  1
  Cs  Cs1  1  0.99915466  0.99915466  0.99915466  1
  Cs  Cs2  1  0.08861356  0.90763876  0.48702035  1
  Cs  Cs3  1  0.90763876  0.48702035  0.08861356  1
  Cs  Cs4  1  0.48702035  0.08861356  0.90763876  1
  Cs  Cs5  1  0.58861356  0.98702035  0.40763876  1
  Cs  Cs6  1  0.98702035  0.40763876  0.58861356  1
  Cs  Cs7  1  0.40763876  0.58861356  0.98702035  1
  Ba  Ba8  1  0.26864434  0.26864434  0.26864434  1
  Ba  Ba9  1  0.76864434  0.76864434  0.76864434  1
  V  V10  1  0.66907115  0.80018763  0.10306998  1
  V  V11  1  0.80018763  0.10306998  0.66907115  1
  V  V12  1  0.10306998  0.66907115  0.80018763  1
  V  V13  1  0.16907115  0.60306998  0.30018763  1
  V  V14  1  0.60306998  0.30018763  0.16907115  1
  V  V15  1  0.30018763  0.16907115  0.60306998  1
  V  V16  1  0.83478036  0.69089914  0.37641129  1
  V  V17  1  0.69089914  0.37641129  0.83478036  1
  V  V18  1  0.37641129  0.83478036  0.69089914  1
  V  V19  1  0.33478036  0.87641129  0.19089914  1
  V  V20  1  0.87641129  0.19089914  0.33478036  1
  V  V21  1  0.19089914  0.33478036  0.87641129  1
  O  O22  1  0.35005997  0.00795187  0.66553004  1
  O  O23  1  0.00795187  0.66553004  0.35005997  1
  O  O24  1  0.66553004  0.35005997  0.00795187  1
  O  O25  1  0.85005997  0.16553004  0.50795187  1
  O  O26  1  0.16553004  0.50795187  0.85005997  1
  O  O27  1  0.50795187  0.85005997  0.16553004  1
  O  O28  1  0.17023894  0.17093100  0.52710703  1
  O  O29  1  0.17093100  0.52710703  0.17023894  1
  O  O30  1  0.52710703  0.17023894  0.17093100  1
  O  O31  1  0.67023894  0.02710703  0.67093100  1
  O  O32  1  0.02710703  0.67093100  0.67023894  1
  O  O33  1  0.67093100  0.67023894  0.02710703  1
  O  O34  1  0.77005365  0.77077967  0.23301121  1
  O  O35  1  0.77077967  0.23301121  0.77005365  1
  O  O36  1  0.23301121  0.77005365  0.77077967  1
  O  O37  1  0.27005365  0.73301121  0.27077967  1
  O  O38  1  0.73301121  0.27077967  0.27005365  1
  O  O39  1  0.27077967  0.27005365  0.73301121  1
  O  O40  1  0.72283184  0.91099492  0.99137977  1
  O  O41  1  0.91099492  0.99137977  0.72283184  1
  O  O42  1  0.99137977  0.72283184  0.91099492  1
  O  O43  1  0.22283184  0.49137977  0.41099492  1
  O  O44  1  0.49137977  0.41099492  0.22283184  1
  O  O45  1  0.41099492  0.22283184  0.49137977  1
  O  O46  1  0.29223561  0.00016522  0.27794036  1
  O  O47  1  0.00016522  0.27794036  0.29223561  1
  O  O48  1  0.27794036  0.29223561  0.00016522  1
  O  O49  1  0.79223561  0.77794036  0.50016522  1
  O  O50  1  0.77794036  0.50016522  0.79223561  1
  O  O51  1  0.50016522  0.79223561  0.77794036  1
  O  O52  1  0.77949968  0.54989790  0.41080010  1
  O  O53  1  0.54989790  0.41080010  0.77949968  1
  O  O54  1  0.41080010  0.77949968  0.54989790  1
  O  O55  1  0.27949968  0.91080010  0.04989790  1
  O  O56  1  0.91080010  0.04989790  0.27949968  1
  O  O57  1  0.04989790  0.27949968  0.91080010  1
