# generated using pymatgen
data_La2Sb4Ir3
_symmetry_space_group_name_H-M   'P 1'
_cell_length_a   4.63807211
_cell_length_b   11.09499299
_cell_length_c   16.43001069
_cell_angle_alpha   90.00000000
_cell_angle_beta   90.00000000
_cell_angle_gamma   90.00000000
_symmetry_Int_Tables_number   1
_chemical_formula_structural   La2Sb4Ir3
_chemical_formula_sum   'La8 Sb16 Ir12'
_cell_volume   845.47812321
_cell_formula_units_Z   4
loop_
 _symmetry_equiv_pos_site_id
 _symmetry_equiv_pos_as_xyz
  1  'x, y, z'
loop_
 _atom_site_type_symbol
 _atom_site_label
 _atom_site_symmetry_multiplicity
 _atom_site_fract_x
 _atom_site_fract_y
 _atom_site_fract_z
 _atom_site_occupancy
  La  La0  1  0.25000000  0.74884035  0.50584167  1
  La  La1  1  0.25000000  0.75115965  0.00584167  1
  La  La2  1  0.75000000  0.25115965  0.49415833  1
  La  La3  1  0.75000000  0.24884035  0.99415833  1
  La  La4  1  0.25000000  0.58764867  0.75033543  1
  La  La5  1  0.25000000  0.91235133  0.25033543  1
  La  La6  1  0.75000000  0.41235133  0.24966457  1
  La  La7  1  0.75000000  0.08764867  0.74966457  1
  Sb  Sb8  1  0.25000000  0.27551220  0.65121099  1
  Sb  Sb9  1  0.25000000  0.22448780  0.15121099  1
  Sb  Sb10  1  0.75000000  0.72448780  0.34878901  1
  Sb  Sb11  1  0.75000000  0.77551220  0.84878901  1
  Sb  Sb12  1  0.25000000  0.88459688  0.70809595  1
  Sb  Sb13  1  0.25000000  0.61540312  0.20809595  1
  Sb  Sb14  1  0.75000000  0.11540312  0.29190405  1
  Sb  Sb15  1  0.75000000  0.38459688  0.79190405  1
  Sb  Sb16  1  0.25000000  0.06229891  0.89578574  1
  Sb  Sb17  1  0.25000000  0.43770109  0.39578574  1
  Sb  Sb18  1  0.75000000  0.93770109  0.10421426  1
  Sb  Sb19  1  0.75000000  0.56229891  0.60421426  1
  Sb  Sb20  1  0.25000000  0.44963130  0.93187053  1
  Sb  Sb21  1  0.25000000  0.05036870  0.43187053  1
  Sb  Sb22  1  0.75000000  0.55036870  0.06812947  1
  Sb  Sb23  1  0.75000000  0.94963130  0.56812947  1
  Ir  Ir24  1  0.25000000  0.46537319  0.55657076  1
  Ir  Ir25  1  0.25000000  0.03462681  0.05657076  1
  Ir  Ir26  1  0.75000000  0.53462681  0.44342924  1
  Ir  Ir27  1  0.75000000  0.96537319  0.94342924  1
  Ir  Ir28  1  0.25000000  0.05680462  0.59221280  1
  Ir  Ir29  1  0.25000000  0.44319538  0.09221280  1
  Ir  Ir30  1  0.75000000  0.94319538  0.40778720  1
  Ir  Ir31  1  0.75000000  0.55680462  0.90778720  1
  Ir  Ir32  1  0.25000000  0.27707769  0.81931415  1
  Ir  Ir33  1  0.25000000  0.22292231  0.31931415  1
  Ir  Ir34  1  0.75000000  0.72292231  0.18068585  1
  Ir  Ir35  1  0.75000000  0.77707769  0.68068585  1
