# generated using pymatgen
data_KMnP(OF)3
_symmetry_space_group_name_H-M   'P 1'
_cell_length_a   5.51792498
_cell_length_b   7.53917920
_cell_length_c   12.87399039
_cell_angle_alpha   90.00000000
_cell_angle_beta   90.00000000
_cell_angle_gamma   107.62690272
_symmetry_Int_Tables_number   1
_chemical_formula_structural   KMnP(OF)3
_chemical_formula_sum   'K4 Mn4 P4 O12 F12'
_cell_volume   510.42046674
_cell_formula_units_Z   4
loop_
 _symmetry_equiv_pos_site_id
 _symmetry_equiv_pos_as_xyz
  1  'x, y, z'
loop_
 _atom_site_type_symbol
 _atom_site_label
 _atom_site_symmetry_multiplicity
 _atom_site_fract_x
 _atom_site_fract_y
 _atom_site_fract_z
 _atom_site_occupancy
  K  K0  1  0.54217125  0.18886321  0.79947028  1
  K  K1  1  0.04217125  0.68886321  0.70052972  1
  K  K2  1  0.45782875  0.81113679  0.20052972  1
  K  K3  1  0.95782875  0.31113679  0.29947028  1
  Mn  Mn4  1  -0.00000000  0.50000000  0.00000000  1
  Mn  Mn5  1  0.50000000  0.00000000  0.50000000  1
  Mn  Mn6  1  -0.00000000  0.00000000  0.00000000  1
  Mn  Mn7  1  0.50000000  0.50000000  0.50000000  1
  P  P8  1  0.55925631  0.68541129  0.89322859  1
  P  P9  1  0.05925631  0.18541129  0.60677141  1
  P  P10  1  0.44074369  0.31458871  0.10677141  1
  P  P11  1  0.94074369  0.81458871  0.39322859  1
  O  O12  1  0.72310159  0.55654162  0.88515031  1
  O  O13  1  0.22310159  0.05654162  0.61484969  1
  O  O14  1  0.27689841  0.44345838  0.11484969  1
  O  O15  1  0.77689841  0.94345838  0.38515031  1
  O  O16  1  0.64785371  0.84434113  0.97235603  1
  O  O17  1  0.14785371  0.34434113  0.52764397  1
  O  O18  1  0.35214629  0.15565887  0.02764397  1
  O  O19  1  0.85214629  0.65565887  0.47235603  1
  O  O20  1  0.27326986  0.58608651  0.89766051  1
  O  O21  1  0.77326986  0.08608651  0.60233949  1
  O  O22  1  0.72673014  0.41391349  0.10233949  1
  O  O23  1  0.22673014  0.91391349  0.39766051  1
  F  F24  1  0.92261809  0.25712994  0.94466237  1
  F  F25  1  0.42261809  0.75712994  0.55533763  1
  F  F26  1  0.07738191  0.74287006  0.05533763  1
  F  F27  1  0.57738191  0.24287006  0.44466237  1
  F  F28  1  0.09582935  0.96206337  0.86528628  1
  F  F29  1  0.59582935  0.46206337  0.63471372  1
  F  F30  1  0.90417065  0.03793663  0.13471372  1
  F  F31  1  0.40417065  0.53793663  0.36528628  1
  F  F32  1  0.58200637  0.78840167  0.78259312  1
  F  F33  1  0.08200637  0.28840167  0.71740688  1
  F  F34  1  0.41799363  0.21159833  0.21740688  1
  F  F35  1  0.91799363  0.71159833  0.28259312  1
