# generated using pymatgen
data_P
_symmetry_space_group_name_H-M   'P 1'
_cell_length_a   7.85748018
_cell_length_b   12.14707609
_cell_length_c   13.15396569
_cell_angle_alpha   70.03069687
_cell_angle_beta   71.81923410
_cell_angle_gamma   78.02444786
_symmetry_Int_Tables_number   1
_chemical_formula_structural   P
_chemical_formula_sum   P42
_cell_volume   1113.90599260
_cell_formula_units_Z   42
loop_
 _symmetry_equiv_pos_site_id
 _symmetry_equiv_pos_as_xyz
  1  'x, y, z'
loop_
 _atom_site_type_symbol
 _atom_site_label
 _atom_site_symmetry_multiplicity
 _atom_site_fract_x
 _atom_site_fract_y
 _atom_site_fract_z
 _atom_site_occupancy
  P  P0  1  0.57329983  0.66640396  0.15103544  1
  P  P1  1  0.42670017  0.33359604  0.84896456  1
  P  P2  1  0.69546088  0.51870261  0.27159619  1
  P  P3  1  0.30453912  0.48129739  0.72840381  1
  P  P4  1  0.82421784  0.41404082  0.15232764  1
  P  P5  1  0.17578216  0.58595918  0.84767236  1
  P  P6  1  0.94582549  0.27180938  0.27450650  1
  P  P7  1  0.05417451  0.72819062  0.72549350  1
  P  P8  1  0.08733318  0.15170187  0.17348681  1
  P  P9  1  0.91266682  0.84829813  0.82651319  1
  P  P10  1  0.21905816  0.01970836  0.29778160  1
  P  P11  1  0.78094184  0.98029164  0.70221840  1
  P  P12  1  0.31515638  0.92408588  0.17109926  1
  P  P13  1  0.68484362  0.07591412  0.82890074  1
  P  P14  1  0.45083594  0.76668486  0.27236736  1
  P  P15  1  0.54916406  0.23331514  0.72763264  1
  P  P16  1  0.22060414  0.51963395  0.33129488  1
  P  P17  1  0.77939586  0.48036605  0.66870512  1
  P  P18  1  0.45890620  0.42052801  0.39247450  1
  P  P19  1  0.54109380  0.57947199  0.60752550  1
  P  P20  1  0.47248172  0.26695913  0.33370885  1
  P  P21  1  0.52751828  0.73304087  0.66629115  1
  P  P22  1  0.70763899  0.17560783  0.39957695  1
  P  P23  1  0.29236101  0.82439217  0.60042305  1
  P  P24  1  0.74653726  0.00595245  0.36389759  1
  P  P25  1  0.25346274  0.99404755  0.63610241  1
  P  P26  1  0.98632220  0.91892886  0.42785341  1
  P  P27  1  0.01367780  0.08107114  0.57214659  1
  P  P28  1  0.97328879  0.77823747  0.35962944  1
  P  P29  1  0.02671121  0.22176253  0.64037056  1
  P  P30  1  0.21744914  0.66456211  0.39687076  1
  P  P31  1  0.78255086  0.33543789  0.60312924  1
  P  P32  1  0.32539933  0.60857469  0.15018423  1
  P  P33  1  0.67460067  0.39142531  0.84981577  1
  P  P34  1  0.61158592  0.32033676  0.15244616  1
  P  P35  1  0.38841408  0.67966324  0.84755384  1
  P  P36  1  0.87651791  0.04881995  0.17941821  1
  P  P37  1  0.12348209  0.95118005  0.82058179  1
  P  P38  1  0.05338035  0.87250994  0.17614053  1
  P  P39  1  0.94661965  0.12749006  0.82385947  1
  P  P40  1  0.40355477  0.45515860  0.08088670  1
  P  P41  1  0.59644523  0.54484140  0.91911330  1
