# generated using pymatgen
data_Mg5Sn(BO5)2
_symmetry_space_group_name_H-M   'P 1'
_cell_length_a   6.20897804
_cell_length_b   9.96280060
_cell_length_c   12.89313273
_cell_angle_alpha   85.64134159
_cell_angle_beta   76.08364635
_cell_angle_gamma   71.84806275
_symmetry_Int_Tables_number   1
_chemical_formula_structural   Mg5Sn(BO5)2
_chemical_formula_sum   'Mg20 Sn4 B8 O40'
_cell_volume   735.61718702
_cell_formula_units_Z   4
loop_
 _symmetry_equiv_pos_site_id
 _symmetry_equiv_pos_as_xyz
  1  'x, y, z'
loop_
 _atom_site_type_symbol
 _atom_site_label
 _atom_site_symmetry_multiplicity
 _atom_site_fract_x
 _atom_site_fract_y
 _atom_site_fract_z
 _atom_site_occupancy
  Mg  Mg0  1  0.94241699  0.73614057  0.37925463  1
  Mg  Mg1  1  0.05758301  0.26385943  0.62074537  1
  Mg  Mg2  1  0.17668274  0.76386018  0.88164046  1
  Mg  Mg3  1  0.82331726  0.23613982  0.11835954  1
  Mg  Mg4  1  0.76036199  0.00011629  0.99995887  1
  Mg  Mg5  1  0.23963801  0.99988371  0.00004113  1
  Mg  Mg6  1  0.75837448  0.50003188  0.49993561  1
  Mg  Mg7  1  0.24162552  0.49996812  0.50006439  1
  Mg  Mg8  1  0.89821152  0.99620912  0.71802818  1
  Mg  Mg9  1  0.10178848  0.00379088  0.28197182  1
  Mg  Mg10  1  0.60858526  0.49634281  0.78164896  1
  Mg  Mg11  1  0.39141474  0.50365719  0.21835104  1
  Mg  Mg12  1  0.88590343  0.50359030  0.21825896  1
  Mg  Mg13  1  0.11409657  0.49640970  0.78174104  1
  Mg  Mg14  1  0.38860950  0.99606711  0.71810868  1
  Mg  Mg15  1  0.61139050  0.00393289  0.28189132  1
  Mg  Mg16  1  0.75740746  0.48758923  0.99778402  1
  Mg  Mg17  1  0.24259254  0.51241077  0.00221598  1
  Mg  Mg18  1  0.75522977  0.98959425  0.50026336  1
  Mg  Mg19  1  0.24477023  0.01040575  0.49973664  1
  Sn  Sn20  1  0.67740009  0.75971014  0.88451846  1
  Sn  Sn21  1  0.32259991  0.24028986  0.11548154  1
  Sn  Sn22  1  0.43729481  0.73978907  0.38624317  1
  Sn  Sn23  1  0.56270519  0.26021093  0.61375683  1
  B  B24  1  0.45557448  0.23001635  0.86107421  1
  B  B25  1  0.54442552  0.76998365  0.13892579  1
  B  B26  1  0.82055083  0.72346348  0.63799192  1
  B  B27  1  0.17944917  0.27653652  0.36200808  1
  B  B28  1  0.96188619  0.22050589  0.85872810  1
  B  B29  1  0.03811381  0.77949411  0.14127190  1
  B  B30  1  0.31709474  0.72662133  0.64209711  1
  B  B31  1  0.68290526  0.27337867  0.35790289  1
  O  O32  1  0.38295267  0.37561630  0.85920001  1
  O  O33  1  0.61704733  0.62438370  0.14079999  1
  O  O34  1  0.44868582  0.15010824  0.95547286  1
  O  O35  1  0.55131418  0.84989176  0.04452714  1
  O  O36  1  0.45757611  0.84793262  0.23458825  1
  O  O37  1  0.54242389  0.15206738  0.76541175  1
  O  O38  1  0.90575424  0.64897767  0.54311008  1
  O  O39  1  0.09424576  0.35102233  0.45688992  1
  O  O40  1  0.74337289  0.86961559  0.64342470  1
  O  O41  1  0.25662711  0.13038441  0.35657530  1
  O  O42  1  0.81125459  0.64564332  0.73512748  1
  O  O43  1  0.18874541  0.35435668  0.26487252  1
  O  O44  1  0.95160615  0.85555747  0.23683550  1
  O  O45  1  0.04839385  0.14444253  0.76316450  1
  O  O46  1  0.88788196  0.36840732  0.85497869  1
  O  O47  1  0.11211804  0.63159268  0.14502131  1
  O  O48  1  0.94948844  0.14875182  0.95644966  1
  O  O49  1  0.05051156  0.85124818  0.04355034  1
  O  O50  1  0.30844302  0.65012350  0.73651352  1
  O  O51  1  0.69155698  0.34987650  0.26348648  1
  O  O52  1  0.24263741  0.87350425  0.64156758  1
  O  O53  1  0.75736259  0.12649575  0.35843242  1
  O  O54  1  0.40480082  0.64955340  0.54482251  1
  O  O55  1  0.59519918  0.35044660  0.45517749  1
  O  O56  1  0.86812424  0.89667880  0.85709197  1
  O  O57  1  0.13187576  0.10332120  0.14290803  1
  O  O58  1  0.37652482  0.89640940  0.85723855  1
  O  O59  1  0.62347518  0.10359060  0.14276145  1
  O  O60  1  0.49077079  0.61233440  0.92265128  1
  O  O61  1  0.50922921  0.38766560  0.07734872  1
  O  O62  1  0.97490540  0.61255933  0.92263330  1
  O  O63  1  0.02509460  0.38744067  0.07736670  1
  O  O64  1  0.72593901  0.39683762  0.64252488  1
  O  O65  1  0.27406099  0.60316238  0.35747512  1
  O  O66  1  0.76639819  0.60327545  0.35732219  1
  O  O67  1  0.23360181  0.39672455  0.64267781  1
  O  O68  1  0.89704605  0.11230942  0.57757121  1
  O  O69  1  0.10295395  0.88769058  0.42242879  1
  O  O70  1  0.58612097  0.88781814  0.42255312  1
  O  O71  1  0.41387903  0.11218186  0.57744688  1
