# generated using pymatgen
data_InSeClO3
_symmetry_space_group_name_H-M   'P 1'
_cell_length_a   7.15826959
_cell_length_b   7.26026553
_cell_length_c   16.66453221
_cell_angle_alpha   90.00000000
_cell_angle_beta   90.00000000
_cell_angle_gamma   90.00000000
_symmetry_Int_Tables_number   1
_chemical_formula_structural   InSeClO3
_chemical_formula_sum   'In8 Se8 Cl8 O24'
_cell_volume   866.07136960
_cell_formula_units_Z   8
loop_
 _symmetry_equiv_pos_site_id
 _symmetry_equiv_pos_as_xyz
  1  'x, y, z'
loop_
 _atom_site_type_symbol
 _atom_site_label
 _atom_site_symmetry_multiplicity
 _atom_site_fract_x
 _atom_site_fract_y
 _atom_site_fract_z
 _atom_site_occupancy
  In  In0  1  0.53771448  0.75024082  0.84617426  1
  In  In1  1  0.96228552  0.25024082  0.15382574  1
  In  In2  1  0.03771448  0.24975918  0.65382574  1
  In  In3  1  0.46228552  0.74975918  0.34617426  1
  In  In4  1  0.46228552  0.24975918  0.15382574  1
  In  In5  1  0.03771448  0.74975918  0.84617426  1
  In  In6  1  0.96228552  0.75024082  0.34617426  1
  In  In7  1  0.53771448  0.25024082  0.65382574  1
  Se  Se8  1  0.78646910  0.31985839  0.83908837  1
  Se  Se9  1  0.71353090  0.81985839  0.16091163  1
  Se  Se10  1  0.28646910  0.68014161  0.66091163  1
  Se  Se11  1  0.21353090  0.18014161  0.33908837  1
  Se  Se12  1  0.21353090  0.68014161  0.16091163  1
  Se  Se13  1  0.28646910  0.18014161  0.83908837  1
  Se  Se14  1  0.71353090  0.31985839  0.33908837  1
  Se  Se15  1  0.78646910  0.81985839  0.66091163  1
  Cl  Cl16  1  0.78708311  0.80927991  0.95349699  1
  Cl  Cl17  1  0.71291689  0.30927991  0.04650301  1
  Cl  Cl18  1  0.28708311  0.19072009  0.54650301  1
  Cl  Cl19  1  0.21291689  0.69072009  0.45349699  1
  Cl  Cl20  1  0.21291689  0.19072009  0.04650301  1
  Cl  Cl21  1  0.28708311  0.69072009  0.95349699  1
  Cl  Cl22  1  0.71291689  0.80927991  0.45349699  1
  Cl  Cl23  1  0.78708311  0.30927991  0.54650301  1
  O  O24  1  0.98074090  0.45574000  0.84768577  1
  O  O25  1  0.51925910  0.95574000  0.15231423  1
  O  O26  1  0.48074090  0.54426000  0.65231423  1
  O  O27  1  0.01925910  0.04426000  0.34768577  1
  O  O28  1  0.01925910  0.54426000  0.15231423  1
  O  O29  1  0.48074090  0.04426000  0.84768577  1
  O  O30  1  0.51925910  0.45574000  0.34768577  1
  O  O31  1  0.98074090  0.95574000  0.65231423  1
  O  O32  1  0.59164289  0.45591605  0.84569785  1
  O  O33  1  0.90835711  0.95591605  0.15430215  1
  O  O34  1  0.09164289  0.54408395  0.65430215  1
  O  O35  1  0.40835711  0.04408395  0.34569785  1
  O  O36  1  0.40835711  0.54408395  0.15430215  1
  O  O37  1  0.09164289  0.04408395  0.84569785  1
  O  O38  1  0.90835711  0.45591605  0.34569785  1
  O  O39  1  0.59164289  0.95591605  0.65430215  1
  O  O40  1  0.78777784  0.28438671  0.73076814  1
  O  O41  1  0.71222216  0.78438671  0.26923186  1
  O  O42  1  0.28777784  0.71561329  0.76923186  1
  O  O43  1  0.21222216  0.21561329  0.23076814  1
  O  O44  1  0.21222216  0.71561329  0.26923186  1
  O  O45  1  0.28777784  0.21561329  0.73076814  1
  O  O46  1  0.71222216  0.28438671  0.23076814  1
  O  O47  1  0.78777784  0.78438671  0.76923186  1
