# generated using pymatgen
data_Rb3B2P3H2O13
_symmetry_space_group_name_H-M   'P 1'
_cell_length_a   6.80654775
_cell_length_b   7.96988983
_cell_length_c   24.81718720
_cell_angle_alpha   93.24985256
_cell_angle_beta   90.00000000
_cell_angle_gamma   90.00000000
_symmetry_Int_Tables_number   1
_chemical_formula_structural   Rb3B2P3H2O13
_chemical_formula_sum   'Rb12 B8 P12 H8 O52'
_cell_volume   1344.10371979
_cell_formula_units_Z   4
loop_
 _symmetry_equiv_pos_site_id
 _symmetry_equiv_pos_as_xyz
  1  'x, y, z'
loop_
 _atom_site_type_symbol
 _atom_site_label
 _atom_site_symmetry_multiplicity
 _atom_site_fract_x
 _atom_site_fract_y
 _atom_site_fract_z
 _atom_site_occupancy
  Rb  Rb0  1  0.70202079  0.47387600  0.14930193  1
  Rb  Rb1  1  0.20202079  0.52612400  0.35069807  1
  Rb  Rb2  1  0.29797921  0.52612400  0.85069807  1
  Rb  Rb3  1  0.79797921  0.47387600  0.64930193  1
  Rb  Rb4  1  0.71009172  0.24152200  0.30775356  1
  Rb  Rb5  1  0.21009172  0.75847800  0.19224644  1
  Rb  Rb6  1  0.28990828  0.75847800  0.69224644  1
  Rb  Rb7  1  0.78990828  0.24152200  0.80775356  1
  Rb  Rb8  1  0.73730897  0.19141934  0.48415233  1
  Rb  Rb9  1  0.23730897  0.80858066  0.01584767  1
  Rb  Rb10  1  0.26269103  0.80858066  0.51584767  1
  Rb  Rb11  1  0.76269103  0.19141934  0.98415233  1
  B  B12  1  0.88618654  0.89172447  0.38315679  1
  B  B13  1  0.38618654  0.10827553  0.11684321  1
  B  B14  1  0.11381346  0.10827553  0.61684321  1
  B  B15  1  0.61381346  0.89172447  0.88315679  1
  B  B16  1  0.54122831  0.82396700  0.38096741  1
  B  B17  1  0.04122831  0.17603300  0.11903259  1
  B  B18  1  0.45877169  0.17603300  0.61903259  1
  B  B19  1  0.95877169  0.82396700  0.88096741  1
  P  P20  1  0.74813838  0.93655940  0.10683861  1
  P  P21  1  0.24813838  0.06344060  0.39316139  1
  P  P22  1  0.25186162  0.06344060  0.89316139  1
  P  P23  1  0.75186162  0.93655940  0.60683861  1
  P  P24  1  0.75015600  0.74191592  0.28996104  1
  P  P25  1  0.25015600  0.25808408  0.21003896  1
  P  P26  1  0.24984400  0.25808408  0.71003896  1
  P  P27  1  0.74984400  0.74191592  0.78996104  1
  P  P28  1  0.76811203  0.61748635  0.43530973  1
  P  P29  1  0.26811203  0.38251365  0.06469027  1
  P  P30  1  0.23188797  0.38251365  0.56469027  1
  P  P31  1  0.73188797  0.61748635  0.93530973  1
  H  H32  1  0.73681914  0.86918428  0.21135950  1
  H  H33  1  0.23681914  0.13081572  0.28864050  1
  H  H34  1  0.26318086  0.13081572  0.78864050  1
  H  H35  1  0.76318086  0.86918428  0.71135950  1
  H  H36  1  0.74276219  0.70710173  0.52110935  1
  H  H37  1  0.24276219  0.29289827  0.97889065  1
  H  H38  1  0.25723781  0.29289827  0.47889065  1
  H  H39  1  0.75723781  0.70710173  0.02110935  1
  O  O40  1  0.69300846  0.88692470  0.25150025  1
  O  O41  1  0.19300846  0.11307530  0.24849975  1
  O  O42  1  0.30699154  0.11307530  0.74849975  1
  O  O43  1  0.80699154  0.88692470  0.75150025  1
  O  O44  1  0.77335781  0.59532293  0.49773693  1
  O  O45  1  0.27335781  0.40467707  0.00226307  1
  O  O46  1  0.22664219  0.40467707  0.50226307  1
  O  O47  1  0.72664219  0.59532293  0.99773693  1
  O  O48  1  0.51834181  0.96660120  0.10547518  1
  O  O49  1  0.01834181  0.03339880  0.39452482  1
  O  O50  1  0.48165819  0.03339880  0.89452482  1
  O  O51  1  0.98165819  0.96660120  0.60547518  1
  O  O52  1  0.33699566  0.88067340  0.38439512  1
  O  O53  1  0.83699566  0.11932660  0.11560488  1
  O  O54  1  0.66300434  0.11932660  0.61560488  1
  O  O55  1  0.16300434  0.88067340  0.88439512  1
  O  O56  1  0.81105167  0.86108731  0.05175328  1
  O  O57  1  0.31105167  0.13891269  0.44824672  1
  O  O58  1  0.18894833  0.13891269  0.94824672  1
  O  O59  1  0.68894833  0.86108731  0.55175328  1
  O  O60  1  0.79798666  0.82889785  0.15400582  1
  O  O61  1  0.29798666  0.17110215  0.34599418  1
  O  O62  1  0.20201334  0.17110215  0.84599418  1
  O  O63  1  0.70201334  0.82889785  0.65400582  1
  O  O64  1  0.92412375  0.81154494  0.32722038  1
  O  O65  1  0.42412375  0.18845506  0.17277962  1
  O  O66  1  0.07587625  0.18845506  0.67277962  1
  O  O67  1  0.57587625  0.81154494  0.82722038  1
  O  O68  1  0.92592768  0.75718748  0.42320825  1
  O  O69  1  0.42592768  0.24281252  0.07679175  1
  O  O70  1  0.07407232  0.24281252  0.57679175  1
  O  O71  1  0.57407232  0.75718748  0.92320825  1
  O  O72  1  0.56493037  0.72496230  0.32703162  1
  O  O73  1  0.06493037  0.27503770  0.17296838  1
  O  O74  1  0.43506963  0.27503770  0.67296838  1
  O  O75  1  0.93506963  0.72496230  0.82703162  1
  O  O76  1  0.56007771  0.69610561  0.42367596  1
  O  O77  1  0.06007771  0.30389439  0.07632404  1
  O  O78  1  0.43992229  0.30389439  0.57632404  1
  O  O79  1  0.93992229  0.69610561  0.92367596  1
  O  O80  1  0.68725982  0.95244560  0.38772689  1
  O  O81  1  0.18725982  0.04755440  0.11227311  1
  O  O82  1  0.31274018  0.04755440  0.61227311  1
  O  O83  1  0.81274018  0.95244560  0.88772689  1
  O  O84  1  0.80802460  0.58088811  0.26004215  1
  O  O85  1  0.30802460  0.41911189  0.23995785  1
  O  O86  1  0.19197540  0.41911189  0.73995785  1
  O  O87  1  0.69197540  0.58088811  0.76004215  1
  O  O88  1  0.80716761  0.45290003  0.40458422  1
  O  O89  1  0.30716761  0.54709997  0.09541578  1
  O  O90  1  0.19283239  0.54709997  0.59541578  1
  O  O91  1  0.69283239  0.45290003  0.90458422  1
