# generated using pymatgen
data_Li8NbNi3(PO4)6
_symmetry_space_group_name_H-M   'P 1'
_cell_length_a   8.87873182
_cell_length_b   8.87873191
_cell_length_c   8.79108386
_cell_angle_alpha   120.33035857
_cell_angle_beta   59.66963635
_cell_angle_gamma   120.00000001
_symmetry_Int_Tables_number   1
_chemical_formula_structural   Li8NbNi3(PO4)6
_chemical_formula_sum   'Li8 Nb1 Ni3 P6 O24'
_cell_volume   487.57626105
_cell_formula_units_Z   1
loop_
 _symmetry_equiv_pos_site_id
 _symmetry_equiv_pos_as_xyz
  1  'x, y, z'
loop_
 _atom_site_type_symbol
 _atom_site_label
 _atom_site_symmetry_multiplicity
 _atom_site_fract_x
 _atom_site_fract_y
 _atom_site_fract_z
 _atom_site_occupancy
  Li  Li0  1  0.31012964  0.34926085  0.20612214  1
  Li  Li1  1  0.83300907  0.68987036  0.20612214  1
  Li  Li2  1  0.65073915  0.16699093  0.20612214  1
  Li  Li3  1  0.97402620  0.02597380  0.07792239  1
  Li  Li4  1  0.33272926  0.84150783  0.81120228  1
  Li  Li5  1  0.47732245  0.52267955  0.56803565  1
  Li  Li6  1  0.15849217  0.30242370  0.81120228  1
  Li  Li7  1  0.69757630  0.66727074  0.81120228  1
  Nb  Nb8  1  0.14634521  0.85365479  0.56096437  1
  Ni  Ni9  1  0.65052705  0.34947295  0.04841886  1
  Ni  Ni10  1  0.85222601  0.14777399  0.44332098  1
  Ni  Ni11  1  0.34799342  0.65200658  0.95601874  1
  P  P12  1  0.55463039  0.75208748  0.24375660  1
  P  P13  1  0.24791252  0.04630052  0.24375660  1
  P  P14  1  0.95369948  0.44536961  0.24375660  1
  P  P15  1  0.04581445  0.53999656  0.74798582  1
  P  P16  1  0.74619629  0.95418555  0.74798582  1
  P  P17  1  0.46000344  0.25380371  0.74798582  1
  O  O18  1  0.27256413  0.87481763  0.06881385  1
  O  O19  1  0.12518237  0.46656035  0.06881385  1
  O  O20  1  0.53343965  0.72743587  0.06881385  1
  O  O21  1  0.17936684  0.99919114  0.42078030  1
  O  O22  1  0.00080886  0.60095600  0.42078030  1
  O  O23  1  0.75138608  0.88919900  0.24278139  1
  O  O24  1  0.39904400  0.82063316  0.42078030  1
  O  O25  1  0.53853010  0.57134543  0.24784154  1
  O  O26  1  0.11080100  0.10496746  0.24278139  1
  O  O27  1  0.42865457  0.21502621  0.24784154  1
  O  O28  1  0.78497379  0.46146990  0.24784154  1
  O  O29  1  0.01034896  0.38683244  0.57248383  1
  O  O30  1  0.10054921  0.73872061  0.74436229  1
  O  O31  1  0.80399865  0.98965104  0.57248383  1
  O  O32  1  0.89503254  0.24861392  0.24278139  1
  O  O33  1  0.22280611  0.54714745  0.75425960  1
  O  O34  1  0.57008173  0.77719389  0.75425960  1
  O  O35  1  0.89380810  0.89945079  0.74436229  1
  O  O36  1  0.45285255  0.42991827  0.75425960  1
  O  O37  1  0.61316756  0.19600135  0.57248383  1
  O  O38  1  0.26127939  0.10619190  0.74436229  1
  O  O39  1  0.46828988  0.28005966  0.93096571  1
  O  O40  1  0.88080407  0.53171012  0.93096571  1
  O  O41  1  0.71994034  0.11919593  0.93096571  1
