# generated using pymatgen
data_Dy5Sn4
_symmetry_space_group_name_H-M   'P 1'
_cell_length_a   8.04552116
_cell_length_b   8.14944150
_cell_length_c   15.52918323
_cell_angle_alpha   90.00000000
_cell_angle_beta   90.00000000
_cell_angle_gamma   90.00000000
_symmetry_Int_Tables_number   1
_chemical_formula_structural   Dy5Sn4
_chemical_formula_sum   'Dy20 Sn16'
_cell_volume   1018.19425484
_cell_formula_units_Z   4
loop_
 _symmetry_equiv_pos_site_id
 _symmetry_equiv_pos_as_xyz
  1  'x, y, z'
loop_
 _atom_site_type_symbol
 _atom_site_label
 _atom_site_symmetry_multiplicity
 _atom_site_fract_x
 _atom_site_fract_y
 _atom_site_fract_z
 _atom_site_occupancy
  Dy  Dy0  1  0.36762044  0.83529200  0.87858478  1
  Dy  Dy1  1  0.86762044  0.66470800  0.62141522  1
  Dy  Dy2  1  0.63237956  0.16470800  0.37858478  1
  Dy  Dy3  1  0.13237956  0.33529200  0.12141522  1
  Dy  Dy4  1  0.63237956  0.16470800  0.12141522  1
  Dy  Dy5  1  0.13237956  0.33529200  0.37858478  1
  Dy  Dy6  1  0.36762044  0.83529200  0.62141522  1
  Dy  Dy7  1  0.86762044  0.66470800  0.87858478  1
  Dy  Dy8  1  0.52175849  0.31952007  0.90241544  1
  Dy  Dy9  1  0.02175849  0.18047993  0.59758456  1
  Dy  Dy10  1  0.47824151  0.68047993  0.40241544  1
  Dy  Dy11  1  0.97824151  0.81952007  0.09758456  1
  Dy  Dy12  1  0.47824151  0.68047993  0.09758456  1
  Dy  Dy13  1  0.97824151  0.81952007  0.40241544  1
  Dy  Dy14  1  0.52175849  0.31952007  0.59758456  1
  Dy  Dy15  1  0.02175849  0.18047993  0.90241544  1
  Dy  Dy16  1  0.19718221  0.50306764  0.75000000  1
  Dy  Dy17  1  0.69718221  0.99693236  0.75000000  1
  Dy  Dy18  1  0.80281779  0.49693236  0.25000000  1
  Dy  Dy19  1  0.30281779  0.00306764  0.25000000  1
  Sn  Sn20  1  0.29159183  0.03337844  0.04184422  1
  Sn  Sn21  1  0.79159183  0.46662156  0.45815578  1
  Sn  Sn22  1  0.70840817  0.96662156  0.54184422  1
  Sn  Sn23  1  0.20840817  0.53337844  0.95815578  1
  Sn  Sn24  1  0.70840817  0.96662156  0.95815578  1
  Sn  Sn25  1  0.20840817  0.53337844  0.54184422  1
  Sn  Sn26  1  0.29159183  0.03337844  0.45815578  1
  Sn  Sn27  1  0.79159183  0.46662156  0.04184422  1
  Sn  Sn28  1  0.56521600  0.61965819  0.75000000  1
  Sn  Sn29  1  0.06521600  0.88034181  0.75000000  1
  Sn  Sn30  1  0.43478400  0.38034181  0.25000000  1
  Sn  Sn31  1  0.93478400  0.11965819  0.25000000  1
  Sn  Sn32  1  0.32877763  0.14534096  0.75000000  1
  Sn  Sn33  1  0.82877763  0.35465904  0.75000000  1
  Sn  Sn34  1  0.67122237  0.85465904  0.25000000  1
  Sn  Sn35  1  0.17122237  0.64534096  0.25000000  1
