# generated using pymatgen
data_Ho5P12Ru19
_symmetry_space_group_name_H-M   'P 1'
_cell_length_a   3.96697780
_cell_length_b   12.51224821
_cell_length_c   12.51268783
_cell_angle_alpha   119.99883601
_cell_angle_beta   90.00000000
_cell_angle_gamma   90.00000000
_symmetry_Int_Tables_number   1
_chemical_formula_structural   Ho5P12Ru19
_chemical_formula_sum   'Ho5 P12 Ru19'
_cell_volume   537.87512025
_cell_formula_units_Z   1
loop_
 _symmetry_equiv_pos_site_id
 _symmetry_equiv_pos_as_xyz
  1  'x, y, z'
loop_
 _atom_site_type_symbol
 _atom_site_label
 _atom_site_symmetry_multiplicity
 _atom_site_fract_x
 _atom_site_fract_y
 _atom_site_fract_z
 _atom_site_occupancy
  Ho  Ho0  1  0.50000000  0.00000565  0.18460563  1
  Ho  Ho1  1  0.50000000  0.18460055  0.00000000  1
  Ho  Ho2  1  0.50000000  0.81540003  0.81539437  1
  Ho  Ho3  1  -0.00000000  0.33330020  0.66667561  1
  Ho  Ho4  1  -0.00000000  0.66662459  0.33332439  1
  P  P5  1  -0.00000000  -0.00000722  0.81618448  1
  P  P6  1  -0.00000000  0.81618491  0.00000000  1
  P  P7  1  -0.00000000  0.18380830  0.18381552  1
  P  P8  1  0.50000000  0.30759133  0.47795868  1
  P  P9  1  0.50000000  0.17034952  0.69239603  1
  P  P10  1  0.50000000  0.52204027  0.82963887  1
  P  P11  1  0.50000000  0.82963265  0.52204132  1
  P  P12  1  0.50000000  0.47795349  0.30760397  1
  P  P13  1  0.50000000  0.69240140  0.17036113  1
  P  P14  1  -0.00000000  0.00000511  0.37236460  1
  P  P15  1  -0.00000000  0.37234838  1.00000000  1
  P  P16  1  -0.00000000  0.62764051  0.62763540  1
  Ru  Ru17  1  0.00000000  -0.00000090  0.55447182  1
  Ru  Ru18  1  -0.00000000  0.55445550  0.00000000  1
  Ru  Ru19  1  0.00000000  0.44552728  0.44552818  1
  Ru  Ru20  1  0.50000000  0.00000526  0.71728704  1
  Ru  Ru21  1  0.50000000  0.71730417  1.00000000  1
  Ru  Ru22  1  0.50000000  0.28271822  0.28271296  1
  Ru  Ru23  1  -0.00000000  0.19245403  0.37689942  1
  Ru  Ru24  1  -0.00000000  0.18444197  0.80753877  1
  Ru  Ru25  1  -0.00000000  0.62310535  0.81556071  1
  Ru  Ru26  1  0.00000000  0.81555461  0.62310058  1
  Ru  Ru27  1  -0.00000000  0.37690319  0.19246123  1
  Ru  Ru28  1  0.00000000  0.80754464  0.18443929  1
  Ru  Ru29  1  0.50000000  0.12627892  0.49125524  1
  Ru  Ru30  1  0.50000000  0.36499270  0.87372191  1
  Ru  Ru31  1  0.50000000  0.50874343  0.63501951  1
  Ru  Ru32  1  0.50000000  0.63502367  0.50874476  1
  Ru  Ru33  1  0.50000000  0.49127079  0.12627809  1
  Ru  Ru34  1  0.50000000  0.87372392  0.36498049  1
  Ru  Ru35  1  -0.00000000  0.99997358  0.00000000  1
