# generated using pymatgen
data_ScMnGe2
_symmetry_space_group_name_H-M   'P 1'
_cell_length_a   8.10746059
_cell_length_b   9.30872375
_cell_length_c   10.15860137
_cell_angle_alpha   90.00000000
_cell_angle_beta   90.00000000
_cell_angle_gamma   90.00000000
_symmetry_Int_Tables_number   1
_chemical_formula_structural   ScMnGe2
_chemical_formula_sum   'Sc12 Mn12 Ge24'
_cell_volume   766.67077245
_cell_formula_units_Z   12
loop_
 _symmetry_equiv_pos_site_id
 _symmetry_equiv_pos_as_xyz
  1  'x, y, z'
loop_
 _atom_site_type_symbol
 _atom_site_label
 _atom_site_symmetry_multiplicity
 _atom_site_fract_x
 _atom_site_fract_y
 _atom_site_fract_z
 _atom_site_occupancy
  Sc  Sc0  1  0.74247858  0.82833897  0.04701222  1
  Sc  Sc1  1  0.74247858  0.17166103  0.95298778  1
  Sc  Sc2  1  0.25752142  0.67166103  0.54701222  1
  Sc  Sc3  1  0.25752142  0.32833897  0.45298778  1
  Sc  Sc4  1  0.25752142  0.17166103  0.95298778  1
  Sc  Sc5  1  0.25752142  0.82833897  0.04701222  1
  Sc  Sc6  1  0.74247858  0.32833897  0.45298778  1
  Sc  Sc7  1  0.74247858  0.67166103  0.54701222  1
  Sc  Sc8  1  0.50000000  0.83610275  0.32040835  1
  Sc  Sc9  1  0.50000000  0.16389725  0.67959165  1
  Sc  Sc10  1  0.50000000  0.66389725  0.82040835  1
  Sc  Sc11  1  0.50000000  0.33610275  0.17959165  1
  Mn  Mn12  1  0.75057427  0.58481199  0.24910986  1
  Mn  Mn13  1  0.75057427  0.41518801  0.75089014  1
  Mn  Mn14  1  0.24942573  0.91518801  0.74910986  1
  Mn  Mn15  1  0.24942573  0.08481199  0.25089014  1
  Mn  Mn16  1  0.24942573  0.41518801  0.75089014  1
  Mn  Mn17  1  0.24942573  0.58481199  0.24910986  1
  Mn  Mn18  1  0.75057427  0.08481199  0.25089014  1
  Mn  Mn19  1  0.75057427  0.91518801  0.74910986  1
  Mn  Mn20  1  0.74655375  -0.00000000  0.50000000  1
  Mn  Mn21  1  0.25344625  0.50000000  -0.00000000  1
  Mn  Mn22  1  0.25344625  -0.00000000  0.50000000  1
  Mn  Mn23  1  0.74655375  0.50000000  -0.00000000  1
  Ge  Ge24  1  0.84024009  0.83550896  0.31815685  1
  Ge  Ge25  1  0.84024009  0.16449104  0.68184315  1
  Ge  Ge26  1  0.15975991  0.66449104  0.81815685  1
  Ge  Ge27  1  0.15975991  0.33550896  0.18184315  1
  Ge  Ge28  1  0.15975991  0.16449104  0.68184315  1
  Ge  Ge29  1  0.15975991  0.83550896  0.31815685  1
  Ge  Ge30  1  0.84024009  0.33550896  0.18184315  1
  Ge  Ge31  1  0.84024009  0.66449104  0.81815685  1
  Ge  Ge32  1  0.50000000  0.54067793  0.37843229  1
  Ge  Ge33  1  0.50000000  0.45932207  0.62156771  1
  Ge  Ge34  1  0.50000000  0.95932207  0.87843229  1
  Ge  Ge35  1  0.50000000  0.04067793  0.12156771  1
  Ge  Ge36  1  0.00000000  0.54181079  0.37795372  1
  Ge  Ge37  1  -0.00000000  0.45818921  0.62204628  1
  Ge  Ge38  1  0.00000000  0.95818921  0.87795372  1
  Ge  Ge39  1  0.00000000  0.04181079  0.12204628  1
  Ge  Ge40  1  0.50000000  0.63011895  0.10135087  1
  Ge  Ge41  1  0.50000000  0.36988105  0.89864913  1
  Ge  Ge42  1  0.50000000  0.86988105  0.60135087  1
  Ge  Ge43  1  0.50000000  0.13011895  0.39864913  1
  Ge  Ge44  1  -0.00000000  0.62491313  0.09504471  1
  Ge  Ge45  1  -0.00000000  0.37508687  0.90495529  1
  Ge  Ge46  1  -0.00000000  0.87508687  0.59504471  1
  Ge  Ge47  1  0.00000000  0.12491313  0.40495529  1
