# generated using pymatgen
data_Na2Ta2(P2O7)3
_symmetry_space_group_name_H-M   'P 1'
_cell_length_a   9.18918685
_cell_length_b   9.18926265
_cell_length_c   12.79977561
_cell_angle_alpha   90.00000000
_cell_angle_beta   90.00000000
_cell_angle_gamma   120.00009708
_symmetry_Int_Tables_number   1
_chemical_formula_structural   Na2Ta2(P2O7)3
_chemical_formula_sum   'Na4 Ta4 P12 O42'
_cell_volume   936.03116909
_cell_formula_units_Z   2
loop_
 _symmetry_equiv_pos_site_id
 _symmetry_equiv_pos_as_xyz
  1  'x, y, z'
loop_
 _atom_site_type_symbol
 _atom_site_label
 _atom_site_symmetry_multiplicity
 _atom_site_fract_x
 _atom_site_fract_y
 _atom_site_fract_z
 _atom_site_occupancy
  Na  Na0  1  -0.00000000  -0.00000000  0.50000000  1
  Na  Na1  1  -0.00000000  -0.00000000  -0.00000000  1
  Na  Na2  1  -0.00000034  0.00000204  0.75000000  1
  Na  Na3  1  0.00000034  0.99999796  0.25000000  1
  Ta  Ta4  1  0.66666243  0.33333114  0.52409562  1
  Ta  Ta5  1  0.33333757  0.66666886  0.02409562  1
  Ta  Ta6  1  0.33333757  0.66666886  0.47590438  1
  Ta  Ta7  1  0.66666243  0.33333114  0.97590438  1
  P  P8  1  0.33948177  0.97874308  0.63457302  1
  P  P9  1  0.02125371  0.36074178  0.63457212  1
  P  P10  1  0.63926365  0.66051466  0.63457353  1
  P  P11  1  0.66051823  0.02125692  0.13457302  1
  P  P12  1  0.97874629  0.63925822  0.13457212  1
  P  P13  1  0.36073635  0.33948534  0.13457353  1
  P  P14  1  0.66051823  0.02125692  0.36542698  1
  P  P15  1  0.97874629  0.63925822  0.36542788  1
  P  P16  1  0.36073635  0.33948534  0.36542647  1
  P  P17  1  0.33948177  0.97874308  0.86542698  1
  P  P18  1  0.02125371  0.36074178  0.86542788  1
  P  P19  1  0.63926365  0.66051466  0.86542647  1
  O  O20  1  0.38325125  0.94046850  0.75000000  1
  O  O21  1  0.05952735  0.44278075  0.75000000  1
  O  O22  1  0.55721880  0.61674862  0.75000000  1
  O  O23  1  0.61674875  0.05953150  0.25000000  1
  O  O24  1  0.94047265  0.55721925  0.25000000  1
  O  O25  1  0.44278120  0.38325138  0.25000000  1
  O  O26  1  0.48430185  0.16150249  0.61100389  1
  O  O27  1  0.83849488  0.32280299  0.61100063  1
  O  O28  1  0.67719567  0.51569231  0.61100353  1
  O  O29  1  0.51569815  0.83849751  0.11100389  1
  O  O30  1  0.16150512  0.67719701  0.11100063  1
  O  O31  1  0.32280433  0.48430769  0.11100353  1
  O  O32  1  0.51569815  0.83849751  0.38899611  1
  O  O33  1  0.16150512  0.67719701  0.38899937  1
  O  O34  1  0.32280433  0.48430769  0.38899647  1
  O  O35  1  0.48430185  0.16150249  0.88899611  1
  O  O36  1  0.83849488  0.32280299  0.88899937  1
  O  O37  1  0.67719567  0.51569231  0.88899647  1
  O  O38  1  0.36873034  0.85651491  0.56623973  1
  O  O39  1  0.14349147  0.51221507  0.56623943  1
  O  O40  1  0.48778883  0.63127478  0.56623922  1
  O  O41  1  0.63126966  0.14348509  0.06623973  1
  O  O42  1  0.85650853  0.48778493  0.06623943  1
  O  O43  1  0.51221117  0.36872522  0.06623922  1
  O  O44  1  0.63126966  0.14348509  0.43376027  1
  O  O45  1  0.85650853  0.48778493  0.43376057  1
  O  O46  1  0.51221117  0.36872522  0.43376078  1
  O  O47  1  0.36873034  0.85651491  0.93376027  1
  O  O48  1  0.14349147  0.51221507  0.93376057  1
  O  O49  1  0.48778883  0.63127478  0.93376078  1
  O  O50  1  0.16882624  0.95650013  0.62666539  1
  O  O51  1  0.04349640  0.21232815  0.62666419  1
  O  O52  1  0.78767493  0.83117197  0.62666527  1
  O  O53  1  0.83117376  0.04349987  0.12666539  1
  O  O54  1  0.95650360  0.78767185  0.12666419  1
  O  O55  1  0.21232507  0.16882803  0.12666527  1
  O  O56  1  0.83117376  0.04349987  0.37333461  1
  O  O57  1  0.95650360  0.78767185  0.37333581  1
  O  O58  1  0.21232507  0.16882803  0.37333473  1
  O  O59  1  0.16882624  0.95650013  0.87333461  1
  O  O60  1  0.04349640  0.21232815  0.87333581  1
  O  O61  1  0.78767493  0.83117197  0.87333473  1
