# generated using pymatgen
data_AlH15Br3N5
_symmetry_space_group_name_H-M   'P 1'
_cell_length_a   7.26333381
_cell_length_b   11.00984498
_cell_length_c   15.53612889
_cell_angle_alpha   90.00000000
_cell_angle_beta   90.00000000
_cell_angle_gamma   90.00000000
_symmetry_Int_Tables_number   1
_chemical_formula_structural   AlH15Br3N5
_chemical_formula_sum   'Al4 H60 Br12 N20'
_cell_volume   1242.39594049
_cell_formula_units_Z   4
loop_
 _symmetry_equiv_pos_site_id
 _symmetry_equiv_pos_as_xyz
  1  'x, y, z'
loop_
 _atom_site_type_symbol
 _atom_site_label
 _atom_site_symmetry_multiplicity
 _atom_site_fract_x
 _atom_site_fract_y
 _atom_site_fract_z
 _atom_site_occupancy
  Al  Al0  1  0.67971660  0.75000000  0.38578980  1
  Al  Al1  1  0.82028340  0.75000000  0.88578980  1
  Al  Al2  1  0.32028340  0.25000000  0.61421020  1
  Al  Al3  1  0.17971660  0.25000000  0.11421020  1
  H  H4  1  0.52131747  0.75000000  0.23468741  1
  H  H5  1  0.97868253  0.75000000  0.73468741  1
  H  H6  1  0.47868253  0.25000000  0.76531259  1
  H  H7  1  0.02131747  0.25000000  0.26531259  1
  H  H8  1  0.38915323  0.82496319  0.30289479  1
  H  H9  1  0.11084677  0.67503681  0.80289479  1
  H  H10  1  0.61084677  0.32496319  0.69710521  1
  H  H11  1  0.88915323  0.17503681  0.19710521  1
  H  H12  1  0.61084677  0.17503681  0.69710521  1
  H  H13  1  0.88915323  0.32496319  0.19710521  1
  H  H14  1  0.38915323  0.67503681  0.30289479  1
  H  H15  1  0.11084677  0.82496319  0.80289479  1
  H  H16  1  0.02014131  0.75000000  0.45105873  1
  H  H17  1  0.47985869  0.75000000  0.95105873  1
  H  H18  1  0.97985869  0.25000000  0.54894127  1
  H  H19  1  0.52014131  0.25000000  0.04894127  1
  H  H20  1  0.62142104  0.82394042  0.01513327  1
  H  H21  1  0.87857896  0.67605958  0.51513327  1
  H  H22  1  0.37857896  0.32394042  0.98486673  1
  H  H23  1  0.12142104  0.17605958  0.48486673  1
  H  H24  1  0.37857896  0.17605958  0.98486673  1
  H  H25  1  0.12142104  0.32394042  0.48486673  1
  H  H26  1  0.62142104  0.67605958  0.01513327  1
  H  H27  1  0.87857896  0.82394042  0.51513327  1
  H  H28  1  0.82342958  0.75000000  0.23079296  1
  H  H29  1  0.67657042  0.75000000  0.73079296  1
  H  H30  1  0.17657042  0.25000000  0.76920704  1
  H  H31  1  0.32342958  0.25000000  0.26920704  1
  H  H32  1  0.95995335  0.82547390  0.29627595  1
  H  H33  1  0.54004665  0.67452610  0.79627595  1
  H  H34  1  0.04004665  0.32547390  0.70372405  1
  H  H35  1  0.45995335  0.17452610  0.20372405  1
  H  H36  1  0.04004665  0.17452610  0.70372405  1
  H  H37  1  0.45995335  0.32547390  0.20372405  1
  H  H38  1  0.95995335  0.67452610  0.29627595  1
  H  H39  1  0.54004665  0.82547390  0.79627595  1
  H  H40  1  0.73815700  0.97572836  0.43312337  1
  H  H41  1  0.76184300  0.52427164  0.93312337  1
  H  H42  1  0.26184300  0.47572836  0.56687663  1
  H  H43  1  0.23815700  0.02427164  0.06687663  1
  H  H44  1  0.26184300  0.02427164  0.56687663  1
  H  H45  1  0.23815700  0.47572836  0.06687663  1
  H  H46  1  0.73815700  0.52427164  0.43312337  1
  H  H47  1  0.76184300  0.97572836  0.93312337  1
  H  H48  1  0.53661814  0.96328809  0.38588978  1
  H  H49  1  0.96338186  0.53671191  0.88588978  1
  H  H50  1  0.46338186  0.46328809  0.61411022  1
  H  H51  1  0.03661814  0.03671191  0.11411022  1
  H  H52  1  0.46338186  0.03671191  0.61411022  1
  H  H53  1  0.03661814  0.46328809  0.11411022  1
  H  H54  1  0.53661814  0.53671191  0.38588978  1
  H  H55  1  0.96338186  0.96328809  0.88588978  1
  H  H56  1  0.72564657  0.97033116  0.32752890  1
  H  H57  1  0.77435343  0.52966884  0.82752890  1
  H  H58  1  0.27435343  0.47033116  0.67247110  1
  H  H59  1  0.22564657  0.02966884  0.17247110  1
  H  H60  1  0.27435343  0.02966884  0.67247110  1
  H  H61  1  0.22564657  0.47033116  0.17247110  1
  H  H62  1  0.72564657  0.52966884  0.32752890  1
  H  H63  1  0.77435343  0.97033116  0.82752890  1
  Br  Br64  1  0.04651301  0.75000000  0.00660008  1
  Br  Br65  1  0.45348699  0.75000000  0.50660008  1
  Br  Br66  1  0.95348699  0.25000000  0.99339992  1
  Br  Br67  1  0.54651301  0.25000000  0.49339992  1
  Br  Br68  1  0.65909037  0.00180311  0.15625504  1
  Br  Br69  1  0.84090963  0.49819689  0.65625504  1
  Br  Br70  1  0.34090963  0.50180311  0.84374496  1
  Br  Br71  1  0.15909037  0.99819689  0.34374496  1
  Br  Br72  1  0.34090963  0.99819689  0.84374496  1
  Br  Br73  1  0.15909037  0.50180311  0.34374496  1
  Br  Br74  1  0.65909037  0.49819689  0.15625504  1
  Br  Br75  1  0.84090963  0.00180311  0.65625504  1
  N  N76  1  0.47361689  0.75000000  0.29674150  1
  N  N77  1  0.02638311  0.75000000  0.79674150  1
  N  N78  1  0.52638311  0.25000000  0.70325850  1
  N  N79  1  0.97361689  0.25000000  0.20325850  1
  N  N80  1  0.88853705  0.75000000  0.47498669  1
  N  N81  1  0.61146295  0.75000000  0.97498669  1
  N  N82  1  0.11146295  0.25000000  0.52501331  1
  N  N83  1  0.38853705  0.25000000  0.02501331  1
  N  N84  1  0.87521782  0.75000000  0.29203691  1
  N  N85  1  0.62478218  0.75000000  0.79203691  1
  N  N86  1  0.12478218  0.25000000  0.70796309  1
  N  N87  1  0.37521782  0.25000000  0.20796309  1
  N  N88  1  0.67103653  0.93426310  0.38298533  1
  N  N89  1  0.82896347  0.56573690  0.88298533  1
  N  N90  1  0.32896347  0.43426310  0.61701467  1
  N  N91  1  0.17103653  0.06573690  0.11701467  1
  N  N92  1  0.32896347  0.06573690  0.61701467  1
  N  N93  1  0.17103653  0.43426310  0.11701467  1
  N  N94  1  0.67103653  0.56573690  0.38298533  1
  N  N95  1  0.82896347  0.93426310  0.88298533  1
