# generated using pymatgen
data_SnH6C(NCl)3
_symmetry_space_group_name_H-M   'P 1'
_cell_length_a   8.19351251
_cell_length_b   12.53695497
_cell_length_c   18.58152754
_cell_angle_alpha   90.00000000
_cell_angle_beta   90.00000000
_cell_angle_gamma   90.00000000
_symmetry_Int_Tables_number   1
_chemical_formula_structural   SnH6C(NCl)3
_chemical_formula_sum   'Sn8 H48 C8 N24 Cl24'
_cell_volume   1908.72604890
_cell_formula_units_Z   8
loop_
 _symmetry_equiv_pos_site_id
 _symmetry_equiv_pos_as_xyz
  1  'x, y, z'
loop_
 _atom_site_type_symbol
 _atom_site_label
 _atom_site_symmetry_multiplicity
 _atom_site_fract_x
 _atom_site_fract_y
 _atom_site_fract_z
 _atom_site_occupancy
  Sn  Sn0  1  0.68693626  0.76313694  0.38175423  1
  Sn  Sn1  1  0.18693626  0.73686306  0.61824577  1
  Sn  Sn2  1  0.31306374  0.26313694  0.11824577  1
  Sn  Sn3  1  0.81306374  0.23686306  0.88175423  1
  Sn  Sn4  1  0.31306374  0.23686306  0.61824577  1
  Sn  Sn5  1  0.81306374  0.26313694  0.38175423  1
  Sn  Sn6  1  0.68693626  0.73686306  0.88175423  1
  Sn  Sn7  1  0.18693626  0.76313694  0.11824577  1
  H  H8  1  0.02219721  0.94155999  0.30362274  1
  H  H9  1  0.52219721  0.55844001  0.69637726  1
  H  H10  1  0.97780279  0.44155999  0.19637726  1
  H  H11  1  0.47780279  0.05844001  0.80362274  1
  H  H12  1  0.97780279  0.05844001  0.69637726  1
  H  H13  1  0.47780279  0.44155999  0.30362274  1
  H  H14  1  0.02219721  0.55844001  0.80362274  1
  H  H15  1  0.52219721  0.94155999  0.19637726  1
  H  H16  1  0.10387275  0.05363402  0.26199646  1
  H  H17  1  0.60387275  0.44636598  0.73800354  1
  H  H18  1  0.89612725  0.55363402  0.23800354  1
  H  H19  1  0.39612725  0.94636598  0.76199646  1
  H  H20  1  0.89612725  0.94636598  0.73800354  1
  H  H21  1  0.39612725  0.55363402  0.26199646  1
  H  H22  1  0.10387275  0.44636598  0.76199646  1
  H  H23  1  0.60387275  0.05363402  0.23800354  1
  H  H24  1  0.28935173  0.16113210  0.32067628  1
  H  H25  1  0.78935173  0.33886790  0.67932372  1
  H  H26  1  0.71064827  0.66113210  0.17932372  1
  H  H27  1  0.21064827  0.83886790  0.82067628  1
  H  H28  1  0.71064827  0.83886790  0.67932372  1
  H  H29  1  0.21064827  0.66113210  0.32067628  1
  H  H30  1  0.28935173  0.33886790  0.82067628  1
  H  H31  1  0.78935173  0.16113210  0.17932372  1
  H  H32  1  0.36775909  0.12549261  0.40423628  1
  H  H33  1  0.86775909  0.37450739  0.59576372  1
  H  H34  1  0.63224091  0.62549261  0.09576372  1
  H  H35  1  0.13224091  0.87450739  0.90423628  1
  H  H36  1  0.63224091  0.87450739  0.59576372  1
  H  H37  1  0.13224091  0.62549261  0.40423628  1
  H  H38  1  0.36775909  0.37450739  0.90423628  1
  H  H39  1  0.86775909  0.12549261  0.09576372  1
  H  H40  1  0.09970038  0.90198975  0.42431786  1
  H  H41  1  0.59970038  0.59801025  0.57568214  1
  H  H42  1  0.90029962  0.40198975  0.07568214  1
  H  H43  1  0.40029962  0.09801025  0.92431786  1
  H  H44  1  0.90029962  0.09801025  0.57568214  1
  H  H45  1  0.40029962  0.40198975  0.42431786  1
  H  H46  1  0.09970038  0.59801025  0.92431786  1
  H  H47  1  0.59970038  0.90198975  0.07568214  1
  H  H48  1  0.25393993  0.97578379  0.46467853  1
  H  H49  1  0.75393993  0.52421621  0.53532147  1
  H  H50  1  0.74606007  0.47578379  0.03532147  1
  H  H51  1  0.24606007  0.02421621  0.96467853  1
  H  H52  1  0.74606007  0.02421621  0.53532147  1
  H  H53  1  0.24606007  0.47578379  0.46467853  1
  H  H54  1  0.25393993  0.52421621  0.96467853  1
  H  H55  1  0.75393993  0.97578379  0.03532147  1
  C  C56  1  0.18989650  0.02593124  0.36349228  1
  C  C57  1  0.68989650  0.47406876  0.63650772  1
  C  C58  1  0.81010350  0.52593124  0.13650772  1
  C  C59  1  0.31010350  0.97406876  0.86349228  1
  C  C60  1  0.81010350  0.97406876  0.63650772  1
  C  C61  1  0.31010350  0.52593124  0.36349228  1
  C  C62  1  0.18989650  0.47406876  0.86349228  1
  C  C63  1  0.68989650  0.02593124  0.13650772  1
  N  N64  1  0.09069761  0.00898333  0.30720414  1
  N  N65  1  0.59069761  0.49101667  0.69279586  1
  N  N66  1  0.90930239  0.50898333  0.19279586  1
  N  N67  1  0.40930239  0.99101667  0.80720414  1
  N  N68  1  0.90930239  0.99101667  0.69279586  1
  N  N69  1  0.40930239  0.50898333  0.30720414  1
  N  N70  1  0.09069761  0.49101667  0.80720414  1
  N  N71  1  0.59069761  0.00898333  0.19279586  1
  N  N72  1  0.29402574  0.10774364  0.36183289  1
  N  N73  1  0.79402574  0.39225636  0.63816711  1
  N  N74  1  0.70597426  0.60774364  0.13816711  1
  N  N75  1  0.20597426  0.89225636  0.86183289  1
  N  N76  1  0.70597426  0.89225636  0.63816711  1
  N  N77  1  0.20597426  0.60774364  0.36183289  1
  N  N78  1  0.29402574  0.39225636  0.86183289  1
  N  N79  1  0.79402574  0.10774364  0.13816711  1
  N  N80  1  0.18435507  0.96101109  0.42053492  1
  N  N81  1  0.68435507  0.53898891  0.57946508  1
  N  N82  1  0.81564493  0.46101109  0.07946508  1
  N  N83  1  0.31564493  0.03898891  0.92053492  1
  N  N84  1  0.81564493  0.03898891  0.57946508  1
  N  N85  1  0.31564493  0.46101109  0.42053492  1
  N  N86  1  0.18435507  0.53898891  0.92053492  1
  N  N87  1  0.68435507  0.96101109  0.07946508  1
  Cl  Cl88  1  0.88488402  0.76849776  0.27353029  1
  Cl  Cl89  1  0.38488402  0.73150224  0.72646971  1
  Cl  Cl90  1  0.11511598  0.26849776  0.22646971  1
  Cl  Cl91  1  0.61511598  0.23150224  0.77353029  1
  Cl  Cl92  1  0.11511598  0.23150224  0.72646971  1
  Cl  Cl93  1  0.61511598  0.26849776  0.27353029  1
  Cl  Cl94  1  0.88488402  0.73150224  0.77353029  1
  Cl  Cl95  1  0.38488402  0.76849776  0.22646971  1
  Cl  Cl96  1  0.67782393  0.96313834  0.39471091  1
  Cl  Cl97  1  0.17782393  0.53686166  0.60528909  1
  Cl  Cl98  1  0.32217607  0.46313834  0.10528909  1
  Cl  Cl99  1  0.82217607  0.03686166  0.89471091  1
  Cl  Cl100  1  0.32217607  0.03686166  0.60528909  1
  Cl  Cl101  1  0.82217607  0.46313834  0.39471091  1
  Cl  Cl102  1  0.67782393  0.53686166  0.89471091  1
  Cl  Cl103  1  0.17782393  0.96313834  0.10528909  1
  Cl  Cl104  1  0.92893865  0.75137767  0.46840483  1
  Cl  Cl105  1  0.42893865  0.74862233  0.53159517  1
  Cl  Cl106  1  0.07106135  0.25137767  0.03159517  1
  Cl  Cl107  1  0.57106135  0.24862233  0.96840483  1
  Cl  Cl108  1  0.07106135  0.24862233  0.53159517  1
  Cl  Cl109  1  0.57106135  0.25137767  0.46840483  1
  Cl  Cl110  1  0.92893865  0.74862233  0.96840483  1
  Cl  Cl111  1  0.42893865  0.75137767  0.03159517  1
