# generated using pymatgen
data_Tl2(ReS2)3
_symmetry_space_group_name_H-M   'P 1'
_cell_length_a   9.90380517
_cell_length_b   9.75487640
_cell_length_c   11.99814859
_cell_angle_alpha   89.93928533
_cell_angle_beta   90.00000000
_cell_angle_gamma   120.50633396
_symmetry_Int_Tables_number   1
_chemical_formula_structural   Tl2(ReS2)3
_chemical_formula_sum   'Tl8 Re12 S24'
_cell_volume   998.68809171
_cell_formula_units_Z   4
loop_
 _symmetry_equiv_pos_site_id
 _symmetry_equiv_pos_as_xyz
  1  'x, y, z'
loop_
 _atom_site_type_symbol
 _atom_site_label
 _atom_site_symmetry_multiplicity
 _atom_site_fract_x
 _atom_site_fract_y
 _atom_site_fract_z
 _atom_site_occupancy
  Tl  Tl0  1  0.41439254  0.00000000  0.25000000  1
  Tl  Tl1  1  0.58560746  1.00000000  0.75000000  1
  Tl  Tl2  1  0.79297563  0.00000000  0.25000000  1
  Tl  Tl3  1  0.20702437  1.00000000  0.75000000  1
  Tl  Tl4  1  0.87642609  0.23012430  0.51316612  1
  Tl  Tl5  1  0.64630179  0.76987570  0.98683388  1
  Tl  Tl6  1  0.12357391  0.76987570  0.48683388  1
  Tl  Tl7  1  0.35369821  0.23012430  0.01316612  1
  Re  Re8  1  0.99234307  0.68443270  0.02538399  1
  Re  Re9  1  0.30791037  0.31556730  0.47461601  1
  Re  Re10  1  0.00765693  0.31556730  0.97461601  1
  Re  Re11  1  0.69208963  0.68443270  0.52538399  1
  Re  Re12  1  0.88429962  0.41044197  0.13110991  1
  Re  Re13  1  0.47385765  0.58955803  0.36889009  1
  Re  Re14  1  0.11570038  0.58955803  0.86889009  1
  Re  Re15  1  0.52614235  0.41044197  0.63110991  1
  Re  Re16  1  0.18681280  0.58556122  0.08247916  1
  Re  Re17  1  0.60125158  0.41443878  0.41752084  1
  Re  Re18  1  0.81318720  0.41443878  0.91752084  1
  Re  Re19  1  0.39874842  0.58556122  0.58247916  1
  S  S20  1  0.94224308  0.93284541  0.57269883  1
  S  S21  1  0.00939768  0.06715459  0.92730117  1
  S  S22  1  0.05775692  0.06715459  0.42730117  1
  S  S23  1  0.99060232  0.93284541  0.07269883  1
  S  S24  1  0.92600212  0.67210710  0.83097355  1
  S  S25  1  0.25389502  0.32789290  0.66902645  1
  S  S26  1  0.07399788  0.32789290  0.16902645  1
  S  S27  1  0.74610498  0.67210710  0.33097355  1
  S  S28  1  0.20891639  0.49283684  0.43122244  1
  S  S29  1  0.71607955  0.50716316  0.06877756  1
  S  S30  1  0.79108361  0.50716316  0.56877756  1
  S  S31  1  0.28392045  0.49283684  0.93122244  1
  S  S32  1  0.94360002  0.33616139  0.78306803  1
  S  S33  1  0.60743863  0.66383861  0.71693197  1
  S  S34  1  0.05639998  0.66383861  0.21693197  1
  S  S35  1  0.39256137  0.33616139  0.28306803  1
  S  S36  1  0.72981737  0.16788938  0.02089682  1
  S  S37  1  0.56192799  0.83211062  0.47910318  1
  S  S38  1  0.27018263  0.83211062  0.97910318  1
  S  S39  1  0.43807201  0.16788938  0.52089682  1
  S  S40  1  0.73142744  0.29283266  0.30654297  1
  S  S41  1  0.43859477  0.70716734  0.19345703  1
  S  S42  1  0.26857256  0.70716734  0.69345703  1
  S  S43  1  0.56140523  0.29283266  0.80654297  1
