# generated using pymatgen
data_Eu3(MgSi)5
_symmetry_space_group_name_H-M   'P 1'
_cell_length_a   4.47824696
_cell_length_b   14.22497595
_cell_length_c   18.13632013
_cell_angle_alpha   90.00000000
_cell_angle_beta   90.00000000
_cell_angle_gamma   90.00000000
_symmetry_Int_Tables_number   1
_chemical_formula_structural   Eu3(MgSi)5
_chemical_formula_sum   'Eu12 Mg20 Si20'
_cell_volume   1155.33719062
_cell_formula_units_Z   4
loop_
 _symmetry_equiv_pos_site_id
 _symmetry_equiv_pos_as_xyz
  1  'x, y, z'
loop_
 _atom_site_type_symbol
 _atom_site_label
 _atom_site_symmetry_multiplicity
 _atom_site_fract_x
 _atom_site_fract_y
 _atom_site_fract_z
 _atom_site_occupancy
  Eu  Eu0  1  0.75000000  0.08761064  0.84698296  1
  Eu  Eu1  1  0.75000000  0.58761064  0.65301704  1
  Eu  Eu2  1  0.25000000  0.91238936  0.15301704  1
  Eu  Eu3  1  0.25000000  0.41238936  0.34698296  1
  Eu  Eu4  1  0.75000000  0.29180293  0.01583332  1
  Eu  Eu5  1  0.75000000  0.79180293  0.48416668  1
  Eu  Eu6  1  0.25000000  0.70819707  0.98416668  1
  Eu  Eu7  1  0.25000000  0.20819707  0.51583332  1
  Eu  Eu8  1  0.75000000  0.36327218  0.80800915  1
  Eu  Eu9  1  0.75000000  0.86327218  0.69199085  1
  Eu  Eu10  1  0.25000000  0.63672782  0.19199085  1
  Eu  Eu11  1  0.25000000  0.13672782  0.30800915  1
  Mg  Mg12  1  0.75000000  0.05340565  0.04315935  1
  Mg  Mg13  1  0.75000000  0.55340565  0.45684065  1
  Mg  Mg14  1  0.25000000  0.94659435  0.95684065  1
  Mg  Mg15  1  0.25000000  0.44659435  0.54315935  1
  Mg  Mg16  1  0.75000000  0.33535313  0.62903047  1
  Mg  Mg17  1  0.75000000  0.83535313  0.87096953  1
  Mg  Mg18  1  0.25000000  0.66464687  0.37096953  1
  Mg  Mg19  1  0.25000000  0.16464687  0.12903047  1
  Mg  Mg20  1  0.75000000  0.52161151  0.93902367  1
  Mg  Mg21  1  0.75000000  0.02161151  0.56097633  1
  Mg  Mg22  1  0.25000000  0.47838849  0.06097633  1
  Mg  Mg23  1  0.25000000  0.97838849  0.43902367  1
  Mg  Mg24  1  0.75000000  0.46539119  0.18942118  1
  Mg  Mg25  1  0.75000000  0.96539119  0.31057882  1
  Mg  Mg26  1  0.25000000  0.53460881  0.81057882  1
  Mg  Mg27  1  0.25000000  0.03460881  0.68942118  1
  Mg  Mg28  1  0.75000000  0.26716853  0.22893612  1
  Mg  Mg29  1  0.75000000  0.76716853  0.27106388  1
  Mg  Mg30  1  0.25000000  0.73283147  0.77106388  1
  Mg  Mg31  1  0.25000000  0.23283147  0.72893612  1
  Si  Si32  1  0.75000000  0.36564998  0.48159002  1
  Si  Si33  1  0.75000000  0.86564998  0.01840998  1
  Si  Si34  1  0.25000000  0.63435002  0.51840998  1
  Si  Si35  1  0.25000000  0.13435002  0.98159002  1
  Si  Si36  1  0.75000000  0.14834488  0.67412483  1
  Si  Si37  1  0.75000000  0.64834488  0.82587517  1
  Si  Si38  1  0.25000000  0.85165512  0.32587517  1
  Si  Si39  1  0.25000000  0.35165512  0.17412483  1
  Si  Si40  1  0.75000000  0.75371287  0.11566789  1
  Si  Si41  1  0.75000000  0.25371287  0.38433211  1
  Si  Si42  1  0.25000000  0.24628713  0.88433211  1
  Si  Si43  1  0.25000000  0.74628713  0.61566789  1
  Si  Si44  1  0.75000000  0.08130159  0.19028401  1
  Si  Si45  1  0.75000000  0.58130159  0.30971599  1
  Si  Si46  1  0.25000000  0.91869841  0.80971599  1
  Si  Si47  1  0.25000000  0.41869841  0.69028401  1
  Si  Si48  1  0.75000000  0.59198571  0.07519493  1
  Si  Si49  1  0.75000000  0.09198571  0.42480507  1
  Si  Si50  1  0.25000000  0.40801429  0.92480507  1
  Si  Si51  1  0.25000000  0.90801429  0.57519493  1
