# generated using pymatgen
data_Yb11(SnBi4)2
_symmetry_space_group_name_H-M   'P 1'
_cell_length_a   12.18607320
_cell_length_b   12.18607320
_cell_length_c   12.32797928
_cell_angle_alpha   119.61994548
_cell_angle_beta   119.61994548
_cell_angle_gamma   90.00000000
_symmetry_Int_Tables_number   1
_chemical_formula_structural   Yb11(SnBi4)2
_chemical_formula_sum   'Yb22 Sn4 Bi16'
_cell_volume   1309.23861393
_cell_formula_units_Z   2
loop_
 _symmetry_equiv_pos_site_id
 _symmetry_equiv_pos_as_xyz
  1  'x, y, z'
loop_
 _atom_site_type_symbol
 _atom_site_label
 _atom_site_symmetry_multiplicity
 _atom_site_fract_x
 _atom_site_fract_y
 _atom_site_fract_z
 _atom_site_occupancy
  Yb  Yb0  1  0.33253003  0.33253003  0.66506006  1
  Yb  Yb1  1  0.66746997  0.66746997  0.33493994  1
  Yb  Yb2  1  0.06227527  0.39772571  0.79545143  1
  Yb  Yb3  1  0.73317616  0.39772571  0.79545143  1
  Yb  Yb4  1  0.39772571  0.73317616  0.79545143  1
  Yb  Yb5  1  0.39772571  0.06227527  0.79545143  1
  Yb  Yb6  1  0.93772473  0.60227429  0.20454857  1
  Yb  Yb7  1  0.26682384  0.60227429  0.20454857  1
  Yb  Yb8  1  0.60227429  0.26682384  0.20454857  1
  Yb  Yb9  1  0.60227429  0.93772473  0.20454857  1
  Yb  Yb10  1  0.93798937  0.18951921  0.37903841  1
  Yb  Yb11  1  0.44104904  0.18951921  0.37903841  1
  Yb  Yb12  1  0.18951921  0.44104904  0.37903841  1
  Yb  Yb13  1  0.18951921  0.93798937  0.37903841  1
  Yb  Yb14  1  0.06201063  0.81048079  0.62096159  1
  Yb  Yb15  1  0.55895096  0.81048079  0.62096159  1
  Yb  Yb16  1  0.81048079  0.55895096  0.62096159  1
  Yb  Yb17  1  0.81048079  0.06201063  0.62096159  1
  Yb  Yb18  1  0.17253882  0.82746118  0.00000000  1
  Yb  Yb19  1  0.82746118  0.17253882  0.00000000  1
  Yb  Yb20  1  0.82746118  0.82746118  1.00000000  1
  Yb  Yb21  1  0.17253882  0.17253882  0.00000000  1
  Sn  Sn22  1  0.37628828  0.62371172  0.00000000  1
  Sn  Sn23  1  0.62371172  0.37628828  0.00000000  1
  Sn  Sn24  1  0.62371172  0.62371172  1.00000000  1
  Sn  Sn25  1  0.37628828  0.37628828  0.00000000  1
  Bi  Bi26  1  0.75000000  0.25000000  0.50000000  1
  Bi  Bi27  1  0.25000000  0.75000000  0.50000000  1
  Bi  Bi28  1  1.00000000  0.64937571  1.00000000  1
  Bi  Bi29  1  0.00000000  0.35062429  0.00000000  1
  Bi  Bi30  1  0.64937571  1.00000000  1.00000000  1
  Bi  Bi31  1  0.35062429  0.00000000  0.00000000  1
  Bi  Bi32  1  0.12424513  0.12424513  0.24849026  1
  Bi  Bi33  1  0.87575487  0.87575487  0.75150974  1
  Bi  Bi34  1  0.12475797  0.53284040  0.65759838  1
  Bi  Bi35  1  0.53284040  0.12475797  0.65759838  1
  Bi  Bi36  1  0.53284040  0.53284040  0.65759838  1
  Bi  Bi37  1  0.12475797  0.12475797  0.65759838  1
  Bi  Bi38  1  0.87524203  0.46715960  0.34240162  1
  Bi  Bi39  1  0.46715960  0.87524203  0.34240162  1
  Bi  Bi40  1  0.46715960  0.46715960  0.34240162  1
  Bi  Bi41  1  0.87524203  0.87524203  0.34240162  1
