# generated using pymatgen
data_Cs4(BS)9
_symmetry_space_group_name_H-M   'P 1'
_cell_length_a   10.73054085
_cell_length_b   10.63143741
_cell_length_c   11.16221222
_cell_angle_alpha   103.04741106
_cell_angle_beta   93.10213198
_cell_angle_gamma   110.23040245
_symmetry_Int_Tables_number   1
_chemical_formula_structural   Cs4(BS)9
_chemical_formula_sum   'Cs8 B18 S18'
_cell_volume   1151.76004291
_cell_formula_units_Z   2
loop_
 _symmetry_equiv_pos_site_id
 _symmetry_equiv_pos_as_xyz
  1  'x, y, z'
loop_
 _atom_site_type_symbol
 _atom_site_label
 _atom_site_symmetry_multiplicity
 _atom_site_fract_x
 _atom_site_fract_y
 _atom_site_fract_z
 _atom_site_occupancy
  Cs  Cs0  1  0.98993057  0.34887996  0.62118712  1
  Cs  Cs1  1  0.01006943  0.65112004  0.37881288  1
  Cs  Cs2  1  0.63117797  0.38687409  0.87164582  1
  Cs  Cs3  1  0.36882203  0.61312591  0.12835418  1
  Cs  Cs4  1  0.37783494  0.24601673  0.52963073  1
  Cs  Cs5  1  0.62216506  0.75398327  0.47036927  1
  Cs  Cs6  1  0.61999508  0.18209156  0.24307362  1
  Cs  Cs7  1  0.38000492  0.81790844  0.75692638  1
  B  B8  1  0.86035351  0.87229641  0.91560223  1
  B  B9  1  0.13964649  0.12770359  0.08439777  1
  B  B10  1  0.02169836  0.88026479  0.88013725  1
  B  B11  1  0.97830164  0.11973521  0.11986275  1
  B  B12  1  0.96787301  0.83996225  0.02042172  1
  B  B13  1  0.03212699  0.16003775  0.97957828  1
  B  B14  1  0.87015914  0.93877824  0.07961154  1
  B  B15  1  0.12984086  0.06122176  0.92038846  1
  B  B16  1  0.86403954  0.04457262  0.97589675  1
  B  B17  1  0.13596046  0.95542738  0.02410325  1
  B  B18  1  0.95842489  0.00875898  0.85564965  1
  B  B19  1  0.04157511  0.99124102  0.14435035  1
  B  B20  1  0.82324761  0.65186461  0.70336129  1
  B  B21  1  0.17675239  0.34813539  0.29663871  1
  B  B22  1  0.77341478  0.68153430  0.14158857  1
  B  B23  1  0.22658522  0.31846570  0.85841143  1
  B  B24  1  0.74781140  0.06989923  0.75167871  1
  B  B25  1  0.25218860  0.93010077  0.24832129  1
  S  S26  1  0.72233028  0.72456637  0.80630541  1
  S  S27  1  0.27766972  0.27543363  0.19369459  1
  S  S28  1  0.00891324  0.73641597  0.74219713  1
  S  S29  1  0.99108676  0.26358403  0.25780287  1
  S  S30  1  0.91336434  0.66877662  0.05769566  1
  S  S31  1  0.08663566  0.33122338  0.94230434  1
  S  S32  1  0.73777812  0.84344424  0.16255854  1
  S  S33  1  0.26222188  0.15655576  0.83744146  1
  S  S34  1  0.72063800  0.08612371  0.91712717  1
  S  S35  1  0.27936200  0.91387629  0.08287283  1
  S  S36  1  0.89186162  0.02449535  0.70460201  1
  S  S37  1  0.10813838  0.97550465  0.29539799  1
  S  S38  1  0.74626244  0.50552415  0.57318755  1
  S  S39  1  0.25373756  0.49447585  0.42681245  1
  S  S40  1  0.67429666  0.54246986  0.20016434  1
  S  S41  1  0.32570334  0.45753014  0.79983566  1
  S  S42  1  0.63738515  0.09317156  0.64167010  1
  S  S43  1  0.36261485  0.90682844  0.35832990  1
