# generated using pymatgen
data_TmFe5P3
_symmetry_space_group_name_H-M   'P 1'
_cell_length_a   3.63065422
_cell_length_b   10.22445705
_cell_length_c   11.74241813
_cell_angle_alpha   90.00000000
_cell_angle_beta   90.00000000
_cell_angle_gamma   90.00000000
_symmetry_Int_Tables_number   1
_chemical_formula_structural   TmFe5P3
_chemical_formula_sum   'Tm4 Fe20 P12'
_cell_volume   435.89580045
_cell_formula_units_Z   4
loop_
 _symmetry_equiv_pos_site_id
 _symmetry_equiv_pos_as_xyz
  1  'x, y, z'
loop_
 _atom_site_type_symbol
 _atom_site_label
 _atom_site_symmetry_multiplicity
 _atom_site_fract_x
 _atom_site_fract_y
 _atom_site_fract_z
 _atom_site_occupancy
  Tm  Tm0  1  0.25000000  0.58132221  0.70483366  1
  Tm  Tm1  1  0.25000000  0.91867779  0.20483366  1
  Tm  Tm2  1  0.75000000  0.41867779  0.29516634  1
  Tm  Tm3  1  0.75000000  0.08132221  0.79516634  1
  Fe  Fe4  1  0.25000000  0.70693396  0.98759424  1
  Fe  Fe5  1  0.25000000  0.79306604  0.48759424  1
  Fe  Fe6  1  0.75000000  0.29306604  0.01240576  1
  Fe  Fe7  1  0.75000000  0.20693396  0.51240576  1
  Fe  Fe8  1  0.25000000  0.40550768  0.48985078  1
  Fe  Fe9  1  0.25000000  0.09449232  0.98985078  1
  Fe  Fe10  1  0.75000000  0.59449232  0.51014922  1
  Fe  Fe11  1  0.75000000  0.90550768  0.01014922  1
  Fe  Fe12  1  0.25000000  0.21941568  0.17625307  1
  Fe  Fe13  1  0.25000000  0.28058432  0.67625307  1
  Fe  Fe14  1  0.75000000  0.78058432  0.82374693  1
  Fe  Fe15  1  0.75000000  0.71941568  0.32374693  1
  Fe  Fe16  1  0.25000000  0.87725937  0.70011172  1
  Fe  Fe17  1  0.25000000  0.62274063  0.20011172  1
  Fe  Fe18  1  0.75000000  0.12274063  0.29988828  1
  Fe  Fe19  1  0.75000000  0.37725937  0.79988828  1
  Fe  Fe20  1  0.25000000  0.46333071  0.93282517  1
  Fe  Fe21  1  0.25000000  0.03666929  0.43282517  1
  Fe  Fe22  1  0.75000000  0.53666929  0.06717483  1
  Fe  Fe23  1  0.75000000  0.96333071  0.56717483  1
  P  P24  1  0.25000000  0.42125684  0.11355879  1
  P  P25  1  0.25000000  0.07874316  0.61355879  1
  P  P26  1  0.75000000  0.57874316  0.88644121  1
  P  P27  1  0.75000000  0.92125684  0.38644121  1
  P  P28  1  0.25000000  0.26575060  0.87048602  1
  P  P29  1  0.25000000  0.23424940  0.37048602  1
  P  P30  1  0.75000000  0.73424940  0.12951398  1
  P  P31  1  0.75000000  0.76575060  0.62951398  1
  P  P32  1  0.25000000  0.60084088  0.39458043  1
  P  P33  1  0.25000000  0.89915912  0.89458043  1
  P  P34  1  0.75000000  0.39915912  0.60541957  1
  P  P35  1  0.75000000  0.10084088  0.10541957  1
