# generated using pymatgen
data_Sr2As2O7
_symmetry_space_group_name_H-M   'P 1'
_cell_length_a   7.24380392
_cell_length_b   7.24380392
_cell_length_c   26.12124530
_cell_angle_alpha   90.00000000
_cell_angle_beta   90.00000000
_cell_angle_gamma   90.00000000
_symmetry_Int_Tables_number   1
_chemical_formula_structural   Sr2As2O7
_chemical_formula_sum   'Sr16 As16 O56'
_cell_volume   1370.65214369
_cell_formula_units_Z   8
loop_
 _symmetry_equiv_pos_site_id
 _symmetry_equiv_pos_as_xyz
  1  'x, y, z'
loop_
 _atom_site_type_symbol
 _atom_site_label
 _atom_site_symmetry_multiplicity
 _atom_site_fract_x
 _atom_site_fract_y
 _atom_site_fract_z
 _atom_site_occupancy
  Sr  Sr0  1  0.12379527  0.75701064  0.51230145  1
  Sr  Sr1  1  0.87620473  0.24298936  0.01230145  1
  Sr  Sr2  1  0.75701064  0.87620473  0.26230145  1
  Sr  Sr3  1  0.24298936  0.12379527  0.76230145  1
  Sr  Sr4  1  0.23289236  0.72739554  0.87457630  1
  Sr  Sr5  1  0.76710764  0.27260446  0.37457630  1
  Sr  Sr6  1  0.72739554  0.76710764  0.62457630  1
  Sr  Sr7  1  0.27260446  0.23289236  0.12457630  1
  Sr  Sr8  1  0.10371743  0.34663842  0.62677377  1
  Sr  Sr9  1  0.89628257  0.65336158  0.12677377  1
  Sr  Sr10  1  0.34663842  0.89628257  0.37677377  1
  Sr  Sr11  1  0.65336158  0.10371743  0.87677377  1
  Sr  Sr12  1  0.52629284  0.15386781  0.52151009  1
  Sr  Sr13  1  0.47370716  0.84613219  0.02151009  1
  Sr  Sr14  1  0.15386781  0.47370716  0.27151009  1
  Sr  Sr15  1  0.84613219  0.52629284  0.77151009  1
  As  As16  1  0.25022348  0.85543627  0.63724337  1
  As  As17  1  0.74977652  0.14456373  0.13724337  1
  As  As18  1  0.85543627  0.74977652  0.38724337  1
  As  As19  1  0.14456373  0.25022348  0.88724337  1
  As  As20  1  0.01760152  0.27783135  0.49632651  1
  As  As21  1  0.98239848  0.72216865  0.99632651  1
  As  As22  1  0.27783135  0.98239848  0.24632651  1
  As  As23  1  0.72216865  0.01760152  0.74632651  1
  As  As24  1  0.31185285  0.60539201  0.73862920  1
  As  As25  1  0.68814715  0.39460799  0.23862920  1
  As  As26  1  0.60539201  0.68814715  0.48862920  1
  As  As27  1  0.39460799  0.31185285  0.98862920  1
  As  As28  1  0.26534448  0.35404073  0.39408346  1
  As  As29  1  0.73465552  0.64595927  0.89408346  1
  As  As30  1  0.35404073  0.73465552  0.14408346  1
  As  As31  1  0.64595927  0.26534448  0.64408346  1
  O  O32  1  0.20089324  0.76499155  0.77546225  1
  O  O33  1  0.79910676  0.23500845  0.27546225  1
  O  O34  1  0.76499155  0.79910676  0.52546225  1
  O  O35  1  0.23500845  0.20089324  0.02546225  1
  O  O36  1  0.40801284  0.88702491  0.58962831  1
  O  O37  1  0.59198716  0.11297509  0.08962831  1
  O  O38  1  0.88702491  0.59198716  0.33962831  1
  O  O39  1  0.11297509  0.40801284  0.83962831  1
  O  O40  1  0.07891727  0.71552191  0.61427169  1
  O  O41  1  0.92108273  0.28447809  0.11427169  1
  O  O42  1  0.71552191  0.92108273  0.36427169  1
  O  O43  1  0.28447809  0.07891727  0.86427169  1
  O  O44  1  0.98589148  0.44558054  0.54089204  1
  O  O45  1  0.01410852  0.55441946  0.04089204  1
  O  O46  1  0.44558054  0.01410852  0.29089204  1
  O  O47  1  0.55441946  0.98589148  0.79089204  1
  O  O48  1  0.16712417  0.11487312  0.51855404  1
  O  O49  1  0.83287583  0.88512688  0.01855404  1
  O  O50  1  0.11487312  0.83287583  0.26855404  1
  O  O51  1  0.88512688  0.16712417  0.76855404  1
  O  O52  1  0.13172137  0.42413462  0.44901204  1
  O  O53  1  0.86827863  0.57586538  0.94901204  1
  O  O54  1  0.42413462  0.86827863  0.19901204  1
  O  O55  1  0.57586538  0.13172137  0.69901204  1
  O  O56  1  0.49834909  0.49930870  0.76306361  1
  O  O57  1  0.50165091  0.50069130  0.26306361  1
  O  O58  1  0.49930870  0.50165091  0.51306361  1
  O  O59  1  0.50069130  0.49834909  0.01306361  1
  O  O60  1  0.17139048  0.04359423  0.66878811  1
  O  O61  1  0.82860952  0.95640577  0.16878811  1
  O  O62  1  0.04359423  0.82860952  0.41878811  1
  O  O63  1  0.95640577  0.17139048  0.91878811  1
  O  O64  1  0.15385310  0.44385668  0.71864547  1
  O  O65  1  0.84614690  0.55614332  0.21864547  1
  O  O66  1  0.44385668  0.84614690  0.46864547  1
  O  O67  1  0.55614332  0.15385310  0.96864547  1
  O  O68  1  0.82408371  0.19778817  0.46772710  1
  O  O69  1  0.17591629  0.80221183  0.96772710  1
  O  O70  1  0.19778817  0.17591629  0.21772710  1
  O  O71  1  0.80221183  0.82408371  0.71772710  1
  O  O72  1  0.32869717  0.55290770  0.36529168  1
  O  O73  1  0.67130283  0.44709230  0.86529168  1
  O  O74  1  0.55290770  0.67130283  0.11529168  1
  O  O75  1  0.44709230  0.32869717  0.61529168  1
  O  O76  1  0.39304927  0.72511775  0.68125434  1
  O  O77  1  0.60695073  0.27488225  0.18125434  1
  O  O78  1  0.72511775  0.60695073  0.43125434  1
  O  O79  1  0.27488225  0.39304927  0.93125434  1
  O  O80  1  0.12043089  0.22693051  0.35624143  1
  O  O81  1  0.87956911  0.77306949  0.85624143  1
  O  O82  1  0.22693051  0.87956911  0.10624143  1
  O  O83  1  0.77306949  0.12043089  0.60624143  1
  O  O84  1  0.44372930  0.21749950  0.41432374  1
  O  O85  1  0.55627070  0.78250050  0.91432374  1
  O  O86  1  0.21749950  0.55627070  0.16432374  1
  O  O87  1  0.78250050  0.44372930  0.66432374  1
