# generated using pymatgen
data_Sm(Al4Co)2
_symmetry_space_group_name_H-M   'P 1'
_cell_length_a   3.97462583
_cell_length_b   12.60502566
_cell_length_c   14.24898597
_cell_angle_alpha   90.00000000
_cell_angle_beta   90.00000000
_cell_angle_gamma   90.00000000
_symmetry_Int_Tables_number   1
_chemical_formula_structural   Sm(Al4Co)2
_chemical_formula_sum   'Sm4 Al32 Co8'
_cell_volume   713.87791004
_cell_formula_units_Z   4
loop_
 _symmetry_equiv_pos_site_id
 _symmetry_equiv_pos_as_xyz
  1  'x, y, z'
loop_
 _atom_site_type_symbol
 _atom_site_label
 _atom_site_symmetry_multiplicity
 _atom_site_fract_x
 _atom_site_fract_y
 _atom_site_fract_z
 _atom_site_occupancy
  Sm  Sm0  1  0.00000000  0.83788212  0.18013983  1
  Sm  Sm1  1  -0.00000000  0.16211788  0.81986017  1
  Sm  Sm2  1  0.00000000  0.33788212  0.31986017  1
  Sm  Sm3  1  0.00000000  0.66211788  0.68013983  1
  Al  Al4  1  -0.00000000  0.50000000  0.50000000  1
  Al  Al5  1  -0.00000000  -0.00000000  0.00000000  1
  Al  Al6  1  0.50000000  0.50000000  0.00000000  1
  Al  Al7  1  0.50000000  0.00000000  0.50000000  1
  Al  Al8  1  0.50000000  0.73438900  0.32964352  1
  Al  Al9  1  0.50000000  0.26561100  0.67035648  1
  Al  Al10  1  0.50000000  0.23438900  0.17035648  1
  Al  Al11  1  0.50000000  0.76561100  0.82964352  1
  Al  Al12  1  0.50000000  0.95253103  0.32013932  1
  Al  Al13  1  0.50000000  0.04746897  0.67986068  1
  Al  Al14  1  0.50000000  0.45253103  0.17986068  1
  Al  Al15  1  0.50000000  0.54746897  0.82013932  1
  Al  Al16  1  0.50000000  0.65838578  0.12155478  1
  Al  Al17  1  0.50000000  0.34161422  0.87844522  1
  Al  Al18  1  0.50000000  0.15838578  0.37844522  1
  Al  Al19  1  0.50000000  0.84161422  0.62155478  1
  Al  Al20  1  -0.00000000  0.84024217  0.45717653  1
  Al  Al21  1  -0.00000000  0.15975783  0.54282347  1
  Al  Al22  1  -0.00000000  0.34024217  0.04282347  1
  Al  Al23  1  -0.00000000  0.65975783  0.95717653  1
  Al  Al24  1  -0.00000000  0.59514560  0.24885716  1
  Al  Al25  1  0.00000000  0.40485440  0.75114284  1
  Al  Al26  1  0.00000000  0.09514560  0.25114284  1
  Al  Al27  1  0.00000000  0.90485440  0.74885716  1
  Al  Al28  1  0.50000000  0.83195690  0.01078238  1
  Al  Al29  1  0.50000000  0.16804310  0.98921762  1
  Al  Al30  1  0.50000000  0.33195690  0.48921762  1
  Al  Al31  1  0.50000000  0.66804310  0.51078238  1
  Al  Al32  1  0.50000000  0.52543379  0.36921563  1
  Al  Al33  1  0.50000000  0.47456621  0.63078437  1
  Al  Al34  1  0.50000000  0.02543379  0.13078437  1
  Al  Al35  1  0.50000000  0.97456621  0.86921563  1
  Co  Co36  1  -0.00000000  0.65372925  0.40637429  1
  Co  Co37  1  0.00000000  0.34627075  0.59362571  1
  Co  Co38  1  -0.00000000  0.15372925  0.09362571  1
  Co  Co39  1  0.00000000  0.84627075  0.90637429  1
  Co  Co40  1  0.00000000  0.53548784  0.09409161  1
  Co  Co41  1  -0.00000000  0.46451216  0.90590839  1
  Co  Co42  1  0.00000000  0.03548784  0.40590839  1
  Co  Co43  1  -0.00000000  0.96451216  0.59409161  1
