# generated using pymatgen
data_Pr2H16S3O20
_symmetry_space_group_name_H-M   'P 1'
_cell_length_a   6.88802851
_cell_length_b   7.78974208
_cell_length_c   18.63795169
_cell_angle_alpha   101.19854978
_cell_angle_beta   90.00000000
_cell_angle_gamma   116.23933445
_symmetry_Int_Tables_number   1
_chemical_formula_structural   Pr2H16S3O20
_chemical_formula_sum   'Pr4 H32 S6 O40'
_cell_volume   875.71013013
_cell_formula_units_Z   2
loop_
 _symmetry_equiv_pos_site_id
 _symmetry_equiv_pos_as_xyz
  1  'x, y, z'
loop_
 _atom_site_type_symbol
 _atom_site_label
 _atom_site_symmetry_multiplicity
 _atom_site_fract_x
 _atom_site_fract_y
 _atom_site_fract_z
 _atom_site_occupancy
  Pr  Pr0  1  0.85765559  0.66009167  0.10689058  1
  Pr  Pr1  1  0.19756392  0.33990833  0.39310942  1
  Pr  Pr2  1  0.14234441  0.33990833  0.89310942  1
  Pr  Pr3  1  0.80243608  0.66009167  0.60689058  1
  H  H4  1  0.69125670  0.98584650  0.16008233  1
  H  H5  1  0.70541020  0.01415350  0.33991767  1
  H  H6  1  0.30874330  0.01415350  0.83991767  1
  H  H7  1  0.29458980  0.98584650  0.66008233  1
  H  H8  1  0.94148533  0.10334862  0.14812474  1
  H  H9  1  0.83813671  0.89665138  0.35187526  1
  H  H10  1  0.05851467  0.89665138  0.85187526  1
  H  H11  1  0.16186329  0.10334862  0.64812474  1
  H  H12  1  0.79581839  0.54305372  0.25855436  1
  H  H13  1  0.25276467  0.45694628  0.24144564  1
  H  H14  1  0.20418161  0.45694628  0.74144564  1
  H  H15  1  0.74723533  0.54305372  0.75855436  1
  H  H16  1  0.63743988  0.34297988  0.20229749  1
  H  H17  1  0.29446000  0.65702012  0.29770251  1
  H  H18  1  0.36256012  0.65702012  0.79770251  1
  H  H19  1  0.70554000  0.34297988  0.70229749  1
  H  H20  1  0.49710339  0.27811334  0.01739759  1
  H  H21  1  0.21899005  0.72188666  0.48260241  1
  H  H22  1  0.50289661  0.72188666  0.98260241  1
  H  H23  1  0.78100995  0.27811334  0.51739759  1
  H  H24  1  0.70163927  0.23544145  0.00730469  1
  H  H25  1  0.46619782  0.76455855  0.49269531  1
  H  H26  1  0.29836073  0.76455855  0.99269531  1
  H  H27  1  0.53380218  0.23544145  0.50730469  1
  H  H28  1  0.32084269  0.98848490  0.10757784  1
  H  H29  1  0.33235779  0.01151510  0.39242216  1
  H  H30  1  0.67915731  0.01151510  0.89242216  1
  H  H31  1  0.66764221  0.98848490  0.60757784  1
  H  H32  1  0.18652059  0.01960721  0.04672234  1
  H  H33  1  0.16691338  0.98039279  0.45327766  1
  H  H34  1  0.81347941  0.98039279  0.95327766  1
  H  H35  1  0.83308662  0.01960721  0.54672234  1
  S  S36  1  0.32446157  -0.00000000  0.25000000  1
  S  S37  1  0.67553843  -0.00000000  0.75000000  1
  S  S38  1  0.75163741  0.57169409  0.91050591  1
  S  S39  1  0.17994332  0.42830591  0.58949409  1
  S  S40  1  0.24836259  0.42830591  0.08949409  1
  S  S41  1  0.82005668  0.57169409  0.41050591  1
  O  O42  1  0.81657175  0.97061138  0.13980297  1
  O  O43  1  0.84596036  0.02938862  0.36019703  1
  O  O44  1  0.18342825  0.02938862  0.86019703  1
  O  O45  1  0.15403964  0.97061138  0.63980297  1
  O  O46  1  0.74435766  0.48054239  0.20600727  1
  O  O47  1  0.26381527  0.51945761  0.29399273  1
  O  O48  1  0.25564234  0.51945761  0.79399273  1
  O  O49  1  0.73618473  0.48054239  0.70600727  1
  O  O50  1  0.63604992  0.30226566  0.04226487  1
  O  O51  1  0.33378427  0.69773434  0.45773513  1
  O  O52  1  0.36395008  0.69773434  0.95773513  1
  O  O53  1  0.66621573  0.30226566  0.54226487  1
  O  O54  1  0.20730121  0.91792292  0.06467302  1
  O  O55  1  0.28937829  0.08207708  0.43532698  1
  O  O56  1  0.79269879  0.08207708  0.93532698  1
  O  O57  1  0.71062171  0.91792292  0.56467302  1
  O  O58  1  0.11693275  0.83364182  0.21386966  1
  O  O59  1  0.28329093  0.16635818  0.28613034  1
  O  O60  1  0.88306725  0.16635818  0.78613034  1
  O  O61  1  0.71670907  0.83364182  0.71386966  1
  O  O62  1  0.48023192  0.06400496  0.19325646  1
  O  O63  1  0.41622697  0.93599504  0.30674354  1
  O  O64  1  0.51976808  0.93599504  0.80674354  1
  O  O65  1  0.58377303  0.06400496  0.69325646  1
  O  O66  1  0.76475300  0.71099326  0.98184534  1
  O  O67  1  0.05375974  0.28900674  0.51815466  1
  O  O68  1  0.23524700  0.28900674  0.01815466  1
  O  O69  1  0.94624026  0.71099326  0.48184534  1
  O  O70  1  0.90023696  0.48694224  0.92333147  1
  O  O71  1  0.41329473  0.51305776  0.57666853  1
  O  O72  1  0.09976304  0.51305776  0.07666853  1
  O  O73  1  0.58670527  0.48694224  0.42333147  1
  O  O74  1  0.52532538  0.41319252  0.89309266  1
  O  O75  1  0.11213286  0.58680748  0.60690734  1
  O  O76  1  0.47467462  0.58680748  0.10690734  1
  O  O77  1  0.88786714  0.41319252  0.39309266  1
  O  O78  1  0.81572986  0.68072170  0.85118689  1
  O  O79  1  0.13500816  0.31927830  0.64881311  1
  O  O80  1  0.18427014  0.31927830  0.14881311  1
  O  O81  1  0.86499184  0.68072170  0.35118689  1
