# generated using pymatgen
data_Na4PuH7O9
_symmetry_space_group_name_H-M   'P 1'
_cell_length_a   6.00951852
_cell_length_b   8.14296084
_cell_length_c   10.96677611
_cell_angle_alpha   104.15864325
_cell_angle_beta   101.44695620
_cell_angle_gamma   106.19610530
_symmetry_Int_Tables_number   1
_chemical_formula_structural   Na4PuH7O9
_chemical_formula_sum   'Na8 Pu2 H14 O18'
_cell_volume   478.77366350
_cell_formula_units_Z   2
loop_
 _symmetry_equiv_pos_site_id
 _symmetry_equiv_pos_as_xyz
  1  'x, y, z'
loop_
 _atom_site_type_symbol
 _atom_site_label
 _atom_site_symmetry_multiplicity
 _atom_site_fract_x
 _atom_site_fract_y
 _atom_site_fract_z
 _atom_site_occupancy
  Na  Na0  1  0.79231735  0.53730912  0.58464279  1
  Na  Na1  1  0.20768265  0.46269088  0.41535721  1
  Na  Na2  1  0.94640410  0.66082745  0.92359162  1
  Na  Na3  1  0.05359590  0.33917255  0.07640838  1
  Na  Na4  1  0.47350847  0.27904392  0.90607261  1
  Na  Na5  1  0.52649153  0.72095608  0.09392739  1
  Na  Na6  1  0.38778878  0.14968716  0.57672889  1
  Na  Na7  1  0.61221122  0.85031284  0.42327111  1
  Pu  Pu8  1  0.36419344  0.58676781  0.75137334  1
  Pu  Pu9  1  0.63580656  0.41323219  0.24862666  1
  H  H10  1  0.57688347  0.82486569  0.63063812  1
  H  H11  1  0.42311653  0.17513431  0.36936188  1
  H  H12  1  0.07479314  0.35963812  0.85015674  1
  H  H13  1  0.92520686  0.64036188  0.14984326  1
  H  H14  1  0.84604484  0.17996090  0.62133524  1
  H  H15  1  0.15395516  0.82003910  0.37866476  1
  H  H16  1  0.75712904  0.11284983  0.78713740  1
  H  H17  1  0.24287096  0.88715017  0.21286260  1
  H  H18  1  0.70817075  0.01468379  0.89465390  1
  H  H19  1  0.29182925  0.98531621  0.10534610  1
  H  H20  1  0.17860227  0.93072977  0.73280862  1
  H  H21  1  0.82139773  0.06927023  0.26719138  1
  H  H22  1  0.01381432  0.04388846  0.68973567  1
  H  H23  1  0.98618568  0.95611154  0.31026433  1
  O  O24  1  0.15071423  0.72284334  0.75763381  1
  O  O25  1  0.84928577  0.27715666  0.24236619  1
  O  O26  1  0.60922648  0.77485817  0.89413243  1
  O  O27  1  0.39077352  0.22514183  0.10586757  1
  O  O28  1  0.57657601  0.44746522  0.74744440  1
  O  O29  1  0.42342399  0.55253478  0.25255560  1
  O  O30  1  0.11959866  0.39576308  0.61042585  1
  O  O31  1  0.88040134  0.60423692  0.38957415  1
  O  O32  1  0.50885289  0.69272016  0.59588696  1
  O  O33  1  0.49114711  0.30727984  0.40411304  1
  O  O34  1  0.21096767  0.46822217  0.90516613  1
  O  O35  1  0.78903233  0.53177783  0.09483387  1
  O  O36  1  0.75224156  0.07301301  0.63885031  1
  O  O37  1  0.24775844  0.92698699  0.36114969  1
  O  O38  1  0.75846337  0.13564223  0.88431859  1
  O  O39  1  0.24153663  0.86435777  0.11568141  1
  O  O40  1  0.18689125  0.04823384  0.71959018  1
  O  O41  1  0.81310875  0.95176616  0.28040982  1
