# generated using pymatgen
data_Li5V3Cu(PO4)4
_symmetry_space_group_name_H-M   'P 1'
_cell_length_a   7.81654080
_cell_length_b   7.81649044
_cell_length_c   10.61839469
_cell_angle_alpha   90.15744488
_cell_angle_beta   89.84342617
_cell_angle_gamma   77.26966512
_symmetry_Int_Tables_number   1
_chemical_formula_structural   Li5V3Cu(PO4)4
_chemical_formula_sum   'Li10 V6 Cu2 P8 O32'
_cell_volume   632.80784153
_cell_formula_units_Z   2
loop_
 _symmetry_equiv_pos_site_id
 _symmetry_equiv_pos_as_xyz
  1  'x, y, z'
loop_
 _atom_site_type_symbol
 _atom_site_label
 _atom_site_symmetry_multiplicity
 _atom_site_fract_x
 _atom_site_fract_y
 _atom_site_fract_z
 _atom_site_occupancy
  Li  Li0  1  0.03985058  0.94921318  0.86159723  1
  Li  Li1  1  0.26045963  0.72128464  0.50701385  1
  Li  Li2  1  0.52874408  0.98953749  0.50703752  1
  Li  Li3  1  0.75503858  0.74376884  0.99545783  1
  Li  Li4  1  0.50623609  0.49496551  0.99546722  1
  Li  Li5  1  0.30075624  0.21014610  0.86161372  1
  Li  Li6  1  0.16566537  0.08432156  0.07578441  1
  Li  Li7  1  0.72470668  0.27321548  0.46136580  1
  Li  Li8  1  0.97679524  0.52530539  0.46137064  1
  Li  Li9  1  0.88136985  0.36864932  0.67430212  1
  V  V10  1  0.36787605  0.88212024  0.22785888  1
  V  V11  1  0.86157283  0.89487704  0.26711299  1
  V  V12  1  0.35513315  0.38841709  0.26712261  1
  V  V13  1  0.85108848  0.39892243  0.21202681  1
  V  V14  1  0.14311163  0.60454233  0.77697480  1
  V  V15  1  0.64541987  0.10691341  0.77698709  1
  Cu  Cu16  1  0.19924752  0.05075824  0.64578033  1
  Cu  Cu17  1  0.61907578  0.63093578  0.71729229  1
  P  P18  1  0.08306746  0.68426641  0.08864910  1
  P  P19  1  0.42773366  0.82226766  0.91681071  1
  P  P20  1  0.57427103  0.67573605  0.40371933  1
  P  P21  1  0.06410735  0.18588534  0.39504814  1
  P  P22  1  0.43136719  0.32954624  0.59230910  1
  P  P23  1  0.92045785  0.81863925  0.59232275  1
  P  P24  1  0.56572744  0.16693337  0.08865485  1
  P  P25  1  0.91904901  0.33093805  0.91474101  1
  O  O26  1  0.26831392  0.98167456  0.91596680  1
  O  O27  1  0.08195454  0.85842036  0.67099860  1
  O  O28  1  0.11307751  0.85701631  0.15650216  1
  O  O29  1  0.02624132  0.73152479  0.94988692  1
  O  O30  1  0.48684940  0.76315315  0.05275699  1
  O  O31  1  0.38364206  0.65979379  0.84861203  1
  O  O32  1  0.07899125  0.36997566  0.83854423  1
  O  O33  1  0.59019591  0.86637878  0.84861538  1
  O  O34  1  0.24041656  0.53102622  0.10025835  1
  O  O35  1  0.61173345  0.84381562  0.33716364  1
  O  O36  1  0.40619155  0.63826499  0.33716600  1
  O  O37  1  0.09851259  0.35444491  0.32610218  1
  O  O38  1  0.27925435  0.49009011  0.60394850  1
  O  O39  1  0.75992354  0.97073839  0.60398305  1
  O  O40  1  0.51886514  0.73114552  0.53973006  1
  O  O41  1  0.00262160  0.24736435  0.53021568  1
  O  O42  1  0.98235597  0.78120745  0.45349412  1
  O  O43  1  0.46881785  0.26763420  0.45348711  1
  O  O44  1  0.22073472  0.02925629  0.39048396  1
  O  O45  1  0.73229199  0.51771716  0.39219142  1
  O  O46  1  0.76163793  0.48835386  0.91437974  1
  O  O47  1  0.61063450  0.35052798  0.64989956  1
  O  O48  1  0.39156661  0.16806621  0.67098786  1
  O  O49  1  0.89949486  0.63935133  0.64989742  1
  O  O50  1  0.59952120  0.33679187  0.15740504  1
  O  O51  1  0.39298103  0.13691790  0.15651101  1
  O  O52  1  0.91320671  0.65048049  0.15739466  1
  O  O53  1  0.51843781  0.22378160  0.94989889  1
  O  O54  1  0.97774867  0.27227669  0.04968088  1
  O  O55  1  0.87999834  0.17097532  0.83858034  1
  O  O56  1  0.71896352  0.00959144  0.10024894  1
  O  O57  1  0.89555297  0.15149027  0.32609434  1
