# generated using pymatgen
data_SrMo2Se2O11
_symmetry_space_group_name_H-M   'P 1'
_cell_length_a   8.10171272
_cell_length_b   8.27740961
_cell_length_c   8.96496238
_cell_angle_alpha   83.05121716
_cell_angle_beta   65.58900380
_cell_angle_gamma   67.29031665
_symmetry_Int_Tables_number   1
_chemical_formula_structural   SrMo2Se2O11
_chemical_formula_sum   'Sr2 Mo4 Se4 O22'
_cell_volume   504.48098376
_cell_formula_units_Z   2
loop_
 _symmetry_equiv_pos_site_id
 _symmetry_equiv_pos_as_xyz
  1  'x, y, z'
loop_
 _atom_site_type_symbol
 _atom_site_label
 _atom_site_symmetry_multiplicity
 _atom_site_fract_x
 _atom_site_fract_y
 _atom_site_fract_z
 _atom_site_occupancy
  Sr  Sr0  1  0.56949291  0.22631634  0.47579038  1
  Sr  Sr1  1  0.43050709  0.77368366  0.52420962  1
  Mo  Mo2  1  0.72401658  0.37945429  0.80548612  1
  Mo  Mo3  1  0.27598342  0.62054571  0.19451388  1
  Mo  Mo4  1  0.71854983  0.96892303  0.04865011  1
  Mo  Mo5  1  0.28145017  0.03107697  0.95134989  1
  Se  Se6  1  0.75082668  0.55103173  0.14464218  1
  Se  Se7  1  0.24917332  0.44896827  0.85535782  1
  Se  Se8  1  0.76111086  0.77779129  0.68731526  1
  Se  Se9  1  0.23888914  0.22220871  0.31268474  1
  O  O10  1  0.94509126  0.39048699  0.77926026  1
  O  O11  1  0.05490874  0.60951301  0.22073974  1
  O  O12  1  0.76290308  0.28928897  0.62115205  1
  O  O13  1  0.23709692  0.71071103  0.37884795  1
  O  O14  1  0.72959158  0.17207707  0.92452970  1
  O  O15  1  0.27040842  0.82792293  0.07547030  1
  O  O16  1  0.64022816  0.63251373  0.71551925  1
  O  O17  1  0.35977184  0.36748627  0.28448075  1
  O  O18  1  0.59688088  0.52153721  0.06328446  1
  O  O19  1  0.40311912  0.47846279  0.93671554  1
  O  O20  1  0.94229335  0.81070668  0.93049233  1
  O  O21  1  0.05770665  0.18929332  0.06950767  1
  O  O22  1  0.74601478  0.03563051  0.21195113  1
  O  O23  1  0.25398522  0.96436949  0.78804887  1
  O  O24  1  0.62388440  0.77848250  0.19313691  1
  O  O25  1  0.37611560  0.22151750  0.80686309  1
  O  O26  1  0.60281326  0.90730374  0.87323506  1
  O  O27  1  0.39718674  0.09269626  0.12676494  1
  O  O28  1  0.66709414  0.48497043  0.33713475  1
  O  O29  1  0.33290586  0.51502957  0.66286525  1
  O  O30  1  0.68174088  0.90182766  0.54982125  1
  O  O31  1  0.31825912  0.09817234  0.45017875  1
