# generated using pymatgen
data_YbCdCu4
_symmetry_space_group_name_H-M   'P 1'
_cell_length_a   5.06104436
_cell_length_b   5.06104436
_cell_length_c   5.06104436
_cell_angle_alpha   60.00000002
_cell_angle_beta   60.00000003
_cell_angle_gamma   60.00000005
_symmetry_Int_Tables_number   1
_chemical_formula_structural   YbCdCu4
_chemical_formula_sum   'Yb1 Cd1 Cu4'
_cell_volume   91.66539934
_cell_formula_units_Z   1
loop_
 _symmetry_equiv_pos_site_id
 _symmetry_equiv_pos_as_xyz
  1  'x, y, z'
loop_
 _atom_site_type_symbol
 _atom_site_label
 _atom_site_symmetry_multiplicity
 _atom_site_fract_x
 _atom_site_fract_y
 _atom_site_fract_z
 _atom_site_occupancy
  Cu  Cu0  1  0.87595373  0.37468209  0.37468209  1
  Cu  Cu1  1  0.37468209  0.37468209  0.37468209  1
  Cu  Cu2  1  0.37468209  0.37468209  0.87595373  1
  Cu  Cu3  1  0.37468209  0.87595373  0.37468209  1
  Cd  Cd4  1  0.00000000  0.00000000  0.00000000  1
  Yb  Yb5  1  0.75000000  0.75000000  0.75000000  1
