# generated using pymatgen
data_Nd2Nb2S7O30
_symmetry_space_group_name_H-M   'P 1'
_cell_length_a   7.27783544
_cell_length_b   13.01871267
_cell_length_c   13.01871267
_cell_angle_alpha   90.00000000
_cell_angle_beta   90.00000000
_cell_angle_gamma   90.00000000
_symmetry_Int_Tables_number   1
_chemical_formula_structural   Nd2Nb2S7O30
_chemical_formula_sum   'Nd4 Nb4 S14 O60'
_cell_volume   1233.49761885
_cell_formula_units_Z   2
loop_
 _symmetry_equiv_pos_site_id
 _symmetry_equiv_pos_as_xyz
  1  'x, y, z'
loop_
 _atom_site_type_symbol
 _atom_site_label
 _atom_site_symmetry_multiplicity
 _atom_site_fract_x
 _atom_site_fract_y
 _atom_site_fract_z
 _atom_site_occupancy
  Nd  Nd0  1  0.40759380  0.19929864  0.69929864  1
  Nd  Nd1  1  0.59240620  0.30070136  0.19929864  1
  Nd  Nd2  1  0.40759380  0.80070136  0.30070136  1
  Nd  Nd3  1  0.59240620  0.69929864  0.80070136  1
  Nb  Nb4  1  0.01620197  0.36284824  0.86284824  1
  Nb  Nb5  1  0.98379803  0.13715176  0.36284824  1
  Nb  Nb6  1  0.01620197  0.63715176  0.13715176  1
  Nb  Nb7  1  0.98379803  0.86284824  0.63715176  1
  S  S8  1  0.65552781  0.50000000  0.00000000  1
  S  S9  1  0.34447219  -0.00000000  0.50000000  1
  S  S10  1  0.10215799  0.62289446  0.87710554  1
  S  S11  1  0.89784201  0.87710554  0.37710554  1
  S  S12  1  0.10215799  0.37710554  0.12289446  1
  S  S13  1  0.89784201  0.12289446  0.62289446  1
  S  S14  1  0.70965336  0.43534134  0.67549726  1
  S  S15  1  0.29034664  0.06465866  0.17549726  1
  S  S16  1  0.70965336  0.56465866  0.32450274  1
  S  S17  1  0.29034664  0.93534134  0.82450274  1
  S  S18  1  0.29034664  0.32450274  0.43534134  1
  S  S19  1  0.70965336  0.17549726  0.93534134  1
  S  S20  1  0.29034664  0.67549726  0.56465866  1
  S  S21  1  0.70965336  0.82450274  0.06465866  1
  O  O22  1  0.20655292  0.30238707  0.80238707  1
  O  O23  1  0.79344708  0.19761293  0.30238707  1
  O  O24  1  0.20655292  0.69761293  0.19761293  1
  O  O25  1  0.79344708  0.80238707  0.69761293  1
  O  O26  1  0.54270798  0.43354796  0.06645204  1
  O  O27  1  0.45729202  0.06645204  0.56645204  1
  O  O28  1  0.54270798  0.56645204  0.93354796  1
  O  O29  1  0.45729202  0.93354796  0.43354796  1
  O  O30  1  0.77526883  0.43432867  0.93432867  1
  O  O31  1  0.22473117  0.06567133  0.43432867  1
  O  O32  1  0.77526883  0.56567133  0.06567133  1
  O  O33  1  0.22473117  0.93432867  0.56567133  1
  O  O34  1  0.92159890  0.65663610  0.84336390  1
  O  O35  1  0.07840110  0.84336390  0.34336390  1
  O  O36  1  0.92159890  0.34336390  0.15663610  1
  O  O37  1  0.07840110  0.15663610  0.65663610  1
  O  O38  1  0.25450327  0.67416014  0.82583986  1
  O  O39  1  0.74549673  0.82583986  0.32583986  1
  O  O40  1  0.25450327  0.32583986  0.17416014  1
  O  O41  1  0.74549673  0.17416014  0.67416014  1
  O  O42  1  0.12347412  0.50898316  0.85927941  1
  O  O43  1  0.87652588  0.99101684  0.35927941  1
  O  O44  1  0.12347412  0.49101684  0.14072059  1
  O  O45  1  0.87652588  0.00898316  0.64072059  1
  O  O46  1  0.87652588  0.14072059  0.50898316  1
  O  O47  1  0.12347412  0.35927941  0.00898316  1
  O  O48  1  0.87652588  0.85927941  0.49101684  1
  O  O49  1  0.12347412  0.64072059  0.99101684  1
  O  O50  1  0.55383843  0.37057675  0.70762346  1
  O  O51  1  0.44616157  0.12942325  0.20762346  1
  O  O52  1  0.55383843  0.62942325  0.29237654  1
  O  O53  1  0.44616157  0.87057675  0.79237654  1
  O  O54  1  0.44616157  0.29237654  0.37057675  1
  O  O55  1  0.55383843  0.20762346  0.87057675  1
  O  O56  1  0.44616157  0.70762346  0.62942325  1
  O  O57  1  0.55383843  0.79237654  0.12942325  1
  O  O58  1  0.68340698  0.54266397  0.70647029  1
  O  O59  1  0.31659302  0.95733603  0.20647029  1
  O  O60  1  0.68340698  0.45733603  0.29352971  1
  O  O61  1  0.31659302  0.04266397  0.79352971  1
  O  O62  1  0.31659302  0.29352971  0.54266397  1
  O  O63  1  0.68340698  0.20647029  0.04266397  1
  O  O64  1  0.31659302  0.70647029  0.45733603  1
  O  O65  1  0.68340698  0.79352971  0.95733603  1
  O  O66  1  0.74416140  0.42429375  0.56531526  1
  O  O67  1  0.25583860  0.07570625  0.06531526  1
  O  O68  1  0.74416140  0.57570625  0.43468474  1
  O  O69  1  0.25583860  0.92429375  0.93468474  1
  O  O70  1  0.25583860  0.43468474  0.42429375  1
  O  O71  1  0.74416140  0.06531526  0.92429375  1
  O  O72  1  0.25583860  0.56531526  0.57570625  1
  O  O73  1  0.74416140  0.93468474  0.07570625  1
  O  O74  1  0.88093468  0.39422967  0.73206440  1
  O  O75  1  0.11906532  0.10577033  0.23206440  1
  O  O76  1  0.88093468  0.60577033  0.26793560  1
  O  O77  1  0.11906532  0.89422967  0.76793560  1
  O  O78  1  0.11906532  0.26793560  0.39422967  1
  O  O79  1  0.88093468  0.23206440  0.89422967  1
  O  O80  1  0.11906532  0.73206440  0.60577033  1
  O  O81  1  0.88093468  0.76793560  0.10577033  1
