# generated using pymatgen
data_RbFe3P3(O4F3)2
_symmetry_space_group_name_H-M   'P 1'
_cell_length_a   7.60074991
_cell_length_b   7.91007060
_cell_length_c   10.97553324
_cell_angle_alpha   102.09355155
_cell_angle_beta   110.25865645
_cell_angle_gamma   90.00000000
_symmetry_Int_Tables_number   1
_chemical_formula_structural   RbFe3P3(O4F3)2
_chemical_formula_sum   'Rb2 Fe6 P6 O16 F12'
_cell_volume   603.42094013
_cell_formula_units_Z   2
loop_
 _symmetry_equiv_pos_site_id
 _symmetry_equiv_pos_as_xyz
  1  'x, y, z'
loop_
 _atom_site_type_symbol
 _atom_site_label
 _atom_site_symmetry_multiplicity
 _atom_site_fract_x
 _atom_site_fract_y
 _atom_site_fract_z
 _atom_site_occupancy
  Rb  Rb0  1  0.35194524  0.25000000  -0.00000000  1
  Rb  Rb1  1  0.64805476  0.75000000  -0.00000000  1
  Fe  Fe2  1  0.50000000  -0.00000000  0.50000000  1
  Fe  Fe3  1  -0.00000000  0.50000000  0.50000000  1
  Fe  Fe4  1  0.86207161  0.19684482  0.67526775  1
  Fe  Fe5  1  0.18680386  0.30315518  0.32473225  1
  Fe  Fe6  1  0.13792839  0.80315518  0.32473225  1
  Fe  Fe7  1  0.81319614  0.69684482  0.67526775  1
  P  P8  1  0.17946425  0.92067057  0.65250626  1
  P  P9  1  0.52695800  0.57932943  0.34749374  1
  P  P10  1  0.82053575  0.07932943  0.34749374  1
  P  P11  1  0.47304200  0.42067057  0.65250626  1
  P  P12  1  0.88202728  0.25000000  -0.00000000  1
  P  P13  1  0.11797272  0.75000000  -0.00000000  1
  O  O14  1  0.03665413  0.20832901  0.11388036  1
  O  O15  1  0.92277378  0.29167099  0.88611964  1
  O  O16  1  0.96334587  0.79167099  0.88611964  1
  O  O17  1  0.07722622  0.70832901  0.11388036  1
  O  O18  1  0.75281233  0.07109009  0.46165032  1
  O  O19  1  0.29116201  0.42890991  0.53834968  1
  O  O20  1  0.24718767  0.92890991  0.53834968  1
  O  O21  1  0.70883799  0.57109009  0.46165032  1
  O  O22  1  0.57601768  0.25982685  0.62235625  1
  O  O23  1  0.95366143  0.24017315  0.37764375  1
  O  O24  1  0.42398232  0.74017315  0.37764375  1
  O  O25  1  0.04633857  0.75982685  0.62235625  1
  O  O26  1  0.11345710  0.08670397  0.71403745  1
  O  O27  1  0.39941964  0.41329603  0.28596255  1
  O  O28  1  0.88654290  0.91329603  0.28596255  1
  O  O29  1  0.60058036  0.58670397  0.71403745  1
  F  F30  1  0.76760194  0.39870185  0.05172607  1
  F  F31  1  0.71587587  0.10129815  0.94827393  1
  F  F32  1  0.23239806  0.60129815  0.94827393  1
  F  F33  1  0.28412413  0.89870185  0.05172607  1
  F  F34  1  0.70872601  0.94269118  0.66254863  1
  F  F35  1  0.04617738  0.55730882  0.33745137  1
  F  F36  1  0.29127399  0.05730882  0.33745137  1
  F  F37  1  0.95382262  0.44269118  0.66254863  1
  F  F38  1  0.36581587  0.89392304  0.77176800  1
  F  F39  1  0.59404787  0.60607696  0.22823200  1
  F  F40  1  0.63418413  0.10607696  0.22823200  1
  F  F41  1  0.40595213  0.39392304  0.77176800  1
