# generated using pymatgen
data_Ho5RuI7
_symmetry_space_group_name_H-M   'P 1'
_cell_length_a   12.19777341
_cell_length_b   12.19777341
_cell_length_c   12.19777341
_cell_angle_alpha   90.00000000
_cell_angle_beta   90.00000000
_cell_angle_gamma   90.00000000
_symmetry_Int_Tables_number   1
_chemical_formula_structural   Ho5RuI7
_chemical_formula_sum   'Ho20 Ru4 I28'
_cell_volume   1814.85396447
_cell_formula_units_Z   4
loop_
 _symmetry_equiv_pos_site_id
 _symmetry_equiv_pos_as_xyz
  1  'x, y, z'
loop_
 _atom_site_type_symbol
 _atom_site_label
 _atom_site_symmetry_multiplicity
 _atom_site_fract_x
 _atom_site_fract_y
 _atom_site_fract_z
 _atom_site_occupancy
  Ho  Ho0  1  0.87414644  0.87414644  0.87414644  1
  Ho  Ho1  1  0.87414644  0.12585356  0.12585356  1
  Ho  Ho2  1  0.12585356  0.87414644  0.12585356  1
  Ho  Ho3  1  0.12585356  0.12585356  0.87414644  1
  Ho  Ho4  1  0.68023789  0.88733856  0.11266144  1
  Ho  Ho5  1  0.88733856  0.88733856  0.31976211  1
  Ho  Ho6  1  0.88733856  0.68023789  0.11266144  1
  Ho  Ho7  1  0.68023789  0.11266144  0.88733856  1
  Ho  Ho8  1  0.88733856  0.11266144  0.68023789  1
  Ho  Ho9  1  0.88733856  0.31976211  0.88733856  1
  Ho  Ho10  1  0.31976211  0.88733856  0.88733856  1
  Ho  Ho11  1  0.11266144  0.88733856  0.68023789  1
  Ho  Ho12  1  0.11266144  0.68023789  0.88733856  1
  Ho  Ho13  1  0.31976211  0.11266144  0.11266144  1
  Ho  Ho14  1  0.11266144  0.11266144  0.31976211  1
  Ho  Ho15  1  0.11266144  0.31976211  0.11266144  1
  Ho  Ho16  1  0.62499674  0.62499674  0.37500326  1
  Ho  Ho17  1  0.62499674  0.37500326  0.62499674  1
  Ho  Ho18  1  0.37500326  0.62499674  0.62499674  1
  Ho  Ho19  1  0.37500326  0.37500326  0.37500326  1
  Ru  Ru20  1  0.89909803  0.89909803  0.10090197  1
  Ru  Ru21  1  0.89909803  0.10090197  0.89909803  1
  Ru  Ru22  1  0.10090197  0.89909803  0.89909803  1
  Ru  Ru23  1  0.10090197  0.10090197  0.10090197  1
  I  I24  1  0.60477758  0.86656066  0.86656066  1
  I  I25  1  0.86656066  0.13343934  0.39522242  1
  I  I26  1  0.13343934  0.60477758  0.13343934  1
  I  I27  1  0.60477758  0.13343934  0.13343934  1
  I  I28  1  0.86656066  0.60477758  0.86656066  1
  I  I29  1  0.13343934  0.86656066  0.39522242  1
  I  I30  1  0.86656066  0.86656066  0.60477758  1
  I  I31  1  0.13343934  0.39522242  0.86656066  1
  I  I32  1  0.86656066  0.39522242  0.13343934  1
  I  I33  1  0.13343934  0.13343934  0.60477758  1
  I  I34  1  0.39522242  0.86656066  0.13343934  1
  I  I35  1  0.39522242  0.13343934  0.86656066  1
  I  I36  1  0.63049132  0.63049132  0.12297904  1
  I  I37  1  0.63049132  0.87702096  0.36950868  1
  I  I38  1  0.87702096  0.63049132  0.36950868  1
  I  I39  1  0.63049132  0.36950868  0.87702096  1
  I  I40  1  0.63049132  0.12297904  0.63049132  1
  I  I41  1  0.87702096  0.36950868  0.63049132  1
  I  I42  1  0.36950868  0.63049132  0.87702096  1
  I  I43  1  0.36950868  0.87702096  0.63049132  1
  I  I44  1  0.12297904  0.63049132  0.63049132  1
  I  I45  1  0.36950868  0.36950868  0.12297904  1
  I  I46  1  0.36950868  0.12297904  0.36950868  1
  I  I47  1  0.12297904  0.36950868  0.36950868  1
  I  I48  1  0.62627619  0.37372381  0.37372381  1
  I  I49  1  0.37372381  0.62627619  0.37372381  1
  I  I50  1  0.62627619  0.62627619  0.62627619  1
  I  I51  1  0.37372381  0.37372381  0.62627619  1
