# generated using pymatgen
data_Li5Ni3O5F3
_symmetry_space_group_name_H-M   'P 1'
_cell_length_a   6.00220528
_cell_length_b   5.75624396
_cell_length_c   5.99037446
_cell_angle_alpha   61.20209355
_cell_angle_beta   55.66693344
_cell_angle_gamma   61.64563356
_symmetry_Int_Tables_number   1
_chemical_formula_structural   Li5Ni3O5F3
_chemical_formula_sum   'Li5 Ni3 O5 F3'
_cell_volume   143.74382739
_cell_formula_units_Z   1
loop_
 _symmetry_equiv_pos_site_id
 _symmetry_equiv_pos_as_xyz
  1  'x, y, z'
loop_
 _atom_site_type_symbol
 _atom_site_label
 _atom_site_symmetry_multiplicity
 _atom_site_fract_x
 _atom_site_fract_y
 _atom_site_fract_z
 _atom_site_occupancy
  Li  Li0  1  0.50106896  0.00031608  0.00058170  1
  Li  Li1  1  0.99655243  0.00584571  0.00656136  1
  Li  Li2  1  0.99780003  0.48574984  0.01443311  1
  Li  Li3  1  0.99031798  0.01019903  0.48953464  1
  Li  Li4  1  0.50864036  0.49233209  0.49540744  1
  Ni  Ni5  1  0.50650252  0.00562762  0.49490266  1
  Ni  Ni6  1  0.51918445  0.48483918  0.01523343  1
  Ni  Ni7  1  0.00014855  0.50092881  0.49888405  1
  O  O8  1  0.74795879  0.25431166  0.24594561  1
  O  O9  1  0.26194027  0.25898908  0.27447307  1
  O  O10  1  0.75863174  0.28506363  0.74425514  1
  O  O11  1  0.24302750  0.71563055  0.25392263  1
  O  O12  1  0.73489199  0.74145819  0.72461515  1
  F  F13  1  0.27859091  0.22329281  0.78810594  1
  F  F14  1  0.72282587  0.77618601  0.21363563  1
  F  F15  1  0.23191665  0.75923071  0.73950944  1
