# generated using pymatgen
data_Pr2Sb4Ir3
_symmetry_space_group_name_H-M   'P 1'
_cell_length_a   4.60053210
_cell_length_b   11.09165244
_cell_length_c   16.34323353
_cell_angle_alpha   90.00000000
_cell_angle_beta   90.00000000
_cell_angle_gamma   90.00000000
_symmetry_Int_Tables_number   1
_chemical_formula_structural   Pr2Sb4Ir3
_chemical_formula_sum   'Pr8 Sb16 Ir12'
_cell_volume   833.95439949
_cell_formula_units_Z   4
loop_
 _symmetry_equiv_pos_site_id
 _symmetry_equiv_pos_as_xyz
  1  'x, y, z'
loop_
 _atom_site_type_symbol
 _atom_site_label
 _atom_site_symmetry_multiplicity
 _atom_site_fract_x
 _atom_site_fract_y
 _atom_site_fract_z
 _atom_site_occupancy
  Pr  Pr0  1  0.25000000  0.74851219  0.50670636  1
  Pr  Pr1  1  0.25000000  0.75148781  0.00670636  1
  Pr  Pr2  1  0.75000000  0.25148781  0.49329364  1
  Pr  Pr3  1  0.75000000  0.24851219  0.99329364  1
  Pr  Pr4  1  0.25000000  0.58952448  0.75133725  1
  Pr  Pr5  1  0.25000000  0.91047552  0.25133725  1
  Pr  Pr6  1  0.75000000  0.41047552  0.24866275  1
  Pr  Pr7  1  0.75000000  0.08952448  0.74866275  1
  Sb  Sb8  1  0.25000000  0.27557343  0.64967027  1
  Sb  Sb9  1  0.25000000  0.22442657  0.14967027  1
  Sb  Sb10  1  0.75000000  0.72442657  0.35032973  1
  Sb  Sb11  1  0.75000000  0.77557343  0.85032973  1
  Sb  Sb12  1  0.25000000  0.88673890  0.71020485  1
  Sb  Sb13  1  0.25000000  0.61326110  0.21020485  1
  Sb  Sb14  1  0.75000000  0.11326110  0.28979515  1
  Sb  Sb15  1  0.75000000  0.38673890  0.78979515  1
  Sb  Sb16  1  0.25000000  0.06283530  0.89455076  1
  Sb  Sb17  1  0.25000000  0.43716470  0.39455076  1
  Sb  Sb18  1  0.75000000  0.93716470  0.10544924  1
  Sb  Sb19  1  0.75000000  0.56283530  0.60544924  1
  Sb  Sb20  1  0.25000000  0.44764213  0.93151544  1
  Sb  Sb21  1  0.25000000  0.05235787  0.43151544  1
  Sb  Sb22  1  0.75000000  0.55235787  0.06848456  1
  Sb  Sb23  1  0.75000000  0.94764213  0.56848456  1
  Ir  Ir24  1  0.25000000  0.46632072  0.55626968  1
  Ir  Ir25  1  0.25000000  0.03367928  0.05626968  1
  Ir  Ir26  1  0.75000000  0.53367928  0.44373032  1
  Ir  Ir27  1  0.75000000  0.96632072  0.94373032  1
  Ir  Ir28  1  0.25000000  0.05645230  0.59215489  1
  Ir  Ir29  1  0.25000000  0.44354770  0.09215489  1
  Ir  Ir30  1  0.75000000  0.94354770  0.40784511  1
  Ir  Ir31  1  0.75000000  0.55645230  0.90784511  1
  Ir  Ir32  1  0.25000000  0.27742398  0.81763807  1
  Ir  Ir33  1  0.25000000  0.22257602  0.31763807  1
  Ir  Ir34  1  0.75000000  0.72257602  0.18236193  1
  Ir  Ir35  1  0.75000000  0.77742398  0.68236193  1
