# generated using pymatgen
data_Rb4LiH3(SeO4)4
_symmetry_space_group_name_H-M   'P 1'
_cell_length_a   8.03816746
_cell_length_b   8.03816746
_cell_length_c   31.05650490
_cell_angle_alpha   90.00000000
_cell_angle_beta   90.00000000
_cell_angle_gamma   90.00000000
_symmetry_Int_Tables_number   1
_chemical_formula_structural   Rb4LiH3(SeO4)4
_chemical_formula_sum   'Rb16 Li4 H12 Se16 O64'
_cell_volume   2006.62712186
_cell_formula_units_Z   4
loop_
 _symmetry_equiv_pos_site_id
 _symmetry_equiv_pos_as_xyz
  1  'x, y, z'
loop_
 _atom_site_type_symbol
 _atom_site_label
 _atom_site_symmetry_multiplicity
 _atom_site_fract_x
 _atom_site_fract_y
 _atom_site_fract_z
 _atom_site_occupancy
  Rb  Rb0  1  0.61350518  0.42608527  0.52311449  1
  Rb  Rb1  1  0.38649482  0.57391473  0.02311449  1
  Rb  Rb2  1  0.42608527  0.38649482  0.27311449  1
  Rb  Rb3  1  0.57391473  0.61350518  0.77311449  1
  Rb  Rb4  1  0.11028543  0.13205895  0.53730982  1
  Rb  Rb5  1  0.88971457  0.86794105  0.03730982  1
  Rb  Rb6  1  0.13205895  0.88971457  0.28730982  1
  Rb  Rb7  1  0.86794105  0.11028543  0.78730982  1
  Rb  Rb8  1  0.49248408  0.02852036  0.66142469  1
  Rb  Rb9  1  0.50751592  0.97147964  0.16142469  1
  Rb  Rb10  1  0.02852036  0.50751592  0.41142469  1
  Rb  Rb11  1  0.97147964  0.49248408  0.91142469  1
  Rb  Rb12  1  0.72908810  0.00692832  0.42014756  1
  Rb  Rb13  1  0.27091190  0.99307168  0.92014756  1
  Rb  Rb14  1  0.00692832  0.27091190  0.17014756  1
  Rb  Rb15  1  0.99307168  0.72908810  0.67014756  1
  Li  Li16  1  0.37173645  0.76625944  0.47248088  1
  Li  Li17  1  0.62826355  0.23374056  0.97248088  1
  Li  Li18  1  0.76625944  0.62826355  0.22248088  1
  Li  Li19  1  0.23374056  0.37173645  0.72248088  1
  H  H20  1  0.78190892  0.33410219  0.61832296  1
  H  H21  1  0.21809108  0.66589781  0.11832296  1
  H  H22  1  0.33410219  0.21809108  0.36832296  1
  H  H23  1  0.66589781  0.78190892  0.86832296  1
  H  H24  1  0.29692315  0.57409079  0.59406858  1
  H  H25  1  0.70307685  0.42590921  0.09406858  1
  H  H26  1  0.57409079  0.70307685  0.34406858  1
  H  H27  1  0.42590921  0.29692315  0.84406858  1
  H  H28  1  0.81354799  0.81613055  0.57863072  1
  H  H29  1  0.18645201  0.18386945  0.07863072  1
  H  H30  1  0.81613055  0.18645201  0.32863072  1
  H  H31  1  0.18386945  0.81354799  0.82863072  1
  Se  Se32  1  0.98054246  0.19862971  0.65992916  1
  Se  Se33  1  0.01945754  0.80137029  0.15992916  1
  Se  Se34  1  0.19862971  0.01945754  0.40992916  1
  Se  Se35  1  0.80137029  0.98054246  0.90992916  1
  Se  Se36  1  0.50867701  0.52942086  0.65556236  1
  Se  Se37  1  0.49132299  0.47057914  0.15556236  1
  Se  Se38  1  0.52942086  0.49132299  0.40556236  1
  Se  Se39  1  0.47057914  0.50867701  0.90556236  1
  Se  Se40  1  0.09081862  0.62699066  0.53782956  1
  Se  Se41  1  0.90918138  0.37300934  0.03782956  1
  Se  Se42  1  0.62699066  0.90918138  0.28782956  1
  Se  Se43  1  0.37300934  0.09081862  0.78782956  1
  Se  Se44  1  0.61670514  0.95580174  0.53835350  1
  Se  Se45  1  0.38329486  0.04419826  0.03835350  1
  Se  Se46  1  0.95580174  0.38329486  0.28835350  1
  Se  Se47  1  0.04419826  0.61670514  0.78835350  1
  O  O48  1  0.84023799  0.08821749  0.68634221  1
  O  O49  1  0.15976201  0.91178251  0.18634221  1
  O  O50  1  0.08821749  0.15976201  0.43634221  1
  O  O51  1  0.91178251  0.84023799  0.93634221  1
  O  O52  1  0.13742744  0.08559246  0.64162689  1
  O  O53  1  0.86257256  0.91440754  0.14162689  1
  O  O54  1  0.08559246  0.86257256  0.39162689  1
  O  O55  1  0.91440754  0.13742744  0.89162689  1
  O  O56  1  0.03501869  0.36747755  0.68735829  1
  O  O57  1  0.96498131  0.63252245  0.18735829  1
  O  O58  1  0.36747755  0.96498131  0.43735829  1
  O  O59  1  0.63252245  0.03501869  0.93735829  1
  O  O60  1  0.89075456  0.27191813  0.61146617  1
  O  O61  1  0.10924544  0.72808187  0.11146617  1
  O  O62  1  0.27191813  0.10924544  0.36146617  1
  O  O63  1  0.72808187  0.89075456  0.86146617  1
  O  O64  1  0.62713906  0.67417551  0.67827236  1
  O  O65  1  0.37286094  0.32582449  0.17827236  1
  O  O66  1  0.67417551  0.37286094  0.42827236  1
  O  O67  1  0.32582449  0.62713906  0.92827236  1
  O  O68  1  0.44232055  0.39732875  0.69324524  1
  O  O69  1  0.55767945  0.60267125  0.19324524  1
  O  O70  1  0.39732875  0.55767945  0.44324524  1
  O  O71  1  0.60267125  0.44232055  0.94324524  1
  O  O72  1  0.60641547  0.41959878  0.61714069  1
  O  O73  1  0.39358453  0.58040122  0.11714069  1
  O  O74  1  0.41959878  0.39358453  0.36714069  1
  O  O75  1  0.58040122  0.60641547  0.86714069  1
  O  O76  1  0.34376717  0.62865133  0.63213027  1
  O  O77  1  0.65623283  0.37134867  0.13213027  1
  O  O78  1  0.62865133  0.65623283  0.38213027  1
  O  O79  1  0.37134867  0.34376717  0.88213027  1
  O  O80  1  0.98325276  0.48178686  0.51262229  1
  O  O81  1  0.01674724  0.51821314  0.01262229  1
  O  O82  1  0.48178686  0.01674724  0.26262229  1
  O  O83  1  0.51821314  0.98325276  0.76262229  1
  O  O84  1  0.16215611  0.76968393  0.50362653  1
  O  O85  1  0.83784389  0.23031607  0.00362653  1
  O  O86  1  0.76968393  0.83784389  0.25362653  1
  O  O87  1  0.23031607  0.16215611  0.75362653  1
  O  O88  1  0.25817885  0.52340472  0.56128662  1
  O  O89  1  0.74182115  0.47659528  0.06128662  1
  O  O90  1  0.52340472  0.74182115  0.31128662  1
  O  O91  1  0.47659528  0.25817885  0.81128662  1
  O  O92  1  0.98702882  0.72248369  0.57734912  1
  O  O93  1  0.01297118  0.27751631  0.07734912  1
  O  O94  1  0.72248369  0.01297118  0.32734912  1
  O  O95  1  0.27751631  0.98702882  0.82734912  1
  O  O96  1  0.45588479  0.06101702  0.55673390  1
  O  O97  1  0.54411521  0.93898298  0.05673390  1
  O  O98  1  0.06101702  0.54411521  0.30673390  1
  O  O99  1  0.93898298  0.45588479  0.80673390  1
  O  O100  1  0.75821040  0.07368393  0.51449449  1
  O  O101  1  0.24178960  0.92631607  0.01449449  1
  O  O102  1  0.07368393  0.24178960  0.26449449  1
  O  O103  1  0.92631607  0.75821040  0.76449449  1
  O  O104  1  0.57207433  0.79243429  0.50747280  1
  O  O105  1  0.42792567  0.20756571  0.00747280  1
  O  O106  1  0.79243429  0.42792567  0.25747280  1
  O  O107  1  0.20756571  0.57207433  0.75747280  1
  O  O108  1  0.70441984  0.87517374  0.58617786  1
  O  O109  1  0.29558016  0.12482626  0.08617786  1
  O  O110  1  0.87517374  0.29558016  0.33617786  1
  O  O111  1  0.12482626  0.70441984  0.83617786  1
