# generated using pymatgen
data_Dy2Ge6Pd
_symmetry_space_group_name_H-M   'P 1'
_cell_length_a   5.78457149
_cell_length_b   5.78457149
_cell_length_c   21.67438909
_cell_angle_alpha   90.00000000
_cell_angle_beta   90.00000000
_cell_angle_gamma   90.63486525
_symmetry_Int_Tables_number   1
_chemical_formula_structural   Dy2Ge6Pd
_chemical_formula_sum   'Dy8 Ge24 Pd4'
_cell_volume   725.20800476
_cell_formula_units_Z   4
loop_
 _symmetry_equiv_pos_site_id
 _symmetry_equiv_pos_as_xyz
  1  'x, y, z'
loop_
 _atom_site_type_symbol
 _atom_site_label
 _atom_site_symmetry_multiplicity
 _atom_site_fract_x
 _atom_site_fract_y
 _atom_site_fract_z
 _atom_site_occupancy
  Dy  Dy0  1  0.87301252  0.37574407  0.58121704  1
  Dy  Dy1  1  0.62425593  0.12698748  0.41878296  1
  Dy  Dy2  1  0.12425593  0.62698748  0.08121704  1
  Dy  Dy3  1  0.37301252  0.87574407  0.91878296  1
  Dy  Dy4  1  0.12698748  0.62425593  0.41878296  1
  Dy  Dy5  1  0.37574407  0.87301252  0.58121704  1
  Dy  Dy6  1  0.87574407  0.37301252  0.91878296  1
  Dy  Dy7  1  0.62698748  0.12425593  0.08121704  1
  Ge  Ge8  1  0.09668273  0.65107219  0.69285478  1
  Ge  Ge9  1  0.34892781  0.90331727  0.30714522  1
  Ge  Ge10  1  0.84892781  0.40331727  0.19285478  1
  Ge  Ge11  1  0.59668273  0.15107219  0.80714522  1
  Ge  Ge12  1  0.90331727  0.34892781  0.30714522  1
  Ge  Ge13  1  0.65107219  0.09668273  0.69285478  1
  Ge  Ge14  1  0.15107219  0.59668273  0.80714522  1
  Ge  Ge15  1  0.40331727  0.84892781  0.19285478  1
  Ge  Ge16  1  0.38134004  0.38134004  0.95654365  1
  Ge  Ge17  1  0.61865996  0.61865996  0.04345635  1
  Ge  Ge18  1  0.11865996  0.11865996  0.45654365  1
  Ge  Ge19  1  0.88134004  0.88134004  0.54345635  1
  Ge  Ge20  1  0.36749719  0.36749719  0.52820488  1
  Ge  Ge21  1  0.63250281  0.63250281  0.47179512  1
  Ge  Ge22  1  0.13250281  0.13250281  0.02820488  1
  Ge  Ge23  1  0.86749719  0.86749719  0.97179512  1
  Ge  Ge24  1  0.15238134  0.15238134  0.80805505  1
  Ge  Ge25  1  0.84761866  0.84761866  0.19194495  1
  Ge  Ge26  1  0.34761866  0.34761866  0.30805505  1
  Ge  Ge27  1  0.65238134  0.65238134  0.69194495  1
  Ge  Ge28  1  0.09508525  0.09508525  0.69305318  1
  Ge  Ge29  1  0.90491475  0.90491475  0.30694682  1
  Ge  Ge30  1  0.40491475  0.40491475  0.19305318  1
  Ge  Ge31  1  0.59508525  0.59508525  0.80694682  1
  Pd  Pd32  1  0.37271098  0.37271098  0.64169524  1
  Pd  Pd33  1  0.62728902  0.62728902  0.35830476  1
  Pd  Pd34  1  0.12728902  0.12728902  0.14169524  1
  Pd  Pd35  1  0.87271098  0.87271098  0.85830476  1
