# generated using pymatgen
data_SmB9(HO3)6
_symmetry_space_group_name_H-M   'P 1'
_cell_length_a   7.81383989
_cell_length_b   9.90016236
_cell_length_c   16.80620205
_cell_angle_alpha   90.00000000
_cell_angle_beta   90.00000000
_cell_angle_gamma   90.07899811
_symmetry_Int_Tables_number   1
_chemical_formula_structural   SmB9(HO3)6
_chemical_formula_sum   'Sm4 B36 H24 O72'
_cell_volume   1300.09770875
_cell_formula_units_Z   4
loop_
 _symmetry_equiv_pos_site_id
 _symmetry_equiv_pos_as_xyz
  1  'x, y, z'
loop_
 _atom_site_type_symbol
 _atom_site_label
 _atom_site_symmetry_multiplicity
 _atom_site_fract_x
 _atom_site_fract_y
 _atom_site_fract_z
 _atom_site_occupancy
  Sm  Sm0  1  0.24204482  0.36183165  0.28940129  1
  Sm  Sm1  1  0.74204482  0.86183165  0.21059871  1
  Sm  Sm2  1  0.75795518  0.63816835  0.71059871  1
  Sm  Sm3  1  0.25795518  0.13816835  0.78940129  1
  B  B4  1  0.62624381  0.45741164  0.39778825  1
  B  B5  1  0.12624381  0.95741164  0.10221175  1
  B  B6  1  0.37375619  0.54258836  0.60221175  1
  B  B7  1  0.87375619  0.04258836  0.89778825  1
  B  B8  1  0.83546285  0.36101636  0.29389999  1
  B  B9  1  0.33546285  0.86101636  0.20610001  1
  B  B10  1  0.16453715  0.63898364  0.70610001  1
  B  B11  1  0.66453715  0.13898364  0.79389999  1
  B  B12  1  0.33150830  0.39203926  0.46251989  1
  B  B13  1  0.83150830  0.89203926  0.03748011  1
  B  B14  1  0.66849170  0.60796074  0.53748011  1
  B  B15  1  0.16849170  0.10796074  0.96251989  1
  B  B16  1  0.64013774  0.48260287  0.18271293  1
  B  B17  1  0.14013774  0.98260287  0.31728707  1
  B  B18  1  0.35986226  0.51739713  0.81728707  1
  B  B19  1  0.85986226  0.01739713  0.68271293  1
  B  B20  1  0.63796476  0.22456769  0.19462870  1
  B  B21  1  0.13796476  0.72456769  0.30537130  1
  B  B22  1  0.36203524  0.77543231  0.80537130  1
  B  B23  1  0.86203524  0.27543231  0.69462870  1
  B  B24  1  0.58572114  0.33655403  0.06674776  1
  B  B25  1  0.08572114  0.83655403  0.43325224  1
  B  B26  1  0.41427886  0.66344597  0.93325224  1
  B  B27  1  0.91427886  0.16344597  0.56674776  1
  B  B28  1  0.39823813  0.62339659  0.23784116  1
  B  B29  1  0.89823813  0.12339659  0.26215884  1
  B  B30  1  0.60176187  0.37660341  0.76215884  1
  B  B31  1  0.10176187  0.87660341  0.73784116  1
  B  B32  1  0.39443559  0.09177682  0.25296889  1
  B  B33  1  0.89443559  0.59177682  0.24703111  1
  B  B34  1  0.60556441  0.90822318  0.74703111  1
  B  B35  1  0.10556441  0.40822318  0.75296889  1
  B  B36  1  0.35752199  0.28968745  0.59700984  1
  B  B37  1  0.85752199  0.78968745  0.90299016  1
  B  B38  1  0.64247801  0.71031255  0.40299016  1
  B  B39  1  0.14247801  0.21031255  0.09700984  1
  H  H40  1  0.50149260  0.40090369  0.95949444  1
  H  H41  1  0.00149260  0.90090369  0.54050556  1
  H  H42  1  0.49850740  0.59909631  0.04050556  1
  H  H43  1  0.99850740  0.09909631  0.45949444  1
  H  H44  1  0.08141856  0.31319159  0.45138475  1
  H  H45  1  0.58141856  0.81319159  0.04861525  1
  H  H46  1  0.91858144  0.68680841  0.54861525  1
  H  H47  1  0.41858144  0.18680841  0.95138475  1
  H  H48  1  0.75938215  0.40948486  0.50834459  1
  H  H49  1  0.25938215  0.90948486  0.99165541  1
  H  H50  1  0.24061785  0.59051514  0.49165541  1
  H  H51  1  0.74061785  0.09051514  0.00834459  1
  H  H52  1  0.14563982  0.41568256  0.11291112  1
  H  H53  1  0.64563982  0.91568256  0.38708888  1
  H  H54  1  0.85436018  0.58431744  0.88708888  1
  H  H55  1  0.35436018  0.08431744  0.61291112  1
  H  H56  1  0.50158794  0.11112628  0.44263605  1
  H  H57  1  0.00158794  0.61112628  0.05736395  1
  H  H58  1  0.49841206  0.88887372  0.55736395  1
  H  H59  1  0.99841206  0.38887372  0.94263605  1
  H  H60  1  0.66410207  0.16714745  0.40153765  1
  H  H61  1  0.16410207  0.66714745  0.09846235  1
  H  H62  1  0.33589793  0.83285255  0.59846235  1
  H  H63  1  0.83589793  0.33285255  0.90153765  1
  O  O64  1  0.37489944  0.28191209  0.51609047  1
  O  O65  1  0.87489944  0.78191209  0.98390953  1
  O  O66  1  0.62510056  0.71808791  0.48390953  1
  O  O67  1  0.12510056  0.21808791  0.01609047  1
  O  O68  1  0.53495051  0.31859052  0.98887806  1
  O  O69  1  0.03495051  0.81859052  0.51112194  1
  O  O70  1  0.46504949  0.68140948  0.01112194  1
  O  O71  1  0.96504949  0.18140948  0.48887806  1
  O  O72  1  0.73959869  0.35852969  0.36490013  1
  O  O73  1  0.23959869  0.85852969  0.13509987  1
  O  O74  1  0.26040131  0.64147031  0.63509987  1
  O  O75  1  0.76040131  0.14147031  0.86490013  1
  O  O76  1  0.95418255  0.24402058  0.29110694  1
  O  O77  1  0.45418255  0.74402058  0.20889306  1
  O  O78  1  0.04581745  0.75597942  0.70889306  1
  O  O79  1  0.54581745  0.25597942  0.79110694  1
  O  O80  1  0.24937621  0.61206481  0.28140614  1
  O  O81  1  0.74937621  0.11206481  0.21859386  1
  O  O82  1  0.75062379  0.38793519  0.71859386  1
  O  O83  1  0.25062379  0.88793519  0.78140614  1
  O  O84  1  0.16472086  0.37253776  0.42340445  1
  O  O85  1  0.66472086  0.87253776  0.07659555  1
  O  O86  1  0.83527914  0.62746224  0.57659555  1
  O  O87  1  0.33527914  0.12746224  0.92340445  1
  O  O88  1  0.95252090  0.47552605  0.28120630  1
  O  O89  1  0.45252090  0.97552605  0.21879370  1
  O  O90  1  0.04747910  0.52447395  0.71879370  1
  O  O91  1  0.54747910  0.02447395  0.78120630  1
  O  O92  1  0.67888072  0.47580344  0.48744928  1
  O  O93  1  0.17888072  0.97580344  0.01255072  1
  O  O94  1  0.32111928  0.52419656  0.51255072  1
  O  O95  1  0.82111928  0.02419656  0.98744928  1
  O  O96  1  0.25385970  0.09845857  0.30268040  1
  O  O97  1  0.75385970  0.59845857  0.19731960  1
  O  O98  1  0.74614030  0.90154143  0.69731960  1
  O  O99  1  0.24614030  0.40154143  0.80268040  1
  O  O100  1  0.47351683  0.21401729  0.24015375  1
  O  O101  1  0.97351683  0.71401729  0.25984625  1
  O  O102  1  0.52648317  0.78598271  0.75984625  1
  O  O103  1  0.02648317  0.28598271  0.74015375  1
  O  O104  1  0.61131871  0.22103899  0.10988111  1
  O  O105  1  0.11131871  0.72103899  0.39011889  1
  O  O106  1  0.38868129  0.77896101  0.89011889  1
  O  O107  1  0.88868129  0.27896101  0.60988111  1
  O  O108  1  0.47196058  0.50085971  0.22259910  1
  O  O109  1  0.97196058  0.00085971  0.27740090  1
  O  O110  1  0.52803942  0.49914029  0.77740090  1
  O  O111  1  0.02803942  0.99914029  0.72259910  1
  O  O112  1  0.64299733  0.59193534  0.36169109  1
  O  O113  1  0.14299733  0.09193534  0.13830891  1
  O  O114  1  0.35700267  0.40806466  0.63830891  1
  O  O115  1  0.85700267  0.90806466  0.86169109  1
  O  O116  1  0.60896400  0.46411699  0.09786117  1
  O  O117  1  0.10896400  0.96411699  0.40213883  1
  O  O118  1  0.39103600  0.53588301  0.90213883  1
  O  O119  1  0.89103600  0.03588301  0.59786117  1
  O  O120  1  0.72038374  0.35624154  0.21778022  1
  O  O121  1  0.22038374  0.85624154  0.28221978  1
  O  O122  1  0.27961626  0.64375846  0.78221978  1
  O  O123  1  0.77961626  0.14375846  0.71778022  1
  O  O124  1  0.44716444  0.40916223  0.39544079  1
  O  O125  1  0.94716444  0.90916223  0.10455921  1
  O  O126  1  0.55283556  0.59083777  0.60455921  1
  O  O127  1  0.05283556  0.09083777  0.89544079  1
  O  O128  1  0.16138195  0.32897840  0.14236894  1
  O  O129  1  0.66138195  0.82897840  0.35763106  1
  O  O130  1  0.83861805  0.67102160  0.85763106  1
  O  O131  1  0.33861805  0.17102160  0.64236894  1
  O  O132  1  0.60350375  0.08188965  0.41387245  1
  O  O133  1  0.10350375  0.58188965  0.08612755  1
  O  O134  1  0.39649625  0.91811035  0.58612755  1
  O  O135  1  0.89649625  0.41811035  0.91387245  1
