# generated using pymatgen
data_KHoF4
_symmetry_space_group_name_H-M   'P 1'
_cell_length_a   10.23603007
_cell_length_b   14.17212366
_cell_length_c   14.17212365
_cell_angle_alpha   120.00000072
_cell_angle_beta   90.00000000
_cell_angle_gamma   90.00000000
_symmetry_Int_Tables_number   1
_chemical_formula_structural   KHoF4
_chemical_formula_sum   'K18 Ho18 F72'
_cell_volume   1780.45928795
_cell_formula_units_Z   18
loop_
 _symmetry_equiv_pos_site_id
 _symmetry_equiv_pos_as_xyz
  1  'x, y, z'
loop_
 _atom_site_type_symbol
 _atom_site_label
 _atom_site_symmetry_multiplicity
 _atom_site_fract_x
 _atom_site_fract_y
 _atom_site_fract_z
 _atom_site_occupancy
  K  K0  1  0.01233489  0.06273387  0.28127125  1
  K  K1  1  0.34566889  0.71872875  0.78146262  1
  K  K2  1  0.67900189  0.21853738  0.93726613  1
  K  K3  1  0.98522974  0.04731514  0.78010444  1
  K  K4  1  0.31856374  0.21989556  0.26721070  1
  K  K5  1  0.65189674  0.73278930  0.95268486  1
  K  K6  1  0.01839554  0.70835984  0.60461372  1
  K  K7  1  0.35172954  0.39538628  0.10374611  1
  K  K8  1  0.68506254  0.89625389  0.29164016  1
  K  K9  1  0.98753608  0.73385251  0.12278216  1
  K  K10  1  0.32087008  0.87721784  0.61107034  1
  K  K11  1  0.65420308  0.38892966  0.26614749  1
  K  K12  1  0.98854816  0.38601810  0.43715209  1
  K  K13  1  0.32188216  0.56284791  0.94886601  1
  K  K14  1  0.65521516  0.05113399  0.61398190  1
  K  K15  1  0.01853932  0.39093920  0.93501596  1
  K  K16  1  0.35187332  0.06498404  0.45592323  1
  K  K17  1  0.68520632  0.54407677  0.60906080  1
  Ho  Ho18  1  0.00365463  0.24046418  0.10941885  1
  Ho  Ho19  1  0.33698863  0.89058115  0.13104534  1
  Ho  Ho20  1  0.67032163  0.86895466  0.75953582  1
  Ho  Ho21  1  0.01383536  0.55112420  0.26796478  1
  Ho  Ho22  1  0.34716936  0.73203522  0.28315942  1
  Ho  Ho23  1  0.68050236  0.71684058  0.44887580  1
  Ho  Ho24  1  0.99348658  0.57311825  0.79344420  1
  Ho  Ho25  1  0.32682058  0.20655580  0.77967405  1
  Ho  Ho26  1  0.66015358  0.22032595  0.42688175  1
  Ho  Ho27  1  0.00815496  0.88385711  0.94101407  1
  Ho  Ho28  1  0.34148896  0.05898593  0.94284304  1
  Ho  Ho29  1  0.67482196  0.05715696  0.11614289  1
  Ho  Ho30  1  0.01003685  0.90775460  0.45474408  1
  Ho  Ho31  1  0.34337085  0.54525592  0.45301052  1
  Ho  Ho32  1  0.67670385  0.54698948  0.09224540  1
  Ho  Ho33  1  0.98815523  0.21812158  0.61361641  1
  Ho  Ho34  1  0.32148923  0.38638359  0.60450517  1
  Ho  Ho35  1  0.65482223  0.39549483  0.78187842  1
  F  F36  1  0.21970889  0.19557763  0.06410653  1
  F  F37  1  0.55304289  0.93589347  0.13147110  1
  F  F38  1  0.88637589  0.86852890  0.80442237  1
  F  F39  1  0.79511782  0.18966499  0.12164810  1
  F  F40  1  0.12845182  0.87835190  0.06801690  1
  F  F41  1  0.46178482  0.93198310  0.81033501  1
  F  F42  1  0.86668344  0.61677624  0.40459765  1
  F  F43  1  0.20001744  0.59540235  0.21217859  1
  F  F44  1  0.53335044  0.78782141  0.38322376  1
  F  F45  1  0.68075737  0.60617581  0.27055272  1
  F  F46  1  0.01409137  0.72944728  0.33562309  1
  F  F47  1  0.34742437  0.66437691  0.39382419  1
  F  F48  1  0.77731694  0.53242224  0.79611943  1
  F  F49  1  0.11065094  0.20388057  0.73630281  1
  F  F50  1  0.44398394  0.26369719  0.46757776  1
  F  F51  1  0.20158714  0.51897860  0.73033305  1
  F  F52  1  0.53492114  0.26966695  0.78864555  1
  F  F53  1  0.86825414  0.21135445  0.48102140  1
  F  F54  1  0.67248407  0.93788685  0.93960211  1
  F  F55  1  0.00581807  0.06039789  0.99828474  1
  F  F56  1  0.33915107  0.00171526  0.06211315  1
  F  F57  1  0.85934038  0.95583165  0.07624493  1
  F  F58  1  0.19267438  0.92375507  0.87958672  1
  F  F59  1  0.52600738  0.12041328  0.04416835  1
  F  F60  1  0.80184622  0.85162898  0.46178793  1
  F  F61  1  0.13518022  0.53821207  0.38984105  1
  F  F62  1  0.46851322  0.61015895  0.14837102  1
  F  F63  1  0.22593353  0.86661112  0.40962376  1
  F  F64  1  0.55926753  0.59037624  0.45698736  1
  F  F65  1  0.89260053  0.54301264  0.13338888  1
  F  F66  1  0.79945858  0.25714450  0.70891204  1
  F  F67  1  0.13279258  0.29108796  0.54823247  1
  F  F68  1  0.46612558  0.45176753  0.74285550  1
  F  F69  1  0.65661544  0.34013635  0.60546347  1
  F  F70  1  0.98994944  0.39453653  0.73467288  1
  F  F71  1  0.32328244  0.26532712  0.65986365  1
  F  F72  1  0.26806410  0.03804267  0.27088543  1
  F  F73  1  0.60139810  0.72911457  0.76715724  1
  F  F74  1  0.93473110  0.23284276  0.96195733  1
  F  F75  1  0.75773218  0.08476252  0.27665801  1
  F  F76  1  0.09106618  0.72334199  0.80810451  1
  F  F77  1  0.42439918  0.19189549  0.91523748  1
  F  F78  1  0.72617822  0.02378523  0.77676062  1
  F  F79  1  0.05951222  0.22323938  0.24702461  1
  F  F80  1  0.39284522  0.75297539  0.97621477  1
  F  F81  1  0.90375121  0.73408544  0.92474072  1
  F  F82  1  0.23708521  0.07525928  0.80934472  1
  F  F83  1  0.57041821  0.19065528  0.26591456  1
  F  F84  1  0.76551451  0.73695486  0.60631600  1
  F  F85  1  0.09884851  0.39368400  0.13063886  1
  F  F86  1  0.43218151  0.86936114  0.26304514  1
  F  F87  1  0.27199161  0.68838868  0.59630786  1
  F  F88  1  0.60532561  0.40369214  0.09208082  1
  F  F89  1  0.93865861  0.90791918  0.31161132  1
  F  F90  1  0.91022749  0.39816321  0.24368488  1
  F  F91  1  0.24356149  0.75631512  0.15447833  1
  F  F92  1  0.57689449  0.84552167  0.60183679  1
  F  F93  1  0.73029614  0.70505453  0.11670634  1
  F  F94  1  0.06363014  0.88329366  0.58834819  1
  F  F95  1  0.39696314  0.41165181  0.29494547  1
  F  F96  1  0.73344335  0.36188892  0.42439927  1
  F  F97  1  0.06677735  0.57560073  0.93748965  1
  F  F98  1  0.40011035  0.06251035  0.63811108  1
  F  F99  1  0.90842438  0.05708019  0.58879341  1
  F  F100  1  0.24175838  0.41120659  0.46828678  1
  F  F101  1  0.57509138  0.53171322  0.94291981  1
  F  F102  1  0.76377884  0.41542583  0.93085529  1
  F  F103  1  0.09711284  0.06914471  0.48457053  1
  F  F104  1  0.43044584  0.51542947  0.58457417  1
  F  F105  1  0.27533881  0.36569192  0.91258744  1
  F  F106  1  0.60867281  0.08741256  0.45310449  1
  F  F107  1  0.94200581  0.54689551  0.63430808  1
