# generated using pymatgen
data_Ga40AgMo8
_symmetry_space_group_name_H-M   'P 1'
_cell_length_a   9.60042695
_cell_length_b   9.60042694
_cell_length_c   9.60042702
_cell_angle_alpha   94.64739444
_cell_angle_beta   94.64739444
_cell_angle_gamma   94.64739354
_symmetry_Int_Tables_number   1
_chemical_formula_structural   Ga40AgMo8
_chemical_formula_sum   'Ga40 Ag1 Mo8'
_cell_volume   875.62190997
_cell_formula_units_Z   1
loop_
 _symmetry_equiv_pos_site_id
 _symmetry_equiv_pos_as_xyz
  1  'x, y, z'
loop_
 _atom_site_type_symbol
 _atom_site_label
 _atom_site_symmetry_multiplicity
 _atom_site_fract_x
 _atom_site_fract_y
 _atom_site_fract_z
 _atom_site_occupancy
  Ga  Ga0  1  0.50000000  0.50000000  0.50000000  1
  Ga  Ga1  1  0.50000000  -0.00000000  0.50000000  1
  Ga  Ga2  1  0.00000000  0.50000000  0.50000000  1
  Ga  Ga3  1  0.50000000  0.50000000  -0.00000000  1
  Ga  Ga4  1  0.63445938  0.26569617  0.61135254  1
  Ga  Ga5  1  0.26569617  0.61135254  0.63445938  1
  Ga  Ga6  1  0.61135254  0.63445938  0.26569617  1
  Ga  Ga7  1  0.36554062  0.73430383  0.38864746  1
  Ga  Ga8  1  0.73430383  0.38864746  0.36554062  1
  Ga  Ga9  1  0.38864746  0.36554062  0.73430383  1
  Ga  Ga10  1  0.77896533  0.67528591  0.53807819  1
  Ga  Ga11  1  0.67528591  0.53807819  0.77896533  1
  Ga  Ga12  1  0.53807819  0.77896533  0.67528591  1
  Ga  Ga13  1  0.22103467  0.32471409  0.46192181  1
  Ga  Ga14  1  0.32471409  0.46192181  0.22103467  1
  Ga  Ga15  1  0.46192181  0.22103467  0.32471409  1
  Ga  Ga16  1  0.07443787  0.77841654  0.44948969  1
  Ga  Ga17  1  0.77841654  0.44948969  0.07443787  1
  Ga  Ga18  1  0.44948969  0.07443787  0.77841654  1
  Ga  Ga19  1  0.92556213  0.22158346  0.55051031  1
  Ga  Ga20  1  0.22158346  0.55051031  0.92556213  1
  Ga  Ga21  1  0.55051031  0.92556213  0.22158346  1
  Ga  Ga22  1  0.78669690  0.96846704  0.59944846  1
  Ga  Ga23  1  0.96846704  0.59944846  0.78669690  1
  Ga  Ga24  1  0.59944846  0.78669690  0.96846704  1
  Ga  Ga25  1  0.21330310  0.03153296  0.40055154  1
  Ga  Ga26  1  0.03153296  0.40055154  0.21330310  1
  Ga  Ga27  1  0.40055154  0.21330310  0.03153296  1
  Ga  Ga28  1  0.73956756  0.05522704  0.87309619  1
  Ga  Ga29  1  0.05522704  0.87309619  0.73956756  1
  Ga  Ga30  1  0.87309619  0.73956756  0.05522704  1
  Ga  Ga31  1  0.26043244  0.94477296  0.12690381  1
  Ga  Ga32  1  0.94477296  0.12690381  0.26043244  1
  Ga  Ga33  1  0.12690381  0.26043244  0.94477296  1
  Ga  Ga34  1  0.17672491  0.12498366  0.67912972  1
  Ga  Ga35  1  0.12498366  0.67912972  0.17672491  1
  Ga  Ga36  1  0.67912972  0.17672491  0.12498366  1
  Ga  Ga37  1  0.82327509  0.87501634  0.32087028  1
  Ga  Ga38  1  0.87501634  0.32087028  0.82327509  1
  Ga  Ga39  1  0.32087028  0.82327509  0.87501634  1
  Ag  Ag40  1  0.00000000  -0.00000000  -0.00000000  1
  Mo  Mo41  1  0.79976367  0.79976367  0.79976367  1
  Mo  Mo42  1  0.20023633  0.20023633  0.20023633  1
  Mo  Mo43  1  0.61236469  0.29165933  0.88771300  1
  Mo  Mo44  1  0.29165933  0.88771300  0.61236469  1
  Mo  Mo45  1  0.88771300  0.61236469  0.29165933  1
  Mo  Mo46  1  0.38763531  0.70834067  0.11228700  1
  Mo  Mo47  1  0.70834067  0.11228700  0.38763531  1
  Mo  Mo48  1  0.11228700  0.38763531  0.70834067  1
