# generated using pymatgen
data_Ga40SnMo8
_symmetry_space_group_name_H-M   'P 1'
_cell_length_a   9.61870324
_cell_length_b   9.61870325
_cell_length_c   9.61870344
_cell_angle_alpha   93.97899657
_cell_angle_beta   93.97899652
_cell_angle_gamma   93.97900084
_symmetry_Int_Tables_number   1
_chemical_formula_structural   Ga40SnMo8
_chemical_formula_sum   'Ga40 Sn1 Mo8'
_cell_volume   883.16668892
_cell_formula_units_Z   1
loop_
 _symmetry_equiv_pos_site_id
 _symmetry_equiv_pos_as_xyz
  1  'x, y, z'
loop_
 _atom_site_type_symbol
 _atom_site_label
 _atom_site_symmetry_multiplicity
 _atom_site_fract_x
 _atom_site_fract_y
 _atom_site_fract_z
 _atom_site_occupancy
  Ga  Ga0  1  0.50000000  0.50000000  0.50000000  1
  Ga  Ga1  1  0.50000000  0.00000000  0.50000000  1
  Ga  Ga2  1  -0.00000000  0.50000000  0.50000000  1
  Ga  Ga3  1  0.50000000  0.50000000  -0.00000000  1
  Ga  Ga4  1  0.63408342  0.26633766  0.61046145  1
  Ga  Ga5  1  0.26633766  0.61046145  0.63408342  1
  Ga  Ga6  1  0.61046145  0.63408342  0.26633766  1
  Ga  Ga7  1  0.36591658  0.73366234  0.38953855  1
  Ga  Ga8  1  0.73366234  0.38953855  0.36591658  1
  Ga  Ga9  1  0.38953855  0.36591658  0.73366234  1
  Ga  Ga10  1  0.77837754  0.67385277  0.53165919  1
  Ga  Ga11  1  0.67385277  0.53165919  0.77837754  1
  Ga  Ga12  1  0.53165919  0.77837754  0.67385277  1
  Ga  Ga13  1  0.22162246  0.32614723  0.46834081  1
  Ga  Ga14  1  0.32614723  0.46834081  0.22162246  1
  Ga  Ga15  1  0.46834081  0.22162246  0.32614723  1
  Ga  Ga16  1  0.07538272  0.77789988  0.44768938  1
  Ga  Ga17  1  0.77789988  0.44768938  0.07538272  1
  Ga  Ga18  1  0.44768938  0.07538272  0.77789988  1
  Ga  Ga19  1  0.92461728  0.22210012  0.55231062  1
  Ga  Ga20  1  0.22210012  0.55231062  0.92461728  1
  Ga  Ga21  1  0.55231062  0.92461728  0.22210012  1
  Ga  Ga22  1  0.78485492  0.96563641  0.59801244  1
  Ga  Ga23  1  0.96563641  0.59801244  0.78485492  1
  Ga  Ga24  1  0.59801244  0.78485492  0.96563641  1
  Ga  Ga25  1  0.21514508  0.03436359  0.40198756  1
  Ga  Ga26  1  0.03436359  0.40198756  0.21514508  1
  Ga  Ga27  1  0.40198756  0.21514508  0.03436359  1
  Ga  Ga28  1  0.73485121  0.04947381  0.86850184  1
  Ga  Ga29  1  0.04947381  0.86850184  0.73485121  1
  Ga  Ga30  1  0.86850184  0.73485121  0.04947381  1
  Ga  Ga31  1  0.26514879  0.95052619  0.13149816  1
  Ga  Ga32  1  0.95052619  0.13149816  0.26514879  1
  Ga  Ga33  1  0.13149816  0.26514879  0.95052619  1
  Ga  Ga34  1  0.17409192  0.12424292  0.68291554  1
  Ga  Ga35  1  0.12424292  0.68291554  0.17409192  1
  Ga  Ga36  1  0.68291554  0.17409192  0.12424292  1
  Ga  Ga37  1  0.82590808  0.87575708  0.31708446  1
  Ga  Ga38  1  0.87575708  0.31708446  0.82590808  1
  Ga  Ga39  1  0.31708446  0.82590808  0.87575708  1
  Sn  Sn40  1  -0.00000000  0.00000000  -0.00000000  1
  Mo  Mo41  1  0.78684693  0.78684693  0.78684693  1
  Mo  Mo42  1  0.21315307  0.21315307  0.21315307  1
  Mo  Mo43  1  0.61227836  0.28844947  0.88870728  1
  Mo  Mo44  1  0.28844947  0.88870728  0.61227836  1
  Mo  Mo45  1  0.88870728  0.61227836  0.28844947  1
  Mo  Mo46  1  0.38772164  0.71155053  0.11129272  1
  Mo  Mo47  1  0.71155053  0.11129272  0.38772164  1
  Mo  Mo48  1  0.11129272  0.38772164  0.71155053  1
