# generated using pymatgen
data_NaV3O6
_symmetry_space_group_name_H-M   'P 1'
_cell_length_a   5.33319941
_cell_length_b   5.06111812
_cell_length_c   5.68995513
_cell_angle_alpha   55.79716977
_cell_angle_beta   65.72415130
_cell_angle_gamma   76.63779067
_symmetry_Int_Tables_number   1
_chemical_formula_structural   NaV3O6
_chemical_formula_sum   'Na1 V3 O6'
_cell_volume   115.78960533
_cell_formula_units_Z   1
loop_
 _symmetry_equiv_pos_site_id
 _symmetry_equiv_pos_as_xyz
  1  'x, y, z'
loop_
 _atom_site_type_symbol
 _atom_site_label
 _atom_site_symmetry_multiplicity
 _atom_site_fract_x
 _atom_site_fract_y
 _atom_site_fract_z
 _atom_site_occupancy
  Na  Na0  1  1.00000000  0.25176815  0.37411642  1
  V  V1  1  1.00000000  0.01331032  0.99334484  1
  V  V2  1  0.50000000  0.63863463  0.18068269  1
  V  V3  1  0.50000000  0.38598696  0.80700702  1
  O  O4  1  0.26266445  0.00833498  0.15810976  1
  O  O5  1  0.71595538  0.35246151  0.05033995  1
  O  O6  1  0.73733555  0.00833498  0.83355526  1
  O  O7  1  0.28404462  0.35246151  0.59719854  1
  O  O8  1  0.71633902  0.66101948  0.39019166  1
  O  O9  1  0.28366098  0.66101948  0.94878786  1
