# generated using pymatgen
data_K2H3IrNCl5
_symmetry_space_group_name_H-M   'P 1'
_cell_length_a   7.22935962
_cell_length_b   10.10238005
_cell_length_c   13.85792406
_cell_angle_alpha   90.00000000
_cell_angle_beta   90.00000000
_cell_angle_gamma   90.00000000
_symmetry_Int_Tables_number   1
_chemical_formula_structural   K2H3IrNCl5
_chemical_formula_sum   'K8 H12 Ir4 N4 Cl20'
_cell_volume   1012.09600056
_cell_formula_units_Z   4
loop_
 _symmetry_equiv_pos_site_id
 _symmetry_equiv_pos_as_xyz
  1  'x, y, z'
loop_
 _atom_site_type_symbol
 _atom_site_label
 _atom_site_symmetry_multiplicity
 _atom_site_fract_x
 _atom_site_fract_y
 _atom_site_fract_z
 _atom_site_occupancy
  K  K0  1  0.61761718  0.99938707  0.15884735  1
  K  K1  1  0.88238282  0.50061293  0.65884735  1
  K  K2  1  0.38238282  0.49938707  0.84115265  1
  K  K3  1  0.11761718  0.00061293  0.34115265  1
  K  K4  1  0.38238282  0.00061293  0.84115265  1
  K  K5  1  0.11761718  0.49938707  0.34115265  1
  K  K6  1  0.61761718  0.50061293  0.15884735  1
  K  K7  1  0.88238282  0.99938707  0.65884735  1
  H  H8  1  0.42759872  0.66701773  0.50322503  1
  H  H9  1  0.07240128  0.83298227  0.00322503  1
  H  H10  1  0.57240128  0.16701773  0.49677497  1
  H  H11  1  0.92759872  0.33298227  0.99677497  1
  H  H12  1  0.57240128  0.33298227  0.49677497  1
  H  H13  1  0.92759872  0.16701773  0.99677497  1
  H  H14  1  0.42759872  0.83298227  0.50322503  1
  H  H15  1  0.07240128  0.66701773  0.00322503  1
  H  H16  1  0.58086157  0.75000000  0.56749226  1
  H  H17  1  0.91913843  0.75000000  0.06749226  1
  H  H18  1  0.41913843  0.25000000  0.43250774  1
  H  H19  1  0.08086157  0.25000000  0.93250774  1
  Ir  Ir20  1  0.68613210  0.75000000  0.38582092  1
  Ir  Ir21  1  0.81386790  0.75000000  0.88582092  1
  Ir  Ir22  1  0.31386790  0.25000000  0.61417908  1
  Ir  Ir23  1  0.18613210  0.25000000  0.11417908  1
  N  N24  1  0.51076319  0.75000000  0.50296228  1
  N  N25  1  0.98923681  0.75000000  0.00296228  1
  N  N26  1  0.48923681  0.25000000  0.49703772  1
  N  N27  1  0.01076319  0.25000000  0.99703772  1
  Cl  Cl28  1  0.41714264  0.75000000  0.28729960  1
  Cl  Cl29  1  0.08285736  0.75000000  0.78729960  1
  Cl  Cl30  1  0.58285736  0.25000000  0.71270040  1
  Cl  Cl31  1  0.91714264  0.25000000  0.21270040  1
  Cl  Cl32  1  0.68367668  0.98465407  0.38834576  1
  Cl  Cl33  1  0.81632332  0.51534593  0.88834576  1
  Cl  Cl34  1  0.31632332  0.48465407  0.61165424  1
  Cl  Cl35  1  0.18367668  0.01534593  0.11165424  1
  Cl  Cl36  1  0.31632332  0.01534593  0.61165424  1
  Cl  Cl37  1  0.18367668  0.48465407  0.11165424  1
  Cl  Cl38  1  0.68367668  0.51534593  0.38834576  1
  Cl  Cl39  1  0.81632332  0.98465407  0.88834576  1
  Cl  Cl40  1  0.94271091  0.75000000  0.49356310  1
  Cl  Cl41  1  0.55728909  0.75000000  0.99356310  1
  Cl  Cl42  1  0.05728909  0.25000000  0.50643690  1
  Cl  Cl43  1  0.44271091  0.25000000  0.00643690  1
  Cl  Cl44  1  0.88747997  0.75000000  0.24669890  1
  Cl  Cl45  1  0.61252003  0.75000000  0.74669890  1
  Cl  Cl46  1  0.11252003  0.25000000  0.75330110  1
  Cl  Cl47  1  0.38747997  0.25000000  0.25330110  1
