# generated using pymatgen
data_CsLu7S11
_symmetry_space_group_name_H-M   'P 1'
_cell_length_a   10.18480966
_cell_length_b   10.18480966
_cell_length_c   18.86088691
_cell_angle_alpha   90.00000000
_cell_angle_beta   90.00000000
_cell_angle_gamma   97.51532493
_symmetry_Int_Tables_number   1
_chemical_formula_structural   CsLu7S11
_chemical_formula_sum   'Cs4 Lu28 S44'
_cell_volume   1939.64031691
_cell_formula_units_Z   4
loop_
 _symmetry_equiv_pos_site_id
 _symmetry_equiv_pos_as_xyz
  1  'x, y, z'
loop_
 _atom_site_type_symbol
 _atom_site_label
 _atom_site_symmetry_multiplicity
 _atom_site_fract_x
 _atom_site_fract_y
 _atom_site_fract_z
 _atom_site_occupancy
  Cs  Cs0  1  0.08974154  0.08974154  0.59123774  1
  Cs  Cs1  1  0.91025846  0.91025846  0.40876226  1
  Cs  Cs2  1  0.41025846  0.41025846  0.09123774  1
  Cs  Cs3  1  0.58974154  0.58974154  0.90876226  1
  Lu  Lu4  1  0.40337332  0.40337332  0.67572767  1
  Lu  Lu5  1  0.59662668  0.59662668  0.32427233  1
  Lu  Lu6  1  0.09662668  0.09662668  0.17572767  1
  Lu  Lu7  1  0.90337332  0.90337332  0.82427233  1
  Lu  Lu8  1  0.04726349  0.30158044  0.82662353  1
  Lu  Lu9  1  0.69841956  0.95273651  0.17337647  1
  Lu  Lu10  1  0.19841956  0.45273651  0.32662353  1
  Lu  Lu11  1  0.54726349  0.80158044  0.67337647  1
  Lu  Lu12  1  0.95273651  0.69841956  0.17337647  1
  Lu  Lu13  1  0.30158044  0.04726349  0.82662353  1
  Lu  Lu14  1  0.80158044  0.54726349  0.67337647  1
  Lu  Lu15  1  0.45273651  0.19841956  0.32662353  1
  Lu  Lu16  1  0.37684490  0.62315510  0.50000000  1
  Lu  Lu17  1  0.87684490  0.12315510  -0.00000000  1
  Lu  Lu18  1  0.62315510  0.37684490  0.50000000  1
  Lu  Lu19  1  0.12315510  0.87684490  -0.00000000  1
  Lu  Lu20  1  0.16390791  0.67715647  0.65891141  1
  Lu  Lu21  1  0.32284353  0.83609209  0.34108859  1
  Lu  Lu22  1  0.82284353  0.33609209  0.15891141  1
  Lu  Lu23  1  0.66390791  0.17715647  0.84108859  1
  Lu  Lu24  1  0.83609209  0.32284353  0.34108859  1
  Lu  Lu25  1  0.67715647  0.16390791  0.65891141  1
  Lu  Lu26  1  0.17715647  0.66390791  0.84108859  1
  Lu  Lu27  1  0.33609209  0.82284353  0.15891141  1
  Lu  Lu28  1  -0.00000000  0.50000000  0.50000000  1
  Lu  Lu29  1  0.50000000  -0.00000000  0.50000000  1
  Lu  Lu30  1  -0.00000000  0.50000000  -0.00000000  1
  Lu  Lu31  1  0.50000000  -0.00000000  -0.00000000  1
  S  S32  1  0.21310463  0.46645632  0.58232792  1
  S  S33  1  0.53354368  0.78689537  0.41767208  1
  S  S34  1  0.03354368  0.28689537  0.08232792  1
  S  S35  1  0.71310463  0.96645632  0.91767208  1
  S  S36  1  0.78689537  0.53354368  0.41767208  1
  S  S37  1  0.46645632  0.21310463  0.58232792  1
  S  S38  1  0.96645632  0.71310463  0.91767208  1
  S  S39  1  0.28689537  0.03354368  0.08232792  1
  S  S40  1  0.36789228  0.62723878  0.74469131  1
  S  S41  1  0.37276122  0.63210772  0.25530869  1
  S  S42  1  0.87276122  0.13210772  0.24469131  1
  S  S43  1  0.86789228  0.12723878  0.75530869  1
  S  S44  1  0.63210772  0.37276122  0.25530869  1
  S  S45  1  0.62723878  0.36789228  0.74469131  1
  S  S46  1  0.12723878  0.86789228  0.75530869  1
  S  S47  1  0.13210772  0.87276122  0.24469131  1
  S  S48  1  0.82976278  0.34282043  0.58234233  1
  S  S49  1  0.65717957  0.17023722  0.41765767  1
  S  S50  1  0.15717957  0.67023722  0.08234233  1
  S  S51  1  0.32976278  0.84282043  0.91765767  1
  S  S52  1  0.17023722  0.65717957  0.41765767  1
  S  S53  1  0.34282043  0.82976278  0.58234233  1
  S  S54  1  0.84282043  0.32976278  0.91765767  1
  S  S55  1  0.67023722  0.15717957  0.08234233  1
  S  S56  1  0.95528614  0.69814416  0.58370798  1
  S  S57  1  0.30185584  0.04471386  0.41629202  1
  S  S58  1  0.80185584  0.54471386  0.08370798  1
  S  S59  1  0.45528614  0.19814416  0.91629202  1
  S  S60  1  0.04471386  0.30185584  0.41629202  1
  S  S61  1  0.69814416  0.95528614  0.58370798  1
  S  S62  1  0.19814416  0.45528614  0.91629202  1
  S  S63  1  0.54471386  0.80185584  0.08370798  1
  S  S64  1  0.23663497  0.23663497  0.74606243  1
  S  S65  1  0.76336503  0.76336503  0.25393757  1
  S  S66  1  0.26336503  0.26336503  0.24606243  1
  S  S67  1  0.73663497  0.73663497  0.75393757  1
  S  S68  1  0.07353579  0.07353579  0.90896130  1
  S  S69  1  0.92646421  0.92646421  0.09103870  1
  S  S70  1  0.42646421  0.42646421  0.40896130  1
  S  S71  1  0.57353579  0.57353579  0.59103870  1
  S  S72  1  0.01369145  0.51369145  0.75000000  1
  S  S73  1  0.48630855  0.98630855  0.25000000  1
  S  S74  1  0.98630855  0.48630855  0.25000000  1
  S  S75  1  0.51369145  0.01369145  0.75000000  1
