# generated using pymatgen
data_Cs3Hf2CuTe10
_symmetry_space_group_name_H-M   'P 1'
_cell_length_a   10.21424278
_cell_length_b   11.26824710
_cell_length_c   11.48303113
_cell_angle_alpha   90.45959856
_cell_angle_beta   89.33461255
_cell_angle_gamma   101.87986277
_symmetry_Int_Tables_number   1
_chemical_formula_structural   Cs3Hf2CuTe10
_chemical_formula_sum   'Cs6 Hf4 Cu2 Te20'
_cell_volume   1293.24128043
_cell_formula_units_Z   2
loop_
 _symmetry_equiv_pos_site_id
 _symmetry_equiv_pos_as_xyz
  1  'x, y, z'
loop_
 _atom_site_type_symbol
 _atom_site_label
 _atom_site_symmetry_multiplicity
 _atom_site_fract_x
 _atom_site_fract_y
 _atom_site_fract_z
 _atom_site_occupancy
  Cs  Cs0  1  0.11542624  0.89109057  0.73851951  1
  Cs  Cs1  1  0.88457376  0.10890943  0.26148049  1
  Cs  Cs2  1  0.55452260  0.76434876  0.61000072  1
  Cs  Cs3  1  0.44547740  0.23565124  0.38999928  1
  Cs  Cs4  1  0.69946629  0.62495525  0.10400362  1
  Cs  Cs5  1  0.30053371  0.37504475  0.89599638  1
  Hf  Hf6  1  0.89243555  0.37729425  0.63573561  1
  Hf  Hf7  1  0.10756445  0.62270575  0.36426439  1
  Hf  Hf8  1  0.69215859  0.15942714  0.85707376  1
  Hf  Hf9  1  0.30784141  0.84057286  0.14292624  1
  Cu  Cu10  1  0.07878157  0.37810175  0.44395536  1
  Cu  Cu11  1  0.92121843  0.62189825  0.55604464  1
  Te  Te12  1  0.15648356  0.55950118  0.60109754  1
  Te  Te13  1  0.84351644  0.44049882  0.39890246  1
  Te  Te14  1  0.07168326  0.20722735  0.59362990  1
  Te  Te15  1  0.92831674  0.79277265  0.40637010  1
  Te  Te16  1  0.80708926  0.58882716  0.75819108  1
  Te  Te17  1  0.19291074  0.41117284  0.24180892  1
  Te  Te18  1  0.78546263  0.11752728  0.60920982  1
  Te  Te19  1  0.21453737  0.88247272  0.39079018  1
  Te  Te20  1  0.92001845  0.36306658  0.89024812  1
  Te  Te21  1  0.07998155  0.63693342  0.10975188  1
  Te  Te22  1  0.60967300  0.35746636  0.70978625  1
  Te  Te23  1  0.39032700  0.64253364  0.29021375  1
  Te  Te24  1  0.95563801  0.12226790  0.93191675  1
  Te  Te25  1  0.04436199  0.87773210  0.06808325  1
  Te  Te26  1  0.47618798  0.09091898  0.69650415  1
  Te  Te27  1  0.52381202  0.90908102  0.30349585  1
  Te  Te28  1  0.66824583  0.91281232  0.92953145  1
  Te  Te29  1  0.33175417  0.08718768  0.07046855  1
  Te  Te30  1  0.59114580  0.24504116  0.06925147  1
  Te  Te31  1  0.40885420  0.75495884  0.93074853  1
