# generated using pymatgen
data_Tb4Ga21Ni10
_symmetry_space_group_name_H-M   'P 1'
_cell_length_a   4.07731231
_cell_length_b   10.62392995
_cell_length_c   13.10436413
_cell_angle_alpha   80.53164525
_cell_angle_beta   81.05009884
_cell_angle_gamma   78.93673079
_symmetry_Int_Tables_number   1
_chemical_formula_structural   Tb4Ga21Ni10
_chemical_formula_sum   'Tb4 Ga21 Ni10'
_cell_volume   544.97713015
_cell_formula_units_Z   1
loop_
 _symmetry_equiv_pos_site_id
 _symmetry_equiv_pos_as_xyz
  1  'x, y, z'
loop_
 _atom_site_type_symbol
 _atom_site_label
 _atom_site_symmetry_multiplicity
 _atom_site_fract_x
 _atom_site_fract_y
 _atom_site_fract_z
 _atom_site_occupancy
  Tb  Tb0  1  0.88022317  0.90558852  0.33396515  1
  Tb  Tb1  1  0.11977683  0.09441148  0.66603485  1
  Tb  Tb2  1  0.22898436  0.36538933  0.17664196  1
  Tb  Tb3  1  0.77101564  0.63461067  0.82335804  1
  Ga  Ga4  1  0.45999867  0.71115097  0.36885169  1
  Ga  Ga5  1  0.54000133  0.28884903  0.63114831  1
  Ga  Ga6  1  0.79876124  0.39917141  0.00330612  1
  Ga  Ga7  1  0.20123876  0.60082859  0.99669388  1
  Ga  Ga8  1  0.70255019  0.09816912  0.49673051  1
  Ga  Ga9  1  0.29744981  0.90183088  0.50326949  1
  Ga  Ga10  1  0.88403090  0.68033503  0.55160318  1
  Ga  Ga11  1  0.11596910  0.31966497  0.44839682  1
  Ga  Ga12  1  0.61442892  0.47291380  0.29822835  1
  Ga  Ga13  1  0.38557108  0.52708620  0.70177165  1
  Ga  Ga14  1  0.75214111  0.20096687  0.29475091  1
  Ga  Ga15  1  0.24785889  0.79903313  0.70524909  1
  Ga  Ga16  1  0.60210963  0.79305644  0.00272430  1
  Ga  Ga17  1  0.39789037  0.20694356  0.99727570  1
  Ga  Ga18  1  0.99408403  0.92138435  0.09044759  1
  Ga  Ga19  1  0.00591597  0.07861565  0.90955241  1
  Ga  Ga20  1  0.93528162  0.33371529  0.79572146  1
  Ga  Ga21  1  0.06471838  0.66628471  0.20427854  1
  Ga  Ga22  1  0.50000000  0.50000000  0.50000000  1
  Ga  Ga23  1  0.37266884  0.05869220  0.19597012  1
  Ga  Ga24  1  0.62733116  0.94130780  0.80402988  1
  Ni  Ni25  1  0.49825992  0.81809408  0.18538609  1
  Ni  Ni26  1  0.50174008  0.18190592  0.81461391  1
  Ni  Ni27  1  0.86686298  0.16136366  0.10491038  1
  Ni  Ni28  1  0.13313702  0.83863634  0.89508962  1
  Ni  Ni29  1  0.75147648  0.88328760  0.61375944  1
  Ni  Ni30  1  0.24852352  0.11671240  0.38624056  1
  Ni  Ni31  1  0.65260077  0.58113110  0.11366736  1
  Ni  Ni32  1  0.34739923  0.41886890  0.88633264  1
  Ni  Ni33  1  0.97558033  0.44149567  0.60734368  1
  Ni  Ni34  1  0.02441967  0.55850433  0.39265632  1
