# generated using pymatgen
data_In2Te9RuCl8
_symmetry_space_group_name_H-M   'P 1'
_cell_length_a   10.47463962
_cell_length_b   12.11005592
_cell_length_c   12.11005592
_cell_angle_alpha   60.53951656
_cell_angle_beta   87.58032018
_cell_angle_gamma   87.58032018
_symmetry_Int_Tables_number   1
_chemical_formula_structural   In2Te9RuCl8
_chemical_formula_sum   'In4 Te18 Ru2 Cl16'
_cell_volume   1335.91238805
_cell_formula_units_Z   2
loop_
 _symmetry_equiv_pos_site_id
 _symmetry_equiv_pos_as_xyz
  1  'x, y, z'
loop_
 _atom_site_type_symbol
 _atom_site_label
 _atom_site_symmetry_multiplicity
 _atom_site_fract_x
 _atom_site_fract_y
 _atom_site_fract_z
 _atom_site_occupancy
  In  In0  1  0.92257727  0.34629084  0.31212748  1
  In  In1  1  0.57742273  0.68787252  0.65370916  1
  In  In2  1  0.07742273  0.65370916  0.68787252  1
  In  In3  1  0.42257727  0.31212748  0.34629084  1
  Te  Te4  1  0.75000000  0.70288502  0.29711498  1
  Te  Te5  1  0.25000000  0.29711498  0.70288502  1
  Te  Te6  1  0.63390011  0.78469344  0.06684752  1
  Te  Te7  1  0.86609989  0.93315248  0.21530656  1
  Te  Te8  1  0.36609989  0.21530656  0.93315248  1
  Te  Te9  1  0.13390011  0.06684752  0.78469344  1
  Te  Te10  1  0.87947646  0.84700597  0.93816264  1
  Te  Te11  1  0.62052354  0.06183736  0.15299403  1
  Te  Te12  1  0.12052354  0.15299403  0.06183736  1
  Te  Te13  1  0.37947646  0.93816264  0.84700597  1
  Te  Te14  1  0.76654512  0.99318243  0.70404825  1
  Te  Te15  1  0.73345488  0.29595175  0.00681757  1
  Te  Te16  1  0.23345488  0.00681757  0.29595175  1
  Te  Te17  1  0.26654512  0.70404825  0.99318243  1
  Te  Te18  1  0.63463364  0.14417563  0.78657380  1
  Te  Te19  1  0.86536636  0.21342620  0.85582437  1
  Te  Te20  1  0.36536636  0.85582437  0.21342620  1
  Te  Te21  1  0.13463364  0.78657380  0.14417563  1
  Ru  Ru22  1  0.50000000  -0.00000000  0.00000000  1
  Ru  Ru23  1  -0.00000000  -0.00000000  0.00000000  1
  Cl  Cl24  1  0.92974326  0.13341705  0.34580277  1
  Cl  Cl25  1  0.57025674  0.65419723  0.86658295  1
  Cl  Cl26  1  0.07025674  0.86658295  0.65419723  1
  Cl  Cl27  1  0.42974326  0.34580277  0.13341705  1
  Cl  Cl28  1  0.73877185  0.45815430  0.19054529  1
  Cl  Cl29  1  0.76122815  0.80945471  0.54184570  1
  Cl  Cl30  1  0.26122815  0.54184570  0.80945471  1
  Cl  Cl31  1  0.23877185  0.19054529  0.45815430  1
  Cl  Cl32  1  0.09716367  0.45912960  0.16981995  1
  Cl  Cl33  1  0.40283633  0.83018005  0.54087040  1
  Cl  Cl34  1  0.90283633  0.54087040  0.83018005  1
  Cl  Cl35  1  0.59716367  0.16981995  0.45912960  1
  Cl  Cl36  1  0.91944045  0.35367253  0.50609291  1
  Cl  Cl37  1  0.58055955  0.49390709  0.64632747  1
  Cl  Cl38  1  0.08055955  0.64632747  0.49390709  1
  Cl  Cl39  1  0.41944045  0.50609291  0.35367253  1
