# generated using pymatgen
data_Zn3Sb2H42(S4N7)2
_symmetry_space_group_name_H-M   'P 1'
_cell_length_a   8.15470110
_cell_length_b   8.69670201
_cell_length_c   13.52014343
_cell_angle_alpha   84.22325788
_cell_angle_beta   88.36965321
_cell_angle_gamma   74.34901377
_symmetry_Int_Tables_number   1
_chemical_formula_structural   Zn3Sb2H42(S4N7)2
_chemical_formula_sum   'Zn3 Sb2 H42 S8 N14'
_cell_volume   918.59467488
_cell_formula_units_Z   1
loop_
 _symmetry_equiv_pos_site_id
 _symmetry_equiv_pos_as_xyz
  1  'x, y, z'
loop_
 _atom_site_type_symbol
 _atom_site_label
 _atom_site_symmetry_multiplicity
 _atom_site_fract_x
 _atom_site_fract_y
 _atom_site_fract_z
 _atom_site_occupancy
  Zn  Zn0  1  0.85771723  0.27033853  0.03519443  1
  Zn  Zn1  1  0.14228277  0.72966147  0.96480557  1
  Zn  Zn2  1  0.50000000  0.00000000  0.50000000  1
  Sb  Sb3  1  0.77151567  0.33182859  0.76882366  1
  Sb  Sb4  1  0.22848433  0.66817141  0.23117634  1
  H  H5  1  0.94774820  0.25231370  0.21946976  1
  H  H6  1  0.05225180  0.74768630  0.78053024  1
  H  H7  1  0.07352144  0.09432153  0.16677317  1
  H  H8  1  0.92647856  0.90567847  0.83322683  1
  H  H9  1  0.10974683  0.27193933  0.14819727  1
  H  H10  1  0.89025317  0.72806067  0.85180273  1
  H  H11  1  0.64268484  0.12750205  0.98804709  1
  H  H12  1  0.35731516  0.87249795  0.01195291  1
  H  H13  1  0.74415640  0.02306718  0.08979947  1
  H  H14  1  0.25584360  0.97693282  0.91020053  1
  H  H15  1  0.58353910  0.18720851  0.10070553  1
  H  H16  1  0.41646090  0.81279149  0.89929447  1
  H  H17  1  0.67584706  0.55226120  0.97978279  1
  H  H18  1  0.32415294  0.44773880  0.02021721  1
  H  H19  1  0.61465817  0.51043514  0.09657737  1
  H  H20  1  0.38534183  0.48956486  0.90342263  1
  H  H21  1  0.79168060  0.56804581  0.07571080  1
  H  H22  1  0.20831940  0.43195419  0.92428920  1
  H  H23  1  0.83482915  0.86512100  0.54049253  1
  H  H24  1  0.16517085  0.13487900  0.45950747  1
  H  H25  1  0.72909039  0.85393919  0.64534920  1
  H  H26  1  0.27090961  0.14606081  0.35465080  1
  H  H27  1  0.77328234  0.02402654  0.60368973  1
  H  H28  1  0.22671766  0.97597346  0.39631027  1
  H  H29  1  0.77636621  0.93757580  0.36549037  1
  H  H30  1  0.22363379  0.06242420  0.63450963  1
  H  H31  1  0.65586454  0.12047180  0.33396307  1
  H  H32  1  0.34413546  0.87952820  0.66603693  1
  H  H33  1  0.59462662  0.96368645  0.30673832  1
  H  H34  1  0.40537338  0.03631355  0.69326168  1
  H  H35  1  0.43328034  0.32840204  0.44418255  1
  H  H36  1  0.56671966  0.67159796  0.55581745  1
  H  H37  1  0.37972292  0.30148804  0.56153296  1
  H  H38  1  0.62027708  0.69851196  0.43846704  1
  H  H39  1  0.58017954  0.28390425  0.53285801  1
  H  H40  1  0.41982046  0.71609575  0.46714199  1
  H  H41  1  0.81090980  0.37386856  0.39890211  1
  H  H42  1  0.18909020  0.62613144  0.60109789  1
  H  H43  1  0.69553543  0.44775718  0.29838670  1
  H  H44  1  0.30446457  0.55224282  0.70161330  1
  H  H45  1  0.87835893  0.48825066  0.31370437  1
  H  H46  1  0.12164107  0.51174934  0.68629563  1
  S  S47  1  0.00460148  0.25208879  0.88840516  1
  S  S48  1  0.99539852  0.74791121  0.11159484  1
  S  S49  1  0.59390416  0.16317052  0.80859236  1
  S  S50  1  0.40609584  0.83682948  0.19140764  1
  S  S51  1  0.62627872  0.60288265  0.78753941  1
  S  S52  1  0.37372128  0.39711735  0.21246059  1
  S  S53  1  0.90025579  0.29972364  0.61286623  1
  S  S54  1  0.09974421  0.70027636  0.38713377  1
  N  N55  1  0.01472131  0.21478650  0.15558746  1
  N  N56  1  0.98527869  0.78521350  0.84441254  1
  N  N57  1  0.68581624  0.13652228  0.05790357  1
  N  N58  1  0.31418376  0.86347772  0.94209643  1
  N  N59  1  0.71794485  0.50164467  0.05009323  1
  N  N60  1  0.28205515  0.49835533  0.94990677  1
  N  N61  1  0.73782240  0.92778966  0.58246711  1
  N  N62  1  0.26217760  0.07221034  0.41753289  1
  N  N63  1  0.65261350  0.00649271  0.36018156  1
  N  N64  1  0.34738650  0.99350729  0.63981844  1
  N  N65  1  0.47161825  0.26013799  0.51011280  1
  N  N66  1  0.52838175  0.73986201  0.48988720  1
  N  N67  1  0.81801777  0.39875222  0.32351308  1
  N  N68  1  0.18198223  0.60124778  0.67648692  1
