# generated using pymatgen
data_K3Nb2Cu3Se8
_symmetry_space_group_name_H-M   'P 1'
_cell_length_a   5.75235624
_cell_length_b   12.70634564
_cell_length_c   14.22052281
_cell_angle_alpha   68.49622702
_cell_angle_beta   78.33111781
_cell_angle_gamma   76.91727623
_symmetry_Int_Tables_number   1
_chemical_formula_structural   K3Nb2Cu3Se8
_chemical_formula_sum   'K6 Nb4 Cu6 Se16'
_cell_volume   933.75396390
_cell_formula_units_Z   2
loop_
 _symmetry_equiv_pos_site_id
 _symmetry_equiv_pos_as_xyz
  1  'x, y, z'
loop_
 _atom_site_type_symbol
 _atom_site_label
 _atom_site_symmetry_multiplicity
 _atom_site_fract_x
 _atom_site_fract_y
 _atom_site_fract_z
 _atom_site_occupancy
  K  K0  1  0.72921448  0.71233869  0.90559701  1
  K  K1  1  0.34715018  0.78766131  0.59440299  1
  K  K2  1  0.27078552  0.28766131  0.09440299  1
  K  K3  1  0.65284982  0.21233869  0.40559701  1
  K  K4  1  -0.00000000  0.50000000  0.50000000  1
  K  K5  1  -0.00000000  0.00000000  0.00000000  1
  Nb  Nb6  1  0.15714817  0.47080522  0.77982783  1
  Nb  Nb7  1  0.40778122  0.02919478  0.72017217  1
  Nb  Nb8  1  0.84285183  0.52919478  0.22017217  1
  Nb  Nb9  1  0.59221878  0.97080522  0.27982783  1
  Cu  Cu10  1  0.27769386  0.25000000  0.75000000  1
  Cu  Cu11  1  0.72230614  0.75000000  0.25000000  1
  Cu  Cu12  1  0.90480307  0.03495039  0.71891563  1
  Cu  Cu13  1  0.65866910  0.46504961  0.78108437  1
  Cu  Cu14  1  0.09519693  0.96504961  0.28108437  1
  Cu  Cu15  1  0.34133090  0.53495039  0.21891563  1
  Se  Se16  1  0.95363715  0.30507621  0.87560274  1
  Se  Se17  1  0.13431611  0.19492379  0.62439726  1
  Se  Se18  1  0.04636285  0.69492379  0.12439726  1
  Se  Se19  1  0.86568389  0.80507621  0.37560274  1
  Se  Se20  1  0.48568110  0.41646662  0.65771298  1
  Se  Se21  1  0.55986070  0.08353338  0.84228702  1
  Se  Se22  1  0.51431890  0.58353338  0.34228702  1
  Se  Se23  1  0.44013930  0.91646662  0.15771298  1
  Se  Se24  1  0.87011840  0.62928221  0.68642659  1
  Se  Se25  1  0.18582720  0.87071779  0.81357341  1
  Se  Se26  1  0.12988160  0.37071779  0.31357341  1
  Se  Se27  1  0.81417280  0.12928221  0.18642659  1
  Se  Se28  1  0.74393366  0.96949731  0.60725412  1
  Se  Se29  1  0.32068509  0.53050269  0.89274588  1
  Se  Se30  1  0.25606634  0.03050269  0.39274588  1
  Se  Se31  1  0.67931491  0.46949731  0.10725412  1
