# generated using pymatgen
data_LiZnSO4F
_symmetry_space_group_name_H-M   'P 1'
_cell_length_a   6.37504792
_cell_length_b   7.56482490
_cell_length_c   7.57921301
_cell_angle_alpha   90.00000000
_cell_angle_beta   90.00000000
_cell_angle_gamma   90.00000000
_symmetry_Int_Tables_number   1
_chemical_formula_structural   LiZnSO4F
_chemical_formula_sum   'Li4 Zn4 S4 O16 F4'
_cell_volume   365.51604555
_cell_formula_units_Z   4
loop_
 _symmetry_equiv_pos_site_id
 _symmetry_equiv_pos_as_xyz
  1  'x, y, z'
loop_
 _atom_site_type_symbol
 _atom_site_label
 _atom_site_symmetry_multiplicity
 _atom_site_fract_x
 _atom_site_fract_y
 _atom_site_fract_z
 _atom_site_occupancy
  Li  Li0  1  -0.00000000  0.50000000  0.50000000  1
  Li  Li1  1  0.50000000  -0.00000000  -0.00000000  1
  Li  Li2  1  0.50000000  0.50000000  0.50000000  1
  Li  Li3  1  -0.00000000  -0.00000000  0.00000000  1
  Zn  Zn4  1  0.75000000  0.35810617  0.79447193  1
  Zn  Zn5  1  0.75000000  0.85810617  0.70552807  1
  Zn  Zn6  1  0.25000000  0.64189383  0.20552807  1
  Zn  Zn7  1  0.25000000  0.14189383  0.29447193  1
  S  S8  1  0.75000000  0.13167401  0.35851017  1
  S  S9  1  0.75000000  0.63167401  0.14148983  1
  S  S10  1  0.25000000  0.86832599  0.64148983  1
  S  S11  1  0.25000000  0.36832599  0.85851017  1
  O  O12  1  0.43688186  0.36816805  0.73866421  1
  O  O13  1  0.06311814  0.86816805  0.76133579  1
  O  O14  1  0.93688186  0.63183195  0.26133579  1
  O  O15  1  0.56311814  0.13183195  0.23866421  1
  O  O16  1  0.56311814  0.63183195  0.26133579  1
  O  O17  1  0.93688186  0.13183195  0.23866421  1
  O  O18  1  0.06311814  0.36816805  0.73866421  1
  O  O19  1  0.43688186  0.86816805  0.76133579  1
  O  O20  1  0.75000000  0.29332599  0.47037699  1
  O  O21  1  0.75000000  0.79332599  0.02962301  1
  O  O22  1  0.25000000  0.70667401  0.52962301  1
  O  O23  1  0.25000000  0.20667401  0.97037699  1
  O  O24  1  0.75000000  0.46960944  0.03414246  1
  O  O25  1  0.75000000  0.96960944  0.46585754  1
  O  O26  1  0.25000000  0.53039056  0.96585754  1
  O  O27  1  0.25000000  0.03039056  0.53414246  1
  F  F28  1  0.75000000  0.09947399  0.86382140  1
  F  F29  1  0.75000000  0.59947399  0.63617860  1
  F  F30  1  0.25000000  0.90052601  0.13617860  1
  F  F31  1  0.25000000  0.40052601  0.36382140  1
