# generated using pymatgen
data_ClO
_symmetry_space_group_name_H-M   'P 1'
_cell_length_a   13.39868893
_cell_length_b   13.39868893
_cell_length_c   13.39868893
_cell_angle_alpha   105.13899786
_cell_angle_beta   111.67980266
_cell_angle_gamma   111.67980266
_symmetry_Int_Tables_number   1
_chemical_formula_structural   ClO
_chemical_formula_sum   'Cl8 O8'
_cell_volume   1843.81516934
_cell_formula_units_Z   8
loop_
 _symmetry_equiv_pos_site_id
 _symmetry_equiv_pos_as_xyz
  1  'x, y, z'
loop_
 _atom_site_type_symbol
 _atom_site_label
 _atom_site_symmetry_multiplicity
 _atom_site_fract_x
 _atom_site_fract_y
 _atom_site_fract_z
 _atom_site_occupancy
  Cl  Cl0  1  0.93347068  0.80414290  0.73761358  1
  Cl  Cl1  1  0.06652932  0.80414290  0.87067222  1
  Cl  Cl2  1  0.56652932  0.62067222  0.05414290  1
  Cl  Cl3  1  0.43347068  0.94585710  0.37932778  1
  Cl  Cl4  1  0.56652932  0.94585710  0.51238642  1
  Cl  Cl5  1  0.43347068  0.48761358  0.05414290  1
  Cl  Cl6  1  0.93347068  0.12932778  0.19585710  1
  Cl  Cl7  1  0.06652932  0.26238642  0.19585710  1
  O  O8  1  0.75367922  0.91259639  0.66627561  1
  O  O9  1  0.24632078  0.91259639  0.15891716  1
  O  O10  1  0.74632078  0.90891716  0.16259639  1
  O  O11  1  0.25367922  0.83740361  0.09108284  1
  O  O12  1  0.74632078  0.83740361  0.58372439  1
  O  O13  1  0.25367922  0.41627561  0.16259639  1
  O  O14  1  0.75367922  0.84108284  0.08740361  1
  O  O15  1  0.24632078  0.33372439  0.08740361  1
