# generated using pymatgen
data_Rb7DyFe6(P4O17)2
_symmetry_space_group_name_H-M   'P 1'
_cell_length_a   9.40784524
_cell_length_b   10.00952312
_cell_length_c   10.14967375
_cell_angle_alpha   91.97441815
_cell_angle_beta   94.12274352
_cell_angle_gamma   116.23677849
_symmetry_Int_Tables_number   1
_chemical_formula_structural   Rb7DyFe6(P4O17)2
_chemical_formula_sum   'Rb7 Dy1 Fe6 P8 O34'
_cell_volume   852.74088596
_cell_formula_units_Z   1
loop_
 _symmetry_equiv_pos_site_id
 _symmetry_equiv_pos_as_xyz
  1  'x, y, z'
loop_
 _atom_site_type_symbol
 _atom_site_label
 _atom_site_symmetry_multiplicity
 _atom_site_fract_x
 _atom_site_fract_y
 _atom_site_fract_z
 _atom_site_occupancy
  Rb  Rb0  1  0.07294301  0.20926886  0.34236222  1
  Rb  Rb1  1  0.92705699  0.79073114  0.65763778  1
  Rb  Rb2  1  0.62649758  0.97375486  0.37653257  1
  Rb  Rb3  1  0.37350242  0.02624514  0.62346743  1
  Rb  Rb4  1  0.67692393  0.43921204  0.90594505  1
  Rb  Rb5  1  0.32307607  0.56078796  0.09405495  1
  Rb  Rb6  1  0.50000000  -0.00000000  -0.00000000  1
  Dy  Dy7  1  0.50000000  0.50000000  0.50000000  1
  Fe  Fe8  1  0.15616100  0.10786985  0.96642812  1
  Fe  Fe9  1  0.84383900  0.89213015  0.03357188  1
  Fe  Fe10  1  0.83478310  0.09449220  0.75357672  1
  Fe  Fe11  1  0.16521690  0.90550780  0.24642328  1
  Fe  Fe12  1  0.84511744  0.42326053  0.27709959  1
  Fe  Fe13  1  0.15488256  0.57673947  0.72290041  1
  P  P14  1  0.78549870  0.33376402  0.57180383  1
  P  P15  1  0.21450130  0.66623598  0.42819617  1
  P  P16  1  0.19403584  0.26625113  0.69223263  1
  P  P17  1  0.80596416  0.73374887  0.30776737  1
  P  P18  1  0.91012258  0.23095556  0.03791282  1
  P  P19  1  0.08987742  0.76904444  0.96208718  1
  P  P20  1  0.55767254  0.75561010  0.78073687  1
  P  P21  1  0.44232746  0.24438990  0.21926313  1
  O  O22  1  0.37495784  0.21979982  0.07075326  1
  O  O23  1  0.62504216  0.78020018  0.92924674  1
  O  O24  1  0.83826602  0.31242863  0.43289794  1
  O  O25  1  0.16173398  0.68757137  0.56710206  1
  O  O26  1  0.01657549  0.15697452  0.64218133  1
  O  O27  1  0.98342451  0.84302548  0.35781867  1
  O  O28  1  0.18071484  0.91579727  0.89312053  1
  O  O29  1  0.81928516  0.08420273  0.10687947  1
  O  O30  1  0.25876565  0.19698709  0.80063265  1
  O  O31  1  0.74123435  0.80301291  0.19936735  1
  O  O32  1  0.93243953  0.00644017  0.87657193  1
  O  O33  1  0.06756047  0.99355983  0.12342807  1
  O  O34  1  0.20575597  0.41568415  0.75174834  1
  O  O35  1  0.79424403  0.58431585  0.24825166  1
  O  O36  1  0.08706406  0.26744756  0.02880622  1
  O  O37  1  0.91293594  0.73255244  0.97119378  1
  O  O38  1  0.61789429  0.27153243  0.22040952  1
  O  O39  1  0.38210571  0.72846757  0.77959048  1
  O  O40  1  0.29488129  0.29443514  0.57309766  1
  O  O41  1  0.70511871  0.70556486  0.42690234  1
  O  O42  1  0.71564116  0.17661837  0.62824070  1
  O  O43  1  0.28435884  0.82338163  0.37175930  1
  O  O44  1  0.65531807  0.38833114  0.55582066  1
  O  O45  1  0.34468193  0.61166886  0.44417934  1
  O  O46  1  0.81761047  0.21938168  0.89952530  1
  O  O47  1  0.18238953  0.78061832  0.10047470  1
  O  O48  1  0.91007042  0.36518047  0.11869910  1
  O  O49  1  0.08992958  0.63481953  0.88130090  1
  O  O50  1  0.57617486  0.62661835  0.70787868  1
  O  O51  1  0.42382514  0.37338165  0.29212132  1
  O  O52  1  0.64698174  0.90251043  0.70831135  1
  O  O53  1  0.35301826  0.09748957  0.29168865  1
  O  O54  1  0.92636764  0.44615160  0.66550455  1
  O  O55  1  0.07363236  0.55384840  0.33449545  1
