# generated using pymatgen
data_PrHIClO13
_symmetry_space_group_name_H-M   'P 1'
_cell_length_a   7.37840724
_cell_length_b   12.56912614
_cell_length_c   13.36486076
_cell_angle_alpha   112.42604586
_cell_angle_beta   90.00000000
_cell_angle_gamma   90.00000000
_symmetry_Int_Tables_number   1
_chemical_formula_structural   PrHIClO13
_chemical_formula_sum   'Pr4 H4 I4 Cl4 O52'
_cell_volume   1145.72201997
_cell_formula_units_Z   4
loop_
 _symmetry_equiv_pos_site_id
 _symmetry_equiv_pos_as_xyz
  1  'x, y, z'
loop_
 _atom_site_type_symbol
 _atom_site_label
 _atom_site_symmetry_multiplicity
 _atom_site_fract_x
 _atom_site_fract_y
 _atom_site_fract_z
 _atom_site_occupancy
  Pr  Pr0  1  0.86533300  0.97734788  0.31226963  1
  Pr  Pr1  1  0.36533300  0.02265212  0.18773037  1
  Pr  Pr2  1  0.13466700  0.02265212  0.68773037  1
  Pr  Pr3  1  0.63466700  0.97734788  0.81226963  1
  H  H4  1  0.80636450  0.27228120  0.13756609  1
  H  H5  1  0.30636450  0.72771880  0.36243391  1
  H  H6  1  0.19363550  0.72771880  0.86243391  1
  H  H7  1  0.69363550  0.27228120  0.63756609  1
  I  I8  1  0.87055732  0.06960306  0.09225260  1
  I  I9  1  0.37055732  0.93039694  0.40774740  1
  I  I10  1  0.12944268  0.93039694  0.90774740  1
  I  I11  1  0.62944268  0.06960306  0.59225260  1
  Cl  Cl12  1  0.22702164  0.46445076  0.12311783  1
  Cl  Cl13  1  0.72702164  0.53554924  0.37688217  1
  Cl  Cl14  1  0.77297836  0.53554924  0.87688217  1
  Cl  Cl15  1  0.27297836  0.46445076  0.62311783  1
  O  O16  1  0.07654248  0.09287452  0.00587634  1
  O  O17  1  0.57654248  0.90712548  0.49412366  1
  O  O18  1  0.92345752  0.90712548  0.99412366  1
  O  O19  1  0.42345752  0.09287452  0.50587634  1
  O  O20  1  0.69860714  0.02102778  0.17004877  1
  O  O21  1  0.19860714  0.97897222  0.32995123  1
  O  O22  1  0.30139286  0.97897222  0.82995123  1
  O  O23  1  0.80139286  0.02102778  0.67004877  1
  O  O24  1  0.69813766  0.08019974  0.99629573  1
  O  O25  1  0.19813766  0.91980026  0.50370427  1
  O  O26  1  0.30186234  0.91980026  0.00370427  1
  O  O27  1  0.80186234  0.08019974  0.49629573  1
  O  O28  1  0.03701349  0.05520572  0.19424453  1
  O  O29  1  0.53701349  0.94479428  0.30575547  1
  O  O30  1  0.96298651  0.94479428  0.80575547  1
  O  O31  1  0.46298651  0.05520572  0.69424453  1
  O  O32  1  0.86803043  0.23003303  0.17729234  1
  O  O33  1  0.36803043  0.76996697  0.32270766  1
  O  O34  1  0.13196957  0.76996697  0.82270766  1
  O  O35  1  0.63196957  0.23003303  0.67729234  1
  O  O36  1  0.90346698  0.77994257  0.31345016  1
  O  O37  1  0.40346698  0.22005743  0.18654984  1
  O  O38  1  0.09653302  0.22005743  0.68654984  1
  O  O39  1  0.59653302  0.77994257  0.81345016  1
  O  O40  1  0.83042322  0.28693824  0.44902591  1
  O  O41  1  0.33042322  0.71306176  0.05097409  1
  O  O42  1  0.16957678  0.71306176  0.55097409  1
  O  O43  1  0.66957678  0.28693824  0.94902591  1
  O  O44  1  0.92518037  0.77134531  0.21424336  1
  O  O45  1  0.42518037  0.22865469  0.28575664  1
  O  O46  1  0.07481963  0.22865469  0.78575664  1
  O  O47  1  0.57481963  0.77134531  0.71424336  1
  O  O48  1  0.40009547  0.51573105  0.11700745  1
  O  O49  1  0.90009547  0.48426895  0.38299255  1
  O  O50  1  0.59990453  0.48426895  0.88299255  1
  O  O51  1  0.09990453  0.51573105  0.61700745  1
  O  O52  1  0.08449772  0.55255502  0.15459155  1
  O  O53  1  0.58449772  0.44744498  0.34540845  1
  O  O54  1  0.91550228  0.44744498  0.84540845  1
  O  O55  1  0.41550228  0.55255502  0.65459155  1
  O  O56  1  0.71564772  0.34738051  0.04177416  1
  O  O57  1  0.21564772  0.65261949  0.45822584  1
  O  O58  1  0.28435228  0.65261949  0.95822584  1
  O  O59  1  0.78435228  0.34738051  0.54177416  1
  O  O60  1  0.23068494  0.42048303  0.21150369  1
  O  O61  1  0.73068494  0.57951697  0.28849631  1
  O  O62  1  0.76931506  0.57951697  0.78849631  1
  O  O63  1  0.26931506  0.42048303  0.71150369  1
  O  O64  1  0.18240183  0.37164601  0.02198272  1
  O  O65  1  0.68240183  0.62835399  0.47801728  1
  O  O66  1  0.81759817  0.62835399  0.97801728  1
  O  O67  1  0.31759817  0.37164601  0.52198272  1
