# generated using pymatgen
data_Sc12Ir3Br16
_symmetry_space_group_name_H-M   'P 1'
_cell_length_a   8.93648631
_cell_length_b   10.88885809
_cell_length_c   11.55924380
_cell_angle_alpha   116.80906785
_cell_angle_beta   101.82861904
_cell_angle_gamma   101.53632111
_symmetry_Int_Tables_number   1
_chemical_formula_structural   Sc12Ir3Br16
_chemical_formula_sum   'Sc12 Ir3 Br16'
_cell_volume   925.89481423
_cell_formula_units_Z   1
loop_
 _symmetry_equiv_pos_site_id
 _symmetry_equiv_pos_as_xyz
  1  'x, y, z'
loop_
 _atom_site_type_symbol
 _atom_site_label
 _atom_site_symmetry_multiplicity
 _atom_site_fract_x
 _atom_site_fract_y
 _atom_site_fract_z
 _atom_site_occupancy
  Sc  Sc0  1  0.08031362  0.25113776  0.34588998  1
  Sc  Sc1  1  0.91968638  0.74886224  0.65411002  1
  Sc  Sc2  1  0.77631686  0.53670449  0.31551646  1
  Sc  Sc3  1  0.22368314  0.46329551  0.68448354  1
  Sc  Sc4  1  0.28477305  0.74975986  0.65407368  1
  Sc  Sc5  1  0.71522695  0.25024014  0.34592632  1
  Sc  Sc6  1  0.14097811  0.53663154  0.31564726  1
  Sc  Sc7  1  0.85902189  0.46336846  0.68435274  1
  Sc  Sc8  1  0.39782725  0.34566519  0.25440789  1
  Sc  Sc9  1  0.60217275  0.65433481  0.74559211  1
  Sc  Sc10  1  0.45527301  0.29524892  0.52169429  1
  Sc  Sc11  1  0.54472699  0.70475108  0.47830571  1
  Ir  Ir12  1  -0.00000000  0.50000000  0.50000000  1
  Ir  Ir13  1  0.33989750  0.50028662  0.49936908  1
  Ir  Ir14  1  0.66010250  0.49971338  0.50063092  1
  Br  Br15  1  0.39854781  0.74913995  0.89622219  1
  Br  Br16  1  0.60145219  0.25086005  0.10377781  1
  Br  Br17  1  0.19468426  0.98248020  0.79151064  1
  Br  Br18  1  0.80531574  0.01751980  0.20848936  1
  Br  Br19  1  0.33273646  0.08031098  0.24317319  1
  Br  Br20  1  0.66726354  0.91968902  0.75682681  1
  Br  Br21  1  0.55619001  0.43480225  0.80755688  1
  Br  Br22  1  0.44380999  0.56519775  0.19244312  1
  Br  Br23  1  0.31052844  0.83572131  0.46152188  1
  Br  Br24  1  0.68947156  0.16427869  0.53847812  1
  Br  Br25  1  0.16362539  0.16379016  0.53438534  1
  Br  Br26  1  0.83637461  0.83620984  0.46561466  1
  Br  Br27  1  0.92577697  0.58293867  0.15270264  1
  Br  Br28  1  0.07422303  0.41706133  0.84729736  1
  Br  Br29  1  0.93068641  0.74780689  0.89628639  1
  Br  Br30  1  0.06931359  0.25219311  0.10371361  1
