# generated using pymatgen
data_Tm2(Ni2B)5
_symmetry_space_group_name_H-M   'P 1'
_cell_length_a   8.93482234
_cell_length_b   9.42935967
_cell_length_c   17.47833606
_cell_angle_alpha   90.00000000
_cell_angle_beta   90.00000000
_cell_angle_gamma   90.00000000
_symmetry_Int_Tables_number   1
_chemical_formula_structural   Tm2(Ni2B)5
_chemical_formula_sum   'Tm16 Ni80 B40'
_cell_volume   1472.54375561
_cell_formula_units_Z   8
loop_
 _symmetry_equiv_pos_site_id
 _symmetry_equiv_pos_as_xyz
  1  'x, y, z'
loop_
 _atom_site_type_symbol
 _atom_site_label
 _atom_site_symmetry_multiplicity
 _atom_site_fract_x
 _atom_site_fract_y
 _atom_site_fract_z
 _atom_site_occupancy
  Tm  Tm0  1  0.12444387  0.85883072  0.27804109  1
  Tm  Tm1  1  0.37555613  0.14116928  0.77804109  1
  Tm  Tm2  1  0.62444387  0.64116928  0.72195891  1
  Tm  Tm3  1  0.87555613  0.35883072  0.22195891  1
  Tm  Tm4  1  0.87555613  0.14116928  0.72195891  1
  Tm  Tm5  1  0.62444387  0.85883072  0.22195891  1
  Tm  Tm6  1  0.37555613  0.35883072  0.27804109  1
  Tm  Tm7  1  0.12444387  0.64116928  0.77804109  1
  Tm  Tm8  1  0.21923488  0.88750408  0.48012605  1
  Tm  Tm9  1  0.28076512  0.11249592  0.98012605  1
  Tm  Tm10  1  0.71923488  0.61249592  0.51987395  1
  Tm  Tm11  1  0.78076512  0.38750408  0.01987395  1
  Tm  Tm12  1  0.78076512  0.11249592  0.51987395  1
  Tm  Tm13  1  0.71923488  0.88750408  0.01987395  1
  Tm  Tm14  1  0.28076512  0.38750408  0.48012605  1
  Tm  Tm15  1  0.21923488  0.61249592  0.98012605  1
  Ni  Ni16  1  0.12152677  0.96216857  0.72717357  1
  Ni  Ni17  1  0.37847323  0.03783143  0.22717357  1
  Ni  Ni18  1  0.62152677  0.53783143  0.27282643  1
  Ni  Ni19  1  0.87847323  0.46216857  0.77282643  1
  Ni  Ni20  1  0.87847323  0.03783143  0.27282643  1
  Ni  Ni21  1  0.62152677  0.96216857  0.77282643  1
  Ni  Ni22  1  0.37847323  0.46216857  0.72717357  1
  Ni  Ni23  1  0.12152677  0.53783143  0.22717357  1
  Ni  Ni24  1  0.12651540  0.17709755  0.23726637  1
  Ni  Ni25  1  0.37348460  0.82290245  0.73726637  1
  Ni  Ni26  1  0.62651540  0.32290245  0.76273363  1
  Ni  Ni27  1  0.87348460  0.67709755  0.26273363  1
  Ni  Ni28  1  0.87348460  0.82290245  0.76273363  1
  Ni  Ni29  1  0.62651540  0.17709755  0.26273363  1
  Ni  Ni30  1  0.37348460  0.67709755  0.23726637  1
  Ni  Ni31  1  0.12651540  0.32290245  0.73726637  1
  Ni  Ni32  1  0.07932390  0.88610363  0.01522799  1
  Ni  Ni33  1  0.42067610  0.11389637  0.51522799  1
  Ni  Ni34  1  0.57932390  0.61389637  0.98477201  1
  Ni  Ni35  1  0.92067610  0.38610363  0.48477201  1
  Ni  Ni36  1  0.92067610  0.11389637  0.98477201  1
  Ni  Ni37  1  0.57932390  0.88610363  0.48477201  1
  Ni  Ni38  1  0.42067610  0.38610363  0.01522799  1
  Ni  Ni39  1  0.07932390  0.61389637  0.51522799  1
  Ni  Ni40  1  0.16172821  0.78160000  0.62748377  1
  Ni  Ni41  1  0.33827179  0.21840000  0.12748377  1
  Ni  Ni42  1  0.66172821  0.71840000  0.37251623  1
  Ni  Ni43  1  0.83827179  0.28160000  0.87251623  1
  Ni  Ni44  1  0.83827179  0.21840000  0.37251623  1
  Ni  Ni45  1  0.66172821  0.78160000  0.87251623  1
  Ni  Ni46  1  0.33827179  0.28160000  0.62748377  1
  Ni  Ni47  1  0.16172821  0.71840000  0.12748377  1
  Ni  Ni48  1  0.17697799  0.99416243  0.13125707  1
  Ni  Ni49  1  0.32302201  0.00583757  0.63125707  1
  Ni  Ni50  1  0.67697799  0.50583757  0.86874293  1
  Ni  Ni51  1  0.82302201  0.49416243  0.36874293  1
  Ni  Ni52  1  0.82302201  0.00583757  0.86874293  1
  Ni  Ni53  1  0.67697799  0.99416243  0.36874293  1
  Ni  Ni54  1  0.32302201  0.49416243  0.13125707  1
  Ni  Ni55  1  0.17697799  0.50583757  0.63125707  1
  Ni  Ni56  1  0.23109745  0.89336139  0.86522765  1
  Ni  Ni57  1  0.26890255  0.10663861  0.36522765  1
  Ni  Ni58  1  0.73109745  0.60663861  0.13477235  1
  Ni  Ni59  1  0.76890255  0.39336139  0.63477235  1
  Ni  Ni60  1  0.76890255  0.10663861  0.13477235  1
  Ni  Ni61  1  0.73109745  0.89336139  0.63477235  1
  Ni  Ni62  1  0.26890255  0.39336139  0.86522765  1
  Ni  Ni63  1  0.23109745  0.60663861  0.36522765  1
  Ni  Ni64  1  0.09155914  0.14715565  0.84961087  1
  Ni  Ni65  1  0.40844086  0.85284435  0.34961087  1
  Ni  Ni66  1  0.59155914  0.35284435  0.15038913  1
  Ni  Ni67  1  0.90844086  0.64715565  0.65038913  1
  Ni  Ni68  1  0.90844086  0.85284435  0.15038913  1
  Ni  Ni69  1  0.59155914  0.14715565  0.65038913  1
  Ni  Ni70  1  0.40844086  0.64715565  0.84961087  1
  Ni  Ni71  1  0.09155914  0.35284435  0.34961087  1
  Ni  Ni72  1  0.04165516  0.02218908  0.59598761  1
  Ni  Ni73  1  0.45834484  0.97781092  0.09598761  1
  Ni  Ni74  1  0.54165516  0.47781092  0.40401239  1
  Ni  Ni75  1  0.95834484  0.52218908  0.90401239  1
  Ni  Ni76  1  0.95834484  0.97781092  0.40401239  1
  Ni  Ni77  1  0.54165516  0.02218908  0.90401239  1
  Ni  Ni78  1  0.45834484  0.52218908  0.59598761  1
  Ni  Ni79  1  0.04165516  0.47781092  0.09598761  1
  Ni  Ni80  1  0.04303652  0.21860629  0.09882762  1
  Ni  Ni81  1  0.45696348  0.78139371  0.59882762  1
  Ni  Ni82  1  0.54303652  0.28139371  0.90117238  1
  Ni  Ni83  1  0.95696348  0.71860629  0.40117238  1
  Ni  Ni84  1  0.95696348  0.78139371  0.90117238  1
  Ni  Ni85  1  0.54303652  0.21860629  0.40117238  1
  Ni  Ni86  1  0.45696348  0.71860629  0.09882762  1
  Ni  Ni87  1  0.04303652  0.28139371  0.59882762  1
  Ni  Ni88  1  0.08179532  0.16682697  0.46898205  1
  Ni  Ni89  1  0.41820468  0.83317303  0.96898205  1
  Ni  Ni90  1  0.58179532  0.33317303  0.53101795  1
  Ni  Ni91  1  0.91820468  0.66682697  0.03101795  1
  Ni  Ni92  1  0.91820468  0.83317303  0.53101795  1
  Ni  Ni93  1  0.58179532  0.16682697  0.03101795  1
  Ni  Ni94  1  0.41820468  0.66682697  0.46898205  1
  Ni  Ni95  1  0.08179532  0.33317303  0.96898205  1
  B  B96  1  0.97659203  0.06424820  0.17672652  1
  B  B97  1  0.52340797  0.93575180  0.67672652  1
  B  B98  1  0.47659203  0.43575180  0.82327348  1
  B  B99  1  0.02340797  0.56424820  0.32327348  1
  B  B100  1  0.02340797  0.93575180  0.82327348  1
  B  B101  1  0.47659203  0.06424820  0.32327348  1
  B  B102  1  0.52340797  0.56424820  0.17672652  1
  B  B103  1  0.97659203  0.43575180  0.67672652  1
  B  B104  1  0.16681423  0.14950438  0.66719580  1
  B  B105  1  0.33318577  0.85049562  0.16719580  1
  B  B106  1  0.66681423  0.35049562  0.33280420  1
  B  B107  1  0.83318577  0.64950438  0.83280420  1
  B  B108  1  0.83318577  0.85049562  0.33280420  1
  B  B109  1  0.66681423  0.14950438  0.83280420  1
  B  B110  1  0.33318577  0.64950438  0.66719580  1
  B  B111  1  0.16681423  0.35049562  0.16719580  1
  B  B112  1  0.04643458  0.14135554  0.34433296  1
  B  B113  1  0.45356542  0.85864446  0.84433296  1
  B  B114  1  0.54643458  0.35864446  0.65566704  1
  B  B115  1  0.95356542  0.64135554  0.15566704  1
  B  B116  1  0.95356542  0.85864446  0.65566704  1
  B  B117  1  0.54643458  0.14135554  0.15566704  1
  B  B118  1  0.45356542  0.64135554  0.34433296  1
  B  B119  1  0.04643458  0.35864446  0.84433296  1
  B  B120  1  0.21331191  0.14859564  0.56050365  1
  B  B121  1  0.28668809  0.85140436  0.06050365  1
  B  B122  1  0.71331191  0.35140436  0.43949635  1
  B  B123  1  0.78668809  0.64859564  0.93949635  1
  B  B124  1  0.78668809  0.85140436  0.43949635  1
  B  B125  1  0.71331191  0.14859564  0.93949635  1
  B  B126  1  0.28668809  0.64859564  0.56050365  1
  B  B127  1  0.21331191  0.35140436  0.06050365  1
  B  B128  1  0.03992093  0.98189578  0.91830553  1
  B  B129  1  0.46007907  0.01810422  0.41830553  1
  B  B130  1  0.53992093  0.51810422  0.08169447  1
  B  B131  1  0.96007907  0.48189578  0.58169447  1
  B  B132  1  0.96007907  0.01810422  0.08169447  1
  B  B133  1  0.53992093  0.98189578  0.58169447  1
  B  B134  1  0.46007907  0.48189578  0.91830553  1
  B  B135  1  0.03992093  0.51810422  0.41830553  1
