# generated using pymatgen
data_CsHPt2(SO4)4
_symmetry_space_group_name_H-M   'P 1'
_cell_length_a   9.06606481
_cell_length_b   9.58601639
_cell_length_c   17.58153786
_cell_angle_alpha   100.05802096
_cell_angle_beta   90.00000000
_cell_angle_gamma   90.00000000
_symmetry_Int_Tables_number   1
_chemical_formula_structural   CsHPt2(SO4)4
_chemical_formula_sum   'Cs4 H4 Pt8 S16 O64'
_cell_volume   1504.48384546
_cell_formula_units_Z   4
loop_
 _symmetry_equiv_pos_site_id
 _symmetry_equiv_pos_as_xyz
  1  'x, y, z'
loop_
 _atom_site_type_symbol
 _atom_site_label
 _atom_site_symmetry_multiplicity
 _atom_site_fract_x
 _atom_site_fract_y
 _atom_site_fract_z
 _atom_site_occupancy
  Cs  Cs0  1  0.89001412  0.50355427  0.26508123  1
  Cs  Cs1  1  0.39001412  0.99644573  0.73491877  1
  Cs  Cs2  1  0.10998588  0.49644573  0.73491877  1
  Cs  Cs3  1  0.60998588  0.00355427  0.26508123  1
  H  H4  1  0.06355408  0.03392918  0.24579648  1
  H  H5  1  0.56355408  0.46607082  0.75420352  1
  H  H6  1  0.93644592  0.96607082  0.75420352  1
  H  H7  1  0.43644592  0.53392918  0.24579648  1
  Pt  Pt8  1  0.87667906  0.93940464  0.49421782  1
  Pt  Pt9  1  0.37667906  0.56059536  0.50578218  1
  Pt  Pt10  1  0.12332094  0.06059536  0.50578218  1
  Pt  Pt11  1  0.62332094  0.43940464  0.49421782  1
  Pt  Pt12  1  0.93509342  0.88851702  0.00972361  1
  Pt  Pt13  1  0.43509342  0.61148298  0.99027639  1
  Pt  Pt14  1  0.06490658  0.11148298  0.99027639  1
  Pt  Pt15  1  0.56490658  0.38851702  0.00972361  1
  S  S16  1  0.61155617  0.72117536  0.42562670  1
  S  S17  1  0.11155617  0.77882464  0.57437330  1
  S  S18  1  0.38844383  0.27882464  0.57437330  1
  S  S19  1  0.88844383  0.22117536  0.42562670  1
  S  S20  1  0.08087970  0.85642328  0.35109914  1
  S  S21  1  0.58087970  0.64357672  0.64890086  1
  S  S22  1  0.91912030  0.14357672  0.64890086  1
  S  S23  1  0.41912030  0.35642328  0.35109914  1
  S  S24  1  0.72476751  0.66857779  0.08524863  1
  S  S25  1  0.22476751  0.83142221  0.91475137  1
  S  S26  1  0.27523249  0.33142221  0.91475137  1
  S  S27  1  0.77523249  0.16857779  0.08524863  1
  S  S28  1  0.17358117  0.99533470  0.13497512  1
  S  S29  1  0.67358117  0.50466530  0.86502488  1
  S  S30  1  0.82641883  0.00466530  0.86502488  1
  S  S31  1  0.32641883  0.49533470  0.13497512  1
  O  O32  1  0.69649403  0.58277299  0.42911886  1
  O  O33  1  0.19649403  0.91722701  0.57088114  1
  O  O34  1  0.30350597  0.41722701  0.57088114  1
  O  O35  1  0.80350597  0.08277299  0.42911886  1
  O  O36  1  0.44720551  0.69972727  0.43904106  1
  O  O37  1  0.94720551  0.80027273  0.56095894  1
  O  O38  1  0.55279449  0.30027273  0.56095894  1
  O  O39  1  0.05279449  0.19972727  0.43904106  1
  O  O40  1  0.63242607  0.75312764  0.34914090  1
  O  O41  1  0.13242607  0.74687236  0.65085910  1
  O  O42  1  0.36757393  0.24687236  0.65085910  1
  O  O43  1  0.86757393  0.25312764  0.34914090  1
  O  O44  1  0.66006800  0.83570872  0.48950791  1
  O  O45  1  0.16006800  0.66429128  0.51049209  1
  O  O46  1  0.33993200  0.16429128  0.51049209  1
  O  O47  1  0.83993200  0.33570872  0.48950791  1
  O  O48  1  0.01686310  0.95797234  0.30628060  1
  O  O49  1  0.51686310  0.54202766  0.69371940  1
  O  O50  1  0.98313690  0.04202766  0.69371940  1
  O  O51  1  0.48313690  0.45797234  0.30628060  1
  O  O52  1  0.95424523  0.80557695  0.39908857  1
  O  O53  1  0.45424523  0.69442305  0.60091143  1
  O  O54  1  0.04575477  0.19442305  0.60091143  1
  O  O55  1  0.54575477  0.30557695  0.39908857  1
  O  O56  1  0.19721955  0.92914555  0.40877460  1
  O  O57  1  0.69721955  0.57085445  0.59122540  1
  O  O58  1  0.80278045  0.07085445  0.59122540  1
  O  O59  1  0.30278045  0.42914555  0.40877460  1
  O  O60  1  0.14591079  0.73202384  0.30589580  1
  O  O61  1  0.64591079  0.76797616  0.69410420  1
  O  O62  1  0.85408921  0.26797616  0.69410420  1
  O  O63  1  0.35408921  0.23202384  0.30589580  1
  O  O64  1  0.83139882  0.68502354  0.02273354  1
  O  O65  1  0.33139882  0.81497646  0.97726646  1
  O  O66  1  0.16860118  0.31497646  0.97726646  1
  O  O67  1  0.66860118  0.18502354  0.02273354  1
  O  O68  1  0.77006517  0.73450578  0.16168231  1
  O  O69  1  0.27006517  0.76549422  0.83831769  1
  O  O70  1  0.22993483  0.26549422  0.83831769  1
  O  O71  1  0.72993483  0.23450578  0.16168231  1
  O  O72  1  0.70770387  0.50835480  0.08443809  1
  O  O73  1  0.20770387  0.99164520  0.91556191  1
  O  O74  1  0.29229613  0.49164520  0.91556191  1
  O  O75  1  0.79229613  0.00835480  0.08443809  1
  O  O76  1  0.57309892  0.72870759  0.06848281  1
  O  O77  1  0.07309892  0.77129241  0.93151719  1
  O  O78  1  0.42690108  0.27129241  0.93151719  1
  O  O79  1  0.92690108  0.22870759  0.06848281  1
  O  O80  1  0.30543127  0.94412718  0.16494520  1
  O  O81  1  0.80543127  0.55587282  0.83505480  1
  O  O82  1  0.69456873  0.05587282  0.83505480  1
  O  O83  1  0.19456873  0.44412718  0.16494520  1
  O  O84  1  0.07910286  0.08533663  0.19755238  1
  O  O85  1  0.57910286  0.41466337  0.80244762  1
  O  O86  1  0.92089714  0.91466337  0.80244762  1
  O  O87  1  0.42089714  0.58533663  0.19755238  1
  O  O88  1  0.20719061  0.09369767  0.07815891  1
  O  O89  1  0.70719061  0.40630233  0.92184109  1
  O  O90  1  0.79280939  0.90630233  0.92184109  1
  O  O91  1  0.29280939  0.59369767  0.07815891  1
  O  O92  1  0.08047207  0.86918535  0.09592238  1
  O  O93  1  0.58047207  0.63081465  0.90407762  1
  O  O94  1  0.91952793  0.13081465  0.90407762  1
  O  O95  1  0.41952793  0.36918535  0.09592238  1
