# generated using pymatgen
data_CsMo2P2O11
_symmetry_space_group_name_H-M   'P 1'
_cell_length_a   8.91866456
_cell_length_b   10.47935907
_cell_length_c   11.78745985
_cell_angle_alpha   103.89782867
_cell_angle_beta   90.00000000
_cell_angle_gamma   90.00000000
_symmetry_Int_Tables_number   1
_chemical_formula_structural   CsMo2P2O11
_chemical_formula_sum   'Cs4 Mo8 P8 O44'
_cell_volume   1069.42726949
_cell_formula_units_Z   4
loop_
 _symmetry_equiv_pos_site_id
 _symmetry_equiv_pos_as_xyz
  1  'x, y, z'
loop_
 _atom_site_type_symbol
 _atom_site_label
 _atom_site_symmetry_multiplicity
 _atom_site_fract_x
 _atom_site_fract_y
 _atom_site_fract_z
 _atom_site_occupancy
  Cs  Cs0  1  0.73604221  0.90406032  0.42586773  1
  Cs  Cs1  1  0.23604221  0.09593968  0.07413227  1
  Cs  Cs2  1  0.26395779  0.09593968  0.57413227  1
  Cs  Cs3  1  0.76395779  0.90406032  0.92586773  1
  Mo  Mo4  1  0.75294530  0.61089567  0.10993057  1
  Mo  Mo5  1  0.25294530  0.38910433  0.39006943  1
  Mo  Mo6  1  0.24705470  0.38910433  0.89006943  1
  Mo  Mo7  1  0.74705470  0.61089567  0.60993057  1
  Mo  Mo8  1  0.72360060  0.19993768  0.22653254  1
  Mo  Mo9  1  0.22360060  0.80006232  0.27346746  1
  Mo  Mo10  1  0.27639940  0.80006232  0.77346746  1
  Mo  Mo11  1  0.77639940  0.19993768  0.72653254  1
  P  P12  1  0.58106563  0.52032501  0.33508937  1
  P  P13  1  0.08106563  0.47967499  0.16491063  1
  P  P14  1  0.41893437  0.47967499  0.66491063  1
  P  P15  1  0.91893437  0.52032501  0.83508937  1
  P  P16  1  0.58772137  0.29444459  0.98731998  1
  P  P17  1  0.08772137  0.70555541  0.51268002  1
  P  P18  1  0.41227863  0.70555541  0.01268002  1
  P  P19  1  0.91227863  0.29444459  0.48731998  1
  O  O20  1  0.83857522  0.75741672  0.17539513  1
  O  O21  1  0.33857522  0.24258328  0.32460487  1
  O  O22  1  0.16142478  0.24258328  0.82460487  1
  O  O23  1  0.66142478  0.75741672  0.67539513  1
  O  O24  1  0.61916720  0.60430442  0.24816452  1
  O  O25  1  0.11916720  0.39569558  0.25183548  1
  O  O26  1  0.38083280  0.39569558  0.75183548  1
  O  O27  1  0.88083280  0.60430442  0.74816452  1
  O  O28  1  0.90923558  0.49588090  0.16601631  1
  O  O29  1  0.40923558  0.50411910  0.33398369  1
  O  O30  1  0.09076442  0.50411910  0.83398369  1
  O  O31  1  0.59076442  0.49588090  0.66601631  1
  O  O32  1  0.57859498  0.70714017  0.04609975  1
  O  O33  1  0.07859498  0.29285983  0.45390025  1
  O  O34  1  0.42140502  0.29285983  0.95390025  1
  O  O35  1  0.92140502  0.70714017  0.54609975  1
  O  O36  1  0.86428118  0.59656414  0.95568356  1
  O  O37  1  0.36428118  0.40343586  0.54431644  1
  O  O38  1  0.13571882  0.40343586  0.04431644  1
  O  O39  1  0.63571882  0.59656414  0.45568356  1
  O  O40  1  0.65116222  0.43238165  0.02544431  1
  O  O41  1  0.15116222  0.56761835  0.47455569  1
  O  O42  1  0.34883778  0.56761835  0.97455569  1
  O  O43  1  0.84883778  0.43238165  0.52544431  1
  O  O44  1  0.63206849  0.05528516  0.22861509  1
  O  O45  1  0.13206849  0.94471484  0.27138491  1
  O  O46  1  0.36793151  0.94471484  0.77138491  1
  O  O47  1  0.86793151  0.05528516  0.72861509  1
  O  O48  1  0.88509111  0.15932139  0.14362876  1
  O  O49  1  0.38509111  0.84067861  0.35637124  1
  O  O50  1  0.11490889  0.84067861  0.85637124  1
  O  O51  1  0.61490889  0.15932139  0.64362876  1
  O  O52  1  0.65855094  0.38394440  0.29955053  1
  O  O53  1  0.15855094  0.61605560  0.20044947  1
  O  O54  1  0.34144906  0.61605560  0.70044947  1
  O  O55  1  0.84144906  0.38394440  0.79955053  1
  O  O56  1  0.81953305  0.21007964  0.38306298  1
  O  O57  1  0.31953305  0.78992036  0.11693702  1
  O  O58  1  0.18046695  0.78992036  0.61693702  1
  O  O59  1  0.68046695  0.21007964  0.88306298  1
  O  O60  1  0.59788767  0.21894577  0.08655481  1
  O  O61  1  0.09788767  0.78105423  0.41344519  1
  O  O62  1  0.40211233  0.78105423  0.91344519  1
  O  O63  1  0.90211233  0.21894577  0.58655481  1
