# generated using pymatgen
data_KBa2Cd2Sb3
_symmetry_space_group_name_H-M   'P 1'
_cell_length_a   5.03329420
_cell_length_b   13.36270725
_cell_length_c   17.03458258
_cell_angle_alpha   90.00000000
_cell_angle_beta   90.00000000
_cell_angle_gamma   90.00000000
_symmetry_Int_Tables_number   1
_chemical_formula_structural   KBa2Cd2Sb3
_chemical_formula_sum   'K4 Ba8 Cd8 Sb12'
_cell_volume   1145.71939754
_cell_formula_units_Z   4
loop_
 _symmetry_equiv_pos_site_id
 _symmetry_equiv_pos_as_xyz
  1  'x, y, z'
loop_
 _atom_site_type_symbol
 _atom_site_label
 _atom_site_symmetry_multiplicity
 _atom_site_fract_x
 _atom_site_fract_y
 _atom_site_fract_z
 _atom_site_occupancy
  K  K0  1  0.75000000  0.10113723  0.05427521  1
  K  K1  1  0.75000000  0.60113723  0.44572479  1
  K  K2  1  0.25000000  0.89886277  0.94572479  1
  K  K3  1  0.25000000  0.39886277  0.55427521  1
  Ba  Ba4  1  0.75000000  0.40034524  0.92765447  1
  Ba  Ba5  1  0.75000000  0.90034524  0.57234553  1
  Ba  Ba6  1  0.25000000  0.59965476  0.07234553  1
  Ba  Ba7  1  0.25000000  0.09965476  0.42765447  1
  Ba  Ba8  1  0.75000000  0.12715393  0.78960575  1
  Ba  Ba9  1  0.75000000  0.62715393  0.71039425  1
  Ba  Ba10  1  0.25000000  0.87284607  0.21039425  1
  Ba  Ba11  1  0.25000000  0.37284607  0.28960575  1
  Cd  Cd12  1  0.75000000  0.19582384  0.58365235  1
  Cd  Cd13  1  0.75000000  0.69582384  0.91634765  1
  Cd  Cd14  1  0.25000000  0.80417616  0.41634765  1
  Cd  Cd15  1  0.25000000  0.30417616  0.08365235  1
  Cd  Cd16  1  0.75000000  0.13480931  0.28350080  1
  Cd  Cd17  1  0.75000000  0.63480931  0.21649920  1
  Cd  Cd18  1  0.25000000  0.86519069  0.71649920  1
  Cd  Cd19  1  0.25000000  0.36519069  0.78350080  1
  Sb  Sb20  1  0.75000000  0.42188682  0.13472849  1
  Sb  Sb21  1  0.75000000  0.92188682  0.36527151  1
  Sb  Sb22  1  0.25000000  0.57811318  0.86527151  1
  Sb  Sb23  1  0.25000000  0.07811318  0.63472849  1
  Sb  Sb24  1  0.75000000  0.36634189  0.69650041  1
  Sb  Sb25  1  0.75000000  0.86634189  0.80349959  1
  Sb  Sb26  1  0.25000000  0.63365811  0.30349959  1
  Sb  Sb27  1  0.25000000  0.13365811  0.19650041  1
  Sb  Sb28  1  0.75000000  0.78692309  0.07569973  1
  Sb  Sb29  1  0.75000000  0.28692309  0.42430027  1
  Sb  Sb30  1  0.25000000  0.21307691  0.92430027  1
  Sb  Sb31  1  0.25000000  0.71307691  0.57569973  1
