# generated using pymatgen
data_KFeBP2HO9
_symmetry_space_group_name_H-M   'P 1'
_cell_length_a   8.31939125
_cell_length_b   9.53207495
_cell_length_c   9.75164682
_cell_angle_alpha   102.02068719
_cell_angle_beta   90.00000000
_cell_angle_gamma   90.00000000
_symmetry_Int_Tables_number   1
_chemical_formula_structural   KFeBP2HO9
_chemical_formula_sum   'K4 Fe4 B4 P8 H4 O36'
_cell_volume   756.35902937
_cell_formula_units_Z   4
loop_
 _symmetry_equiv_pos_site_id
 _symmetry_equiv_pos_as_xyz
  1  'x, y, z'
loop_
 _atom_site_type_symbol
 _atom_site_label
 _atom_site_symmetry_multiplicity
 _atom_site_fract_x
 _atom_site_fract_y
 _atom_site_fract_z
 _atom_site_occupancy
  K  K0  1  0.41186198  0.19390436  0.07598300  1
  K  K1  1  0.91186198  0.80609564  0.42401700  1
  K  K2  1  0.58813802  0.80609564  0.92401700  1
  K  K3  1  0.08813802  0.19390436  0.57598300  1
  Fe  Fe4  1  0.65511993  0.20861540  0.43316100  1
  Fe  Fe5  1  0.15511993  0.79138460  0.06683900  1
  Fe  Fe6  1  0.34488007  0.79138460  0.56683900  1
  Fe  Fe7  1  0.84488007  0.20861540  0.93316100  1
  B  B8  1  0.06826175  0.33244809  0.19179800  1
  B  B9  1  0.56826175  0.66755191  0.30820200  1
  B  B10  1  0.93173825  0.66755191  0.80820200  1
  B  B11  1  0.43173825  0.33244809  0.69179800  1
  P  P12  1  0.55642592  0.07818107  0.71060304  1
  P  P13  1  0.05642592  0.92181893  0.78939696  1
  P  P14  1  0.44357408  0.92181893  0.28939696  1
  P  P15  1  0.94357408  0.07818107  0.21060304  1
  P  P16  1  0.74721444  0.42140016  0.21850422  1
  P  P17  1  0.24721444  0.57859984  0.28149578  1
  P  P18  1  0.25278556  0.57859984  0.78149578  1
  P  P19  1  0.75278556  0.42140016  0.71850422  1
  H  H20  1  0.40643445  0.39162100  0.49913487  1
  H  H21  1  0.90643445  0.60837900  0.00086513  1
  H  H22  1  0.59356555  0.60837900  0.50086513  1
  H  H23  1  0.09356555  0.39162100  0.99913487  1
  O  O24  1  0.63318492  0.34280113  0.30045760  1
  O  O25  1  0.13318492  0.65719887  0.19954240  1
  O  O26  1  0.36681508  0.65719887  0.69954240  1
  O  O27  1  0.86681508  0.34280113  0.80045760  1
  O  O28  1  0.92683870  0.40918694  0.26275545  1
  O  O29  1  0.42683870  0.59081306  0.23724455  1
  O  O30  1  0.07316130  0.59081306  0.73724455  1
  O  O31  1  0.57316130  0.40918694  0.76275545  1
  O  O32  1  0.77584163  0.37165872  0.56023767  1
  O  O33  1  0.27584163  0.62834128  0.93976233  1
  O  O34  1  0.22415837  0.62834128  0.43976233  1
  O  O35  1  0.72415837  0.37165872  0.06023767  1
  O  O36  1  0.71647720  0.58800377  0.26096439  1
  O  O37  1  0.21647720  0.41199623  0.23903561  1
  O  O38  1  0.28352280  0.41199623  0.73903561  1
  O  O39  1  0.78352280  0.58800377  0.76096439  1
  O  O40  1  0.66287691  0.09611543  0.58643401  1
  O  O41  1  0.16287691  0.90388457  0.91356599  1
  O  O42  1  0.33712309  0.90388457  0.41356599  1
  O  O43  1  0.83712309  0.09611543  0.08643401  1
  O  O44  1  0.51343292  0.07304881  0.30593437  1
  O  O45  1  0.01343292  0.92695119  0.19406563  1
  O  O46  1  0.48656708  0.92695119  0.69406563  1
  O  O47  1  0.98656708  0.07304881  0.80593437  1
  O  O48  1  0.85398562  0.11059188  0.35280301  1
  O  O49  1  0.35398562  0.88940812  0.14719699  1
  O  O50  1  0.14601438  0.88940812  0.64719699  1
  O  O51  1  0.64601438  0.11059188  0.85280301  1
  O  O52  1  0.41107869  0.18916823  0.72480010  1
  O  O53  1  0.91107869  0.81083177  0.77519990  1
  O  O54  1  0.58892131  0.81083177  0.27519990  1
  O  O55  1  0.08892131  0.18916823  0.22480010  1
  O  O56  1  0.44197789  0.30901174  0.53534795  1
  O  O57  1  0.94197789  0.69098826  0.96465205  1
  O  O58  1  0.55802211  0.69098826  0.46465205  1
  O  O59  1  0.05802211  0.30901174  0.03534795  1
