# generated using pymatgen
data_TaSbO4
_symmetry_space_group_name_H-M   'P 1'
_cell_length_a   5.01690109
_cell_length_b   5.61860274
_cell_length_c   11.91700569
_cell_angle_alpha   90.00000000
_cell_angle_beta   90.00000000
_cell_angle_gamma   90.00000000
_symmetry_Int_Tables_number   1
_chemical_formula_structural   TaSbO4
_chemical_formula_sum   'Ta4 Sb4 O16'
_cell_volume   335.91624906
_cell_formula_units_Z   4
loop_
 _symmetry_equiv_pos_site_id
 _symmetry_equiv_pos_as_xyz
  1  'x, y, z'
loop_
 _atom_site_type_symbol
 _atom_site_label
 _atom_site_symmetry_multiplicity
 _atom_site_fract_x
 _atom_site_fract_y
 _atom_site_fract_z
 _atom_site_occupancy
  Ta  Ta0  1  0.50000000  0.87966628  0.25000000  1
  Ta  Ta1  1  0.50000000  0.12033372  0.75000000  1
  Ta  Ta2  1  -0.00000000  0.62033372  0.75000000  1
  Ta  Ta3  1  -0.00000000  0.37966628  0.25000000  1
  Sb  Sb4  1  0.44944120  0.50000000  0.00000000  1
  Sb  Sb5  1  0.55055880  0.50000000  0.50000000  1
  Sb  Sb6  1  0.94944120  0.00000000  0.50000000  1
  Sb  Sb7  1  0.05055880  0.00000000  -0.00000000  1
  O  O8  1  0.33651995  0.83329517  0.09432988  1
  O  O9  1  0.66348005  0.16670483  0.59432988  1
  O  O10  1  0.83651995  0.66670483  0.59432988  1
  O  O11  1  0.16348005  0.33329517  0.09432988  1
  O  O12  1  0.74268263  0.60558289  0.19750832  1
  O  O13  1  0.25731737  0.39441711  0.69750832  1
  O  O14  1  0.24268263  0.89441711  0.69750832  1
  O  O15  1  0.75731737  0.10558289  0.19750832  1
  O  O16  1  0.25731737  0.60558289  0.30249168  1
  O  O17  1  0.74268263  0.39441711  0.80249168  1
  O  O18  1  0.75731737  0.89441711  0.80249168  1
  O  O19  1  0.24268263  0.10558289  0.30249168  1
  O  O20  1  0.66348005  0.83329517  0.40567012  1
  O  O21  1  0.33651995  0.16670483  0.90567012  1
  O  O22  1  0.16348005  0.66670483  0.90567012  1
  O  O23  1  0.83651995  0.33329517  0.40567012  1
