# generated using pymatgen
data_VN3O10
_symmetry_space_group_name_H-M   'P 1'
_cell_length_a   5.93910616
_cell_length_b   10.66637715
_cell_length_c   13.65692803
_cell_angle_alpha   90.00000000
_cell_angle_beta   90.00000000
_cell_angle_gamma   103.89674108
_symmetry_Int_Tables_number   1
_chemical_formula_structural   VN3O10
_chemical_formula_sum   'V4 N12 O40'
_cell_volume   839.82647457
_cell_formula_units_Z   4
loop_
 _symmetry_equiv_pos_site_id
 _symmetry_equiv_pos_as_xyz
  1  'x, y, z'
loop_
 _atom_site_type_symbol
 _atom_site_label
 _atom_site_symmetry_multiplicity
 _atom_site_fract_x
 _atom_site_fract_y
 _atom_site_fract_z
 _atom_site_occupancy
  V  V0  1  0.07723575  0.74566747  0.51657251  1
  V  V1  1  0.42276425  0.25433253  0.01657251  1
  V  V2  1  0.92276425  0.25433253  0.48342749  1
  V  V3  1  0.57723575  0.74566747  0.98342749  1
  N  N4  1  0.31142538  0.92497359  0.62309514  1
  N  N5  1  0.18857462  0.07502641  0.12309514  1
  N  N6  1  0.68857462  0.07502641  0.37690486  1
  N  N7  1  0.81142538  0.92497359  0.87690486  1
  N  N8  1  0.84557626  0.72937672  0.35961797  1
  N  N9  1  0.65442374  0.27062328  0.85961797  1
  N  N10  1  0.15442374  0.27062328  0.64038203  1
  N  N11  1  0.34557626  0.72937672  0.14038203  1
  N  N12  1  0.73551438  0.65368201  0.62972311  1
  N  N13  1  0.76448562  0.34631799  0.12972311  1
  N  N14  1  0.26448562  0.34631799  0.37027689  1
  N  N15  1  0.23551438  0.65368201  0.87027689  1
  O  O16  1  0.23385969  0.80753423  0.65380622  1
  O  O17  1  0.26614031  0.19246577  0.15380622  1
  O  O18  1  0.76614031  0.19246577  0.34619378  1
  O  O19  1  0.73385969  0.80753423  0.84619378  1
  O  O20  1  0.23961461  0.93705809  0.53318802  1
  O  O21  1  0.26038539  0.06294191  0.03318802  1
  O  O22  1  0.76038539  0.06294191  0.46681198  1
  O  O23  1  0.73961461  0.93705809  0.96681198  1
  O  O24  1  0.43191713  0.01170567  0.66911547  1
  O  O25  1  0.06808287  0.98829433  0.16911547  1
  O  O26  1  0.56808287  0.98829433  0.33088453  1
  O  O27  1  0.93191713  0.01170567  0.83088453  1
  O  O28  1  0.83394632  0.63328126  0.41911156  1
  O  O29  1  0.66605368  0.36671874  0.91911156  1
  O  O30  1  0.16605368  0.36671874  0.58088844  1
  O  O31  1  0.33394632  0.63328126  0.08088844  1
  O  O32  1  0.98974263  0.83370700  0.39390548  1
  O  O33  1  0.51025737  0.16629300  0.89390548  1
  O  O34  1  0.01025737  0.16629300  0.60609452  1
  O  O35  1  0.48974263  0.83370700  0.10609452  1
  O  O36  1  0.74121418  0.72565241  0.28405560  1
  O  O37  1  0.75878582  0.27434759  0.78405560  1
  O  O38  1  0.25878582  0.27434759  0.71594440  1
  O  O39  1  0.24121418  0.72565241  0.21594440  1
  O  O40  1  0.75379862  0.76675817  0.59335818  1
  O  O41  1  0.74620138  0.23324183  0.09335818  1
  O  O42  1  0.24620138  0.23324183  0.40664182  1
  O  O43  1  0.25379862  0.76675817  0.90664182  1
  O  O44  1  0.91082511  0.60238965  0.60282075  1
  O  O45  1  0.58917489  0.39761035  0.10282075  1
  O  O46  1  0.08917489  0.39761035  0.39717925  1
  O  O47  1  0.41082511  0.60238965  0.89717925  1
  O  O48  1  0.58245900  0.59533089  0.68174208  1
  O  O49  1  0.91754100  0.40466911  0.18174208  1
  O  O50  1  0.41754100  0.40466911  0.31825792  1
  O  O51  1  0.08245900  0.59533089  0.81825792  1
  O  O52  1  0.28720084  0.68692350  0.48080024  1
  O  O53  1  0.21279916  0.31307650  0.98080024  1
  O  O54  1  0.71279916  0.31307650  0.51919976  1
  O  O55  1  0.78720084  0.68692350  0.01919976  1
