# generated using pymatgen
data_Te6RhI3
_symmetry_space_group_name_H-M   'P 1'
_cell_length_a   10.09793901
_cell_length_b   10.09793901
_cell_length_c   10.09793908
_cell_angle_alpha   109.57181633
_cell_angle_beta   109.57181633
_cell_angle_gamma   109.57181570
_symmetry_Int_Tables_number   1
_chemical_formula_structural   Te6RhI3
_chemical_formula_sum   'Te12 Rh2 I6'
_cell_volume   789.67470756
_cell_formula_units_Z   2
loop_
 _symmetry_equiv_pos_site_id
 _symmetry_equiv_pos_as_xyz
  1  'x, y, z'
loop_
 _atom_site_type_symbol
 _atom_site_label
 _atom_site_symmetry_multiplicity
 _atom_site_fract_x
 _atom_site_fract_y
 _atom_site_fract_z
 _atom_site_occupancy
  Te  Te0  1  0.16536865  0.94203568  0.18149237  1
  Te  Te1  1  0.94203568  0.18149237  0.16536865  1
  Te  Te2  1  0.18149237  0.16536865  0.94203568  1
  Te  Te3  1  0.66536865  0.68149237  0.44203568  1
  Te  Te4  1  0.68149237  0.44203568  0.66536865  1
  Te  Te5  1  0.44203568  0.66536865  0.68149237  1
  Te  Te6  1  0.83463135  0.05796432  0.81850763  1
  Te  Te7  1  0.05796432  0.81850763  0.83463135  1
  Te  Te8  1  0.81850763  0.83463135  0.05796432  1
  Te  Te9  1  0.33463135  0.31850763  0.55796432  1
  Te  Te10  1  0.31850763  0.55796432  0.33463135  1
  Te  Te11  1  0.55796432  0.33463135  0.31850763  1
  Rh  Rh12  1  0.25000000  0.25000000  0.25000000  1
  Rh  Rh13  1  0.75000000  0.75000000  0.75000000  1
  I  I14  1  0.50665521  0.99334479  0.25000000  1
  I  I15  1  0.99334479  0.25000000  0.50665521  1
  I  I16  1  0.25000000  0.50665521  0.99334479  1
  I  I17  1  0.00665521  0.75000000  0.49334479  1
  I  I18  1  0.75000000  0.49334479  0.00665521  1
  I  I19  1  0.49334479  0.00665521  0.75000000  1
