# generated using pymatgen
data_Ba2PIO4
_symmetry_space_group_name_H-M   'P 1'
_cell_length_a   9.02414766
_cell_length_b   9.41383037
_cell_length_c   9.52906405
_cell_angle_alpha   90.00000000
_cell_angle_beta   111.94193035
_cell_angle_gamma   90.00000000
_symmetry_Int_Tables_number   1
_chemical_formula_structural   Ba2PIO4
_chemical_formula_sum   'Ba8 P4 I4 O16'
_cell_volume   750.87257910
_cell_formula_units_Z   4
loop_
 _symmetry_equiv_pos_site_id
 _symmetry_equiv_pos_as_xyz
  1  'x, y, z'
loop_
 _atom_site_type_symbol
 _atom_site_label
 _atom_site_symmetry_multiplicity
 _atom_site_fract_x
 _atom_site_fract_y
 _atom_site_fract_z
 _atom_site_occupancy
  Ba  Ba0  1  0.95830544  0.80822201  0.84042349  1
  Ba  Ba1  1  0.54169456  0.30822201  0.15957651  1
  Ba  Ba2  1  0.04169456  0.19177799  0.15957651  1
  Ba  Ba3  1  0.45830544  0.69177799  0.84042349  1
  Ba  Ba4  1  0.45317343  0.82967449  0.25020040  1
  Ba  Ba5  1  0.04682657  0.32967449  0.74979960  1
  Ba  Ba6  1  0.54682657  0.17032551  0.74979960  1
  Ba  Ba7  1  0.95317343  0.67032551  0.25020040  1
  P  P8  1  0.23914725  0.55753723  0.04003655  1
  P  P9  1  0.26085275  0.05753723  0.95996345  1
  P  P10  1  0.76085275  0.44246277  0.95996345  1
  P  P11  1  0.73914725  0.94246277  0.04003655  1
  I  I12  1  0.25665596  0.42254588  0.49694398  1
  I  I13  1  0.24334404  0.92254588  0.50305602  1
  I  I14  1  0.74334404  0.57745412  0.50305602  1
  I  I15  1  0.75665596  0.07745412  0.49694398  1
  O  O16  1  0.16629109  0.58493987  0.86469849  1
  O  O17  1  0.33370891  0.08493987  0.13530151  1
  O  O18  1  0.83370891  0.41506013  0.13530151  1
  O  O19  1  0.66629109  0.91506013  0.86469849  1
  O  O20  1  0.79351044  0.59906828  0.93050460  1
  O  O21  1  0.70648956  0.09906828  0.06949540  1
  O  O22  1  0.20648956  0.40093172  0.06949540  1
  O  O23  1  0.29351044  0.90093172  0.93050460  1
  O  O24  1  0.33045575  0.16807153  0.87883659  1
  O  O25  1  0.16954425  0.66807153  0.12116341  1
  O  O26  1  0.66954425  0.83192847  0.12116341  1
  O  O27  1  0.83045575  0.33192847  0.87883659  1
  O  O28  1  0.92331944  0.91665297  0.09693500  1
  O  O29  1  0.57668056  0.41665297  0.90306500  1
  O  O30  1  0.07668056  0.08334703  0.90306500  1
  O  O31  1  0.42331944  0.58334703  0.09693500  1
