# generated using pymatgen
data_Li3V3CrO8
_symmetry_space_group_name_H-M   'P 1'
_cell_length_a   4.09630444
_cell_length_b   6.50375043
_cell_length_c   6.51353707
_cell_angle_alpha   74.10404298
_cell_angle_beta   89.94961798
_cell_angle_gamma   71.70061531
_symmetry_Int_Tables_number   1
_chemical_formula_structural   Li3V3CrO8
_chemical_formula_sum   'Li3 V3 Cr1 O8'
_cell_volume   157.76378630
_cell_formula_units_Z   1
loop_
 _symmetry_equiv_pos_site_id
 _symmetry_equiv_pos_as_xyz
  1  'x, y, z'
loop_
 _atom_site_type_symbol
 _atom_site_label
 _atom_site_symmetry_multiplicity
 _atom_site_fract_x
 _atom_site_fract_y
 _atom_site_fract_z
 _atom_site_occupancy
  Li  Li0  1  0.94328516  0.11703680  0.63717197  1
  Li  Li1  1  0.82048017  0.36327120  0.99312226  1
  Li  Li2  1  0.06315527  0.87841844  0.36275142  1
  V  V3  1  0.39498198  0.21468911  0.29567255  1
  V  V4  1  0.71115257  0.58412545  0.30361575  1
  V  V5  1  0.60659551  0.79138844  0.71192171  1
  Cr  Cr6  1  0.28289918  0.43811354  0.68348900  1
  O  O7  1  0.34830421  0.30682780  0.00850482  1
  O  O8  1  0.43723820  0.13229489  0.63000254  1
  O  O9  1  0.88426169  0.23581793  0.30883776  1
  O  O10  1  0.23648886  0.53298610  0.35674496  1
  O  O11  1  0.76917956  0.46453327  0.66382198  1
  O  O12  1  0.12050002  0.76324420  0.67881799  1
  O  O13  1  0.55794055  0.89342656  0.36543096  1
  O  O14  1  0.66045707  0.68498927  0.00775534  1
