# generated using pymatgen
data_Eu4As7Ir8
_symmetry_space_group_name_H-M   'P 1'
_cell_length_a   4.16047986
_cell_length_b   13.28463870
_cell_length_c   13.65896340
_cell_angle_alpha   98.64602944
_cell_angle_beta   90.00000000
_cell_angle_gamma   90.00000000
_symmetry_Int_Tables_number   1
_chemical_formula_structural   Eu4As7Ir8
_chemical_formula_sum   'Eu8 As14 Ir16'
_cell_volume   746.35818998
_cell_formula_units_Z   2
loop_
 _symmetry_equiv_pos_site_id
 _symmetry_equiv_pos_as_xyz
  1  'x, y, z'
loop_
 _atom_site_type_symbol
 _atom_site_label
 _atom_site_symmetry_multiplicity
 _atom_site_fract_x
 _atom_site_fract_y
 _atom_site_fract_z
 _atom_site_occupancy
  Eu  Eu0  1  0.75000000  0.21281553  0.56463051  1
  Eu  Eu1  1  0.25000000  0.78718447  0.43536949  1
  Eu  Eu2  1  0.75000000  0.51386173  0.70898128  1
  Eu  Eu3  1  0.25000000  0.48613827  0.29101872  1
  Eu  Eu4  1  0.75000000  0.28577769  0.89575914  1
  Eu  Eu5  1  0.25000000  0.71422231  0.10424086  1
  Eu  Eu6  1  0.75000000  0.10267032  0.20595898  1
  Eu  Eu7  1  0.25000000  0.89732968  0.79404102  1
  As  As8  1  0.75000000  0.74448235  0.91756805  1
  As  As9  1  0.25000000  0.25551765  0.08243195  1
  As  As10  1  0.75000000  0.90461387  0.58677163  1
  As  As11  1  0.25000000  0.09538613  0.41322837  1
  As  As12  1  0.75000000  0.53020533  0.12813078  1
  As  As13  1  0.25000000  0.46979467  0.87186922  1
  As  As14  1  0.75000000  0.84814402  0.27986439  1
  As  As15  1  0.25000000  0.15185598  0.72013561  1
  As  As16  1  0.75000000  0.60914270  0.43658395  1
  As  As17  1  0.25000000  0.39085730  0.56341605  1
  As  As18  1  0.75000000  0.31078574  0.31046443  1
  As  As19  1  0.25000000  0.68921426  0.68953557  1
  As  As20  1  0.75000000  0.05743621  0.89981408  1
  As  As21  1  0.25000000  0.94256379  0.10018592  1
  Ir  Ir22  1  0.75000000  0.34449835  0.13860654  1
  Ir  Ir23  1  0.25000000  0.65550165  0.86139346  1
  Ir  Ir24  1  0.75000000  0.72190248  0.60218914  1
  Ir  Ir25  1  0.25000000  0.27809752  0.39781086  1
  Ir  Ir26  1  0.75000000  0.92032320  0.00198127  1
  Ir  Ir27  1  0.25000000  0.07967680  0.99801873  1
  Ir  Ir28  1  0.75000000  0.42625408  0.47145781  1
  Ir  Ir29  1  0.25000000  0.57374592  0.52854219  1
  Ir  Ir30  1  0.75000000  0.05514162  0.72042378  1
  Ir  Ir31  1  0.25000000  0.94485838  0.27957622  1
  Ir  Ir32  1  0.75000000  0.55360170  0.95173046  1
  Ir  Ir33  1  0.25000000  0.44639830  0.04826954  1
  Ir  Ir34  1  0.75000000  0.66518443  0.27147370  1
  Ir  Ir35  1  0.25000000  0.33481557  0.72852630  1
  Ir  Ir36  1  0.75000000  0.98473739  0.42759238  1
  Ir  Ir37  1  0.25000000  0.01526261  0.57240762  1
