# generated using pymatgen
data_Ba2GdTaO6
_symmetry_space_group_name_H-M   'P 1'
_cell_length_a   6.07637340
_cell_length_b   6.07637340
_cell_length_c   6.07637340
_cell_angle_alpha   89.62293433
_cell_angle_beta   120.21793722
_cell_angle_gamma   120.21793722
_symmetry_Int_Tables_number   1
_chemical_formula_structural   Ba2GdTaO6
_chemical_formula_sum   'Ba2 Gd1 Ta1 O6'
_cell_volume   158.11577183
_cell_formula_units_Z   1
loop_
 _symmetry_equiv_pos_site_id
 _symmetry_equiv_pos_as_xyz
  1  'x, y, z'
loop_
 _atom_site_type_symbol
 _atom_site_label
 _atom_site_symmetry_multiplicity
 _atom_site_fract_x
 _atom_site_fract_y
 _atom_site_fract_z
 _atom_site_occupancy
  Ba  Ba0  1  0.50000000  0.75000000  0.25000000  1
  Ba  Ba1  1  0.50000000  0.25000000  0.75000000  1
  Gd  Gd2  1  0.00000000  0.50000000  0.50000000  1
  Ta  Ta3  1  0.00000000  0.00000000  -0.00000000  1
  O  O4  1  0.53316139  0.79699379  0.73616760  1
  O  O5  1  0.46683861  0.20300621  0.26383240  1
  O  O6  1  0.06082619  0.26383240  0.79699379  1
  O  O7  1  0.93917381  0.73616760  0.20300621  1
  O  O8  1  0.00000000  0.76572683  0.76572683  1
  O  O9  1  0.00000000  0.23427317  0.23427317  1
