# generated using pymatgen
data_VCl4
_symmetry_space_group_name_H-M   'P 1'
_cell_length_a   6.81776931
_cell_length_b   10.01939283
_cell_length_c   10.29667000
_cell_angle_alpha   102.19730990
_cell_angle_beta   90.00000000
_cell_angle_gamma   90.00000000
_symmetry_Int_Tables_number   1
_chemical_formula_structural   VCl4
_chemical_formula_sum   'V4 Cl16'
_cell_volume   687.48670769
_cell_formula_units_Z   4
loop_
 _symmetry_equiv_pos_site_id
 _symmetry_equiv_pos_as_xyz
  1  'x, y, z'
loop_
 _atom_site_type_symbol
 _atom_site_label
 _atom_site_symmetry_multiplicity
 _atom_site_fract_x
 _atom_site_fract_y
 _atom_site_fract_z
 _atom_site_occupancy
  V  V0  1  0.57560106  0.24907146  0.86466998  1
  V  V1  1  0.07560106  0.75092854  0.63533002  1
  V  V2  1  0.42439894  0.75092854  0.13533002  1
  V  V3  1  0.92439894  0.24907146  0.36466998  1
  Cl  Cl4  1  0.87242737  0.30668697  0.91841766  1
  Cl  Cl5  1  0.37242737  0.69331303  0.58158234  1
  Cl  Cl6  1  0.12757263  0.69331303  0.08158234  1
  Cl  Cl7  1  0.62757263  0.30668697  0.41841766  1
  Cl  Cl8  1  0.42907088  0.19544971  0.03029956  1
  Cl  Cl9  1  0.92907088  0.80455029  0.46970044  1
  Cl  Cl10  1  0.57092912  0.80455029  0.96970044  1
  Cl  Cl11  1  0.07092912  0.19544971  0.53029956  1
  Cl  Cl12  1  0.42497238  0.41457419  0.80591555  1
  Cl  Cl13  1  0.92497238  0.58542581  0.69408445  1
  Cl  Cl14  1  0.57502762  0.58542581  0.19408445  1
  Cl  Cl15  1  0.07502762  0.41457419  0.30591555  1
  Cl  Cl16  1  0.57394347  0.07757053  0.70035487  1
  Cl  Cl17  1  0.07394347  0.92242947  0.79964513  1
  Cl  Cl18  1  0.42605653  0.92242947  0.29964513  1
  Cl  Cl19  1  0.92605653  0.07757053  0.20035487  1
