# generated using pymatgen
data_NaV5O8
_symmetry_space_group_name_H-M   'P 1'
_cell_length_a   3.00320092
_cell_length_b   5.53027632
_cell_length_c   10.63911984
_cell_angle_alpha   77.29045522
_cell_angle_beta   90.97554845
_cell_angle_gamma   106.20092890
_symmetry_Int_Tables_number   1
_chemical_formula_structural   NaV5O8
_chemical_formula_sum   'Na1 V5 O8'
_cell_volume   165.33996354
_cell_formula_units_Z   1
loop_
 _symmetry_equiv_pos_site_id
 _symmetry_equiv_pos_as_xyz
  1  'x, y, z'
loop_
 _atom_site_type_symbol
 _atom_site_label
 _atom_site_symmetry_multiplicity
 _atom_site_fract_x
 _atom_site_fract_y
 _atom_site_fract_z
 _atom_site_occupancy
  Na  Na0  1  0.49051388  0.99668211  0.75035444  1
  V  V1  1  0.71896891  0.47074884  0.87729887  1
  V  V2  1  0.73297560  0.46755953  0.38259002  1
  V  V3  1  0.49411923  0.99690061  0.24980422  1
  V  V4  1  0.26992554  0.52445493  0.62284242  1
  V  V5  1  0.25601874  0.52512470  0.11650767  1
  O  O6  1  0.84174524  0.70717307  0.68658723  1
  O  O7  1  0.67297207  0.32002656  0.56654022  1
  O  O8  1  0.86157674  0.73917212  0.19976577  1
  O  O9  1  0.64109175  0.30116260  0.08032711  1
  O  O10  1  0.32417856  0.67644388  0.93396316  1
  O  O11  1  0.34757272  0.69047934  0.42206940  1
  O  O12  1  0.13244665  0.29289849  0.80519286  1
  O  O13  1  0.12800836  0.25445421  0.30160261  1
