# generated using pymatgen
data_CsTlO
_symmetry_space_group_name_H-M   'P 1'
_cell_length_a   3.88342000
_cell_length_b   6.71503214
_cell_length_c   7.44899299
_cell_angle_alpha   105.61348501
_cell_angle_beta   105.10966586
_cell_angle_gamma   90.00000032
_symmetry_Int_Tables_number   1
_chemical_formula_structural   CsTlO
_chemical_formula_sum   'Cs2 Tl2 O2'
_cell_volume   180.09905322
_cell_formula_units_Z   2
loop_
 _symmetry_equiv_pos_site_id
 _symmetry_equiv_pos_as_xyz
  1  'x, y, z'
loop_
 _atom_site_type_symbol
 _atom_site_label
 _atom_site_symmetry_multiplicity
 _atom_site_fract_x
 _atom_site_fract_y
 _atom_site_fract_z
 _atom_site_occupancy
  Cs  Cs0  1  0.12332817  0.34476758  0.24665635  1
  Cs  Cs1  1  0.87667183  0.65523242  0.75334365  1
  Tl  Tl2  1  0.34950751  0.13810576  0.69901501  1
  Tl  Tl3  1  0.65049249  0.86189424  0.30098499  1
  O  O4  1  0.75194805  0.20751403  0.50389610  1
  O  O5  1  0.24805195  0.79248597  0.49610390  1
