# generated using pymatgen
data_TmMgAg
_symmetry_space_group_name_H-M   'P 1'
_cell_length_a   4.05062369
_cell_length_b   7.70472232
_cell_length_c   7.70472232
_cell_angle_alpha   119.99999915
_cell_angle_beta   90.00000000
_cell_angle_gamma   90.00000000
_symmetry_Int_Tables_number   1
_chemical_formula_structural   TmMgAg
_chemical_formula_sum   'Tm3 Mg3 Ag3'
_cell_volume   208.24113220
_cell_formula_units_Z   3
loop_
 _symmetry_equiv_pos_site_id
 _symmetry_equiv_pos_as_xyz
  1  'x, y, z'
loop_
 _atom_site_type_symbol
 _atom_site_label
 _atom_site_symmetry_multiplicity
 _atom_site_fract_x
 _atom_site_fract_y
 _atom_site_fract_z
 _atom_site_occupancy
  Tm  Tm0  1  0.00000000  0.41079349  0.41079349  1
  Tm  Tm1  1  0.00000000  0.00000000  0.58920651  1
  Tm  Tm2  1  -0.00000000  0.58920651  0.00000000  1
  Mg  Mg3  1  0.50000000  0.75031412  0.75031412  1
  Mg  Mg4  1  0.50000000  0.00000000  0.24968588  1
  Mg  Mg5  1  0.50000000  0.24968588  0.00000000  1
  Ag  Ag6  1  0.50000000  0.66666700  0.33333300  1
  Ag  Ag7  1  0.50000000  0.33333300  0.66666700  1
  Ag  Ag8  1  -0.00000000  0.00000000  -0.00000000  1
