# generated using pymatgen
data_NdCdPd
_symmetry_space_group_name_H-M   'P 1'
_cell_length_a   4.03694480
_cell_length_b   7.75522667
_cell_length_c   7.75522667
_cell_angle_alpha   119.99999227
_cell_angle_beta   90.00000000
_cell_angle_gamma   90.00000000
_symmetry_Int_Tables_number   1
_chemical_formula_structural   NdCdPd
_chemical_formula_sum   'Nd3 Cd3 Pd3'
_cell_volume   210.26765380
_cell_formula_units_Z   3
loop_
 _symmetry_equiv_pos_site_id
 _symmetry_equiv_pos_as_xyz
  1  'x, y, z'
loop_
 _atom_site_type_symbol
 _atom_site_label
 _atom_site_symmetry_multiplicity
 _atom_site_fract_x
 _atom_site_fract_y
 _atom_site_fract_z
 _atom_site_occupancy
  Nd  Nd0  1  -0.00000000  0.40734975  0.40734975  1
  Nd  Nd1  1  -0.00000000  0.00000000  0.59265025  1
  Nd  Nd2  1  -0.00000000  0.59265025  0.00000000  1
  Cd  Cd3  1  0.50000000  0.74819427  0.74819427  1
  Cd  Cd4  1  0.50000000  0.00000000  0.25180573  1
  Cd  Cd5  1  0.50000000  0.25180573  0.00000000  1
  Pd  Pd6  1  0.50000000  0.66666700  0.33333300  1
  Pd  Pd7  1  0.50000000  0.33333300  0.66666700  1
  Pd  Pd8  1  -0.00000000  -0.00000000  -0.00000000  1
