# generated using pymatgen
data_Tl2NiF4
_symmetry_space_group_name_H-M   'P 1'
_cell_length_a   4.12123821
_cell_length_b   4.12123821
_cell_length_c   7.60351953
_cell_angle_alpha   105.72429258
_cell_angle_beta   105.72429258
_cell_angle_gamma   90.00000000
_symmetry_Int_Tables_number   1
_chemical_formula_structural   Tl2NiF4
_chemical_formula_sum   'Tl2 Ni1 F4'
_cell_volume   119.28127816
_cell_formula_units_Z   1
loop_
 _symmetry_equiv_pos_site_id
 _symmetry_equiv_pos_as_xyz
  1  'x, y, z'
loop_
 _atom_site_type_symbol
 _atom_site_label
 _atom_site_symmetry_multiplicity
 _atom_site_fract_x
 _atom_site_fract_y
 _atom_site_fract_z
 _atom_site_occupancy
  Tl  Tl0  1  0.34956205  0.34956205  0.69912509  1
  Tl  Tl1  1  0.65043795  0.65043795  0.30087491  1
  Ni  Ni2  1  -0.00000000  0.00000000  -0.00000000  1
  F  F3  1  0.14406762  0.14406762  0.28813424  1
  F  F4  1  0.85593238  0.85593238  0.71186576  1
  F  F5  1  -0.00000000  0.50000000  0.00000000  1
  F  F6  1  0.50000000  0.00000000  0.00000000  1
