# generated using pymatgen
data_LuInNi
_symmetry_space_group_name_H-M   'P 1'
_cell_length_a   3.67600579
_cell_length_b   7.40979912
_cell_length_c   7.40979912
_cell_angle_alpha   120.00000086
_cell_angle_beta   90.00000000
_cell_angle_gamma   90.00000000
_symmetry_Int_Tables_number   1
_chemical_formula_structural   LuInNi
_chemical_formula_sum   'Lu3 In3 Ni3'
_cell_volume   174.79124795
_cell_formula_units_Z   3
loop_
 _symmetry_equiv_pos_site_id
 _symmetry_equiv_pos_as_xyz
  1  'x, y, z'
loop_
 _atom_site_type_symbol
 _atom_site_label
 _atom_site_symmetry_multiplicity
 _atom_site_fract_x
 _atom_site_fract_y
 _atom_site_fract_z
 _atom_site_occupancy
  Lu  Lu0  1  -0.00000000  0.41004842  0.41004842  1
  Lu  Lu1  1  0.00000000  1.00000000  0.58995158  1
  Lu  Lu2  1  -0.00000000  0.58995158  1.00000000  1
  In  In3  1  0.50000000  0.74279096  0.74279096  1
  In  In4  1  0.50000000  0.00000000  0.25720904  1
  In  In5  1  0.50000000  0.25720904  0.00000000  1
  Ni  Ni6  1  0.50000000  0.66666700  0.33333300  1
  Ni  Ni7  1  0.50000000  0.33333300  0.66666700  1
  Ni  Ni8  1  -0.00000000  -0.00000000  0.00000000  1
