# generated using pymatgen
data_Y4Si5Ir9
_symmetry_space_group_name_H-M   'P 1'
_cell_length_a   5.55992950
_cell_length_b   5.55992950
_cell_length_c   22.70880461
_cell_angle_alpha   90.00000000
_cell_angle_beta   90.00000000
_cell_angle_gamma   120.00000378
_symmetry_Int_Tables_number   1
_chemical_formula_structural   Y4Si5Ir9
_chemical_formula_sum   'Y8 Si10 Ir18'
_cell_volume   607.94383380
_cell_formula_units_Z   2
loop_
 _symmetry_equiv_pos_site_id
 _symmetry_equiv_pos_as_xyz
  1  'x, y, z'
loop_
 _atom_site_type_symbol
 _atom_site_label
 _atom_site_symmetry_multiplicity
 _atom_site_fract_x
 _atom_site_fract_y
 _atom_site_fract_z
 _atom_site_occupancy
  Y  Y0  1  0.66666700  0.33333300  0.47237894  1
  Y  Y1  1  0.33333300  0.66666700  0.52762106  1
  Y  Y2  1  0.33333300  0.66666700  0.97237894  1
  Y  Y3  1  0.66666700  0.33333300  0.02762106  1
  Y  Y4  1  0.66666700  0.33333300  0.32617023  1
  Y  Y5  1  0.33333300  0.66666700  0.67382977  1
  Y  Y6  1  0.33333300  0.66666700  0.82617023  1
  Y  Y7  1  0.66666700  0.33333300  0.17382977  1
  Si  Si8  1  -0.00000000  -0.00000000  0.00000000  1
  Si  Si9  1  -0.00000000  -0.00000000  0.50000000  1
  Si  Si10  1  0.66666700  0.33333300  0.83185699  1
  Si  Si11  1  0.33333300  0.66666700  0.16814301  1
  Si  Si12  1  0.33333300  0.66666700  0.33185699  1
  Si  Si13  1  0.66666700  0.33333300  0.66814301  1
  Si  Si14  1  -0.00000000  -0.00000000  0.83272330  1
  Si  Si15  1  -0.00000000  -0.00000000  0.16727670  1
  Si  Si16  1  -0.00000000  -0.00000000  0.33272330  1
  Si  Si17  1  -0.00000000  -0.00000000  0.66727670  1
  Ir  Ir18  1  0.83247817  0.16752183  0.91221914  1
  Ir  Ir19  1  0.16752183  0.83247817  0.08778086  1
  Ir  Ir20  1  0.33504366  0.16752183  0.91221914  1
  Ir  Ir21  1  0.16752183  0.83247817  0.41221914  1
  Ir  Ir22  1  0.66495634  0.83247817  0.08778086  1
  Ir  Ir23  1  0.83247817  0.16752183  0.58778086  1
  Ir  Ir24  1  0.83247817  0.66495634  0.91221914  1
  Ir  Ir25  1  0.66495634  0.83247817  0.41221914  1
  Ir  Ir26  1  0.16752183  0.33504366  0.08778086  1
  Ir  Ir27  1  0.33504366  0.16752183  0.58778086  1
  Ir  Ir28  1  0.16752183  0.33504366  0.41221914  1
  Ir  Ir29  1  0.83247817  0.66495634  0.58778086  1
  Ir  Ir30  1  0.83352742  0.16647258  0.75000000  1
  Ir  Ir31  1  0.16647258  0.83352742  0.25000000  1
  Ir  Ir32  1  0.33294516  0.16647258  0.75000000  1
  Ir  Ir33  1  0.66705484  0.83352742  0.25000000  1
  Ir  Ir34  1  0.83352742  0.66705484  0.75000000  1
  Ir  Ir35  1  0.16647258  0.33294516  0.25000000  1
