# generated using pymatgen
data_Yb(Al5Re)2
_symmetry_space_group_name_H-M   'P 1'
_cell_length_a   6.98731686
_cell_length_b   6.98731686
_cell_length_c   27.01470507
_cell_angle_alpha   90.00000000
_cell_angle_beta   90.00000000
_cell_angle_gamma   95.61346578
_symmetry_Int_Tables_number   1
_chemical_formula_structural   Yb(Al5Re)2
_chemical_formula_sum   'Yb6 Al60 Re12'
_cell_volume   1312.60305460
_cell_formula_units_Z   6
loop_
 _symmetry_equiv_pos_site_id
 _symmetry_equiv_pos_as_xyz
  1  'x, y, z'
loop_
 _atom_site_type_symbol
 _atom_site_label
 _atom_site_symmetry_multiplicity
 _atom_site_fract_x
 _atom_site_fract_y
 _atom_site_fract_z
 _atom_site_occupancy
  Yb  Yb0  1  0.87430650  0.12569350  0.91564836  1
  Yb  Yb1  1  0.12569350  0.87430650  0.08435164  1
  Yb  Yb2  1  0.12569350  0.87430650  0.41564836  1
  Yb  Yb3  1  0.87430650  0.12569350  0.58435164  1
  Yb  Yb4  1  0.62078003  0.37921997  0.75000000  1
  Yb  Yb5  1  0.37921997  0.62078003  0.25000000  1
  Al  Al6  1  0.59446828  0.40553172  0.86652943  1
  Al  Al7  1  0.40553172  0.59446828  0.13347057  1
  Al  Al8  1  0.40553172  0.59446828  0.36652943  1
  Al  Al9  1  0.59446828  0.40553172  0.63347057  1
  Al  Al10  1  0.59844369  0.82113156  0.75000000  1
  Al  Al11  1  0.40155631  0.17886844  0.25000000  1
  Al  Al12  1  0.17886844  0.40155631  0.75000000  1
  Al  Al13  1  0.82113156  0.59844369  0.25000000  1
  Al  Al14  1  0.87757110  0.12242890  0.35505426  1
  Al  Al15  1  0.12242890  0.87757110  0.64494574  1
  Al  Al16  1  0.12242890  0.87757110  0.85505426  1
  Al  Al17  1  0.87757110  0.12242890  0.14494574  1
  Al  Al18  1  0.37016485  0.62983515  0.82369593  1
  Al  Al19  1  0.62983515  0.37016485  0.17630407  1
  Al  Al20  1  0.62983515  0.37016485  0.32369593  1
  Al  Al21  1  0.37016485  0.62983515  0.67630407  1
  Al  Al22  1  0.52876697  0.77282748  0.91926919  1
  Al  Al23  1  0.47123303  0.22717252  0.08073081  1
  Al  Al24  1  0.47123303  0.22717252  0.41926919  1
  Al  Al25  1  0.22717252  0.47123303  0.58073081  1
  Al  Al26  1  0.52876697  0.77282748  0.58073081  1
  Al  Al27  1  0.77282748  0.52876697  0.41926919  1
  Al  Al28  1  0.77282748  0.52876697  0.08073081  1
  Al  Al29  1  0.22717252  0.47123303  0.91926919  1
  Al  Al30  1  0.26113834  0.03695058  0.75000000  1
  Al  Al31  1  0.73886166  0.96304942  0.25000000  1
  Al  Al32  1  0.96304942  0.73886166  0.75000000  1
  Al  Al33  1  0.03695058  0.26113834  0.25000000  1
  Al  Al34  1  0.62362754  0.37637246  0.97748017  1
  Al  Al35  1  0.37637246  0.62362754  0.02251983  1
  Al  Al36  1  0.37637246  0.62362754  0.47748017  1
  Al  Al37  1  0.62362754  0.37637246  0.52251983  1
  Al  Al38  1  0.52510137  0.03024149  0.82855075  1
  Al  Al39  1  0.47489863  0.96975851  0.17144925  1
  Al  Al40  1  0.47489863  0.96975851  0.32855075  1
  Al  Al41  1  0.96975851  0.47489863  0.67144925  1
  Al  Al42  1  0.52510137  0.03024149  0.67144925  1
  Al  Al43  1  0.03024149  0.52510137  0.32855075  1
  Al  Al44  1  0.03024149  0.52510137  0.17144925  1
  Al  Al45  1  0.96975851  0.47489863  0.82855075  1
  Al  Al46  1  0.91022759  0.08977241  0.80010613  1
  Al  Al47  1  0.08977241  0.91022759  0.19989387  1
  Al  Al48  1  0.08977241  0.91022759  0.30010613  1
  Al  Al49  1  0.91022759  0.08977241  0.69989387  1
  Al  Al50  1  0.38099275  0.12394094  0.91691779  1
  Al  Al51  1  0.61900725  0.87605906  0.08308221  1
  Al  Al52  1  0.61900725  0.87605906  0.41691779  1
  Al  Al53  1  0.87605906  0.61900725  0.58308221  1
  Al  Al54  1  0.38099275  0.12394094  0.58308221  1
  Al  Al55  1  0.12394094  0.38099275  0.41691779  1
  Al  Al56  1  0.12394094  0.38099275  0.08308221  1
  Al  Al57  1  0.87605906  0.61900725  0.91691779  1
  Al  Al58  1  0.79324984  0.79324984  -0.00000000  1
  Al  Al59  1  0.20675016  0.20675016  -0.00000000  1
  Al  Al60  1  0.20675016  0.20675016  0.50000000  1
  Al  Al61  1  0.79324984  0.79324984  0.50000000  1
  Al  Al62  1  0.83300029  0.16699971  0.46630517  1
  Al  Al63  1  0.16699971  0.83300029  0.53369483  1
  Al  Al64  1  0.16699971  0.83300029  0.96630517  1
  Al  Al65  1  0.83300029  0.16699971  0.03369483  1
  Re  Re66  1  0.74545940  0.74991796  0.83650985  1
  Re  Re67  1  0.25454060  0.25008204  0.16349015  1
  Re  Re68  1  0.25454060  0.25008204  0.33650985  1
  Re  Re69  1  0.25008204  0.25454060  0.66349015  1
  Re  Re70  1  0.74545940  0.74991796  0.66349015  1
  Re  Re71  1  0.74991796  0.74545940  0.33650985  1
  Re  Re72  1  0.74991796  0.74545940  0.16349015  1
  Re  Re73  1  0.25008204  0.25454060  0.83650985  1
  Re  Re74  1  0.50000000  0.00000000  0.00000000  1
  Re  Re75  1  0.50000000  0.00000000  0.50000000  1
  Re  Re76  1  -0.00000000  0.50000000  0.50000000  1
  Re  Re77  1  -0.00000000  0.50000000  -0.00000000  1
