# generated using pymatgen
data_Tm2(Ga3Rh)3
_symmetry_space_group_name_H-M   'P 1'
_cell_length_a   7.55676126
_cell_length_b   7.55676126
_cell_length_c   9.51082712
_cell_angle_alpha   90.00000000
_cell_angle_beta   90.00000000
_cell_angle_gamma   119.92793004
_symmetry_Int_Tables_number   1
_chemical_formula_structural   Tm2(Ga3Rh)3
_chemical_formula_sum   'Tm4 Ga18 Rh6'
_cell_volume   470.69031228
_cell_formula_units_Z   2
loop_
 _symmetry_equiv_pos_site_id
 _symmetry_equiv_pos_as_xyz
  1  'x, y, z'
loop_
 _atom_site_type_symbol
 _atom_site_label
 _atom_site_symmetry_multiplicity
 _atom_site_fract_x
 _atom_site_fract_y
 _atom_site_fract_z
 _atom_site_occupancy
  Tm  Tm0  1  0.66762697  0.99679673  0.25000000  1
  Tm  Tm1  1  0.33237303  0.00320327  0.75000000  1
  Tm  Tm2  1  0.99679673  0.66762697  0.25000000  1
  Tm  Tm3  1  0.00320327  0.33237303  0.75000000  1
  Ga  Ga4  1  0.12426633  0.12426633  0.25000000  1
  Ga  Ga5  1  0.87573367  0.87573367  0.75000000  1
  Ga  Ga6  1  0.33398881  0.99967165  0.07878321  1
  Ga  Ga7  1  0.66601119  0.00032835  0.92121679  1
  Ga  Ga8  1  0.66601119  0.00032835  0.57878321  1
  Ga  Ga9  1  0.99967165  0.33398881  0.42121679  1
  Ga  Ga10  1  0.33398881  0.99967165  0.42121679  1
  Ga  Ga11  1  0.00032835  0.66601119  0.57878321  1
  Ga  Ga12  1  0.00032835  0.66601119  0.92121679  1
  Ga  Ga13  1  0.99967165  0.33398881  0.07878321  1
  Ga  Ga14  1  0.33303489  0.33303489  0.56357374  1
  Ga  Ga15  1  0.66696511  0.66696511  0.43642626  1
  Ga  Ga16  1  0.66696511  0.66696511  0.06357374  1
  Ga  Ga17  1  0.33303489  0.33303489  0.93642626  1
  Ga  Ga18  1  0.54780409  0.33781265  0.25000000  1
  Ga  Ga19  1  0.45219591  0.66218735  0.75000000  1
  Ga  Ga20  1  0.33781265  0.54780409  0.25000000  1
  Ga  Ga21  1  0.66218735  0.45219591  0.75000000  1
  Rh  Rh22  1  0.32828876  0.67171124  0.00000000  1
  Rh  Rh23  1  0.67171124  0.32828876  0.00000000  1
  Rh  Rh24  1  0.67171124  0.32828876  0.50000000  1
  Rh  Rh25  1  0.32828876  0.67171124  0.50000000  1
  Rh  Rh26  1  -0.00000000  0.00000000  0.00000000  1
  Rh  Rh27  1  -0.00000000  0.00000000  0.50000000  1
