# generated using pymatgen
data_Y4MgPt
_symmetry_space_group_name_H-M   'P 1'
_cell_length_a   9.80696020
_cell_length_b   9.80696020
_cell_length_c   9.80696020
_cell_angle_alpha   60.00000000
_cell_angle_beta   60.00000000
_cell_angle_gamma   60.00000000
_symmetry_Int_Tables_number   1
_chemical_formula_structural   Y4MgPt
_chemical_formula_sum   'Y16 Mg4 Pt4'
_cell_volume   666.94226560
_cell_formula_units_Z   4
loop_
 _symmetry_equiv_pos_site_id
 _symmetry_equiv_pos_as_xyz
  1  'x, y, z'
loop_
 _atom_site_type_symbol
 _atom_site_label
 _atom_site_symmetry_multiplicity
 _atom_site_fract_x
 _atom_site_fract_y
 _atom_site_fract_z
 _atom_site_occupancy
  Y  Y0  1  0.65022723  0.65022723  0.65022723  1
  Y  Y1  1  0.04931830  0.65022723  0.65022723  1
  Y  Y2  1  0.65022723  0.04931830  0.65022723  1
  Y  Y3  1  0.65022723  0.65022723  0.04931830  1
  Y  Y4  1  0.81157314  0.81157314  0.18842686  1
  Y  Y5  1  0.18842686  0.18842686  0.81157314  1
  Y  Y6  1  0.81157314  0.18842686  0.81157314  1
  Y  Y7  1  0.18842686  0.81157314  0.18842686  1
  Y  Y8  1  0.18842686  0.81157314  0.81157314  1
  Y  Y9  1  0.81157314  0.18842686  0.18842686  1
  Y  Y10  1  0.43439104  0.43439104  0.06560896  1
  Y  Y11  1  0.06560896  0.06560896  0.43439104  1
  Y  Y12  1  0.43439104  0.06560896  0.43439104  1
  Y  Y13  1  0.06560896  0.43439104  0.06560896  1
  Y  Y14  1  0.06560896  0.43439104  0.43439104  1
  Y  Y15  1  0.43439104  0.06560896  0.06560896  1
  Mg  Mg16  1  0.41984551  0.41984551  0.41984551  1
  Mg  Mg17  1  0.74046346  0.41984551  0.41984551  1
  Mg  Mg18  1  0.41984551  0.74046346  0.41984551  1
  Mg  Mg19  1  0.41984551  0.41984551  0.74046346  1
  Pt  Pt20  1  0.85752137  0.85752137  0.85752137  1
  Pt  Pt21  1  0.42743588  0.85752137  0.85752137  1
  Pt  Pt22  1  0.85752137  0.42743588  0.85752137  1
  Pt  Pt23  1  0.85752137  0.85752137  0.42743588  1
