# generated using pymatgen
data_UNbN2
_symmetry_space_group_name_H-M   'P 1'
_cell_length_a   3.24081798
_cell_length_b   5.67171143
_cell_length_c   11.06197932
_cell_angle_alpha   90.00000000
_cell_angle_beta   90.00000000
_cell_angle_gamma   90.00000000
_symmetry_Int_Tables_number   1
_chemical_formula_structural   UNbN2
_chemical_formula_sum   'U4 Nb4 N8'
_cell_volume   203.33006909
_cell_formula_units_Z   4
loop_
 _symmetry_equiv_pos_site_id
 _symmetry_equiv_pos_as_xyz
  1  'x, y, z'
loop_
 _atom_site_type_symbol
 _atom_site_label
 _atom_site_symmetry_multiplicity
 _atom_site_fract_x
 _atom_site_fract_y
 _atom_site_fract_z
 _atom_site_occupancy
  U  U0  1  0.75000000  0.92257302  0.64408128  1
  U  U1  1  0.25000000  0.07742698  0.35591872  1
  U  U2  1  0.25000000  0.57742698  0.14408128  1
  U  U3  1  0.75000000  0.42257302  0.85591872  1
  Nb  Nb4  1  0.75000000  0.57593806  0.39986501  1
  Nb  Nb5  1  0.25000000  0.42406194  0.60013499  1
  Nb  Nb6  1  0.25000000  0.92406194  0.89986501  1
  Nb  Nb7  1  0.75000000  0.07593806  0.10013499  1
  N  N8  1  0.75000000  0.83895300  0.25555926  1
  N  N9  1  0.25000000  0.16104700  0.74444074  1
  N  N10  1  0.25000000  0.66104700  0.75555926  1
  N  N11  1  0.75000000  0.33895300  0.24444074  1
  N  N12  1  0.75000000  0.73225415  0.99700795  1
  N  N13  1  0.25000000  0.26774585  0.00299205  1
  N  N14  1  0.25000000  0.76774585  0.49700795  1
  N  N15  1  0.75000000  0.23225415  0.50299205  1
