# generated using pymatgen
data_Th2Al8Si2Au5
_symmetry_space_group_name_H-M   'P 1'
_cell_length_a   4.29554738
_cell_length_b   4.29830942
_cell_length_c   18.01555886
_cell_angle_alpha   96.85138032
_cell_angle_beta   90.00000000
_cell_angle_gamma   90.00000000
_symmetry_Int_Tables_number   1
_chemical_formula_structural   Th2Al8Si2Au5
_chemical_formula_sum   'Th2 Al8 Si2 Au5'
_cell_volume   330.25657616
_cell_formula_units_Z   1
loop_
 _symmetry_equiv_pos_site_id
 _symmetry_equiv_pos_as_xyz
  1  'x, y, z'
loop_
 _atom_site_type_symbol
 _atom_site_label
 _atom_site_symmetry_multiplicity
 _atom_site_fract_x
 _atom_site_fract_y
 _atom_site_fract_z
 _atom_site_occupancy
  Th  Th0  1  0.50000000  0.29844898  0.59689796  1
  Th  Th1  1  0.50000000  0.70155102  0.40310204  1
  Al  Al2  1  0.00000000  0.37509489  0.75018977  1
  Al  Al3  1  0.00000000  0.62490511  0.24981023  1
  Al  Al4  1  0.50000000  0.12498186  0.24996372  1
  Al  Al5  1  0.50000000  0.87501814  0.75003628  1
  Al  Al6  1  0.50000000  0.04171031  0.08342063  1
  Al  Al7  1  0.50000000  0.95828969  0.91657937  1
  Al  Al8  1  -0.00000000  0.45810027  0.91620054  1
  Al  Al9  1  0.00000000  0.54189973  0.08379946  1
  Si  Si10  1  0.00000000  0.23425157  0.46850315  1
  Si  Si11  1  -0.00000000  0.76574843  0.53149685  1
  Au  Au12  1  -0.00000000  0.16538501  0.33077001  1
  Au  Au13  1  0.00000000  0.83461499  0.66922999  1
  Au  Au14  1  -0.00000000  -0.00000000  -0.00000000  1
  Au  Au15  1  0.50000000  0.41659614  0.83319228  1
  Au  Au16  1  0.50000000  0.58340386  0.16680772  1
