# generated using pymatgen
data_Ti3TlSi2P6O25
_symmetry_space_group_name_H-M   'P 1'
_cell_length_a   8.35114382
_cell_length_b   8.35114382
_cell_length_c   17.39038113
_cell_angle_alpha   90.00000000
_cell_angle_beta   90.00000000
_cell_angle_gamma   119.99999890
_symmetry_Int_Tables_number   1
_chemical_formula_structural   Ti3TlSi2P6O25
_chemical_formula_sum   'Ti6 Tl2 Si4 P12 O50'
_cell_volume   1050.34425124
_cell_formula_units_Z   2
loop_
 _symmetry_equiv_pos_site_id
 _symmetry_equiv_pos_as_xyz
  1  'x, y, z'
loop_
 _atom_site_type_symbol
 _atom_site_label
 _atom_site_symmetry_multiplicity
 _atom_site_fract_x
 _atom_site_fract_y
 _atom_site_fract_z
 _atom_site_occupancy
  Ti  Ti0  1  0.33333300  0.66666700  0.75000000  1
  Ti  Ti1  1  0.66666700  0.33333300  0.25000000  1
  Ti  Ti2  1  0.66666700  0.33333300  0.97649879  1
  Ti  Ti3  1  0.33333300  0.66666700  0.02350121  1
  Ti  Ti4  1  0.66666700  0.33333300  0.52350121  1
  Ti  Ti5  1  0.33333300  0.66666700  0.47649879  1
  Tl  Tl6  1  0.66666700  0.33333300  0.75000000  1
  Tl  Tl7  1  0.33333300  0.66666700  0.25000000  1
  Si  Si8  1  0.00000000  0.00000000  0.90807526  1
  Si  Si9  1  0.00000000  0.00000000  0.09192474  1
  Si  Si10  1  0.00000000  0.00000000  0.59192474  1
  Si  Si11  1  0.00000000  0.00000000  0.40807526  1
  P  P12  1  0.61747429  0.66780978  0.89040434  1
  P  P13  1  0.38252571  0.33219022  0.10959566  1
  P  P14  1  0.05033549  0.38252571  0.89040434  1
  P  P15  1  0.05033549  0.66780978  0.60959566  1
  P  P16  1  0.94966451  0.61747429  0.10959566  1
  P  P17  1  0.94966451  0.33219022  0.39040434  1
  P  P18  1  0.33219022  0.94966451  0.89040434  1
  P  P19  1  0.33219022  0.38252571  0.60959566  1
  P  P20  1  0.66780978  0.05033549  0.10959566  1
  P  P21  1  0.66780978  0.61747429  0.39040434  1
  P  P22  1  0.61747429  0.94966451  0.60959566  1
  P  P23  1  0.38252571  0.05033549  0.39040434  1
  O  O24  1  0.97093626  0.16673501  0.87504588  1
  O  O25  1  0.02906374  0.83326499  0.12495412  1
  O  O26  1  0.19579874  0.02906374  0.87504588  1
  O  O27  1  0.19579874  0.16673501  0.62495412  1
  O  O28  1  0.80420126  0.97093626  0.12495412  1
  O  O29  1  0.80420126  0.83326499  0.37504588  1
  O  O30  1  0.83326499  0.80420126  0.87504588  1
  O  O31  1  0.83326499  0.02906374  0.62495412  1
  O  O32  1  0.16673501  0.19579874  0.12495412  1
  O  O33  1  0.16673501  0.97093626  0.37504588  1
  O  O34  1  0.97093626  0.80420126  0.62495412  1
  O  O35  1  0.02906374  0.19579874  0.37504588  1
  O  O36  1  0.52463484  0.66071796  0.81404455  1
  O  O37  1  0.47536516  0.33928204  0.18595545  1
  O  O38  1  0.13608312  0.47536516  0.81404455  1
  O  O39  1  0.13608312  0.66071796  0.68595545  1
  O  O40  1  0.86391688  0.52463484  0.18595545  1
  O  O41  1  0.86391688  0.33928204  0.31404455  1
  O  O42  1  0.33928204  0.86391688  0.81404455  1
  O  O43  1  0.33928204  0.47536516  0.68595545  1
  O  O44  1  0.66071796  0.13608312  0.18595545  1
  O  O45  1  0.66071796  0.52463484  0.31404455  1
  O  O46  1  0.52463484  0.86391688  0.68595545  1
  O  O47  1  0.47536516  0.13608312  0.31404455  1
  O  O48  1  0.88204084  0.40405110  0.90804672  1
  O  O49  1  0.11795916  0.59594890  0.09195328  1
  O  O50  1  0.52201026  0.11795916  0.90804672  1
  O  O51  1  0.52201026  0.40405110  0.59195328  1
  O  O52  1  0.47798974  0.88204084  0.09195328  1
  O  O53  1  0.47798974  0.59594890  0.40804672  1
  O  O54  1  0.59594890  0.47798974  0.90804672  1
  O  O55  1  0.59594890  0.11795916  0.59195328  1
  O  O56  1  0.40405110  0.52201026  0.09195328  1
  O  O57  1  0.40405110  0.88204084  0.40804672  1
  O  O58  1  0.88204084  0.47798974  0.59195328  1
  O  O59  1  0.11795916  0.52201026  0.40804672  1
  O  O60  1  0.55553301  0.74450539  0.95677095  1
  O  O61  1  0.44446699  0.25549461  0.04322905  1
  O  O62  1  0.18897238  0.44446699  0.95677095  1
  O  O63  1  0.18897238  0.74450539  0.54322905  1
  O  O64  1  0.81102762  0.55553301  0.04322905  1
  O  O65  1  0.81102762  0.25549461  0.45677095  1
  O  O66  1  0.25549461  0.81102762  0.95677095  1
  O  O67  1  0.25549461  0.44446699  0.54322905  1
  O  O68  1  0.74450539  0.18897238  0.04322905  1
  O  O69  1  0.74450539  0.55553301  0.45677095  1
  O  O70  1  0.55553301  0.81102762  0.54322905  1
  O  O71  1  0.44446699  0.18897238  0.45677095  1
  O  O72  1  0.00000000  0.00000000  0.00000000  1
  O  O73  1  0.00000000  0.00000000  0.50000000  1
