# generated using pymatgen
data_YSbO4
_symmetry_space_group_name_H-M   'P 1'
_cell_length_a   5.41713675
_cell_length_b   7.68809344
_cell_length_c   7.59004979
_cell_angle_alpha   80.83763140
_cell_angle_beta   90.40806819
_cell_angle_gamma   91.97166681
_symmetry_Int_Tables_number   1
_chemical_formula_structural   YSbO4
_chemical_formula_sum   'Y4 Sb4 O16'
_cell_volume   311.88787416
_cell_formula_units_Z   4
loop_
 _symmetry_equiv_pos_site_id
 _symmetry_equiv_pos_as_xyz
  1  'x, y, z'
loop_
 _atom_site_type_symbol
 _atom_site_label
 _atom_site_symmetry_multiplicity
 _atom_site_fract_x
 _atom_site_fract_y
 _atom_site_fract_z
 _atom_site_occupancy
  Y  Y0  1  0.26209300  0.13470292  0.61295569  1
  Y  Y1  1  0.73790700  0.86529708  0.38704431  1
  Y  Y2  1  0.21435346  0.15853950  0.10820147  1
  Y  Y3  1  0.78564654  0.84146050  0.89179853  1
  Sb  Sb4  1  0.24241442  0.66261163  0.19621787  1
  Sb  Sb5  1  0.75758558  0.33738837  0.80378213  1
  Sb  Sb6  1  0.72745329  0.33434482  0.30693426  1
  Sb  Sb7  1  0.27254671  0.66565518  0.69306574  1
  O  O8  1  0.08305657  0.43818316  0.69070649  1
  O  O9  1  0.91694343  0.56181684  0.30929351  1
  O  O10  1  0.61082936  0.32546807  0.55847466  1
  O  O11  1  0.38917064  0.67453193  0.44152534  1
  O  O12  1  0.87003702  0.32869527  0.05954463  1
  O  O13  1  0.12996298  0.67130473  0.94045537  1
  O  O14  1  0.40399283  0.43108665  0.19461481  1
  O  O15  1  0.59600717  0.56891335  0.80538519  1
  O  O16  1  0.04593501  0.88447359  0.17779159  1
  O  O17  1  0.95406499  0.11552641  0.82220841  1
  O  O18  1  0.51265052  0.11129665  0.32136206  1
  O  O19  1  0.48734948  0.88870335  0.67863794  1
  O  O20  1  0.46261557  0.18956198  0.87561616  1
  O  O21  1  0.53738443  0.81043802  0.12438384  1
  O  O22  1  0.99538190  0.16845109  0.37953384  1
  O  O23  1  0.00461810  0.83154891  0.62046616  1
