# generated using pymatgen
data_Y3NiGe2
_symmetry_space_group_name_H-M   'P 1'
_cell_length_a   4.16626881
_cell_length_b   11.38624430
_cell_length_c   11.32844215
_cell_angle_alpha   90.00000000
_cell_angle_beta   90.00000000
_cell_angle_gamma   90.00000000
_symmetry_Int_Tables_number   1
_chemical_formula_structural   Y3NiGe2
_chemical_formula_sum   'Y12 Ni4 Ge8'
_cell_volume   537.40038884
_cell_formula_units_Z   4
loop_
 _symmetry_equiv_pos_site_id
 _symmetry_equiv_pos_as_xyz
  1  'x, y, z'
loop_
 _atom_site_type_symbol
 _atom_site_label
 _atom_site_symmetry_multiplicity
 _atom_site_fract_x
 _atom_site_fract_y
 _atom_site_fract_z
 _atom_site_occupancy
  Y  Y0  1  0.75000000  0.94160371  0.62618856  1
  Y  Y1  1  0.25000000  0.05839629  0.37381144  1
  Y  Y2  1  0.25000000  0.55839629  0.12618856  1
  Y  Y3  1  0.75000000  0.44160371  0.87381144  1
  Y  Y4  1  0.75000000  0.78417077  0.30374347  1
  Y  Y5  1  0.25000000  0.21582923  0.69625653  1
  Y  Y6  1  0.25000000  0.71582923  0.80374347  1
  Y  Y7  1  0.75000000  0.28417077  0.19625653  1
  Y  Y8  1  0.75000000  0.61770900  0.55924438  1
  Y  Y9  1  0.25000000  0.38229100  0.44075562  1
  Y  Y10  1  0.25000000  0.88229100  0.05924438  1
  Y  Y11  1  0.75000000  0.11770900  0.94075562  1
  Ni  Ni12  1  0.75000000  0.86910851  0.86641708  1
  Ni  Ni13  1  0.25000000  0.13089149  0.13358292  1
  Ni  Ni14  1  0.25000000  0.63089149  0.36641708  1
  Ni  Ni15  1  0.75000000  0.36910851  0.63358292  1
  Ge  Ge16  1  0.75000000  0.52165165  0.31263496  1
  Ge  Ge17  1  0.25000000  0.47834835  0.68736504  1
  Ge  Ge18  1  0.25000000  0.97834835  0.81263496  1
  Ge  Ge19  1  0.75000000  0.02165165  0.18736504  1
  Ge  Ge20  1  0.75000000  0.69391138  0.99662750  1
  Ge  Ge21  1  0.25000000  0.30608862  0.00337250  1
  Ge  Ge22  1  0.25000000  0.80608862  0.49662750  1
  Ge  Ge23  1  0.75000000  0.19391138  0.50337250  1
