# generated using pymatgen
data_Yb12Ga19Au25
_symmetry_space_group_name_H-M   'P 1'
_cell_length_a   4.57136526
_cell_length_b   13.25564120
_cell_length_c   18.52860457
_cell_angle_alpha   90.00000000
_cell_angle_beta   90.00000000
_cell_angle_gamma   90.00000000
_symmetry_Int_Tables_number   1
_chemical_formula_structural   Yb12Ga19Au25
_chemical_formula_sum   'Yb12 Ga19 Au25'
_cell_volume   1122.76632042
_cell_formula_units_Z   1
loop_
 _symmetry_equiv_pos_site_id
 _symmetry_equiv_pos_as_xyz
  1  'x, y, z'
loop_
 _atom_site_type_symbol
 _atom_site_label
 _atom_site_symmetry_multiplicity
 _atom_site_fract_x
 _atom_site_fract_y
 _atom_site_fract_z
 _atom_site_occupancy
  Yb  Yb0  1  -0.00000000  0.29329060  0.24634770  1
  Yb  Yb1  1  -0.00000000  0.70670940  0.24634770  1
  Yb  Yb2  1  0.00000000  -0.00000000  0.26038537  1
  Yb  Yb3  1  0.50000000  0.50000000  0.50513164  1
  Yb  Yb4  1  0.50000000  0.50000000  0.00769335  1
  Yb  Yb5  1  0.50000000  0.20704788  0.50985560  1
  Yb  Yb6  1  0.50000000  0.79295212  0.50985560  1
  Yb  Yb7  1  0.50000000  0.20234022  0.00627153  1
  Yb  Yb8  1  0.50000000  0.79765978  0.00627153  1
  Yb  Yb9  1  0.00000000  -0.00000000  0.75328805  1
  Yb  Yb10  1  0.00000000  0.29801166  0.74835199  1
  Yb  Yb11  1  0.00000000  0.70198834  0.74835199  1
  Ga  Ga12  1  0.50000000  -0.00000000  0.91526162  1
  Ga  Ga13  1  -0.00000000  0.32588156  0.07337484  1
  Ga  Ga14  1  -0.00000000  0.67411844  0.07337484  1
  Ga  Ga15  1  -0.00000000  0.14807052  0.89831355  1
  Ga  Ga16  1  -0.00000000  0.85192948  0.89831355  1
  Ga  Ga17  1  0.50000000  0.50000000  0.24514072  1
  Ga  Ga18  1  0.50000000  0.16647954  0.68050714  1
  Ga  Ga19  1  0.50000000  0.83352046  0.68050714  1
  Ga  Ga20  1  0.50000000  0.16636796  0.32942903  1
  Ga  Ga21  1  0.50000000  0.83363204  0.32942903  1
  Ga  Ga22  1  0.50000000  -0.00000000  0.09137054  1
  Ga  Ga23  1  -0.00000000  0.13870448  0.11437485  1
  Ga  Ga24  1  0.00000000  0.86129552  0.11437485  1
  Ga  Ga25  1  0.00000000  -0.00000000  0.50861864  1
  Ga  Ga26  1  0.50000000  0.34808679  0.86143234  1
  Ga  Ga27  1  0.50000000  0.65191321  0.86143234  1
  Ga  Ga28  1  -0.00000000  0.50000000  0.84584708  1
  Ga  Ga29  1  0.00000000  0.33210915  0.42109726  1
  Ga  Ga30  1  0.00000000  0.66789085  0.42109726  1
  Au  Au31  1  -0.00000000  0.34816364  0.93572129  1
  Au  Au32  1  0.00000000  0.65183636  0.93572129  1
  Au  Au33  1  0.50000000  0.14236525  0.19212846  1
  Au  Au34  1  0.50000000  0.85763475  0.19212846  1
  Au  Au35  1  0.50000000  0.15214748  0.81995344  1
  Au  Au36  1  0.50000000  0.84785252  0.81995344  1
  Au  Au37  1  0.50000000  0.36561896  0.35506567  1
  Au  Au38  1  0.50000000  0.63438104  0.35506567  1
  Au  Au39  1  0.50000000  0.36052435  0.14003104  1
  Au  Au40  1  0.50000000  0.63947565  0.14003104  1
  Au  Au41  1  0.00000000  0.50000000  0.15742179  1
  Au  Au42  1  0.50000000  0.50000000  0.76972987  1
  Au  Au43  1  0.50000000  0.36441847  0.64661365  1
  Au  Au44  1  0.50000000  0.63558153  0.64661365  1
  Au  Au45  1  0.00000000  0.50000000  0.33951321  1
  Au  Au46  1  0.50000000  -0.00000000  0.41477157  1
  Au  Au47  1  0.00000000  0.13525040  0.39966193  1
  Au  Au48  1  -0.00000000  0.86474960  0.39966193  1
  Au  Au49  1  0.00000000  0.13511920  0.61881953  1
  Au  Au50  1  -0.00000000  0.86488080  0.61881953  1
  Au  Au51  1  0.00000000  0.34784046  0.55680492  1
  Au  Au52  1  -0.00000000  0.65215954  0.55680492  1
  Au  Au53  1  0.00000000  0.50000000  0.66727211  1
  Au  Au54  1  0.00000000  -0.00000000  0.00296723  1
  Au  Au55  1  0.50000000  -0.00000000  0.59237568  1
