# generated using pymatgen
data_Li10Ti3Mn5O16
_symmetry_space_group_name_H-M   'P 1'
_cell_length_a   6.24536064
_cell_length_b   6.22191522
_cell_length_c   10.10876330
_cell_angle_alpha   88.28666549
_cell_angle_beta   88.14456067
_cell_angle_gamma   57.87033290
_symmetry_Int_Tables_number   1
_chemical_formula_structural   Li10Ti3Mn5O16
_chemical_formula_sum   'Li10 Ti3 Mn5 O16'
_cell_volume   332.43590319
_cell_formula_units_Z   1
loop_
 _symmetry_equiv_pos_site_id
 _symmetry_equiv_pos_as_xyz
  1  'x, y, z'
loop_
 _atom_site_type_symbol
 _atom_site_label
 _atom_site_symmetry_multiplicity
 _atom_site_fract_x
 _atom_site_fract_y
 _atom_site_fract_z
 _atom_site_occupancy
  Li  Li0  1  0.18095654  0.18990921  0.56161811  1
  Li  Li1  1  0.57937375  0.16298447  0.54690144  1
  Li  Li2  1  0.31576158  0.32552445  0.77795365  1
  Li  Li3  1  0.82206546  0.36409647  0.07657569  1
  Li  Li4  1  0.14226344  0.60384122  0.54680103  1
  Li  Li5  1  0.64331593  0.65899769  0.26901267  1
  Li  Li6  1  0.35428663  0.83366414  0.07506858  1
  Li  Li7  1  0.76251134  0.77791800  0.05284569  1
  Li  Li8  1  0.97488039  0.98022948  0.99114965  1
  Li  Li9  1  0.99256332  0.01920125  0.48583882  1
  Ti  Ti10  1  0.16464131  0.18106784  0.29036545  1
  Ti  Ti11  1  0.83698454  0.31741259  0.79158496  1
  Ti  Ti12  1  0.33042924  0.80439739  0.78087003  1
  Mn  Mn13  1  0.34451307  0.35510172  0.03592516  1
  Mn  Mn14  1  0.65695227  0.67160266  0.52006401  1
  Mn  Mn15  1  0.65957367  0.16861452  0.28579802  1
  Mn  Mn16  1  0.15199643  0.67675727  0.28584787  1
  Mn  Mn17  1  0.81198338  0.83106272  0.78016076  1
  O  O18  1  0.01702140  0.02933873  0.17053173  1
  O  O19  1  0.12338097  0.14840607  0.89713803  1
  O  O20  1  0.47889151  0.01689581  0.16521470  1
  O  O21  1  0.30735757  0.32756572  0.40998295  1
  O  O22  1  0.00358663  0.49393654  0.16388175  1
  O  O23  1  0.66702571  0.17003976  0.89600957  1
  O  O24  1  0.49327405  0.50720779  0.16261683  1
  O  O25  1  0.85428352  0.33683011  0.39839876  1
  O  O26  1  0.15999885  0.67510883  0.89407188  1
  O  O27  1  0.48693337  0.51190436  0.67284727  1
  O  O28  1  0.31521702  0.87523796  0.40142364  1
  O  O29  1  0.96979801  0.48230420  0.67477683  1
  O  O30  1  0.63233434  0.64978785  0.89665736  1
  O  O31  1  0.46761453  0.98486211  0.67561135  1
  O  O32  1  0.83680265  0.85789681  0.43415105  1
  O  O33  1  0.00312760  0.01522223  0.67500172  1
