# generated using pymatgen
data_SiH14(OF)6
_symmetry_space_group_name_H-M   'P 1'
_cell_length_a   5.77066398
_cell_length_b   6.21393701
_cell_length_c   14.02242498
_cell_angle_alpha   90.00000000
_cell_angle_beta   90.00000000
_cell_angle_gamma   109.86038387
_symmetry_Int_Tables_number   1
_chemical_formula_structural   SiH14(OF)6
_chemical_formula_sum   'Si2 H28 O12 F12'
_cell_volume   472.91740170
_cell_formula_units_Z   2
loop_
 _symmetry_equiv_pos_site_id
 _symmetry_equiv_pos_as_xyz
  1  'x, y, z'
loop_
 _atom_site_type_symbol
 _atom_site_label
 _atom_site_symmetry_multiplicity
 _atom_site_fract_x
 _atom_site_fract_y
 _atom_site_fract_z
 _atom_site_occupancy
  Si  Si0  1  -0.00000000  -0.00000000  -0.00000000  1
  Si  Si1  1  -0.00000000  0.50000000  0.50000000  1
  H  H2  1  0.88152700  0.99725393  0.28891053  1
  H  H3  1  0.11847300  0.00274607  0.71108947  1
  H  H4  1  0.11847300  0.50274607  0.78891053  1
  H  H5  1  0.88152700  0.49725393  0.21108947  1
  H  H6  1  0.43837710  0.57264546  0.84906421  1
  H  H7  1  0.56162290  0.42735454  0.15093579  1
  H  H8  1  0.56162290  0.92735454  0.34906421  1
  H  H9  1  0.43837710  0.07264546  0.65093579  1
  H  H10  1  0.72096188  0.99578853  0.55841736  1
  H  H11  1  0.27903812  0.00421147  0.44158264  1
  H  H12  1  0.27903812  0.50421147  0.05841736  1
  H  H13  1  0.72096188  0.49578853  0.94158264  1
  H  H14  1  0.80648460  0.87931145  0.68700119  1
  H  H15  1  0.19351540  0.12068855  0.31299881  1
  H  H16  1  0.19351540  0.62068855  0.18700119  1
  H  H17  1  0.80648460  0.37931145  0.81299881  1
  H  H18  1  0.31865684  0.76841132  0.86237878  1
  H  H19  1  0.68134316  0.23158868  0.13762122  1
  H  H20  1  0.68134316  0.73158868  0.36237878  1
  H  H21  1  0.31865684  0.26841132  0.63762122  1
  H  H22  1  0.50637456  0.76204426  0.58886216  1
  H  H23  1  0.49362544  0.23795574  0.41113784  1
  H  H24  1  0.49362544  0.73795574  0.08886216  1
  H  H25  1  0.50637456  0.26204426  0.91113784  1
  H  H26  1  0.89717394  0.92102495  0.79950253  1
  H  H27  1  0.10282606  0.07897505  0.20049747  1
  H  H28  1  0.10282606  0.57897505  0.29950253  1
  H  H29  1  0.89717394  0.42102495  0.70049747  1
  O  O30  1  0.94190115  0.87782874  0.73452424  1
  O  O31  1  0.05809885  0.12217126  0.26547576  1
  O  O32  1  0.05809885  0.62217126  0.23452424  1
  O  O33  1  0.94190115  0.37782874  0.76547576  1
  O  O34  1  0.61707867  0.91263751  0.61193748  1
  O  O35  1  0.38292133  0.08736249  0.38806252  1
  O  O36  1  0.38292133  0.58736249  0.11193748  1
  O  O37  1  0.61707867  0.41263751  0.88806252  1
  O  O38  1  0.33881009  0.65529457  0.81686318  1
  O  O39  1  0.66118991  0.34470543  0.18313682  1
  O  O40  1  0.66118991  0.84470543  0.31686318  1
  O  O41  1  0.33881009  0.15529457  0.68313682  1
  F  F42  1  0.24339427  0.99378630  0.92836903  1
  F  F43  1  0.75660573  0.00621370  0.07163097  1
  F  F44  1  0.75660573  0.50621370  0.42836903  1
  F  F45  1  0.24339427  0.49378630  0.57163097  1
  F  F46  1  0.81196703  0.95699837  0.90152946  1
  F  F47  1  0.18803297  0.04300163  0.09847054  1
  F  F48  1  0.18803297  0.54300163  0.40152946  1
  F  F49  1  0.81196703  0.45699837  0.59847054  1
  F  F50  1  0.91348379  0.21030615  0.48364529  1
  F  F51  1  0.08651621  0.78969385  0.51635471  1
  F  F52  1  0.08651621  0.28969385  0.98364529  1
  F  F53  1  0.91348379  0.71030615  0.01635471  1
