# generated using pymatgen
data_Sc4Mn4Si7
_symmetry_space_group_name_H-M   'P 1'
_cell_length_a   5.08374034
_cell_length_b   9.62961337
_cell_length_c   9.62961337
_cell_angle_alpha   86.00456844
_cell_angle_beta   74.69460414
_cell_angle_gamma   74.69460414
_symmetry_Int_Tables_number   1
_chemical_formula_structural   Sc4Mn4Si7
_chemical_formula_sum   'Sc8 Mn8 Si14'
_cell_volume   438.56588913
_cell_formula_units_Z   2
loop_
 _symmetry_equiv_pos_site_id
 _symmetry_equiv_pos_as_xyz
  1  'x, y, z'
loop_
 _atom_site_type_symbol
 _atom_site_label
 _atom_site_symmetry_multiplicity
 _atom_site_fract_x
 _atom_site_fract_y
 _atom_site_fract_z
 _atom_site_occupancy
  Sc  Sc0  1  0.19856817  0.80143183  0.80143183  1
  Sc  Sc1  1  0.80143183  0.19856817  0.19856817  1
  Sc  Sc2  1  0.00000000  0.19856817  0.80143183  1
  Sc  Sc3  1  -0.00000000  0.80143183  0.19856817  1
  Sc  Sc4  1  0.36042856  0.00000000  0.27914288  1
  Sc  Sc5  1  0.63957144  -0.00000000  0.72085712  1
  Sc  Sc6  1  0.63957144  0.72085712  0.00000000  1
  Sc  Sc7  1  0.36042856  0.27914288  -0.00000000  1
  Mn  Mn8  1  0.39758959  0.50000000  0.20482081  1
  Mn  Mn9  1  0.60241041  0.50000000  0.79517919  1
  Mn  Mn10  1  0.10241041  0.50000000  0.79517919  1
  Mn  Mn11  1  0.60241041  0.79517919  0.50000000  1
  Mn  Mn12  1  0.89758959  0.50000000  0.20482081  1
  Mn  Mn13  1  0.39758959  0.20482081  0.50000000  1
  Mn  Mn14  1  0.89758959  0.20482081  0.50000000  1
  Mn  Mn15  1  0.10241041  0.79517919  0.50000000  1
  Si  Si16  1  0.40975515  0.59024485  0.59024485  1
  Si  Si17  1  0.59024485  0.40975515  0.40975515  1
  Si  Si18  1  -0.00000000  0.40975515  0.59024485  1
  Si  Si19  1  0.00000000  0.59024485  0.40975515  1
  Si  Si20  1  0.25009188  -0.00000000  0.00000000  1
  Si  Si21  1  0.74990812  -0.00000000  0.00000000  1
  Si  Si22  1  0.20236406  0.29763594  0.29763594  1
  Si  Si23  1  0.79763594  0.70236406  0.70236406  1
  Si  Si24  1  0.50000000  0.70236406  0.29763594  1
  Si  Si25  1  0.50000000  0.29763594  0.70236406  1
  Si  Si26  1  0.21002265  -0.00000000  0.57995470  1
  Si  Si27  1  0.78997735  0.00000000  0.42004530  1
  Si  Si28  1  0.78997735  0.42004530  -0.00000000  1
  Si  Si29  1  0.21002265  0.57995470  -0.00000000  1
