# generated using pymatgen
data_Sm12(OsC3)5
_symmetry_space_group_name_H-M   'P 1'
_cell_length_a   5.25154378
_cell_length_b   10.88149941
_cell_length_c   10.88149941
_cell_angle_alpha   120.00000288
_cell_angle_beta   90.00000000
_cell_angle_gamma   90.00000000
_symmetry_Int_Tables_number   1
_chemical_formula_structural   Sm12(OsC3)5
_chemical_formula_sum   'Sm12 Os5 C15'
_cell_volume   538.51164046
_cell_formula_units_Z   1
loop_
 _symmetry_equiv_pos_site_id
 _symmetry_equiv_pos_as_xyz
  1  'x, y, z'
loop_
 _atom_site_type_symbol
 _atom_site_label
 _atom_site_symmetry_multiplicity
 _atom_site_fract_x
 _atom_site_fract_y
 _atom_site_fract_z
 _atom_site_occupancy
  Sm  Sm0  1  0.50000000  0.20617974  0.20617974  1
  Sm  Sm1  1  0.50000000  1.00000000  0.79382026  1
  Sm  Sm2  1  0.50000000  0.79382026  1.00000000  1
  Sm  Sm3  1  -0.00000000  0.72636300  0.18375280  1
  Sm  Sm4  1  0.00000000  0.45738980  0.27363700  1
  Sm  Sm5  1  -0.00000000  0.54261020  0.81624720  1
  Sm  Sm6  1  0.00000000  0.81624720  0.54261020  1
  Sm  Sm7  1  -0.00000000  0.18375280  0.72636300  1
  Sm  Sm8  1  0.00000000  0.27363700  0.45738980  1
  Sm  Sm9  1  0.50000000  0.56993552  0.56993552  1
  Sm  Sm10  1  0.50000000  0.00000000  0.43006448  1
  Sm  Sm11  1  0.50000000  0.43006448  0.00000000  1
  Os  Os12  1  0.00000000  0.83931138  0.83931138  1
  Os  Os13  1  -0.00000000  0.00000000  0.16068862  1
  Os  Os14  1  -0.00000000  0.16068862  0.00000000  1
  Os  Os15  1  0.50000000  0.66666700  0.33333300  1
  Os  Os16  1  0.50000000  0.33333300  0.66666700  1
  C  C17  1  0.00000000  0.66642364  0.66642364  1
  C  C18  1  -0.00000000  1.00000000  0.33357636  1
  C  C19  1  -0.00000000  0.33357636  1.00000000  1
  C  C20  1  -0.00000000  0.20359203  0.20359203  1
  C  C21  1  0.00000000  0.00000000  0.79640797  1
  C  C22  1  0.00000000  0.79640797  0.00000000  1
  C  C23  1  -0.00000000  0.54381211  0.54381211  1
  C  C24  1  0.00000000  1.00000000  0.45618789  1
  C  C25  1  0.00000000  0.45618789  1.00000000  1
  C  C26  1  0.50000000  0.71381056  0.18548055  1
  C  C27  1  0.50000000  0.47166999  0.28618944  1
  C  C28  1  0.50000000  0.52833001  0.81451945  1
  C  C29  1  0.50000000  0.81451945  0.52833001  1
  C  C30  1  0.50000000  0.18548055  0.71381056  1
  C  C31  1  0.50000000  0.28618944  0.47166999  1
