# generated using pymatgen
data_RbDyBeF6
_symmetry_space_group_name_H-M   'P 1'
_cell_length_a   5.90953087
_cell_length_b   6.54880257
_cell_length_c   7.17026021
_cell_angle_alpha   113.54415720
_cell_angle_beta   90.00000000
_cell_angle_gamma   90.00000000
_symmetry_Int_Tables_number   1
_chemical_formula_structural   RbDyBeF6
_chemical_formula_sum   'Rb2 Dy2 Be2 F12'
_cell_volume   254.39110321
_cell_formula_units_Z   2
loop_
 _symmetry_equiv_pos_site_id
 _symmetry_equiv_pos_as_xyz
  1  'x, y, z'
loop_
 _atom_site_type_symbol
 _atom_site_label
 _atom_site_symmetry_multiplicity
 _atom_site_fract_x
 _atom_site_fract_y
 _atom_site_fract_z
 _atom_site_occupancy
  Rb  Rb0  1  0.75000000  0.07714431  0.21097882  1
  Rb  Rb1  1  0.25000000  0.92285569  0.78902118  1
  Dy  Dy2  1  0.75000000  0.39015540  0.81997694  1
  Dy  Dy3  1  0.25000000  0.60984460  0.18002306  1
  Be  Be4  1  0.75000000  0.76563074  0.53458901  1
  Be  Be5  1  0.25000000  0.23436926  0.46541099  1
  F  F6  1  0.96567520  0.76114672  0.40535668  1
  F  F7  1  0.03432480  0.23885328  0.59464332  1
  F  F8  1  0.46567520  0.23885328  0.59464332  1
  F  F9  1  0.53432480  0.76114672  0.40535668  1
  F  F10  1  0.75000000  0.56621413  0.59788191  1
  F  F11  1  0.25000000  0.43378587  0.40211809  1
  F  F12  1  0.99894825  0.67401836  0.96755942  1
  F  F13  1  0.00105175  0.32598164  0.03244058  1
  F  F14  1  0.49894825  0.32598164  0.03244058  1
  F  F15  1  0.50105175  0.67401836  0.96755942  1
  F  F16  1  0.75000000  0.99245748  0.72885063  1
  F  F17  1  0.25000000  0.00754252  0.27114937  1
