# generated using pymatgen
data_SrCaB11H7O22
_symmetry_space_group_name_H-M   'P 1'
_cell_length_a   6.68351597
_cell_length_b   6.76107466
_cell_length_c   20.87768560
_cell_angle_alpha   90.00000000
_cell_angle_beta   90.00000000
_cell_angle_gamma   119.30565748
_symmetry_Int_Tables_number   1
_chemical_formula_structural   SrCaB11H7O22
_chemical_formula_sum   'Sr2 Ca2 B22 H14 O44'
_cell_volume   822.67820546
_cell_formula_units_Z   2
loop_
 _symmetry_equiv_pos_site_id
 _symmetry_equiv_pos_as_xyz
  1  'x, y, z'
loop_
 _atom_site_type_symbol
 _atom_site_label
 _atom_site_symmetry_multiplicity
 _atom_site_fract_x
 _atom_site_fract_y
 _atom_site_fract_z
 _atom_site_occupancy
  Sr  Sr0  1  0.30576141  0.62202149  0.86621516  1
  Sr  Sr1  1  0.69423859  0.37797851  0.36621516  1
  Ca  Ca2  1  0.98339142  0.92209782  0.98005650  1
  Ca  Ca3  1  0.01660858  0.07790218  0.48005650  1
  B  B4  1  0.87888319  0.34043172  0.99437143  1
  B  B5  1  0.12111681  0.65956828  0.49437143  1
  B  B6  1  0.51462763  0.96995818  0.51692324  1
  B  B7  1  0.48537237  0.03004182  0.01692324  1
  B  B8  1  0.30878811  0.57836736  0.71281066  1
  B  B9  1  0.69121189  0.42163264  0.21281066  1
  B  B10  1  0.69381858  0.39057330  0.51722004  1
  B  B11  1  0.30618142  0.60942670  0.01722004  1
  B  B12  1  0.97679834  0.94141003  0.83998066  1
  B  B13  1  0.02320166  0.05858997  0.33998066  1
  B  B14  1  0.89592457  0.75296237  0.73523469  1
  B  B15  1  0.10407543  0.24703763  0.23523469  1
  B  B16  1  0.56274813  0.42557251  0.99872376  1
  B  B17  1  0.43725187  0.57442749  0.49872376  1
  B  B18  1  0.59679252  0.79344311  0.36190972  1
  B  B19  1  0.40320748  0.20655689  0.86190972  1
  B  B20  1  0.71868339  0.12430009  0.85547722  1
  B  B21  1  0.28131661  0.87569991  0.35547722  1
  B  B22  1  0.59977543  0.18236635  0.61924830  1
  B  B23  1  0.40022457  0.81763365  0.11924830  1
  B  B24  1  0.79502399  0.51935144  0.83587440  1
  B  B25  1  0.20497601  0.48064856  0.33587440  1
  H  H26  1  0.37243904  0.70361380  0.62495902  1
  H  H27  1  0.62756096  0.29638620  0.12495902  1
  H  H28  1  0.83369008  0.63035807  0.64297548  1
  H  H29  1  0.16630992  0.36964193  0.14297548  1
  H  H30  1  0.85552604  0.72176670  0.10962203  1
  H  H31  1  0.14447396  0.27823330  0.60962203  1
  H  H32  1  0.47893388  0.92802006  0.72111809  1
  H  H33  1  0.52106612  0.07197994  0.22111809  1
  H  H34  1  0.87624646  0.76218857  0.24266612  1
  H  H35  1  0.12375354  0.23781143  0.74266612  1
  H  H36  1  0.00525751  0.00741679  0.62268150  1
  H  H37  1  0.99474249  0.99258321  0.12268150  1
  H  H38  1  0.65631426  0.31324436  0.71062475  1
  H  H39  1  0.34368574  0.68675564  0.21062475  1
  O  O40  1  0.27489327  0.88708388  0.49212534  1
  O  O41  1  0.72510673  0.11291612  0.99212534  1
  O  O42  1  0.50362047  0.97881484  0.58750163  1
  O  O43  1  0.49637953  0.02118516  0.08750163  1
  O  O44  1  0.78549169  0.60030248  0.25441862  1
  O  O45  1  0.21450831  0.39969752  0.75441862  1
  O  O46  1  0.80058041  0.49779742  0.99832383  1
  O  O47  1  0.19941959  0.50220258  0.49832383  1
  O  O48  1  0.76821664  0.95205001  0.86133054  1
  O  O49  1  0.23178336  0.04794999  0.36133054  1
  O  O50  1  0.58618148  0.17034344  0.68544268  1
  O  O51  1  0.41381852  0.82965656  0.18544268  1
  O  O52  1  0.51552913  0.59944531  0.99546188  1
  O  O53  1  0.48447087  0.40055469  0.49546188  1
  O  O54  1  0.82464433  0.86245334  0.37115614  1
  O  O55  1  0.17535567  0.13754666  0.87115614  1
  O  O56  1  0.70248819  0.38855618  0.58817526  1
  O  O57  1  0.29751181  0.61144382  0.08817526  1
  O  O58  1  0.89345283  0.59496044  0.49077360  1
  O  O59  1  0.10654717  0.40503956  0.99077360  1
  O  O60  1  0.41265783  0.78100698  0.74532509  1
  O  O61  1  0.58734217  0.21899302  0.24532509  1
  O  O62  1  0.90518767  0.77078718  0.66919240  1
  O  O63  1  0.09481233  0.22921282  0.16919240  1
  O  O64  1  0.31887922  0.81461393  0.98905961  1
  O  O65  1  0.68112078  0.18538607  0.48905961  1
  O  O66  1  0.59244898  0.80147068  0.50089277  1
  O  O67  1  0.40755102  0.19852932  0.00089277  1
  O  O68  1  0.95842783  0.73185636  0.86620509  1
  O  O69  1  0.04157217  0.26814364  0.36620509  1
  O  O70  1  0.87109295  0.35022712  0.85078074  1
  O  O71  1  0.12890705  0.64977288  0.35078074  1
  O  O72  1  0.29866711  0.55441865  0.64729254  1
  O  O73  1  0.70133289  0.44558135  0.14729254  1
  O  O74  1  0.94833184  0.87221350  0.08958450  1
  O  O75  1  0.05166816  0.12778650  0.58958450  1
  O  O76  1  0.51806205  0.94801121  0.35573967  1
  O  O77  1  0.48193795  0.05198879  0.85573967  1
  O  O78  1  0.55697171  0.43382436  0.86056241  1
  O  O79  1  0.44302829  0.56617564  0.36056241  1
  O  O80  1  0.99478621  0.95174197  0.76979220  1
  O  O81  1  0.00521379  0.04825803  0.26979220  1
  O  O82  1  0.79195962  0.54413636  0.76487068  1
  O  O83  1  0.20804038  0.45586364  0.26487068  1
