# generated using pymatgen
data_RbVCuF6
_symmetry_space_group_name_H-M   'P 1'
_cell_length_a   6.97103039
_cell_length_b   7.66737290
_cell_length_c   10.45175656
_cell_angle_alpha   90.00000000
_cell_angle_beta   90.00000000
_cell_angle_gamma   90.00000000
_symmetry_Int_Tables_number   1
_chemical_formula_structural   RbVCuF6
_chemical_formula_sum   'Rb4 V4 Cu4 F24'
_cell_volume   558.64105248
_cell_formula_units_Z   4
loop_
 _symmetry_equiv_pos_site_id
 _symmetry_equiv_pos_as_xyz
  1  'x, y, z'
loop_
 _atom_site_type_symbol
 _atom_site_label
 _atom_site_symmetry_multiplicity
 _atom_site_fract_x
 _atom_site_fract_y
 _atom_site_fract_z
 _atom_site_occupancy
  Rb  Rb0  1  0.01048091  0.25000000  0.62433110  1
  Rb  Rb1  1  0.98951909  0.75000000  0.37566890  1
  Rb  Rb2  1  0.48951909  0.75000000  0.12433110  1
  Rb  Rb3  1  0.51048091  0.25000000  0.87566890  1
  V  V4  1  -0.00000000  -0.00000000  -0.00000000  1
  V  V5  1  0.50000000  0.00000000  0.50000000  1
  V  V6  1  -0.00000000  0.50000000  0.00000000  1
  V  V7  1  0.50000000  0.50000000  0.50000000  1
  Cu  Cu8  1  0.20938037  0.25000000  0.25631383  1
  Cu  Cu9  1  0.79061963  0.75000000  0.74368617  1
  Cu  Cu10  1  0.29061963  0.75000000  0.75631383  1
  Cu  Cu11  1  0.70938037  0.25000000  0.24368617  1
  F  F12  1  0.26973644  0.05021134  0.40327458  1
  F  F13  1  0.73026356  0.94978866  0.59672542  1
  F  F14  1  0.23026356  0.94978866  0.90327458  1
  F  F15  1  0.73026356  0.55021134  0.59672542  1
  F  F16  1  0.76973644  0.05021134  0.09672542  1
  F  F17  1  0.26973644  0.44978866  0.40327458  1
  F  F18  1  0.76973644  0.44978866  0.09672542  1
  F  F19  1  0.23026356  0.55021134  0.90327458  1
  F  F20  1  0.57044166  0.25000000  0.51455686  1
  F  F21  1  0.42955834  0.75000000  0.48544314  1
  F  F22  1  0.92955834  0.75000000  0.01455686  1
  F  F23  1  0.07044166  0.25000000  0.98544314  1
  F  F24  1  0.14797354  0.50892547  0.15610172  1
  F  F25  1  0.85202646  0.49107453  0.84389828  1
  F  F26  1  0.35202646  0.49107453  0.65610172  1
  F  F27  1  0.85202646  0.00892547  0.84389828  1
  F  F28  1  0.64797354  0.50892547  0.34389828  1
  F  F29  1  0.14797354  0.99107453  0.15610172  1
  F  F30  1  0.64797354  0.99107453  0.34389828  1
  F  F31  1  0.35202646  0.00892547  0.65610172  1
  F  F32  1  0.45379836  0.25000000  0.17538979  1
  F  F33  1  0.54620164  0.75000000  0.82461021  1
  F  F34  1  0.04620164  0.75000000  0.67538979  1
  F  F35  1  0.95379836  0.25000000  0.32461021  1
