# generated using pymatgen
data_Sb3IO4
_symmetry_space_group_name_H-M   'P 1'
_cell_length_a   4.63616169
_cell_length_b   19.29135507
_cell_length_c   16.08508994
_cell_angle_alpha   90.00000000
_cell_angle_beta   90.00000000
_cell_angle_gamma   90.00000000
_symmetry_Int_Tables_number   1
_chemical_formula_structural   Sb3IO4
_chemical_formula_sum   'Sb24 I8 O32'
_cell_volume   1438.61572173
_cell_formula_units_Z   8
loop_
 _symmetry_equiv_pos_site_id
 _symmetry_equiv_pos_as_xyz
  1  'x, y, z'
loop_
 _atom_site_type_symbol
 _atom_site_label
 _atom_site_symmetry_multiplicity
 _atom_site_fract_x
 _atom_site_fract_y
 _atom_site_fract_z
 _atom_site_occupancy
  Sb  Sb0  1  0.35260356  0.95867787  0.82151337  1
  Sb  Sb1  1  0.64739644  0.04132213  0.32151337  1
  Sb  Sb2  1  0.14739644  0.45867787  0.82151337  1
  Sb  Sb3  1  0.85260356  0.54132213  0.32151337  1
  Sb  Sb4  1  0.86914785  0.62778233  0.93883340  1
  Sb  Sb5  1  0.13085215  0.37221767  0.43883340  1
  Sb  Sb6  1  0.63085215  0.12778233  0.93883340  1
  Sb  Sb7  1  0.36914785  0.87221767  0.43883340  1
  Sb  Sb8  1  0.84629563  0.78919660  0.85379032  1
  Sb  Sb9  1  0.15370437  0.21080340  0.35379032  1
  Sb  Sb10  1  0.65370437  0.28919660  0.85379032  1
  Sb  Sb11  1  0.34629563  0.71080340  0.35379032  1
  Sb  Sb12  1  0.84105242  0.99071202  0.66053090  1
  Sb  Sb13  1  0.15894758  0.00928798  0.16053090  1
  Sb  Sb14  1  0.65894758  0.49071202  0.66053090  1
  Sb  Sb15  1  0.34105242  0.50928798  0.16053090  1
  Sb  Sb16  1  0.83026129  0.74284353  0.51458270  1
  Sb  Sb17  1  0.16973871  0.25715647  0.01458270  1
  Sb  Sb18  1  0.66973871  0.24284353  0.51458270  1
  Sb  Sb19  1  0.33026129  0.75715647  0.01458270  1
  Sb  Sb20  1  0.62244566  0.88034256  0.23548648  1
  Sb  Sb21  1  0.37755434  0.11965744  0.73548648  1
  Sb  Sb22  1  0.87755434  0.38034256  0.23548648  1
  Sb  Sb23  1  0.12244566  0.61965744  0.73548648  1
  I  I24  1  0.72738549  0.92873759  0.99508909  1
  I  I25  1  0.27261451  0.07126241  0.49508909  1
  I  I26  1  0.77261451  0.42873759  0.99508909  1
  I  I27  1  0.22738549  0.57126241  0.49508909  1
  I  I28  1  0.22744963  0.81851990  0.68030893  1
  I  I29  1  0.77255037  0.18148010  0.18030893  1
  I  I30  1  0.27255037  0.31851990  0.68030893  1
  I  I31  1  0.72744963  0.68148010  0.18030893  1
  O  O32  1  0.75167381  0.95322667  0.77486085  1
  O  O33  1  0.24832619  0.04677333  0.27486085  1
  O  O34  1  0.74832619  0.45322667  0.77486085  1
  O  O35  1  0.25167381  0.54677333  0.27486085  1
  O  O36  1  0.74802047  0.99260598  0.20621081  1
  O  O37  1  0.25197953  0.00739402  0.70621081  1
  O  O38  1  0.75197953  0.49260598  0.20621081  1
  O  O39  1  0.24802047  0.50739402  0.70621081  1
  O  O40  1  0.74712188  0.84157321  0.48269386  1
  O  O41  1  0.25287812  0.15842679  0.98269386  1
  O  O42  1  0.75287812  0.34157321  0.48269386  1
  O  O43  1  0.24712188  0.65842679  0.98269386  1
  O  O44  1  0.73855363  0.58886494  0.69490168  1
  O  O45  1  0.26144637  0.41113506  0.19490168  1
  O  O46  1  0.76144637  0.08886494  0.69490168  1
  O  O47  1  0.23855363  0.91113506  0.19490168  1
  O  O48  1  0.74567965  0.70554153  0.39961786  1
  O  O49  1  0.25432035  0.29445847  0.89961786  1
  O  O50  1  0.75432035  0.20554153  0.39961786  1
  O  O51  1  0.24567965  0.79445847  0.89961786  1
  O  O52  1  0.74121313  0.74042772  0.96848952  1
  O  O53  1  0.25878687  0.25957228  0.46848952  1
  O  O54  1  0.75878687  0.24042772  0.96848952  1
  O  O55  1  0.24121313  0.75957228  0.46848952  1
  O  O56  1  0.88239799  0.68324231  0.82771714  1
  O  O57  1  0.11760201  0.31675769  0.32771714  1
  O  O58  1  0.61760201  0.18324231  0.82771714  1
  O  O59  1  0.38239799  0.81675769  0.32771714  1
  O  O60  1  0.61610163  0.93554205  0.34775309  1
  O  O61  1  0.38389837  0.06445795  0.84775309  1
  O  O62  1  0.88389837  0.43554205  0.34775309  1
  O  O63  1  0.11610163  0.56445795  0.84775309  1
