# generated using pymatgen
data_RbBi3F10
_symmetry_space_group_name_H-M   'P 1'
_cell_length_a   8.59531713
_cell_length_b   8.59531713
_cell_length_c   8.59531713
_cell_angle_alpha   60.00000000
_cell_angle_beta   60.00000000
_cell_angle_gamma   60.00000000
_symmetry_Int_Tables_number   1
_chemical_formula_structural   RbBi3F10
_chemical_formula_sum   'Rb2 Bi6 F20'
_cell_volume   449.02520218
_cell_formula_units_Z   2
loop_
 _symmetry_equiv_pos_site_id
 _symmetry_equiv_pos_as_xyz
  1  'x, y, z'
loop_
 _atom_site_type_symbol
 _atom_site_label
 _atom_site_symmetry_multiplicity
 _atom_site_fract_x
 _atom_site_fract_y
 _atom_site_fract_z
 _atom_site_occupancy
  Rb  Rb0  1  0.75000000  0.75000000  0.75000000  1
  Rb  Rb1  1  0.25000000  0.25000000  0.25000000  1
  Bi  Bi2  1  0.75926588  0.75926588  0.24073412  1
  Bi  Bi3  1  0.24073412  0.24073412  0.75926588  1
  Bi  Bi4  1  0.75926588  0.24073412  0.75926588  1
  Bi  Bi5  1  0.24073412  0.75926588  0.24073412  1
  Bi  Bi6  1  0.24073412  0.75926588  0.75926588  1
  Bi  Bi7  1  0.75926588  0.24073412  0.24073412  1
  F  F8  1  0.50000000  0.50000000  0.17007341  1
  F  F9  1  0.50000000  0.50000000  0.82992659  1
  F  F10  1  0.82992659  0.17007341  0.50000000  1
  F  F11  1  0.17007341  0.82992659  0.50000000  1
  F  F12  1  0.50000000  0.17007341  0.50000000  1
  F  F13  1  0.17007341  0.50000000  0.82992659  1
  F  F14  1  0.50000000  0.82992659  0.50000000  1
  F  F15  1  0.82992659  0.50000000  0.17007341  1
  F  F16  1  0.17007341  0.50000000  0.50000000  1
  F  F17  1  0.82992659  0.50000000  0.50000000  1
  F  F18  1  0.50000000  0.17007341  0.82992659  1
  F  F19  1  0.50000000  0.82992659  0.17007341  1
  F  F20  1  0.88705259  0.88705259  0.88705259  1
  F  F21  1  0.11294741  0.11294741  0.11294741  1
  F  F22  1  0.33884222  0.88705259  0.88705259  1
  F  F23  1  0.88705259  0.33884222  0.88705259  1
  F  F24  1  0.66115778  0.11294741  0.11294741  1
  F  F25  1  0.11294741  0.66115778  0.11294741  1
  F  F26  1  0.88705259  0.88705259  0.33884222  1
  F  F27  1  0.11294741  0.11294741  0.66115778  1
