# generated using pymatgen
data_Rb3Zr6BeCl15
_symmetry_space_group_name_H-M   'P 1'
_cell_length_a   10.23541535
_cell_length_b   10.23541535
_cell_length_c   14.37871358
_cell_angle_alpha   87.54005479
_cell_angle_beta   87.54005479
_cell_angle_gamma   69.60324972
_symmetry_Int_Tables_number   1
_chemical_formula_structural   Rb3Zr6BeCl15
_chemical_formula_sum   'Rb6 Zr12 Be2 Cl30'
_cell_volume   1409.99088589
_cell_formula_units_Z   2
loop_
 _symmetry_equiv_pos_site_id
 _symmetry_equiv_pos_as_xyz
  1  'x, y, z'
loop_
 _atom_site_type_symbol
 _atom_site_label
 _atom_site_symmetry_multiplicity
 _atom_site_fract_x
 _atom_site_fract_y
 _atom_site_fract_z
 _atom_site_occupancy
  Rb  Rb0  1  0.06126202  0.93873798  0.75000000  1
  Rb  Rb1  1  0.93873798  0.06126202  0.25000000  1
  Rb  Rb2  1  0.35875493  0.86989683  0.43363658  1
  Rb  Rb3  1  0.64124507  0.13010317  0.56636342  1
  Rb  Rb4  1  0.13010317  0.64124507  0.06636342  1
  Rb  Rb5  1  0.86989683  0.35875493  0.93363658  1
  Zr  Zr6  1  0.45352427  0.15036730  0.86626199  1
  Zr  Zr7  1  0.54647573  0.84963270  0.13373801  1
  Zr  Zr8  1  0.84963270  0.54647573  0.63373801  1
  Zr  Zr9  1  0.15036730  0.45352427  0.36626199  1
  Zr  Zr10  1  0.72774961  0.00109716  0.99860310  1
  Zr  Zr11  1  0.27225039  0.99890284  0.00139690  1
  Zr  Zr12  1  0.99890284  0.27225039  0.50139690  1
  Zr  Zr13  1  0.00109716  0.72774961  0.49860310  1
  Zr  Zr14  1  0.57445645  0.80436376  0.90336826  1
  Zr  Zr15  1  0.42554355  0.19563624  0.09663174  1
  Zr  Zr16  1  0.19563624  0.42554355  0.59663174  1
  Zr  Zr17  1  0.80436376  0.57445645  0.40336826  1
  Be  Be18  1  0.50000000  -0.00000000  -0.00000000  1
  Be  Be19  1  -0.00000000  0.50000000  0.50000000  1
  Cl  Cl20  1  0.70734748  0.15597153  0.84928940  1
  Cl  Cl21  1  0.29265252  0.84402847  0.15071060  1
  Cl  Cl22  1  0.84402847  0.29265252  0.65071060  1
  Cl  Cl23  1  0.15597153  0.70734748  0.34928940  1
  Cl  Cl24  1  0.41699658  0.32939636  0.71213206  1
  Cl  Cl25  1  0.58300342  0.67060364  0.28786794  1
  Cl  Cl26  1  0.67060364  0.58300342  0.78786794  1
  Cl  Cl27  1  0.32939636  0.41699658  0.21213206  1
  Cl  Cl28  1  0.32715879  0.78101430  0.89909907  1
  Cl  Cl29  1  0.67284121  0.21898570  0.10090093  1
  Cl  Cl30  1  0.21898570  0.67284121  0.60090093  1
  Cl  Cl31  1  0.78101430  0.32715879  0.39909907  1
  Cl  Cl32  1  0.51873647  0.95197462  0.74963462  1
  Cl  Cl33  1  0.48126353  0.04802538  0.25036538  1
  Cl  Cl34  1  0.04802538  0.48126353  0.75036538  1
  Cl  Cl35  1  0.95197462  0.51873647  0.24963462  1
  Cl  Cl36  1  0.37758334  0.37003078  0.45922231  1
  Cl  Cl37  1  0.62241666  0.62996922  0.54077769  1
  Cl  Cl38  1  0.62996922  0.62241666  0.04077769  1
  Cl  Cl39  1  0.37003078  0.37758334  0.95922231  1
  Cl  Cl40  1  0.19720889  0.15766390  0.85507250  1
  Cl  Cl41  1  0.80279111  0.84233610  0.14492750  1
  Cl  Cl42  1  0.84233610  0.80279111  0.64492750  1
  Cl  Cl43  1  0.15766390  0.19720889  0.35507250  1
  Cl  Cl44  1  0.21731385  0.16257512  0.60057839  1
  Cl  Cl45  1  0.78268615  0.83742488  0.39942161  1
  Cl  Cl46  1  0.83742488  0.78268615  0.89942161  1
  Cl  Cl47  1  0.16257512  0.21731385  0.10057839  1
  Cl  Cl48  1  -0.00000000  -0.00000000  -0.00000000  1
  Cl  Cl49  1  -0.00000000  -0.00000000  0.50000000  1
