# generated using pymatgen
data_PrHf2F11
_symmetry_space_group_name_H-M   'P 1'
_cell_length_a   7.79824790
_cell_length_b   8.44926566
_cell_length_c   8.44926566
_cell_angle_alpha   73.22450363
_cell_angle_beta   62.51767582
_cell_angle_gamma   62.51767582
_symmetry_Int_Tables_number   1
_chemical_formula_structural   PrHf2F11
_chemical_formula_sum   'Pr2 Hf4 F22'
_cell_volume   436.13004383
_cell_formula_units_Z   2
loop_
 _symmetry_equiv_pos_site_id
 _symmetry_equiv_pos_as_xyz
  1  'x, y, z'
loop_
 _atom_site_type_symbol
 _atom_site_label
 _atom_site_symmetry_multiplicity
 _atom_site_fract_x
 _atom_site_fract_y
 _atom_site_fract_z
 _atom_site_occupancy
  Pr  Pr0  1  0.25000000  0.25000000  0.25000000  1
  Pr  Pr1  1  0.75000000  0.75000000  0.75000000  1
  Hf  Hf2  1  0.86603821  0.81954779  0.18045221  1
  Hf  Hf3  1  0.13396179  0.18045221  0.81954779  1
  Hf  Hf4  1  0.63396179  0.31954779  0.68045221  1
  Hf  Hf5  1  0.36603821  0.68045221  0.31954779  1
  F  F6  1  0.60817996  0.05139245  0.20580920  1
  F  F7  1  0.39182004  0.94860755  0.79419080  1
  F  F8  1  0.13461839  0.20580920  0.05139245  1
  F  F9  1  0.89182004  0.29419080  0.44860755  1
  F  F10  1  0.86538161  0.79419080  0.94860755  1
  F  F11  1  0.10817996  0.70580920  0.55139245  1
  F  F12  1  0.36538161  0.44860755  0.29419080  1
  F  F13  1  0.63461839  0.55139245  0.70580920  1
  F  F14  1  -0.00000000  0.00000000  0.00000000  1
  F  F15  1  0.50000000  0.50000000  0.50000000  1
  F  F16  1  0.62889819  0.72118104  0.27881896  1
  F  F17  1  0.37110181  0.27881896  0.72118104  1
  F  F18  1  0.87110181  0.22118104  0.77881896  1
  F  F19  1  0.12889819  0.77881896  0.22118104  1
  F  F20  1  0.76332727  0.82093864  0.44936944  1
  F  F21  1  0.23667273  0.17906136  0.55063056  1
  F  F22  1  0.96636466  0.44936944  0.82093864  1
  F  F23  1  0.73667273  0.05063056  0.67906136  1
  F  F24  1  0.03363534  0.55063056  0.17906136  1
  F  F25  1  0.26332727  0.94936944  0.32093864  1
  F  F26  1  0.53363534  0.67906136  0.05063056  1
  F  F27  1  0.46636466  0.32093864  0.94936944  1
