# generated using pymatgen
data_PrSI
_symmetry_space_group_name_H-M   'P 1'
_cell_length_a   7.10959227
_cell_length_b   7.35493892
_cell_length_c   14.48868501
_cell_angle_alpha   90.00000000
_cell_angle_beta   90.00000000
_cell_angle_gamma   90.00000000
_symmetry_Int_Tables_number   1
_chemical_formula_structural   PrSI
_chemical_formula_sum   'Pr8 S8 I8'
_cell_volume   757.62227713
_cell_formula_units_Z   8
loop_
 _symmetry_equiv_pos_site_id
 _symmetry_equiv_pos_as_xyz
  1  'x, y, z'
loop_
 _atom_site_type_symbol
 _atom_site_label
 _atom_site_symmetry_multiplicity
 _atom_site_fract_x
 _atom_site_fract_y
 _atom_site_fract_z
 _atom_site_occupancy
  Pr  Pr0  1  0.74197320  0.53007576  0.58370321  1
  Pr  Pr1  1  0.25802680  0.46992424  0.41629679  1
  Pr  Pr2  1  0.75802680  0.03007576  0.41629679  1
  Pr  Pr3  1  0.25802680  0.96992424  0.08370321  1
  Pr  Pr4  1  0.24197320  0.96992424  0.58370321  1
  Pr  Pr5  1  0.74197320  0.03007576  0.91629679  1
  Pr  Pr6  1  0.24197320  0.46992424  0.91629679  1
  Pr  Pr7  1  0.75802680  0.53007576  0.08370321  1
  S  S8  1  0.00130357  0.75764172  0.97663147  1
  S  S9  1  0.99869643  0.24235828  0.02336853  1
  S  S10  1  0.49869643  0.25764172  0.02336853  1
  S  S11  1  0.99869643  0.74235828  0.47663147  1
  S  S12  1  0.50130357  0.74235828  0.97663147  1
  S  S13  1  0.00130357  0.25764172  0.52336853  1
  S  S14  1  0.50130357  0.24235828  0.52336853  1
  S  S15  1  0.49869643  0.75764172  0.47663147  1
  I  I16  1  0.81781775  0.90579312  0.69984110  1
  I  I17  1  0.18218225  0.09420688  0.30015890  1
  I  I18  1  0.68218225  0.40579312  0.30015890  1
  I  I19  1  0.18218225  0.59420688  0.19984110  1
  I  I20  1  0.31781775  0.59420688  0.69984110  1
  I  I21  1  0.81781775  0.40579312  0.80015890  1
  I  I22  1  0.31781775  0.09420688  0.80015890  1
  I  I23  1  0.68218225  0.90579312  0.19984110  1
