# generated using pymatgen
data_RbEu(WO4)2
_symmetry_space_group_name_H-M   'P 1'
_cell_length_a   7.71791597
_cell_length_b   7.71791597
_cell_length_c   7.55956383
_cell_angle_alpha   62.98750630
_cell_angle_beta   62.98750630
_cell_angle_gamma   89.55235595
_symmetry_Int_Tables_number   1
_chemical_formula_structural   RbEu(WO4)2
_chemical_formula_sum   'Rb2 Eu2 W4 O16'
_cell_volume   346.05217142
_cell_formula_units_Z   2
loop_
 _symmetry_equiv_pos_site_id
 _symmetry_equiv_pos_as_xyz
  1  'x, y, z'
loop_
 _atom_site_type_symbol
 _atom_site_label
 _atom_site_symmetry_multiplicity
 _atom_site_fract_x
 _atom_site_fract_y
 _atom_site_fract_z
 _atom_site_occupancy
  Rb  Rb0  1  0.80010443  0.19989557  0.75000000  1
  Rb  Rb1  1  0.19989557  0.80010443  0.25000000  1
  Eu  Eu2  1  0.22581928  0.77418072  0.75000000  1
  Eu  Eu3  1  0.77418072  0.22581928  0.25000000  1
  W  W4  1  0.30170339  0.31193012  0.72122299  1
  W  W5  1  0.69829661  0.68806988  0.27877701  1
  W  W6  1  0.68806988  0.69829661  0.77877701  1
  W  W7  1  0.31193012  0.30170339  0.22122299  1
  O  O8  1  0.37853955  0.24745171  0.94091932  1
  O  O9  1  0.62146045  0.75254829  0.05908068  1
  O  O10  1  0.75254829  0.62146045  0.55908068  1
  O  O11  1  0.24745171  0.37853955  0.44091932  1
  O  O12  1  0.61935960  0.93131586  0.63321421  1
  O  O13  1  0.38064040  0.06868414  0.36678579  1
  O  O14  1  0.06868414  0.38064040  0.86678579  1
  O  O15  1  0.93131586  0.61935960  0.13321421  1
  O  O16  1  0.41523139  0.62874263  0.52795617  1
  O  O17  1  0.58476861  0.37125737  0.47204383  1
  O  O18  1  0.37125737  0.58476861  0.97204383  1
  O  O19  1  0.62874263  0.41523139  0.02795617  1
  O  O20  1  0.21200567  0.05149457  0.80970076  1
  O  O21  1  0.78799433  0.94850543  0.19029924  1
  O  O22  1  0.94850543  0.78799433  0.69029924  1
  O  O23  1  0.05149457  0.21200567  0.30970076  1
