# generated using pymatgen
data_RbY(MoO4)2
_symmetry_space_group_name_H-M   'P 1'
_cell_length_a   5.15690770
_cell_length_b   8.21157556
_cell_length_c   18.97042006
_cell_angle_alpha   90.00000000
_cell_angle_beta   90.00000000
_cell_angle_gamma   90.00000000
_symmetry_Int_Tables_number   1
_chemical_formula_structural   RbY(MoO4)2
_chemical_formula_sum   'Rb4 Y4 Mo8 O32'
_cell_volume   803.32780534
_cell_formula_units_Z   4
loop_
 _symmetry_equiv_pos_site_id
 _symmetry_equiv_pos_as_xyz
  1  'x, y, z'
loop_
 _atom_site_type_symbol
 _atom_site_label
 _atom_site_symmetry_multiplicity
 _atom_site_fract_x
 _atom_site_fract_y
 _atom_site_fract_z
 _atom_site_occupancy
  Rb  Rb0  1  -0.00000000  0.75000000  0.23002460  1
  Rb  Rb1  1  -0.00000000  0.25000000  0.76997540  1
  Rb  Rb2  1  0.50000000  0.25000000  0.26997540  1
  Rb  Rb3  1  0.50000000  0.75000000  0.73002460  1
  Y  Y4  1  -0.00000000  0.75000000  0.99356833  1
  Y  Y5  1  -0.00000000  0.25000000  0.00643167  1
  Y  Y6  1  0.50000000  0.25000000  0.50643167  1
  Y  Y7  1  0.50000000  0.75000000  0.49356833  1
  Mo  Mo8  1  0.97659305  0.98458178  0.59886862  1
  Mo  Mo9  1  0.02340695  0.01541822  0.40113138  1
  Mo  Mo10  1  0.52340695  0.48458178  0.90113138  1
  Mo  Mo11  1  0.02340695  0.51541822  0.59886862  1
  Mo  Mo12  1  0.47659305  0.51541822  0.09886862  1
  Mo  Mo13  1  0.97659305  0.48458178  0.40113138  1
  Mo  Mo14  1  0.47659305  0.01541822  0.90113138  1
  Mo  Mo15  1  0.52340695  0.98458178  0.09886862  1
  O  O16  1  0.90318413  0.52498115  0.68520218  1
  O  O17  1  0.09681587  0.47501885  0.31479782  1
  O  O18  1  0.59681587  0.02498115  0.81479782  1
  O  O19  1  0.09681587  0.97501885  0.68520218  1
  O  O20  1  0.40318413  0.97501885  0.18520218  1
  O  O21  1  0.90318413  0.02498115  0.31479782  1
  O  O22  1  0.40318413  0.47501885  0.81479782  1
  O  O23  1  0.59681587  0.52498115  0.18520218  1
  O  O24  1  0.73203414  0.66042372  0.90311705  1
  O  O25  1  0.26796586  0.33957628  0.09688295  1
  O  O26  1  0.76796586  0.16042372  0.59688295  1
  O  O27  1  0.26796586  0.83957628  0.90311705  1
  O  O28  1  0.23203414  0.83957628  0.40311705  1
  O  O29  1  0.73203414  0.16042372  0.09688295  1
  O  O30  1  0.23203414  0.33957628  0.59688295  1
  O  O31  1  0.76796586  0.66042372  0.40311705  1
  O  O32  1  0.75269513  0.99509183  0.96423703  1
  O  O33  1  0.24730487  0.00490817  0.03576297  1
  O  O34  1  0.74730487  0.49509183  0.53576297  1
  O  O35  1  0.24730487  0.50490817  0.96423703  1
  O  O36  1  0.25269513  0.50490817  0.46423703  1
  O  O37  1  0.75269513  0.49509183  0.03576297  1
  O  O38  1  0.25269513  0.00490817  0.53576297  1
  O  O39  1  0.74730487  0.99509183  0.46423703  1
  O  O40  1  0.75967694  0.81132611  0.58866073  1
  O  O41  1  0.24032306  0.18867389  0.41133927  1
  O  O42  1  0.74032306  0.31132611  0.91133927  1
  O  O43  1  0.24032306  0.68867389  0.58866073  1
  O  O44  1  0.25967694  0.68867389  0.08866073  1
  O  O45  1  0.75967694  0.31132611  0.41133927  1
  O  O46  1  0.25967694  0.18867389  0.91133927  1
  O  O47  1  0.74032306  0.81132611  0.08866073  1
