# generated using pymatgen
data_Rb2Li3GaO4
_symmetry_space_group_name_H-M   'P 1'
_cell_length_a   4.98808858
_cell_length_b   8.04280602
_cell_length_c   8.04280602
_cell_angle_alpha   76.06321436
_cell_angle_beta   71.93496667
_cell_angle_gamma   71.93496667
_symmetry_Int_Tables_number   1
_chemical_formula_structural   Rb2Li3GaO4
_chemical_formula_sum   'Rb4 Li6 Ga2 O8'
_cell_volume   287.87476673
_cell_formula_units_Z   2
loop_
 _symmetry_equiv_pos_site_id
 _symmetry_equiv_pos_as_xyz
  1  'x, y, z'
loop_
 _atom_site_type_symbol
 _atom_site_label
 _atom_site_symmetry_multiplicity
 _atom_site_fract_x
 _atom_site_fract_y
 _atom_site_fract_z
 _atom_site_occupancy
  Rb  Rb0  1  0.76283715  0.87191810  0.12808190  1
  Rb  Rb1  1  0.23716285  0.12808190  0.87191810  1
  Rb  Rb2  1  0.73716285  0.37191810  0.62808190  1
  Rb  Rb3  1  0.26283715  0.62808190  0.37191810  1
  Li  Li4  1  0.75000000  0.00995327  0.49004673  1
  Li  Li5  1  0.25000000  0.99004673  0.50995327  1
  Li  Li6  1  0.75000000  0.49004673  0.00995327  1
  Li  Li7  1  0.25000000  0.50995327  0.99004673  1
  Li  Li8  1  0.75000000  0.25000000  0.25000000  1
  Li  Li9  1  0.25000000  0.75000000  0.75000000  1
  Ga  Ga10  1  0.25000000  0.25000000  0.25000000  1
  Ga  Ga11  1  0.75000000  0.75000000  0.75000000  1
  O  O12  1  0.40407097  0.21095049  0.44762307  1
  O  O13  1  0.59592903  0.78904951  0.55237693  1
  O  O14  1  0.93735546  0.44762307  0.21095049  1
  O  O15  1  0.09592903  0.05237693  0.28904951  1
  O  O16  1  0.06264454  0.55237693  0.78904951  1
  O  O17  1  0.90407097  0.94762307  0.71095049  1
  O  O18  1  0.56264454  0.28904951  0.05237693  1
  O  O19  1  0.43735546  0.71095049  0.94762307  1
