# generated using pymatgen
data_RbP11
_symmetry_space_group_name_H-M   'P 1'
_cell_length_a   6.86800173
_cell_length_b   9.79647453
_cell_length_c   18.76403148
_cell_angle_alpha   90.00000000
_cell_angle_beta   93.85198291
_cell_angle_gamma   90.00000000
_symmetry_Int_Tables_number   1
_chemical_formula_structural   RbP11
_chemical_formula_sum   'Rb4 P44'
_cell_volume   1259.63334973
_cell_formula_units_Z   4
loop_
 _symmetry_equiv_pos_site_id
 _symmetry_equiv_pos_as_xyz
  1  'x, y, z'
loop_
 _atom_site_type_symbol
 _atom_site_label
 _atom_site_symmetry_multiplicity
 _atom_site_fract_x
 _atom_site_fract_y
 _atom_site_fract_z
 _atom_site_occupancy
  Rb  Rb0  1  0.06994716  0.52522123  0.67242748  1
  Rb  Rb1  1  0.93005284  0.47477877  0.32757252  1
  Rb  Rb2  1  0.93005284  0.02522123  0.32757252  1
  Rb  Rb3  1  0.06994716  0.97477877  0.67242748  1
  P  P4  1  0.15565810  0.59605449  0.08643013  1
  P  P5  1  0.84434190  0.40394551  0.91356987  1
  P  P6  1  0.84434190  0.09605449  0.91356987  1
  P  P7  1  0.15565810  0.90394551  0.08643013  1
  P  P8  1  0.20371402  0.25000000  0.22043658  1
  P  P9  1  0.79628598  0.75000000  0.77956342  1
  P  P10  1  0.31856656  0.08932938  0.06093600  1
  P  P11  1  0.68143344  0.91067062  0.93906400  1
  P  P12  1  0.68143344  0.58932938  0.93906400  1
  P  P13  1  0.31856656  0.41067062  0.06093600  1
  P  P14  1  0.24894519  0.25000000  0.46420011  1
  P  P15  1  0.75105481  0.75000000  0.53579989  1
  P  P16  1  0.64737091  0.25000000  0.95694282  1
  P  P17  1  0.35262909  0.75000000  0.04305718  1
  P  P18  1  0.22335178  0.63266499  0.20303736  1
  P  P19  1  0.77664822  0.36733501  0.79696264  1
  P  P20  1  0.77664822  0.13266499  0.79696264  1
  P  P21  1  0.22335178  0.86733501  0.20303736  1
  P  P22  1  0.26241456  0.25000000  0.57962286  1
  P  P23  1  0.73758544  0.75000000  0.42037714  1
  P  P24  1  0.13006813  0.25000000  0.10675548  1
  P  P25  1  0.86993187  0.75000000  0.89324452  1
  P  P26  1  0.45646576  0.09042509  0.43011283  1
  P  P27  1  0.54353424  0.90957491  0.56988717  1
  P  P28  1  0.54353424  0.59042509  0.56988717  1
  P  P29  1  0.45646576  0.40957491  0.43011283  1
  P  P30  1  0.51773015  0.25000000  0.21704865  1
  P  P31  1  0.48226985  0.75000000  0.78295135  1
  P  P32  1  0.37689430  0.25000000  0.87571822  1
  P  P33  1  0.62310570  0.75000000  0.12428178  1
  P  P34  1  0.54567376  0.59549068  0.20335036  1
  P  P35  1  0.45432624  0.40450932  0.79664964  1
  P  P36  1  0.45432624  0.09549068  0.79664964  1
  P  P37  1  0.54567376  0.90450932  0.20335036  1
  P  P38  1  0.31328252  0.59007496  0.47704497  1
  P  P39  1  0.68671748  0.40992504  0.52295503  1
  P  P40  1  0.68671748  0.09007496  0.52295503  1
  P  P41  1  0.31328252  0.90992504  0.47704497  1
  P  P42  1  0.58541520  0.08741004  0.13784825  1
  P  P43  1  0.41458480  0.91258996  0.86215175  1
  P  P44  1  0.41458480  0.58741004  0.86215175  1
  P  P45  1  0.58541520  0.41258996  0.13784825  1
  P  P46  1  0.57720923  0.25000000  0.59491028  1
  P  P47  1  0.42279077  0.75000000  0.40508972  1
