# generated using pymatgen
data_NaBe2Tl3F8
_symmetry_space_group_name_H-M   'P 1'
_cell_length_a   5.86269858
_cell_length_b   5.86269858
_cell_length_c   7.57358122
_cell_angle_alpha   90.00000000
_cell_angle_beta   90.00000000
_cell_angle_gamma   119.99999794
_symmetry_Int_Tables_number   1
_chemical_formula_structural   NaBe2Tl3F8
_chemical_formula_sum   'Na1 Be2 Tl3 F8'
_cell_volume   225.43796742
_cell_formula_units_Z   1
loop_
 _symmetry_equiv_pos_site_id
 _symmetry_equiv_pos_as_xyz
  1  'x, y, z'
loop_
 _atom_site_type_symbol
 _atom_site_label
 _atom_site_symmetry_multiplicity
 _atom_site_fract_x
 _atom_site_fract_y
 _atom_site_fract_z
 _atom_site_occupancy
  Na  Na0  1  -0.00000000  0.00000000  0.50000000  1
  Be  Be1  1  0.66666700  0.33333300  0.76703464  1
  Be  Be2  1  0.33333300  0.66666700  0.23296536  1
  Tl  Tl3  1  0.66666700  0.33333300  0.31229509  1
  Tl  Tl4  1  0.33333300  0.66666700  0.68770491  1
  Tl  Tl5  1  -0.00000000  0.00000000  0.00000000  1
  F  F6  1  0.66666700  0.33333300  0.97087047  1
  F  F7  1  0.33333300  0.66666700  0.02912953  1
  F  F8  1  0.81341866  0.62683731  0.69336825  1
  F  F9  1  0.18658134  0.37316269  0.30663175  1
  F  F10  1  0.81341866  0.18658134  0.69336825  1
  F  F11  1  0.18658134  0.81341866  0.30663175  1
  F  F12  1  0.37316269  0.18658134  0.69336825  1
  F  F13  1  0.62683731  0.81341866  0.30663175  1
