# generated using pymatgen
data_Rb6V6P6O31
_symmetry_space_group_name_H-M   'P 1'
_cell_length_a   7.19145983
_cell_length_b   13.66096888
_cell_length_c   14.71064504
_cell_angle_alpha   90.00000000
_cell_angle_beta   90.00000000
_cell_angle_gamma   90.00000000
_symmetry_Int_Tables_number   1
_chemical_formula_structural   Rb6V6P6O31
_chemical_formula_sum   'Rb12 V12 P12 O62'
_cell_volume   1445.20773472
_cell_formula_units_Z   2
loop_
 _symmetry_equiv_pos_site_id
 _symmetry_equiv_pos_as_xyz
  1  'x, y, z'
loop_
 _atom_site_type_symbol
 _atom_site_label
 _atom_site_symmetry_multiplicity
 _atom_site_fract_x
 _atom_site_fract_y
 _atom_site_fract_z
 _atom_site_occupancy
  Rb  Rb0  1  0.64391109  0.00000000  0.16631739  1
  Rb  Rb1  1  0.35608891  0.50000000  0.66631739  1
  Rb  Rb2  1  0.84892458  0.73799352  0.31856155  1
  Rb  Rb3  1  0.15107542  0.76200648  0.81856155  1
  Rb  Rb4  1  0.15107542  0.23799352  0.81856155  1
  Rb  Rb5  1  0.84892458  0.26200648  0.31856155  1
  Rb  Rb6  1  0.66073603  0.75384126  0.99392363  1
  Rb  Rb7  1  0.33926397  0.74615874  0.49392363  1
  Rb  Rb8  1  0.33926397  0.25384126  0.49392363  1
  Rb  Rb9  1  0.66073603  0.24615874  0.99392363  1
  Rb  Rb10  1  0.13467802  0.00000000  0.65277033  1
  Rb  Rb11  1  0.86532198  0.50000000  0.15277033  1
  V  V12  1  0.51425147  0.00000000  0.41381406  1
  V  V13  1  0.48574853  0.50000000  0.91381406  1
  V  V14  1  0.59524973  0.87437430  0.73103395  1
  V  V15  1  0.40475027  0.62562570  0.23103395  1
  V  V16  1  0.40475027  0.37437430  0.23103395  1
  V  V17  1  0.59524973  0.12562570  0.73103395  1
  V  V18  1  0.90160702  0.62481880  0.57906832  1
  V  V19  1  0.09839298  0.87518120  0.07906832  1
  V  V20  1  0.09839298  0.12481880  0.07906832  1
  V  V21  1  0.90160702  0.37518120  0.57906832  1
  V  V22  1  0.01510332  0.00000000  0.39824576  1
  V  V23  1  0.98489668  0.50000000  0.89824576  1
  P  P24  1  0.78947679  0.84985737  0.53648024  1
  P  P25  1  0.21052321  0.65014263  0.03648024  1
  P  P26  1  0.21052321  0.34985737  0.03648024  1
  P  P27  1  0.78947679  0.15014263  0.53648024  1
  P  P28  1  0.48743696  0.00000000  0.91451994  1
  P  P29  1  0.51256304  0.50000000  0.41451994  1
  P  P30  1  0.70977225  0.64964050  0.77464414  1
  P  P31  1  0.29022775  0.85035950  0.27464414  1
  P  P32  1  0.29022775  0.14964050  0.27464414  1
  P  P33  1  0.70977225  0.35035950  0.77464414  1
  P  P34  1  0.89751702  0.00000000  0.91808094  1
  P  P35  1  0.10248298  0.50000000  0.41808094  1
  O  O36  1  0.53169551  0.60675323  0.81887263  1
  O  O37  1  0.46830449  0.89324677  0.31887263  1
  O  O38  1  0.46830449  0.10675323  0.31887263  1
  O  O39  1  0.53169551  0.39324677  0.81887263  1
  O  O40  1  0.41941335  0.81740117  0.68323656  1
  O  O41  1  0.58058665  0.68259883  0.18323656  1
  O  O42  1  0.58058665  0.31740117  0.18323656  1
  O  O43  1  0.41941335  0.18259883  0.68323656  1
  O  O44  1  0.69100481  0.00000000  0.96663153  1
  O  O45  1  0.30899519  0.50000000  0.46663153  1
  O  O46  1  0.61306879  0.89578108  0.49505881  1
  O  O47  1  0.38693121  0.60421892  0.99505881  1
  O  O48  1  0.38693121  0.39578108  0.99505881  1
  O  O49  1  0.61306879  0.10421892  0.49505881  1
  O  O50  1  0.35095345  0.00000000  0.99216113  1
  O  O51  1  0.64904655  0.50000000  0.49216113  1
  O  O52  1  0.77800674  0.73785908  0.51592851  1
  O  O53  1  0.22199326  0.76214092  0.01592851  1
  O  O54  1  0.22199326  0.23785908  0.01592851  1
  O  O55  1  0.77800674  0.26214092  0.51592851  1
  O  O56  1  0.54394764  0.00000000  0.70097887  1
  O  O57  1  0.45605236  0.50000000  0.20097887  1
  O  O58  1  0.87188772  0.00000000  0.81607536  1
  O  O59  1  0.12811228  0.50000000  0.31607536  1
  O  O60  1  0.71967193  0.76199607  0.79446238  1
  O  O61  1  0.28032807  0.73800393  0.29446238  1
  O  O62  1  0.28032807  0.26199607  0.29446238  1
  O  O63  1  0.71967193  0.23800393  0.79446238  1
  O  O64  1  0.48582582  0.90525402  0.85649487  1
  O  O65  1  0.51417418  0.59474598  0.35649487  1
  O  O66  1  0.51417418  0.40525402  0.35649487  1
  O  O67  1  0.48582582  0.09474598  0.85649487  1
  O  O68  1  0.79061927  0.00000000  0.36035285  1
  O  O69  1  0.20938073  0.50000000  0.86035285  1
  O  O70  1  0.96867402  0.89310358  0.49365882  1
  O  O71  1  0.03132598  0.60689642  0.99365882  1
  O  O72  1  0.03132598  0.39310358  0.99365882  1
  O  O73  1  0.96867402  0.10689642  0.49365882  1
  O  O74  1  0.98911372  0.90477462  0.95394454  1
  O  O75  1  0.01088628  0.59522538  0.45394454  1
  O  O76  1  0.01088628  0.40477462  0.45394454  1
  O  O77  1  0.98911372  0.09522538  0.95394454  1
  O  O78  1  0.88680145  0.60485878  0.81680322  1
  O  O79  1  0.11319855  0.89514122  0.31680322  1
  O  O80  1  0.11319855  0.10485878  0.31680322  1
  O  O81  1  0.88680145  0.39514122  0.81680322  1
  O  O82  1  0.28990725  0.00000000  0.45242389  1
  O  O83  1  0.71009275  0.50000000  0.95242389  1
  O  O84  1  0.04262955  0.00000000  0.11030361  1
  O  O85  1  0.95737045  0.50000000  0.61030361  1
  O  O86  1  0.69969049  0.63150541  0.67047593  1
  O  O87  1  0.30030951  0.86849459  0.17047593  1
  O  O88  1  0.30030951  0.13150541  0.17047593  1
  O  O89  1  0.69969049  0.36849459  0.67047593  1
  O  O90  1  0.79809529  0.86706939  0.64093652  1
  O  O91  1  0.20190471  0.63293061  0.14093652  1
  O  O92  1  0.20190471  0.36706939  0.14093652  1
  O  O93  1  0.79809529  0.13293061  0.64093652  1
  O  O94  1  0.92532624  0.81672289  0.12767757  1
  O  O95  1  0.07467376  0.68327711  0.62767757  1
  O  O96  1  0.07467376  0.31672289  0.62767757  1
  O  O97  1  0.92532624  0.18327711  0.12767757  1
