# generated using pymatgen
data_Nd2Si5Ni3
_symmetry_space_group_name_H-M   'P 1'
_cell_length_a   5.77269077
_cell_length_b   8.03602657
_cell_length_c   8.03602657
_cell_angle_alpha   74.06015402
_cell_angle_beta   68.95041904
_cell_angle_gamma   68.95041904
_symmetry_Int_Tables_number   1
_chemical_formula_structural   Nd2Si5Ni3
_chemical_formula_sum   'Nd4 Si10 Ni6'
_cell_volume   320.12484766
_cell_formula_units_Z   2
loop_
 _symmetry_equiv_pos_site_id
 _symmetry_equiv_pos_as_xyz
  1  'x, y, z'
loop_
 _atom_site_type_symbol
 _atom_site_label
 _atom_site_symmetry_multiplicity
 _atom_site_fract_x
 _atom_site_fract_y
 _atom_site_fract_z
 _atom_site_occupancy
  Nd  Nd0  1  0.63150896  0.10434093  0.63264115  1
  Nd  Nd1  1  0.36849104  0.89565907  0.36735885  1
  Nd  Nd2  1  0.13150896  0.63264115  0.10434093  1
  Nd  Nd3  1  0.86849104  0.36735885  0.89565907  1
  Si  Si4  1  0.48133502  0.26866498  0.26866498  1
  Si  Si5  1  0.51866498  0.73133502  0.73133502  1
  Si  Si6  1  0.01866498  0.73133502  0.73133502  1
  Si  Si7  1  0.98133502  0.26866498  0.26866498  1
  Si  Si8  1  0.89263615  0.75853308  0.45619463  1
  Si  Si9  1  0.10736385  0.24146692  0.54380537  1
  Si  Si10  1  0.39263615  0.45619463  0.75853308  1
  Si  Si11  1  0.60736385  0.54380537  0.24146692  1
  Si  Si12  1  0.75000000  0.00000000  0.00000000  1
  Si  Si13  1  0.25000000  0.00000000  0.00000000  1
  Ni  Ni14  1  0.86511997  0.02554776  0.24421229  1
  Ni  Ni15  1  0.13488003  0.97445224  0.75578771  1
  Ni  Ni16  1  0.36511997  0.24421229  0.02554776  1
  Ni  Ni17  1  0.63488003  0.75578771  0.97445224  1
  Ni  Ni18  1  0.75000000  0.50000000  0.50000000  1
  Ni  Ni19  1  0.25000000  0.50000000  0.50000000  1
