# generated using pymatgen
data_NaFeAsO4F
_symmetry_space_group_name_H-M   'P 1'
_cell_length_a   5.59414093
_cell_length_b   5.59414093
_cell_length_c   7.48954761
_cell_angle_alpha   105.45870328
_cell_angle_beta   105.45870328
_cell_angle_gamma   104.66348895
_symmetry_Int_Tables_number   1
_chemical_formula_structural   NaFeAsO4F
_chemical_formula_sum   'Na2 Fe2 As2 O8 F2'
_cell_volume   204.04061037
_cell_formula_units_Z   2
loop_
 _symmetry_equiv_pos_site_id
 _symmetry_equiv_pos_as_xyz
  1  'x, y, z'
loop_
 _atom_site_type_symbol
 _atom_site_label
 _atom_site_symmetry_multiplicity
 _atom_site_fract_x
 _atom_site_fract_y
 _atom_site_fract_z
 _atom_site_occupancy
  Na  Na0  1  0.66885788  0.33114212  0.75000000  1
  Na  Na1  1  0.33114212  0.66885788  0.25000000  1
  Fe  Fe2  1  0.00000000  0.00000000  0.00000000  1
  Fe  Fe3  1  0.00000000  0.00000000  0.50000000  1
  As  As4  1  0.31447698  0.68552302  0.75000000  1
  As  As5  1  0.68552302  0.31447698  0.25000000  1
  O  O6  1  0.31420137  0.90015980  0.62152748  1
  O  O7  1  0.68579863  0.09984020  0.37847252  1
  O  O8  1  0.09984020  0.68579863  0.87847252  1
  O  O9  1  0.90015980  0.31420137  0.12152748  1
  O  O10  1  0.62683511  0.75571708  0.91538566  1
  O  O11  1  0.37316489  0.24428292  0.08461434  1
  O  O12  1  0.24428292  0.37316489  0.58461434  1
  O  O13  1  0.75571708  0.62683511  0.41538566  1
  F  F14  1  0.92259802  0.07740198  0.75000000  1
  F  F15  1  0.07740198  0.92259802  0.25000000  1
