# generated using pymatgen
data_Nd2(Ga3Ru)3
_symmetry_space_group_name_H-M   'P 1'
_cell_length_a   7.55506279
_cell_length_b   7.55506279
_cell_length_c   9.89295673
_cell_angle_alpha   90.00000000
_cell_angle_beta   90.00000000
_cell_angle_gamma   119.11593183
_symmetry_Int_Tables_number   1
_chemical_formula_structural   Nd2(Ga3Ru)3
_chemical_formula_sum   'Nd4 Ga18 Ru6'
_cell_volume   493.32515791
_cell_formula_units_Z   2
loop_
 _symmetry_equiv_pos_site_id
 _symmetry_equiv_pos_as_xyz
  1  'x, y, z'
loop_
 _atom_site_type_symbol
 _atom_site_label
 _atom_site_symmetry_multiplicity
 _atom_site_fract_x
 _atom_site_fract_y
 _atom_site_fract_z
 _atom_site_occupancy
  Nd  Nd0  1  0.66930054  0.99648132  0.25000000  1
  Nd  Nd1  1  0.33069946  0.00351868  0.75000000  1
  Nd  Nd2  1  0.99648132  0.66930054  0.25000000  1
  Nd  Nd3  1  0.00351868  0.33069946  0.75000000  1
  Ga  Ga4  1  0.12831845  0.12831845  0.25000000  1
  Ga  Ga5  1  0.87168155  0.87168155  0.75000000  1
  Ga  Ga6  1  0.33540422  0.00755441  0.07326329  1
  Ga  Ga7  1  0.66459578  0.99244559  0.92673671  1
  Ga  Ga8  1  0.66459578  0.99244559  0.57326329  1
  Ga  Ga9  1  0.00755441  0.33540422  0.42673671  1
  Ga  Ga10  1  0.33540422  0.00755441  0.42673671  1
  Ga  Ga11  1  0.99244559  0.66459578  0.57326329  1
  Ga  Ga12  1  0.99244559  0.66459578  0.92673671  1
  Ga  Ga13  1  0.00755441  0.33540422  0.07326329  1
  Ga  Ga14  1  0.33841181  0.33841181  0.55621896  1
  Ga  Ga15  1  0.66158819  0.66158819  0.44378104  1
  Ga  Ga16  1  0.66158819  0.66158819  0.05621896  1
  Ga  Ga17  1  0.33841181  0.33841181  0.94378104  1
  Ga  Ga18  1  0.54548686  0.33631792  0.25000000  1
  Ga  Ga19  1  0.45451314  0.66368208  0.75000000  1
  Ga  Ga20  1  0.33631792  0.54548686  0.25000000  1
  Ga  Ga21  1  0.66368208  0.45451314  0.75000000  1
  Ru  Ru22  1  0.32643116  0.67356884  -0.00000000  1
  Ru  Ru23  1  0.67356884  0.32643116  -0.00000000  1
  Ru  Ru24  1  0.67356884  0.32643116  0.50000000  1
  Ru  Ru25  1  0.32643116  0.67356884  0.50000000  1
  Ru  Ru26  1  0.00000000  -0.00000000  -0.00000000  1
  Ru  Ru27  1  0.00000000  -0.00000000  0.50000000  1
