# generated using pymatgen
data_Nb4VSe8
_symmetry_space_group_name_H-M   'P 1'
_cell_length_a   6.98415678
_cell_length_b   6.98415678
_cell_length_c   12.88495838
_cell_angle_alpha   90.00000000
_cell_angle_beta   90.00000000
_cell_angle_gamma   120.00000150
_symmetry_Int_Tables_number   1
_chemical_formula_structural   Nb4VSe8
_chemical_formula_sum   'Nb8 V2 Se16'
_cell_volume   544.30409873
_cell_formula_units_Z   2
loop_
 _symmetry_equiv_pos_site_id
 _symmetry_equiv_pos_as_xyz
  1  'x, y, z'
loop_
 _atom_site_type_symbol
 _atom_site_label
 _atom_site_symmetry_multiplicity
 _atom_site_fract_x
 _atom_site_fract_y
 _atom_site_fract_z
 _atom_site_occupancy
  Nb  Nb0  1  -0.00000000  0.00000000  0.75000000  1
  Nb  Nb1  1  -0.00000000  0.00000000  0.25000000  1
  Nb  Nb2  1  0.49352323  0.50647677  0.75000000  1
  Nb  Nb3  1  0.50647677  0.49352323  0.25000000  1
  Nb  Nb4  1  0.01295354  0.50647677  0.75000000  1
  Nb  Nb5  1  0.98704646  0.49352323  0.25000000  1
  Nb  Nb6  1  0.49352323  0.98704646  0.75000000  1
  Nb  Nb7  1  0.50647677  0.01295354  0.25000000  1
  V  V8  1  -0.00000000  0.00000000  -0.00000000  1
  V  V9  1  -0.00000000  0.00000000  0.50000000  1
  Se  Se10  1  0.66666700  0.33333300  0.38260075  1
  Se  Se11  1  0.33333300  0.66666700  0.61739925  1
  Se  Se12  1  0.33333300  0.66666700  0.88260075  1
  Se  Se13  1  0.66666700  0.33333300  0.11739925  1
  Se  Se14  1  0.83272682  0.16727318  0.87945988  1
  Se  Se15  1  0.16727318  0.83272682  0.12054012  1
  Se  Se16  1  0.33454636  0.16727318  0.87945988  1
  Se  Se17  1  0.16727318  0.83272682  0.37945988  1
  Se  Se18  1  0.66545364  0.83272682  0.12054012  1
  Se  Se19  1  0.83272682  0.16727318  0.62054012  1
  Se  Se20  1  0.83272682  0.66545364  0.87945988  1
  Se  Se21  1  0.66545364  0.83272682  0.37945988  1
  Se  Se22  1  0.16727318  0.33454636  0.12054012  1
  Se  Se23  1  0.33454636  0.16727318  0.62054012  1
  Se  Se24  1  0.16727318  0.33454636  0.37945988  1
  Se  Se25  1  0.83272682  0.66545364  0.62054012  1
