# generated using pymatgen
data_Li3V2F12
_symmetry_space_group_name_H-M   'P 1'
_cell_length_a   5.31815073
_cell_length_b   10.52845719
_cell_length_c   10.48349371
_cell_angle_alpha   90.00000000
_cell_angle_beta   80.21436985
_cell_angle_gamma   90.00000000
_symmetry_Int_Tables_number   1
_chemical_formula_structural   Li3V2F12
_chemical_formula_sum   'Li6 V4 F24'
_cell_volume   578.45057257
_cell_formula_units_Z   2
loop_
 _symmetry_equiv_pos_site_id
 _symmetry_equiv_pos_as_xyz
  1  'x, y, z'
loop_
 _atom_site_type_symbol
 _atom_site_label
 _atom_site_symmetry_multiplicity
 _atom_site_fract_x
 _atom_site_fract_y
 _atom_site_fract_z
 _atom_site_occupancy
  Li  Li0  1  0.00000000  0.00000000  0.00000000  1
  Li  Li1  1  0.00000000  0.50000000  0.50000000  1
  Li  Li2  1  0.39651761  0.32677355  0.12122059  1
  Li  Li3  1  0.39651761  0.17322645  0.62122059  1
  Li  Li4  1  0.60348239  0.82677355  0.37877941  1
  Li  Li5  1  0.60348239  0.67322645  0.87877941  1
  V  V6  1  0.25896971  0.64961206  0.19205692  1
  V  V7  1  0.25896971  0.85038794  0.69205692  1
  V  V8  1  0.74103029  0.14961206  0.30794308  1
  V  V9  1  0.74103029  0.35038794  0.80794308  1
  F  F10  1  0.00268819  0.08801510  0.37209908  1
  F  F11  1  0.08317212  0.79308408  0.25040812  1
  F  F12  1  0.14689445  0.57314590  0.35641024  1
  F  F13  1  0.00268819  0.41198490  0.87209908  1
  F  F14  1  0.08317212  0.70691592  0.75040812  1
  F  F15  1  0.39555443  0.72588801  0.03464134  1
  F  F16  1  0.14689445  0.92685410  0.85641024  1
  F  F17  1  0.43565416  0.49837622  0.14315402  1
  F  F18  1  0.45868238  0.20848416  0.24319258  1
  F  F19  1  0.39555443  0.77411199  0.53464134  1
  F  F20  1  0.54131762  0.70848416  0.25680742  1
  F  F21  1  0.43565416  0.00162378  0.64315402  1
  F  F22  1  0.56434584  0.99837622  0.35684598  1
  F  F23  1  0.45868238  0.29151584  0.74319258  1
  F  F24  1  0.60444557  0.22588801  0.46535866  1
  F  F25  1  0.54131762  0.79151584  0.75680742  1
  F  F26  1  0.56434584  0.50162378  0.85684598  1
  F  F27  1  0.85310555  0.07314590  0.14358976  1
  F  F28  1  0.60444557  0.27411199  0.96535866  1
  F  F29  1  0.91682788  0.29308408  0.24959188  1
  F  F30  1  0.99731181  0.58801510  0.12790092  1
  F  F31  1  0.85310555  0.42685410  0.64358976  1
  F  F32  1  0.91682788  0.20691592  0.74959188  1
  F  F33  1  0.99731181  0.91198490  0.62790092  1
