# generated using pymatgen
data_Sr2Ca49Mo12N56O3
_symmetry_space_group_name_H-M   'P 1'
_cell_length_a   10.63369410
_cell_length_b   12.44386657
_cell_length_c   16.01338575
_cell_angle_alpha   102.52825191
_cell_angle_beta   95.36279142
_cell_angle_gamma   110.07796999
_symmetry_Int_Tables_number   1
_chemical_formula_structural   Sr2Ca49Mo12N56O3
_chemical_formula_sum   'Sr2 Ca49 Mo12 N56 O3'
_cell_volume   1909.92950339
_cell_formula_units_Z   1
loop_
 _symmetry_equiv_pos_site_id
 _symmetry_equiv_pos_as_xyz
  1  'x, y, z'
loop_
 _atom_site_type_symbol
 _atom_site_label
 _atom_site_symmetry_multiplicity
 _atom_site_fract_x
 _atom_site_fract_y
 _atom_site_fract_z
 _atom_site_occupancy
  Sr  Sr0  1  0.56853701  0.13997707  0.65941307  1
  Sr  Sr1  1  0.43146299  0.86002293  0.34058693  1
  Ca  Ca2  1  0.51196078  0.44992254  0.19996108  1
  Ca  Ca3  1  0.48803922  0.55007746  0.80003892  1
  Ca  Ca4  1  0.59029566  0.19804915  0.25521080  1
  Ca  Ca5  1  0.40970434  0.80195085  0.74478920  1
  Ca  Ca6  1  0.18106174  0.52117695  0.67093172  1
  Ca  Ca7  1  0.81893826  0.47882305  0.32906828  1
  Ca  Ca8  1  0.25469618  0.27257223  0.70644080  1
  Ca  Ca9  1  0.74530382  0.72742777  0.29355920  1
  Ca  Ca10  1  0.13718065  0.59443155  0.25481252  1
  Ca  Ca11  1  0.86281935  0.40556845  0.74518748  1
  Ca  Ca12  1  0.43824624  0.67507497  0.15378538  1
  Ca  Ca13  1  0.56175376  0.32492503  0.84621462  1
  Ca  Ca14  1  0.21363363  0.36418527  0.28431839  1
  Ca  Ca15  1  0.78636637  0.63581473  0.71568161  1
  Ca  Ca16  1  0.06285157  0.82446289  0.21801176  1
  Ca  Ca17  1  0.93714843  0.17553711  0.78198824  1
  Ca  Ca18  1  0.23596661  0.30661711  0.49479616  1
  Ca  Ca19  1  0.76403339  0.69338289  0.50520384  1
  Ca  Ca20  1  0.89868099  0.30727944  0.16913943  1
  Ca  Ca21  1  0.10131901  0.69272056  0.83086057  1
  Ca  Ca22  1  0.65761188  0.01207763  0.06528314  1
  Ca  Ca23  1  0.34238812  0.98792237  0.93471686  1
  Ca  Ca24  1  0.53121426  0.38202800  0.41495103  1
  Ca  Ca25  1  0.46878574  0.61797200  0.58504897  1
  Ca  Ca26  1  0.98137323  0.07033594  0.17994959  1
  Ca  Ca27  1  0.01862677  0.92966406  0.82005041  1
  Ca  Ca28  1  0.14190541  0.64152935  0.05234673  1
  Ca  Ca29  1  0.85809459  0.35847065  0.94765327  1
  Ca  Ca30  1  0.35772453  0.92348531  0.14506951  1
  Ca  Ca31  1  0.64227547  0.07651469  0.85493049  1
  Ca  Ca32  1  0.04082383  0.89342792  0.02144557  1
  Ca  Ca33  1  0.95917617  0.10657208  0.97855443  1
  Ca  Ca34  1  0.15008227  0.54306475  0.45922230  1
  Ca  Ca35  1  0.84991773  0.45693525  0.54077770  1
  Ca  Ca36  1  0.28180321  0.17052042  0.09704604  1
  Ca  Ca37  1  0.71819679  0.82947958  0.90295396  1
  Ca  Ca38  1  0.80616173  0.54395646  0.12492417  1
  Ca  Ca39  1  0.19383827  0.45604354  0.87507583  1
  Ca  Ca40  1  0.09569576  0.73071736  0.62732482  1
  Ca  Ca41  1  0.90430424  0.26928264  0.37267518  1
  Ca  Ca42  1  0.30738231  0.03624650  0.47437398  1
  Ca  Ca43  1  0.69261769  0.96375350  0.52562602  1
  Ca  Ca44  1  0.26200804  0.21961579  0.90402881  1
  Ca  Ca45  1  0.73799196  0.78038421  0.09597119  1
  Ca  Ca46  1  0.61996280  0.16266957  0.45417033  1
  Ca  Ca47  1  0.38003720  0.83733043  0.54582967  1
  Ca  Ca48  1  0.96724402  0.02411270  0.40196669  1
  Ca  Ca49  1  0.03275598  0.97588730  0.59803331  1
  Ca  Ca50  1  0.50000000  0.50000000  -0.00000000  1
  Mo  Mo51  1  0.27160467  0.01407050  0.73744402  1
  Mo  Mo52  1  0.72839533  0.98592950  0.26255598  1
  Mo  Mo53  1  0.47135777  0.60233005  0.38400190  1
  Mo  Mo54  1  0.52864223  0.39766995  0.61599810  1
  Mo  Mo55  1  0.27980355  0.12039859  0.28366414  1
  Mo  Mo56  1  0.72019645  0.87960141  0.71633586  1
  Mo  Mo57  1  0.59055539  0.24343387  0.06942891  1
  Mo  Mo58  1  0.40944461  0.75656613  0.93057109  1
  Mo  Mo59  1  0.02189816  0.74178171  0.40688394  1
  Mo  Mo60  1  0.97810184  0.25821829  0.59311606  1
  Mo  Mo61  1  0.12678013  0.38178752  0.05541624  1
  Mo  Mo62  1  0.87321987  0.61821248  0.94458376  1
  N  N63  1  0.72964762  0.02305731  0.38303402  1
  N  N64  1  0.27035238  0.97694269  0.61696598  1
  N  N65  1  0.71848627  0.32465204  0.39505813  1
  N  N66  1  0.28151373  0.67534796  0.60494187  1
  N  N67  1  0.20982873  0.79704110  0.41138961  1
  N  N68  1  0.79017127  0.20295890  0.58861039  1
  N  N69  1  0.79402080  0.12721443  0.22512450  1
  N  N70  1  0.20597920  0.87278557  0.77487550  1
  N  N71  1  0.05307573  0.29303096  0.93615348  1
  N  N72  1  0.94692427  0.70696904  0.06384652  1
  N  N73  1  0.71692997  0.19979471  0.00572536  1
  N  N74  1  0.28307003  0.80020529  0.99427464  1
  N  N75  1  0.02852329  0.42224279  0.31134840  1
  N  N76  1  0.97147671  0.57775721  0.68865160  1
  N  N77  1  0.40127125  0.05927013  0.32831694  1
  N  N78  1  0.59872875  0.94072987  0.67168306  1
  N  N79  1  0.35611853  0.48322931  0.43058276  1
  N  N80  1  0.64388147  0.51677069  0.56941724  1
  N  N81  1  0.45272942  0.24958332  0.53142256  1
  N  N82  1  0.54727058  0.75041668  0.46857744  1
  N  N83  1  0.63049945  0.61404818  0.15284246  1
  N  N84  1  0.36950055  0.38595182  0.84715754  1
  N  N85  1  0.15775002  0.15331713  0.35595186  1
  N  N86  1  0.84224998  0.84668287  0.64404814  1
  N  N87  1  0.48605617  0.10290978  0.09712116  1
  N  N88  1  0.51394383  0.89709022  0.90287884  1
  N  N89  1  0.05806829  0.14669552  0.55286709  1
  N  N90  1  0.94193171  0.85330448  0.44713291  1
  N  N91  1  0.28598160  0.50229964  0.04914232  1
  N  N92  1  0.71401840  0.49770036  0.95085768  1
  N  N93  1  0.69007228  0.35686454  0.17709730  1
  N  N94  1  0.30992772  0.64313546  0.82290270  1
  N  N95  1  0.15221135  0.04415689  0.95791388  1
  N  N96  1  0.84778865  0.95584311  0.04208612  1
  N  N97  1  0.37891318  0.44122322  0.64155418  1
  N  N98  1  0.62108682  0.55877678  0.35844582  1
  N  N99  1  0.14211918  0.08755983  0.75347065  1
  N  N100  1  0.85788082  0.91244017  0.24652935  1
  N  N101  1  0.44064444  0.11297852  0.80754429  1
  N  N102  1  0.55935556  0.88702148  0.19245571  1
  N  N103  1  0.46204124  0.29728242  0.02339144  1
  N  N104  1  0.53795876  0.70271758  0.97660856  1
  N  N105  1  0.37489647  0.59958283  0.27880984  1
  N  N106  1  0.62510353  0.40041717  0.72119016  1
  N  N107  1  0.03931730  0.37236158  0.52801710  1
  N  N108  1  0.96068270  0.62763842  0.47198290  1
  N  N109  1  0.17805524  0.01021536  0.17393751  1
  N  N110  1  0.82194476  0.98978464  0.82606249  1
  N  N111  1  0.05966729  0.33398964  0.71362985  1
  N  N112  1  0.94033271  0.66601036  0.28637015  1
  N  N113  1  0.11365796  0.26894655  0.12321237  1
  N  N114  1  0.88634204  0.73105345  0.87678763  1
  N  N115  1  0.38315292  0.26262188  0.25841772  1
  N  N116  1  0.61684708  0.73737812  0.74158228  1
  N  N117  1  0.00960696  0.45851037  0.09435528  1
  N  N118  1  0.99039304  0.54148963  0.90564472  1
  O  O119  1  0.23751552  0.75686415  0.19296787  1
  O  O120  1  0.76248448  0.24313585  0.80703213  1
  O  O121  1  0.50000000  -0.00000000  0.50000000  1
