# generated using pymatgen
data_NdZr2F11
_symmetry_space_group_name_H-M   'P 1'
_cell_length_a   7.89550730
_cell_length_b   8.48912157
_cell_length_c   8.48912157
_cell_angle_alpha   73.51499241
_cell_angle_beta   62.28739842
_cell_angle_gamma   62.28739842
_symmetry_Int_Tables_number   1
_chemical_formula_structural   NdZr2F11
_chemical_formula_sum   'Nd2 Zr4 F22'
_cell_volume   444.28437488
_cell_formula_units_Z   2
loop_
 _symmetry_equiv_pos_site_id
 _symmetry_equiv_pos_as_xyz
  1  'x, y, z'
loop_
 _atom_site_type_symbol
 _atom_site_label
 _atom_site_symmetry_multiplicity
 _atom_site_fract_x
 _atom_site_fract_y
 _atom_site_fract_z
 _atom_site_occupancy
  Nd  Nd0  1  0.25000000  0.25000000  0.25000000  1
  Nd  Nd1  1  0.75000000  0.75000000  0.75000000  1
  Zr  Zr2  1  0.86517382  0.81884477  0.18115523  1
  Zr  Zr3  1  0.13482618  0.18115523  0.81884477  1
  Zr  Zr4  1  0.63482618  0.31884477  0.68115523  1
  Zr  Zr5  1  0.36517382  0.68115523  0.31884477  1
  F  F6  1  0.60421525  0.05415996  0.20641106  1
  F  F7  1  0.39578475  0.94584004  0.79358894  1
  F  F8  1  0.13521372  0.20641106  0.05415996  1
  F  F9  1  0.89578475  0.29358894  0.44584004  1
  F  F10  1  0.86478628  0.79358894  0.94584004  1
  F  F11  1  0.10421525  0.70641106  0.55415996  1
  F  F12  1  0.36478628  0.44584004  0.29358894  1
  F  F13  1  0.63521372  0.55415996  0.70641106  1
  F  F14  1  0.00000000  -0.00000000  -0.00000000  1
  F  F15  1  0.50000000  0.50000000  0.50000000  1
  F  F16  1  0.62962250  0.71951992  0.28048008  1
  F  F17  1  0.37037750  0.28048008  0.71951992  1
  F  F18  1  0.87037750  0.21951992  0.78048008  1
  F  F19  1  0.12962250  0.78048008  0.21951992  1
  F  F20  1  0.76177519  0.82058000  0.45317789  1
  F  F21  1  0.23822481  0.17942000  0.54682211  1
  F  F22  1  0.96446693  0.45317789  0.82058000  1
  F  F23  1  0.73822481  0.04682211  0.67942000  1
  F  F24  1  0.03553307  0.54682211  0.17942000  1
  F  F25  1  0.26177519  0.95317789  0.32058000  1
  F  F26  1  0.53553307  0.67942000  0.04682211  1
  F  F27  1  0.46446693  0.32058000  0.95317789  1
