# generated using pymatgen
data_PrGePd
_symmetry_space_group_name_H-M   'P 1'
_cell_length_a   4.54472807
_cell_length_b   22.19422664
_cell_length_c   7.71070886
_cell_angle_alpha   90.00000000
_cell_angle_beta   90.00000000
_cell_angle_gamma   90.00000000
_symmetry_Int_Tables_number   1
_chemical_formula_structural   PrGePd
_chemical_formula_sum   'Pr12 Ge12 Pd12'
_cell_volume   777.75394862
_cell_formula_units_Z   12
loop_
 _symmetry_equiv_pos_site_id
 _symmetry_equiv_pos_as_xyz
  1  'x, y, z'
loop_
 _atom_site_type_symbol
 _atom_site_label
 _atom_site_symmetry_multiplicity
 _atom_site_fract_x
 _atom_site_fract_y
 _atom_site_fract_z
 _atom_site_occupancy
  Pr  Pr0  1  0.75000000  0.66680816  0.29040433  1
  Pr  Pr1  1  0.25000000  0.33319184  0.70959567  1
  Pr  Pr2  1  0.25000000  0.83319184  0.79040433  1
  Pr  Pr3  1  0.75000000  0.16680816  0.20959567  1
  Pr  Pr4  1  0.75000000  0.83370248  0.20909842  1
  Pr  Pr5  1  0.25000000  0.16629752  0.79090158  1
  Pr  Pr6  1  0.25000000  0.66629752  0.70909842  1
  Pr  Pr7  1  0.75000000  0.33370248  0.29090158  1
  Pr  Pr8  1  0.75000000  0.99857933  0.28307121  1
  Pr  Pr9  1  0.25000000  0.00142067  0.71692879  1
  Pr  Pr10  1  0.25000000  0.50142067  0.78307121  1
  Pr  Pr11  1  0.75000000  0.49857933  0.21692879  1
  Ge  Ge12  1  0.75000000  0.92910912  0.91174995  1
  Ge  Ge13  1  0.25000000  0.07089088  0.08825005  1
  Ge  Ge14  1  0.25000000  0.57089088  0.41174995  1
  Ge  Ge15  1  0.75000000  0.42910912  0.58825005  1
  Ge  Ge16  1  0.75000000  0.73030451  0.91773578  1
  Ge  Ge17  1  0.25000000  0.26969549  0.08226422  1
  Ge  Ge18  1  0.25000000  0.76969549  0.41773578  1
  Ge  Ge19  1  0.75000000  0.23030451  0.58226422  1
  Ge  Ge20  1  0.75000000  0.60277797  0.91602022  1
  Ge  Ge21  1  0.25000000  0.39722203  0.08397978  1
  Ge  Ge22  1  0.25000000  0.89722203  0.41602022  1
  Ge  Ge23  1  0.75000000  0.10277797  0.58397978  1
  Pd  Pd24  1  0.75000000  0.76239383  0.58372039  1
  Pd  Pd25  1  0.25000000  0.23760617  0.41627961  1
  Pd  Pd26  1  0.25000000  0.73760617  0.08372039  1
  Pd  Pd27  1  0.75000000  0.26239383  0.91627961  1
  Pd  Pd28  1  0.75000000  0.56530787  0.58220871  1
  Pd  Pd29  1  0.25000000  0.43469213  0.41779129  1
  Pd  Pd30  1  0.25000000  0.93469213  0.08220871  1
  Pd  Pd31  1  0.75000000  0.06530787  0.91779129  1
  Pd  Pd32  1  0.75000000  0.90637237  0.57994364  1
  Pd  Pd33  1  0.25000000  0.09362763  0.42005636  1
  Pd  Pd34  1  0.25000000  0.59362763  0.07994364  1
  Pd  Pd35  1  0.75000000  0.40637237  0.92005636  1
