# generated using pymatgen
data_Mn2Be3Tl2F12
_symmetry_space_group_name_H-M   'P 1'
_cell_length_a   10.41334621
_cell_length_b   10.41334621
_cell_length_c   10.41334621
_cell_angle_alpha   90.00000000
_cell_angle_beta   90.00000000
_cell_angle_gamma   90.00000000
_symmetry_Int_Tables_number   1
_chemical_formula_structural   Mn2Be3Tl2F12
_chemical_formula_sum   'Mn8 Be12 Tl8 F48'
_cell_volume   1129.20013798
_cell_formula_units_Z   4
loop_
 _symmetry_equiv_pos_site_id
 _symmetry_equiv_pos_as_xyz
  1  'x, y, z'
loop_
 _atom_site_type_symbol
 _atom_site_label
 _atom_site_symmetry_multiplicity
 _atom_site_fract_x
 _atom_site_fract_y
 _atom_site_fract_z
 _atom_site_occupancy
  Mn  Mn0  1  0.33472970  0.33472970  0.33472970  1
  Mn  Mn1  1  0.16527030  0.66527030  0.83472970  1
  Mn  Mn2  1  0.66527030  0.83472970  0.16527030  1
  Mn  Mn3  1  0.83472970  0.16527030  0.66527030  1
  Mn  Mn4  1  0.59819988  0.59819988  0.59819988  1
  Mn  Mn5  1  0.90180012  0.40180012  0.09819988  1
  Mn  Mn6  1  0.40180012  0.09819988  0.90180012  1
  Mn  Mn7  1  0.09819988  0.90180012  0.40180012  1
  Be  Be8  1  0.01885308  0.21550782  0.37581437  1
  Be  Be9  1  0.48114692  0.78449218  0.87581437  1
  Be  Be10  1  0.98114692  0.71550782  0.12418563  1
  Be  Be11  1  0.37581437  0.01885308  0.21550782  1
  Be  Be12  1  0.51885308  0.28449218  0.62418563  1
  Be  Be13  1  0.87581437  0.48114692  0.78449218  1
  Be  Be14  1  0.12418563  0.98114692  0.71550782  1
  Be  Be15  1  0.62418563  0.51885308  0.28449218  1
  Be  Be16  1  0.21550782  0.37581437  0.01885308  1
  Be  Be17  1  0.71550782  0.12418563  0.98114692  1
  Be  Be18  1  0.28449218  0.62418563  0.51885308  1
  Be  Be19  1  0.78449218  0.87581437  0.48114692  1
  Tl  Tl20  1  0.04900752  0.04900752  0.04900752  1
  Tl  Tl21  1  0.45099248  0.95099248  0.54900752  1
  Tl  Tl22  1  0.95099248  0.54900752  0.45099248  1
  Tl  Tl23  1  0.54900752  0.45099248  0.95099248  1
  Tl  Tl24  1  0.81671374  0.81671374  0.81671374  1
  Tl  Tl25  1  0.68328626  0.18328626  0.31671374  1
  Tl  Tl26  1  0.18328626  0.31671374  0.68328626  1
  Tl  Tl27  1  0.31671374  0.68328626  0.18328626  1
  F  F28  1  0.01130635  0.07297499  0.32873623  1
  F  F29  1  0.48869365  0.92702501  0.82873623  1
  F  F30  1  0.98869365  0.57297499  0.17126377  1
  F  F31  1  0.32873623  0.01130635  0.07297499  1
  F  F32  1  0.51130635  0.42702501  0.67126377  1
  F  F33  1  0.82873623  0.48869365  0.92702501  1
  F  F34  1  0.17126377  0.98869365  0.57297499  1
  F  F35  1  0.67126377  0.51130635  0.42702501  1
  F  F36  1  0.07297499  0.32873623  0.01130635  1
  F  F37  1  0.57297499  0.17126377  0.98869365  1
  F  F38  1  0.42702501  0.67126377  0.51130635  1
  F  F39  1  0.92702501  0.82873623  0.48869365  1
  F  F40  1  0.26614341  0.49811859  0.43922008  1
  F  F41  1  0.23385659  0.50188141  0.93922008  1
  F  F42  1  0.73385659  0.99811859  0.06077992  1
  F  F43  1  0.43922008  0.26614341  0.49811859  1
  F  F44  1  0.76614341  0.00188141  0.56077992  1
  F  F45  1  0.93922008  0.23385659  0.50188141  1
  F  F46  1  0.06077992  0.73385659  0.99811859  1
  F  F47  1  0.56077992  0.76614341  0.00188141  1
  F  F48  1  0.49811859  0.43922008  0.26614341  1
  F  F49  1  0.99811859  0.06077992  0.73385659  1
  F  F50  1  0.00188141  0.56077992  0.76614341  1
  F  F51  1  0.50188141  0.93922008  0.23385659  1
  F  F52  1  0.04415830  0.80509402  0.22772154  1
  F  F53  1  0.45584170  0.19490598  0.72772154  1
  F  F54  1  0.95584170  0.30509402  0.27227846  1
  F  F55  1  0.22772154  0.04415830  0.80509402  1
  F  F56  1  0.54415830  0.69490598  0.77227846  1
  F  F57  1  0.72772154  0.45584170  0.19490598  1
  F  F58  1  0.27227846  0.95584170  0.30509402  1
  F  F59  1  0.77227846  0.54415830  0.69490598  1
  F  F60  1  0.80509402  0.22772154  0.04415830  1
  F  F61  1  0.30509402  0.27227846  0.95584170  1
  F  F62  1  0.69490598  0.77227846  0.54415830  1
  F  F63  1  0.19490598  0.72772154  0.45584170  1
  F  F64  1  0.16014701  0.25478213  0.40261129  1
  F  F65  1  0.33985299  0.74521787  0.90261129  1
  F  F66  1  0.83985299  0.75478213  0.09738871  1
  F  F67  1  0.40261129  0.16014701  0.25478213  1
  F  F68  1  0.66014701  0.24521787  0.59738871  1
  F  F69  1  0.90261129  0.33985299  0.74521787  1
  F  F70  1  0.09738871  0.83985299  0.75478213  1
  F  F71  1  0.59738871  0.66014701  0.24521787  1
  F  F72  1  0.25478213  0.40261129  0.16014701  1
  F  F73  1  0.75478213  0.09738871  0.83985299  1
  F  F74  1  0.24521787  0.59738871  0.66014701  1
  F  F75  1  0.74521787  0.90261129  0.33985299  1
