# generated using pymatgen
data_Na3La(PO4)2
_symmetry_space_group_name_H-M   'P 1'
_cell_length_a   5.43044202
_cell_length_b   14.17153407
_cell_length_c   19.00887306
_cell_angle_alpha   90.00000000
_cell_angle_beta   90.00000000
_cell_angle_gamma   90.00000000
_symmetry_Int_Tables_number   1
_chemical_formula_structural   Na3La(PO4)2
_chemical_formula_sum   'Na24 La8 P16 O64'
_cell_volume   1462.87903817
_cell_formula_units_Z   8
loop_
 _symmetry_equiv_pos_site_id
 _symmetry_equiv_pos_as_xyz
  1  'x, y, z'
loop_
 _atom_site_type_symbol
 _atom_site_label
 _atom_site_symmetry_multiplicity
 _atom_site_fract_x
 _atom_site_fract_y
 _atom_site_fract_z
 _atom_site_occupancy
  Na  Na0  1  0.98235037  0.21670475  0.99361079  1
  Na  Na1  1  0.01764963  0.78329525  0.49361079  1
  Na  Na2  1  0.01764963  0.71670475  0.99361079  1
  Na  Na3  1  0.98235037  0.28329525  0.49361079  1
  Na  Na4  1  0.98779518  0.95233456  0.64785292  1
  Na  Na5  1  0.01220482  0.04766544  0.14785292  1
  Na  Na6  1  0.01220482  0.45233456  0.64785292  1
  Na  Na7  1  0.98779518  0.54766544  0.14785292  1
  Na  Na8  1  0.98960990  0.86180618  0.82841373  1
  Na  Na9  1  0.01039010  0.13819382  0.32841373  1
  Na  Na10  1  0.01039010  0.36180618  0.82841373  1
  Na  Na11  1  0.98960990  0.63819382  0.32841373  1
  Na  Na12  1  0.47463397  0.79730592  0.73193542  1
  Na  Na13  1  0.52536603  0.20269408  0.23193542  1
  Na  Na14  1  0.52536603  0.29730592  0.73193542  1
  Na  Na15  1  0.47463397  0.70269408  0.23193542  1
  Na  Na16  1  0.53941429  0.96735746  0.88809616  1
  Na  Na17  1  0.46058571  0.03264254  0.38809616  1
  Na  Na18  1  0.46058571  0.46735746  0.88809616  1
  Na  Na19  1  0.53941429  0.53264254  0.38809616  1
  Na  Na20  1  0.49708895  0.88446368  0.55101795  1
  Na  Na21  1  0.50291105  0.11553632  0.05101795  1
  Na  Na22  1  0.50291105  0.38446368  0.55101795  1
  Na  Na23  1  0.49708895  0.61553632  0.05101795  1
  La  La24  1  0.93143997  0.61379640  0.80300707  1
  La  La25  1  0.06856003  0.38620360  0.30300707  1
  La  La26  1  0.06856003  0.11379640  0.80300707  1
  La  La27  1  0.93143997  0.88620360  0.30300707  1
  La  La28  1  0.55474112  0.63471981  0.57453265  1
  La  La29  1  0.44525888  0.36528019  0.07453265  1
  La  La30  1  0.44525888  0.13471981  0.57453265  1
  La  La31  1  0.55474112  0.86528019  0.07453265  1
  P  P32  1  0.96875953  0.47505576  0.98048214  1
  P  P33  1  0.03124047  0.52494424  0.48048214  1
  P  P34  1  0.03124047  0.97505576  0.98048214  1
  P  P35  1  0.96875953  0.02494424  0.48048214  1
  P  P36  1  0.98547659  0.22984876  0.65286819  1
  P  P37  1  0.01452341  0.77015124  0.15286819  1
  P  P38  1  0.01452341  0.72984876  0.65286819  1
  P  P39  1  0.98547659  0.27015124  0.15286819  1
  P  P40  1  0.47388906  0.51961452  0.72363021  1
  P  P41  1  0.52611094  0.48038548  0.22363021  1
  P  P42  1  0.52611094  0.01961452  0.72363021  1
  P  P43  1  0.47388906  0.98038548  0.22363021  1
  P  P44  1  0.45961023  0.72653644  0.89678649  1
  P  P45  1  0.54038977  0.27346356  0.39678649  1
  P  P46  1  0.54038977  0.22653644  0.89678649  1
  P  P47  1  0.45961023  0.77346356  0.39678649  1
  O  O48  1  0.58416802  0.80358856  0.85138785  1
  O  O49  1  0.41583198  0.19641144  0.35138785  1
  O  O50  1  0.41583198  0.30358856  0.85138785  1
  O  O51  1  0.58416802  0.69641144  0.35138785  1
  O  O52  1  0.69129518  0.47015961  0.76261271  1
  O  O53  1  0.30870482  0.52984039  0.26261271  1
  O  O54  1  0.30870482  0.97015961  0.76261271  1
  O  O55  1  0.69129518  0.02984039  0.26261271  1
  O  O56  1  0.90456486  0.87810594  0.99540245  1
  O  O57  1  0.09543514  0.12189406  0.49540245  1
  O  O58  1  0.09543514  0.37810594  0.99540245  1
  O  O59  1  0.90456486  0.62189406  0.49540245  1
  O  O60  1  0.80566870  0.78109106  0.61141633  1
  O  O61  1  0.19433130  0.21890894  0.11141633  1
  O  O62  1  0.19433130  0.28109106  0.61141633  1
  O  O63  1  0.80566870  0.71890894  0.11141633  1
  O  O64  1  0.68596737  0.46773596  0.99660044  1
  O  O65  1  0.31403263  0.53226404  0.49660044  1
  O  O66  1  0.31403263  0.96773596  0.99660044  1
  O  O67  1  0.68596737  0.03226404  0.49660044  1
  O  O68  1  0.91188962  0.44739279  0.52671142  1
  O  O69  1  0.08811038  0.55260721  0.02671142  1
  O  O70  1  0.08811038  0.94739279  0.52671142  1
  O  O71  1  0.91188962  0.05260721  0.02671142  1
  O  O72  1  0.77265150  0.99136266  0.75962713  1
  O  O73  1  0.22734850  0.00863734  0.25962713  1
  O  O74  1  0.22734850  0.49136266  0.75962713  1
  O  O75  1  0.77265150  0.50863734  0.25962713  1
  O  O76  1  0.58970984  0.62988909  0.88404129  1
  O  O77  1  0.41029016  0.37011091  0.38404129  1
  O  O78  1  0.41029016  0.12988909  0.88404129  1
  O  O79  1  0.58970984  0.87011091  0.38404129  1
  O  O80  1  0.51538090  0.62808461  0.72586872  1
  O  O81  1  0.48461910  0.37191539  0.22586872  1
  O  O82  1  0.48461910  0.12808461  0.72586872  1
  O  O83  1  0.51538090  0.87191539  0.22586872  1
  O  O84  1  0.96722722  0.62168905  0.65034538  1
  O  O85  1  0.03277278  0.37831095  0.15034538  1
  O  O86  1  0.03277278  0.12168905  0.65034538  1
  O  O87  1  0.96722722  0.87831095  0.15034538  1
  O  O88  1  0.82040493  0.21848133  0.87665152  1
  O  O89  1  0.17959507  0.78151867  0.37665152  1
  O  O90  1  0.17959507  0.71848133  0.87665152  1
  O  O91  1  0.82040493  0.28151867  0.37665152  1
  O  O92  1  0.98889458  0.26197636  0.73134697  1
  O  O93  1  0.01110542  0.73802364  0.23134697  1
  O  O94  1  0.01110542  0.76197636  0.73134697  1
  O  O95  1  0.98889458  0.23802364  0.23134697  1
  O  O96  1  0.52985691  0.98710942  0.64521237  1
  O  O97  1  0.47014309  0.01289058  0.14521237  1
  O  O98  1  0.47014309  0.48710942  0.64521237  1
  O  O99  1  0.52985691  0.51289058  0.14521237  1
  O  O100  1  0.99247696  0.99668336  0.90047399  1
  O  O101  1  0.00752304  0.00331664  0.40047399  1
  O  O102  1  0.00752304  0.49668336  0.90047399  1
  O  O103  1  0.99247696  0.50331664  0.40047399  1
  O  O104  1  0.26660044  0.75662738  0.61944559  1
  O  O105  1  0.73339956  0.24337262  0.11944559  1
  O  O106  1  0.73339956  0.25662738  0.61944559  1
  O  O107  1  0.26660044  0.74337262  0.11944559  1
  O  O108  1  0.47235901  0.74885246  0.97722211  1
  O  O109  1  0.52764099  0.25114754  0.47722211  1
  O  O110  1  0.52764099  0.24885246  0.97722211  1
  O  O111  1  0.47235901  0.75114754  0.47722211  1
