# generated using pymatgen
data_LiTb(SO4)2
_symmetry_space_group_name_H-M   'P 1'
_cell_length_a   5.95066907
_cell_length_b   7.58879181
_cell_length_c   7.58976982
_cell_angle_alpha   90.00000000
_cell_angle_beta   90.00000000
_cell_angle_gamma   90.00000000
_symmetry_Int_Tables_number   1
_chemical_formula_structural   LiTb(SO4)2
_chemical_formula_sum   'Li2 Tb2 S4 O16'
_cell_volume   342.74177569
_cell_formula_units_Z   2
loop_
 _symmetry_equiv_pos_site_id
 _symmetry_equiv_pos_as_xyz
  1  'x, y, z'
loop_
 _atom_site_type_symbol
 _atom_site_label
 _atom_site_symmetry_multiplicity
 _atom_site_fract_x
 _atom_site_fract_y
 _atom_site_fract_z
 _atom_site_occupancy
  Li  Li0  1  0.00827531  -0.00000000  0.00000000  1
  Li  Li1  1  0.50827531  0.50000000  0.50000000  1
  Tb  Tb2  1  0.50898064  -0.00000000  -0.00000000  1
  Tb  Tb3  1  0.00898064  0.50000000  0.50000000  1
  S  S4  1  0.00872054  0.22319628  0.22275629  1
  S  S5  1  0.00872054  0.77680372  0.77724371  1
  S  S6  1  0.50872054  0.72319628  0.27724371  1
  S  S7  1  0.50872054  0.27680372  0.72275629  1
  O  O8  1  0.18966590  0.18446218  0.08834254  1
  O  O9  1  0.18966590  0.81553782  0.91165746  1
  O  O10  1  0.68966590  0.68446218  0.41165746  1
  O  O11  1  0.68966590  0.31553782  0.58834254  1
  O  O12  1  0.32792122  0.58854827  0.31561267  1
  O  O13  1  0.32792122  0.41145173  0.68438733  1
  O  O14  1  0.82792122  0.08854827  0.18438733  1
  O  O15  1  0.82792122  0.91145173  0.81561267  1
  O  O16  1  0.10101036  0.20837954  0.40359463  1
  O  O17  1  0.10101036  0.79162046  0.59640537  1
  O  O18  1  0.60101036  0.70837954  0.09640537  1
  O  O19  1  0.60101036  0.29162046  0.90359463  1
  O  O20  1  0.41655400  0.09619169  0.70807069  1
  O  O21  1  0.41655400  0.90380831  0.29192931  1
  O  O22  1  0.91655400  0.59619169  0.79192931  1
  O  O23  1  0.91655400  0.40380831  0.20807069  1
