# generated using pymatgen
data_LiSm2RuO6
_symmetry_space_group_name_H-M   'P 1'
_cell_length_a   5.40296398
_cell_length_b   5.78652199
_cell_length_c   7.71216900
_cell_angle_alpha   90.00000000
_cell_angle_beta   90.51692440
_cell_angle_gamma   90.00000000
_symmetry_Int_Tables_number   1
_chemical_formula_structural   LiSm2RuO6
_chemical_formula_sum   'Li2 Sm4 Ru2 O12'
_cell_volume   241.10629109
_cell_formula_units_Z   2
loop_
 _symmetry_equiv_pos_site_id
 _symmetry_equiv_pos_as_xyz
  1  'x, y, z'
loop_
 _atom_site_type_symbol
 _atom_site_label
 _atom_site_symmetry_multiplicity
 _atom_site_fract_x
 _atom_site_fract_y
 _atom_site_fract_z
 _atom_site_occupancy
  Li  Li0  1  0.00000000  0.00000000  0.50000000  1
  Li  Li1  1  0.50000000  0.50000000  -0.00000000  1
  Sm  Sm2  1  0.98226660  0.57469417  0.25147616  1
  Sm  Sm3  1  0.01773340  0.42530583  0.74852384  1
  Sm  Sm4  1  0.51773340  0.07469417  0.24852384  1
  Sm  Sm5  1  0.48226660  0.92530583  0.75147616  1
  Ru  Ru6  1  0.00000000  0.00000000  -0.00000000  1
  Ru  Ru7  1  0.50000000  0.50000000  0.50000000  1
  O  O8  1  0.82157371  0.29107921  0.05680434  1
  O  O9  1  0.17842629  0.70892079  0.94319566  1
  O  O10  1  0.67842629  0.79107921  0.44319566  1
  O  O11  1  0.32157371  0.20892079  0.55680434  1
  O  O12  1  0.10595653  0.96485789  0.24426996  1
  O  O13  1  0.89404347  0.03514211  0.75573004  1
  O  O14  1  0.39404347  0.46485789  0.25573004  1
  O  O15  1  0.60595653  0.53514211  0.74426996  1
  O  O16  1  0.70068875  0.81731668  0.05136628  1
  O  O17  1  0.29931125  0.18268332  0.94863372  1
  O  O18  1  0.79931125  0.31731668  0.44863372  1
  O  O19  1  0.20068875  0.68268332  0.55136628  1
