# generated using pymatgen
data_Nd3Sc2(FeO4)3
_symmetry_space_group_name_H-M   'P 1'
_cell_length_a   11.15837017
_cell_length_b   11.15837017
_cell_length_c   11.15837017
_cell_angle_alpha   109.47122063
_cell_angle_beta   109.47122063
_cell_angle_gamma   109.47122063
_symmetry_Int_Tables_number   1
_chemical_formula_structural   Nd3Sc2(FeO4)3
_chemical_formula_sum   'Nd12 Sc8 Fe12 O48'
_cell_volume   1069.49904973
_cell_formula_units_Z   4
loop_
 _symmetry_equiv_pos_site_id
 _symmetry_equiv_pos_as_xyz
  1  'x, y, z'
loop_
 _atom_site_type_symbol
 _atom_site_label
 _atom_site_symmetry_multiplicity
 _atom_site_fract_x
 _atom_site_fract_y
 _atom_site_fract_z
 _atom_site_occupancy
  Nd  Nd0  1  0.87500000  0.62500000  0.75000000  1
  Nd  Nd1  1  0.12500000  0.37500000  0.25000000  1
  Nd  Nd2  1  0.62500000  0.87500000  0.25000000  1
  Nd  Nd3  1  0.62500000  0.75000000  0.87500000  1
  Nd  Nd4  1  0.87500000  0.25000000  0.62500000  1
  Nd  Nd5  1  0.37500000  0.12500000  0.75000000  1
  Nd  Nd6  1  0.37500000  0.25000000  0.12500000  1
  Nd  Nd7  1  0.12500000  0.75000000  0.37500000  1
  Nd  Nd8  1  0.75000000  0.87500000  0.62500000  1
  Nd  Nd9  1  0.25000000  0.12500000  0.37500000  1
  Nd  Nd10  1  0.25000000  0.62500000  0.87500000  1
  Nd  Nd11  1  0.75000000  0.37500000  0.12500000  1
  Sc  Sc12  1  0.00000000  0.00000000  0.00000000  1
  Sc  Sc13  1  0.50000000  0.00000000  0.50000000  1
  Sc  Sc14  1  0.50000000  0.50000000  0.00000000  1
  Sc  Sc15  1  0.00000000  0.00000000  0.50000000  1
  Sc  Sc16  1  0.00000000  0.50000000  0.50000000  1
  Sc  Sc17  1  0.50000000  0.50000000  0.50000000  1
  Sc  Sc18  1  0.50000000  0.00000000  0.00000000  1
  Sc  Sc19  1  0.00000000  0.50000000  0.00000000  1
  Fe  Fe20  1  0.62500000  0.37500000  0.75000000  1
  Fe  Fe21  1  0.37500000  0.62500000  0.25000000  1
  Fe  Fe22  1  0.87500000  0.12500000  0.25000000  1
  Fe  Fe23  1  0.37500000  0.75000000  0.62500000  1
  Fe  Fe24  1  0.62500000  0.25000000  0.37500000  1
  Fe  Fe25  1  0.12500000  0.87500000  0.75000000  1
  Fe  Fe26  1  0.12500000  0.25000000  0.87500000  1
  Fe  Fe27  1  0.87500000  0.75000000  0.12500000  1
  Fe  Fe28  1  0.75000000  0.62500000  0.37500000  1
  Fe  Fe29  1  0.25000000  0.37500000  0.62500000  1
  Fe  Fe30  1  0.25000000  0.87500000  0.12500000  1
  Fe  Fe31  1  0.75000000  0.12500000  0.87500000  1
  O  O32  1  0.70802415  0.62396378  0.52699642  1
  O  O33  1  0.29197585  0.37603622  0.47300358  1
  O  O34  1  0.79197585  0.81897227  0.41593963  1
  O  O35  1  0.40303264  0.87603622  0.08406037  1
  O  O36  1  0.62396378  0.52699642  0.70802415  1
  O  O37  1  0.70802415  0.08406037  0.68102773  1
  O  O38  1  0.20802415  0.18102773  0.58406037  1
  O  O39  1  0.59696736  0.12396378  0.91593963  1
  O  O40  1  0.37603622  0.47300358  0.29197585  1
  O  O41  1  0.29197585  0.91593963  0.31897227  1
  O  O42  1  0.09696736  0.68102773  0.97300358  1
  O  O43  1  0.81897227  0.41593963  0.79197585  1
  O  O44  1  0.79197585  0.97300358  0.87603622  1
  O  O45  1  0.90303264  0.31897227  0.02699642  1
  O  O46  1  0.18102773  0.58406037  0.20802415  1
  O  O47  1  0.20802415  0.02699642  0.12396378  1
  O  O48  1  0.87603622  0.08406037  0.40303264  1
  O  O49  1  0.40303264  0.52699642  0.81897227  1
  O  O50  1  0.12396378  0.91593963  0.59696736  1
  O  O51  1  0.59696736  0.47300358  0.18102773  1
  O  O52  1  0.68102773  0.97300358  0.09696736  1
  O  O53  1  0.09696736  0.41593963  0.62396378  1
  O  O54  1  0.31897227  0.02699642  0.90303264  1
  O  O55  1  0.90303264  0.58406037  0.37603622  1
  O  O56  1  0.52699642  0.70802415  0.62396378  1
  O  O57  1  0.62396378  0.09696736  0.41593963  1
  O  O58  1  0.47300358  0.29197585  0.37603622  1
  O  O59  1  0.37603622  0.90303264  0.58406037  1
  O  O60  1  0.08406037  0.40303264  0.87603622  1
  O  O61  1  0.87603622  0.79197585  0.97300358  1
  O  O62  1  0.91593963  0.59696736  0.12396378  1
  O  O63  1  0.12396378  0.20802415  0.02699642  1
  O  O64  1  0.97300358  0.09696736  0.68102773  1
  O  O65  1  0.68102773  0.70802415  0.08406037  1
  O  O66  1  0.02699642  0.90303264  0.31897227  1
  O  O67  1  0.31897227  0.29197585  0.91593963  1
  O  O68  1  0.41593963  0.79197585  0.81897227  1
  O  O69  1  0.81897227  0.40303264  0.52699642  1
  O  O70  1  0.58406037  0.20802415  0.18102773  1
  O  O71  1  0.18102773  0.59696736  0.47300358  1
  O  O72  1  0.08406037  0.68102773  0.70802415  1
  O  O73  1  0.91593963  0.31897227  0.29197585  1
  O  O74  1  0.97300358  0.87603622  0.79197585  1
  O  O75  1  0.02699642  0.12396378  0.20802415  1
  O  O76  1  0.41593963  0.62396378  0.09696736  1
  O  O77  1  0.58406037  0.37603622  0.90303264  1
  O  O78  1  0.52699642  0.81897227  0.40303264  1
  O  O79  1  0.47300358  0.18102773  0.59696736  1
