# generated using pymatgen
data_MnAg2SnSe4
_symmetry_space_group_name_H-M   'P 1'
_cell_length_a   7.06468012
_cell_length_b   7.48678343
_cell_length_c   8.39296955
_cell_angle_alpha   90.00000000
_cell_angle_beta   90.00000000
_cell_angle_gamma   90.00000000
_symmetry_Int_Tables_number   1
_chemical_formula_structural   MnAg2SnSe4
_chemical_formula_sum   'Mn2 Ag4 Sn2 Se8'
_cell_volume   443.91867985
_cell_formula_units_Z   2
loop_
 _symmetry_equiv_pos_site_id
 _symmetry_equiv_pos_as_xyz
  1  'x, y, z'
loop_
 _atom_site_type_symbol
 _atom_site_label
 _atom_site_symmetry_multiplicity
 _atom_site_fract_x
 _atom_site_fract_y
 _atom_site_fract_z
 _atom_site_occupancy
  Mn  Mn0  1  0.50401907  0.34388216  0.00000000  1
  Mn  Mn1  1  0.00401907  0.65611784  0.50000000  1
  Ag  Ag2  1  0.51611138  0.82630079  0.75095129  1
  Ag  Ag3  1  0.01611138  0.17369921  0.74904871  1
  Ag  Ag4  1  0.01611138  0.17369921  0.25095129  1
  Ag  Ag5  1  0.51611138  0.82630079  0.24904871  1
  Sn  Sn6  1  0.00123656  0.66162876  -0.00000000  1
  Sn  Sn7  1  0.50123656  0.33837124  0.50000000  1
  Se  Se8  1  0.86209513  0.34203358  0.00000000  1
  Se  Se9  1  0.36209513  0.65796642  0.50000000  1
  Se  Se10  1  0.89181411  0.83256086  0.74493867  1
  Se  Se11  1  0.39181411  0.16743914  0.75506133  1
  Se  Se12  1  0.39181411  0.16743914  0.24493867  1
  Se  Se13  1  0.89181411  0.83256086  0.25506133  1
  Se  Se14  1  0.36929826  0.65456669  -0.00000000  1
  Se  Se15  1  0.86929826  0.34543331  0.50000000  1
