# generated using pymatgen
data_Pr12Co6Pb
_symmetry_space_group_name_H-M   'P 1'
_cell_length_a   8.83838933
_cell_length_b   8.83838933
_cell_length_c   8.83838933
_cell_angle_alpha   109.47122063
_cell_angle_beta   109.47122063
_cell_angle_gamma   109.47122063
_symmetry_Int_Tables_number   1
_chemical_formula_structural   Pr12Co6Pb
_chemical_formula_sum   'Pr12 Co6 Pb1'
_cell_volume   531.49293305
_cell_formula_units_Z   1
loop_
 _symmetry_equiv_pos_site_id
 _symmetry_equiv_pos_as_xyz
  1  'x, y, z'
loop_
 _atom_site_type_symbol
 _atom_site_label
 _atom_site_symmetry_multiplicity
 _atom_site_fract_x
 _atom_site_fract_y
 _atom_site_fract_z
 _atom_site_occupancy
  Pr  Pr0  1  0.81070239  0.69135286  0.50205525  1
  Pr  Pr1  1  0.18929761  0.30864714  0.49794475  1
  Pr  Pr2  1  0.18929761  0.69135286  0.88065047  1
  Pr  Pr3  1  0.81070239  0.30864714  0.11934953  1
  Pr  Pr4  1  0.69135286  0.50205525  0.81070239  1
  Pr  Pr5  1  0.30864714  0.49794475  0.18929761  1
  Pr  Pr6  1  0.69135286  0.88065047  0.18929761  1
  Pr  Pr7  1  0.30864714  0.11934953  0.81070239  1
  Pr  Pr8  1  0.50205525  0.81070239  0.69135286  1
  Pr  Pr9  1  0.49794475  0.18929761  0.30864714  1
  Pr  Pr10  1  0.11934953  0.81070239  0.30864714  1
  Pr  Pr11  1  0.88065047  0.18929761  0.69135286  1
  Co  Co12  1  0.88936210  0.38936210  0.50000000  1
  Co  Co13  1  0.11063790  0.61063790  0.50000000  1
  Co  Co14  1  0.38936210  0.50000000  0.88936210  1
  Co  Co15  1  0.61063790  0.50000000  0.11063790  1
  Co  Co16  1  0.50000000  0.88936210  0.38936210  1
  Co  Co17  1  0.50000000  0.11063790  0.61063790  1
  Pb  Pb18  1  0.00000000  -0.00000000  -0.00000000  1
