# generated using pymatgen
data_CaYSiO5
_symmetry_space_group_name_H-M   'P 1'
_cell_length_a   6.66970550
_cell_length_b   7.99119772
_cell_length_c   9.28791607
_cell_angle_alpha   90.00000000
_cell_angle_beta   90.00000000
_cell_angle_gamma   109.51307332
_symmetry_Int_Tables_number   1
_chemical_formula_structural   CaYSiO5
_chemical_formula_sum   'Ca4 Y4 Si4 O20'
_cell_volume   466.60379252
_cell_formula_units_Z   4
loop_
 _symmetry_equiv_pos_site_id
 _symmetry_equiv_pos_as_xyz
  1  'x, y, z'
loop_
 _atom_site_type_symbol
 _atom_site_label
 _atom_site_symmetry_multiplicity
 _atom_site_fract_x
 _atom_site_fract_y
 _atom_site_fract_z
 _atom_site_occupancy
  Ca  Ca0  1  0.75061654  0.75759913  0.39846102  1
  Ca  Ca1  1  0.24938346  0.24240087  0.60153898  1
  Ca  Ca2  1  0.24938346  0.74240087  0.89846102  1
  Ca  Ca3  1  0.75061654  0.25759913  0.10153898  1
  Y  Y4  1  0.75025195  0.99445458  0.75070239  1
  Y  Y5  1  0.24974805  0.00554542  0.24929761  1
  Y  Y6  1  0.24974805  0.50554542  0.25070239  1
  Y  Y7  1  0.75025195  0.49445458  0.74929761  1
  Si  Si8  1  0.25098089  0.75653580  0.56735133  1
  Si  Si9  1  0.74901911  0.24346420  0.43264867  1
  Si  Si10  1  0.74901911  0.74346420  0.06735133  1
  Si  Si11  1  0.25098089  0.25653580  0.93264867  1
  O  O12  1  0.75251464  0.74326491  0.63972472  1
  O  O13  1  0.24748536  0.25673509  0.36027528  1
  O  O14  1  0.24748536  0.75673509  0.13972472  1
  O  O15  1  0.75251464  0.24326491  0.86027528  1
  O  O16  1  0.61763677  0.83665798  0.96055213  1
  O  O17  1  0.38236323  0.16334202  0.03944787  1
  O  O18  1  0.38236323  0.66334202  0.46055213  1
  O  O19  1  0.61763677  0.33665798  0.53944787  1
  O  O20  1  0.90928329  0.89570679  0.17629185  1
  O  O21  1  0.09071671  0.10429321  0.82370815  1
  O  O22  1  0.09071671  0.60429321  0.67629185  1
  O  O23  1  0.90928329  0.39570679  0.32370815  1
  O  O24  1  0.87700897  0.64625129  0.96196505  1
  O  O25  1  0.12299103  0.35374871  0.03803495  1
  O  O26  1  0.12299103  0.85374871  0.46196505  1
  O  O27  1  0.87700897  0.14625129  0.53803495  1
  O  O28  1  0.40694644  0.90022731  0.68174223  1
  O  O29  1  0.59305356  0.09977269  0.31825777  1
  O  O30  1  0.59305356  0.59977269  0.18174223  1
  O  O31  1  0.40694644  0.40022731  0.81825777  1
