# generated using pymatgen
data_La4MgRh
_symmetry_space_group_name_H-M   'P 1'
_cell_length_a   10.21630221
_cell_length_b   10.21630221
_cell_length_c   10.21630221
_cell_angle_alpha   60.00000000
_cell_angle_beta   60.00000000
_cell_angle_gamma   60.00000000
_symmetry_Int_Tables_number   1
_chemical_formula_structural   La4MgRh
_chemical_formula_sum   'La16 Mg4 Rh4'
_cell_volume   753.99105921
_cell_formula_units_Z   4
loop_
 _symmetry_equiv_pos_site_id
 _symmetry_equiv_pos_as_xyz
  1  'x, y, z'
loop_
 _atom_site_type_symbol
 _atom_site_label
 _atom_site_symmetry_multiplicity
 _atom_site_fract_x
 _atom_site_fract_y
 _atom_site_fract_z
 _atom_site_occupancy
  La  La0  1  0.65373090  0.65373090  0.65373090  1
  La  La1  1  0.03880731  0.65373090  0.65373090  1
  La  La2  1  0.65373090  0.03880731  0.65373090  1
  La  La3  1  0.65373090  0.65373090  0.03880731  1
  La  La4  1  0.81191250  0.81191250  0.18808750  1
  La  La5  1  0.18808750  0.18808750  0.81191250  1
  La  La6  1  0.81191250  0.18808750  0.81191250  1
  La  La7  1  0.18808750  0.81191250  0.18808750  1
  La  La8  1  0.18808750  0.81191250  0.81191250  1
  La  La9  1  0.81191250  0.18808750  0.18808750  1
  La  La10  1  0.43798700  0.43798700  0.06201300  1
  La  La11  1  0.06201300  0.06201300  0.43798700  1
  La  La12  1  0.43798700  0.06201300  0.43798700  1
  La  La13  1  0.06201300  0.43798700  0.06201300  1
  La  La14  1  0.06201300  0.43798700  0.43798700  1
  La  La15  1  0.43798700  0.06201300  0.06201300  1
  Mg  Mg16  1  0.42026220  0.42026220  0.42026220  1
  Mg  Mg17  1  0.73921340  0.42026220  0.42026220  1
  Mg  Mg18  1  0.42026220  0.73921340  0.42026220  1
  Mg  Mg19  1  0.42026220  0.42026220  0.73921340  1
  Rh  Rh20  1  0.85810132  0.85810132  0.85810132  1
  Rh  Rh21  1  0.42569603  0.85810132  0.85810132  1
  Rh  Rh22  1  0.85810132  0.42569603  0.85810132  1
  Rh  Rh23  1  0.85810132  0.85810132  0.42569603  1
