# generated using pymatgen
data_La2CoRuO6
_symmetry_space_group_name_H-M   'P 1'
_cell_length_a   5.61426248
_cell_length_b   5.73950087
_cell_length_c   7.92060550
_cell_angle_alpha   90.00000000
_cell_angle_beta   90.29148167
_cell_angle_gamma   90.00000000
_symmetry_Int_Tables_number   1
_chemical_formula_structural   La2CoRuO6
_chemical_formula_sum   'La4 Co2 Ru2 O12'
_cell_volume   255.22287846
_cell_formula_units_Z   2
loop_
 _symmetry_equiv_pos_site_id
 _symmetry_equiv_pos_as_xyz
  1  'x, y, z'
loop_
 _atom_site_type_symbol
 _atom_site_label
 _atom_site_symmetry_multiplicity
 _atom_site_fract_x
 _atom_site_fract_y
 _atom_site_fract_z
 _atom_site_occupancy
  La  La0  1  0.01245726  0.44023432  0.24871405  1
  La  La1  1  0.98754274  0.55976568  0.75128595  1
  La  La2  1  0.48754274  0.94023432  0.25128595  1
  La  La3  1  0.51245726  0.05976568  0.74871405  1
  Co  Co4  1  -0.00000000  0.00000000  0.50000000  1
  Co  Co5  1  0.50000000  0.50000000  0.00000000  1
  Ru  Ru6  1  -0.00000000  0.00000000  0.00000000  1
  Ru  Ru7  1  0.50000000  0.50000000  0.50000000  1
  O  O8  1  0.29420127  0.19676659  0.04692063  1
  O  O9  1  0.70579873  0.80323341  0.95307937  1
  O  O10  1  0.20579873  0.69676659  0.45307937  1
  O  O11  1  0.79420127  0.30323341  0.54692063  1
  O  O12  1  0.19637775  0.71007872  0.05276262  1
  O  O13  1  0.80362225  0.28992128  0.94723738  1
  O  O14  1  0.30362225  0.21007872  0.44723738  1
  O  O15  1  0.69637775  0.78992128  0.55276262  1
  O  O16  1  0.90662054  0.01867070  0.24686274  1
  O  O17  1  0.09337946  0.98132930  0.75313726  1
  O  O18  1  0.59337946  0.51867070  0.25313726  1
  O  O19  1  0.40662054  0.48132930  0.74686274  1
