# generated using pymatgen
data_K2YbF5
_symmetry_space_group_name_H-M   'P 1'
_cell_length_a   6.62860119
_cell_length_b   7.45824678
_cell_length_c   10.73134369
_cell_angle_alpha   90.00000000
_cell_angle_beta   90.00000000
_cell_angle_gamma   90.00000000
_symmetry_Int_Tables_number   1
_chemical_formula_structural   K2YbF5
_chemical_formula_sum   'K8 Yb4 F20'
_cell_volume   530.53341656
_cell_formula_units_Z   4
loop_
 _symmetry_equiv_pos_site_id
 _symmetry_equiv_pos_as_xyz
  1  'x, y, z'
loop_
 _atom_site_type_symbol
 _atom_site_label
 _atom_site_symmetry_multiplicity
 _atom_site_fract_x
 _atom_site_fract_y
 _atom_site_fract_z
 _atom_site_occupancy
  K  K0  1  0.97274390  0.00418465  0.67348934  1
  K  K1  1  0.02725610  0.99581535  0.32651066  1
  K  K2  1  0.47274390  0.99581535  0.82651066  1
  K  K3  1  0.02725610  0.50418465  0.32651066  1
  K  K4  1  0.52725610  0.00418465  0.17348934  1
  K  K5  1  0.97274390  0.49581535  0.67348934  1
  K  K6  1  0.52725610  0.49581535  0.17348934  1
  K  K7  1  0.47274390  0.50418465  0.82651066  1
  Yb  Yb8  1  0.94426655  0.75000000  0.99601850  1
  Yb  Yb9  1  0.05573345  0.25000000  0.00398150  1
  Yb  Yb10  1  0.44426655  0.25000000  0.50398150  1
  Yb  Yb11  1  0.55573345  0.75000000  0.49601850  1
  F  F12  1  0.68632227  0.75000000  0.69255168  1
  F  F13  1  0.31367773  0.25000000  0.30744832  1
  F  F14  1  0.18632227  0.25000000  0.80744832  1
  F  F15  1  0.81367773  0.75000000  0.19255168  1
  F  F16  1  0.14943059  0.75000000  0.82921311  1
  F  F17  1  0.85056941  0.25000000  0.17078689  1
  F  F18  1  0.64943059  0.25000000  0.67078689  1
  F  F19  1  0.35056941  0.75000000  0.32921311  1
  F  F20  1  0.59696350  0.75000000  0.99740744  1
  F  F21  1  0.40303650  0.25000000  0.00259256  1
  F  F22  1  0.09696350  0.25000000  0.50259256  1
  F  F23  1  0.90303650  0.75000000  0.49740744  1
  F  F24  1  0.85930132  0.46971184  0.92034666  1
  F  F25  1  0.14069868  0.53028816  0.07965334  1
  F  F26  1  0.35930132  0.53028816  0.57965334  1
  F  F27  1  0.14069868  0.96971184  0.07965334  1
  F  F28  1  0.64069868  0.46971184  0.42034666  1
  F  F29  1  0.85930132  0.03028816  0.92034666  1
  F  F30  1  0.64069868  0.03028816  0.42034666  1
  F  F31  1  0.35930132  0.96971184  0.57965334  1
