# generated using pymatgen
data_MnAg2GeSe4
_symmetry_space_group_name_H-M   'P 1'
_cell_length_a   6.98199323
_cell_length_b   7.30894386
_cell_length_c   8.24455719
_cell_angle_alpha   90.00000000
_cell_angle_beta   90.00000000
_cell_angle_gamma   90.00000000
_symmetry_Int_Tables_number   1
_chemical_formula_structural   MnAg2GeSe4
_chemical_formula_sum   'Mn2 Ag4 Ge2 Se8'
_cell_volume   420.72796951
_cell_formula_units_Z   2
loop_
 _symmetry_equiv_pos_site_id
 _symmetry_equiv_pos_as_xyz
  1  'x, y, z'
loop_
 _atom_site_type_symbol
 _atom_site_label
 _atom_site_symmetry_multiplicity
 _atom_site_fract_x
 _atom_site_fract_y
 _atom_site_fract_z
 _atom_site_occupancy
  Mn  Mn0  1  0.50832969  0.35336608  -0.00000000  1
  Mn  Mn1  1  0.00832969  0.64663392  0.50000000  1
  Ag  Ag2  1  0.51807382  0.82451110  0.75398459  1
  Ag  Ag3  1  0.01807382  0.17548890  0.74601541  1
  Ag  Ag4  1  0.01807382  0.17548890  0.25398459  1
  Ag  Ag5  1  0.51807382  0.82451110  0.24601541  1
  Ge  Ge6  1  0.99826912  0.66506666  -0.00000000  1
  Ge  Ge7  1  0.49826912  0.33493334  0.50000000  1
  Se  Se8  1  0.87121398  0.35878709  -0.00000000  1
  Se  Se9  1  0.37121398  0.64121291  0.50000000  1
  Se  Se10  1  0.89656074  0.82516785  0.75539137  1
  Se  Se11  1  0.39656074  0.17483215  0.74460863  1
  Se  Se12  1  0.39656074  0.17483215  0.25539137  1
  Se  Se13  1  0.89656074  0.82516785  0.24460863  1
  Se  Se14  1  0.34541810  0.66073124  -0.00000000  1
  Se  Se15  1  0.84541810  0.33926876  0.50000000  1
