# generated using pymatgen
data_La2(Al3Ir)3
_symmetry_space_group_name_H-M   'P 1'
_cell_length_a   7.65491758
_cell_length_b   7.73428032
_cell_length_c   9.67529127
_cell_angle_alpha   90.00000000
_cell_angle_beta   90.00000000
_cell_angle_gamma   120.34355251
_symmetry_Int_Tables_number   1
_chemical_formula_structural   La2(Al3Ir)3
_chemical_formula_sum   'La4 Al18 Ir6'
_cell_volume   494.35758916
_cell_formula_units_Z   2
loop_
 _symmetry_equiv_pos_site_id
 _symmetry_equiv_pos_as_xyz
  1  'x, y, z'
loop_
 _atom_site_type_symbol
 _atom_site_label
 _atom_site_symmetry_multiplicity
 _atom_site_fract_x
 _atom_site_fract_y
 _atom_site_fract_z
 _atom_site_occupancy
  La  La0  1  0.67326777  0.66953695  0.25000000  1
  La  La1  1  0.32673223  0.33046305  0.75000000  1
  La  La2  1  0.32673223  0.99626918  0.25000000  1
  La  La3  1  0.67326777  0.00373082  0.75000000  1
  Al  Al4  1  -0.00000000  0.13091951  0.25000000  1
  Al  Al5  1  -0.00000000  0.86908049  0.75000000  1
  Al  Al6  1  0.33035318  0.33504586  0.07214463  1
  Al  Al7  1  0.66964682  0.66495414  0.92785537  1
  Al  Al8  1  0.66964682  0.66495414  0.57214463  1
  Al  Al9  1  0.66964682  0.00469268  0.42785537  1
  Al  Al10  1  0.33035318  0.33504586  0.42785537  1
  Al  Al11  1  0.33035318  0.99530732  0.57214463  1
  Al  Al12  1  0.33035318  0.99530732  0.92785537  1
  Al  Al13  1  0.66964682  0.00469268  0.07214463  1
  Al  Al14  1  -0.00000000  0.33497189  0.54650536  1
  Al  Al15  1  0.00000000  0.66502811  0.45349464  1
  Al  Al16  1  0.00000000  0.66502811  0.04650536  1
  Al  Al17  1  -0.00000000  0.33497189  0.95349464  1
  Al  Al18  1  0.20543268  0.54359455  0.25000000  1
  Al  Al19  1  0.79456732  0.45640545  0.75000000  1
  Al  Al20  1  0.79456732  0.33816187  0.25000000  1
  Al  Al21  1  0.20543268  0.66183813  0.75000000  1
  Ir  Ir22  1  0.65894336  0.32947168  -0.00000000  1
  Ir  Ir23  1  0.34105664  0.67052832  -0.00000000  1
  Ir  Ir24  1  0.34105664  0.67052832  0.50000000  1
  Ir  Ir25  1  0.65894336  0.32947168  0.50000000  1
  Ir  Ir26  1  -0.00000000  -0.00000000  0.00000000  1
  Ir  Ir27  1  0.00000000  -0.00000000  0.50000000  1
