# generated using pymatgen
data_Li3Mn5O2F9
_symmetry_space_group_name_H-M   'P 1'
_cell_length_a   6.93082680
_cell_length_b   6.64804825
_cell_length_c   10.76251333
_cell_angle_alpha   84.44906277
_cell_angle_beta   98.87101735
_cell_angle_gamma   102.26681603
_symmetry_Int_Tables_number   1
_chemical_formula_structural   Li3Mn5O2F9
_chemical_formula_sum   'Li6 Mn10 O4 F18'
_cell_volume   477.72819797
_cell_formula_units_Z   2
loop_
 _symmetry_equiv_pos_site_id
 _symmetry_equiv_pos_as_xyz
  1  'x, y, z'
loop_
 _atom_site_type_symbol
 _atom_site_label
 _atom_site_symmetry_multiplicity
 _atom_site_fract_x
 _atom_site_fract_y
 _atom_site_fract_z
 _atom_site_occupancy
  Li  Li0  1  0.20706032  0.79994854  0.99599049  1
  Li  Li1  1  0.13504869  0.77818198  0.53408616  1
  Li  Li2  1  0.42617273  0.57434271  0.73093223  1
  Li  Li3  1  0.58815875  0.42374188  0.25417621  1
  Li  Li4  1  0.84863736  0.18576366  0.45881007  1
  Li  Li5  1  0.79337992  0.26272048  0.04153104  1
  Mn  Mn6  1  0.02127427  0.99945258  0.76767601  1
  Mn  Mn7  1  0.08970442  0.53520806  0.26360083  1
  Mn  Mn8  1  0.47954300  0.89322456  0.21985458  1
  Mn  Mn9  1  0.30078473  0.31241367  0.98760363  1
  Mn  Mn10  1  0.32161294  0.29951485  0.51532947  1
  Mn  Mn11  1  0.65712343  0.64235889  0.49565164  1
  Mn  Mn12  1  0.70723808  0.71639753  0.99353775  1
  Mn  Mn13  1  0.50489417  0.11707500  0.78133695  1
  Mn  Mn14  1  0.87832122  0.45147025  0.74871651  1
  Mn  Mn15  1  0.05514712  0.02515637  0.25077156  1
  O  O16  1  0.17396780  0.82527426  0.17489109  1
  O  O17  1  0.09195991  0.25263730  0.37056558  1
  O  O18  1  0.57797953  0.39018427  0.66146896  1
  O  O19  1  0.27626508  0.05547674  0.88893551  1
  F  F20  1  0.96090627  0.73106542  0.38483030  1
  F  F21  1  0.32762940  0.61918923  0.54905838  1
  F  F22  1  0.57752833  0.81606824  0.80607738  1
  F  F23  1  0.19187983  0.48845419  0.81624090  1
  F  F24  1  0.65515813  0.94055634  0.40668876  1
  F  F25  1  0.07451646  0.31075500  0.10047795  1
  F  F26  1  0.74893728  0.97028123  0.12225154  1
  F  F27  1  0.42188609  0.64896426  0.05090317  1
  F  F28  1  0.43931213  0.59197272  0.31470960  1
  F  F29  1  0.60375558  0.40071942  0.92876833  1
  F  F30  1  0.94639298  0.71064184  0.89465892  1
  F  F31  1  0.27767331  0.01054744  0.61744622  1
  F  F32  1  0.79425947  0.51251915  0.15375903  1
  F  F33  1  0.91370499  0.74993537  0.63429257  1
  F  F34  1  0.46033585  0.20223346  0.16486639  1
  F  F35  1  0.66407461  0.35810885  0.42436173  1
  F  F36  1  0.84033082  0.16285382  0.86620844  1
  F  F37  1  0.96744201  0.23459243  0.62893213  1
