# generated using pymatgen
data_KP15
_symmetry_space_group_name_H-M   'P 1'
_cell_length_a   7.47380937
_cell_length_b   9.41077987
_cell_length_c   12.50117567
_cell_angle_alpha   89.35945124
_cell_angle_beta   79.06478057
_cell_angle_gamma   69.36474202
_symmetry_Int_Tables_number   1
_chemical_formula_structural   KP15
_chemical_formula_sum   'K2 P30'
_cell_volume   806.42592778
_cell_formula_units_Z   2
loop_
 _symmetry_equiv_pos_site_id
 _symmetry_equiv_pos_as_xyz
  1  'x, y, z'
loop_
 _atom_site_type_symbol
 _atom_site_label
 _atom_site_symmetry_multiplicity
 _atom_site_fract_x
 _atom_site_fract_y
 _atom_site_fract_z
 _atom_site_occupancy
  K  K0  1  0.21341729  0.79073618  0.99858227  1
  K  K1  1  0.78658271  0.20926382  0.00141773  1
  P  P2  1  0.01390801  0.56815997  0.18414244  1
  P  P3  1  0.98609199  0.43184003  0.81585756  1
  P  P4  1  0.29360488  0.12195756  0.81489523  1
  P  P5  1  0.70639512  0.87804244  0.18510477  1
  P  P6  1  0.11710247  0.23633270  0.69486888  1
  P  P7  1  0.88289753  0.76366730  0.30513112  1
  P  P8  1  0.33367352  0.30868384  0.56898981  1
  P  P9  1  0.66632648  0.69131616  0.43101019  1
  P  P10  1  0.20314504  0.41094951  0.28200935  1
  P  P11  1  0.79685496  0.58905049  0.71799065  1
  P  P12  1  0.00756872  0.66007059  0.59446585  1
  P  P13  1  0.99243128  0.33992941  0.40553415  1
  P  P14  1  0.52033178  0.73502242  0.18866421  1
  P  P15  1  0.47966822  0.26497758  0.81133579  1
  P  P16  1  0.31229051  0.01664869  0.40677171  1
  P  P17  1  0.68770949  0.98335131  0.59322829  1
  P  P18  1  0.29643216  0.53736262  0.63225052  1
  P  P19  1  0.70356784  0.46263738  0.36774948  1
  P  P20  1  0.03669233  0.10646005  0.34258941  1
  P  P21  1  0.96330767  0.89353995  0.65741059  1
  P  P22  1  0.75660014  0.49688851  0.18892395  1
  P  P23  1  0.24339986  0.50311149  0.81107605  1
  P  P24  1  0.60601511  0.22803808  0.63274800  1
  P  P25  1  0.39398489  0.77196192  0.36725200  1
  P  P26  1  0.52343329  0.08854699  0.28421850  1
  P  P27  1  0.47656671  0.91145301  0.71578150  1
  P  P28  1  0.12493598  0.10320889  0.16756430  1
  P  P29  1  0.87506402  0.89679111  0.83243570  1
  P  P30  1  0.34095161  0.20687915  0.16469292  1
  P  P31  1  0.65904839  0.79312085  0.83530708  1
