# generated using pymatgen
data_KYb2Cl7
_symmetry_space_group_name_H-M   'P 1'
_cell_length_a   7.42842442
_cell_length_b   14.08335278
_cell_length_c   10.46710819
_cell_angle_alpha   90.00000000
_cell_angle_beta   90.21434840
_cell_angle_gamma   90.00000000
_symmetry_Int_Tables_number   1
_chemical_formula_structural   KYb2Cl7
_chemical_formula_sum   'K4 Yb8 Cl28'
_cell_volume   1095.03106800
_cell_formula_units_Z   4
loop_
 _symmetry_equiv_pos_site_id
 _symmetry_equiv_pos_as_xyz
  1  'x, y, z'
loop_
 _atom_site_type_symbol
 _atom_site_label
 _atom_site_symmetry_multiplicity
 _atom_site_fract_x
 _atom_site_fract_y
 _atom_site_fract_z
 _atom_site_occupancy
  K  K0  1  0.24895454  0.76059511  0.08410385  1
  K  K1  1  0.75104546  0.23940489  0.91589615  1
  K  K2  1  0.75104546  0.26059511  0.41589615  1
  K  K3  1  0.24895454  0.73940489  0.58410385  1
  Yb  Yb4  1  0.23678296  0.42723024  0.22757176  1
  Yb  Yb5  1  0.76321704  0.57276976  0.77242824  1
  Yb  Yb6  1  0.76321704  0.92723024  0.27242824  1
  Yb  Yb7  1  0.23678296  0.07276976  0.72757176  1
  Yb  Yb8  1  0.26064284  0.17110325  0.20578620  1
  Yb  Yb9  1  0.73935716  0.82889675  0.79421380  1
  Yb  Yb10  1  0.73935716  0.67110325  0.29421380  1
  Yb  Yb11  1  0.26064284  0.32889675  0.70578620  1
  Cl  Cl12  1  0.01633074  0.01699538  0.10668516  1
  Cl  Cl13  1  0.98366926  0.98300462  0.89331484  1
  Cl  Cl14  1  0.98366926  0.51699538  0.39331484  1
  Cl  Cl15  1  0.01633074  0.48300462  0.60668516  1
  Cl  Cl16  1  0.25197003  0.30427246  0.42704139  1
  Cl  Cl17  1  0.74802997  0.69572754  0.57295861  1
  Cl  Cl18  1  0.74802997  0.80427246  0.07295861  1
  Cl  Cl19  1  0.25197003  0.19572754  0.92704139  1
  Cl  Cl20  1  0.49992742  0.30894662  0.15856086  1
  Cl  Cl21  1  0.50007258  0.69105338  0.84143914  1
  Cl  Cl22  1  0.50007258  0.80894662  0.34143914  1
  Cl  Cl23  1  0.49992742  0.19105338  0.65856086  1
  Cl  Cl24  1  0.03357179  0.04625547  0.35514333  1
  Cl  Cl25  1  0.96642821  0.95374453  0.64485667  1
  Cl  Cl26  1  0.96642821  0.54625547  0.14485667  1
  Cl  Cl27  1  0.03357179  0.45374453  0.85514333  1
  Cl  Cl28  1  0.51286903  0.02516574  0.10022512  1
  Cl  Cl29  1  0.48713097  0.97483426  0.89977488  1
  Cl  Cl30  1  0.48713097  0.52516574  0.39977488  1
  Cl  Cl31  1  0.51286903  0.47483426  0.60022512  1
  Cl  Cl32  1  0.98968781  0.29279085  0.16460029  1
  Cl  Cl33  1  0.01031219  0.70720915  0.83539971  1
  Cl  Cl34  1  0.01031219  0.79279085  0.33539971  1
  Cl  Cl35  1  0.98968781  0.20720915  0.66460029  1
  Cl  Cl36  1  0.53401946  0.07492199  0.34215123  1
  Cl  Cl37  1  0.46598054  0.92507801  0.65784877  1
  Cl  Cl38  1  0.46598054  0.57492199  0.15784877  1
  Cl  Cl39  1  0.53401946  0.42507801  0.84215123  1
