# generated using pymatgen
data_KNa2Ga3(SiO4)3
_symmetry_space_group_name_H-M   'P 1'
_cell_length_a   8.41138602
_cell_length_b   8.86212475
_cell_length_c   15.56320169
_cell_angle_alpha   89.80045895
_cell_angle_beta   90.00000000
_cell_angle_gamma   90.00000000
_symmetry_Int_Tables_number   1
_chemical_formula_structural   KNa2Ga3(SiO4)3
_chemical_formula_sum   'K4 Na8 Ga12 Si12 O48'
_cell_volume   1160.11685295
_cell_formula_units_Z   4
loop_
 _symmetry_equiv_pos_site_id
 _symmetry_equiv_pos_as_xyz
  1  'x, y, z'
loop_
 _atom_site_type_symbol
 _atom_site_label
 _atom_site_symmetry_multiplicity
 _atom_site_fract_x
 _atom_site_fract_y
 _atom_site_fract_z
 _atom_site_occupancy
  K  K0  1  0.49806215  0.75019358  0.74915166  1
  K  K1  1  0.50193785  0.24980642  0.25084834  1
  K  K2  1  0.99806215  0.74980642  0.75084834  1
  K  K3  1  0.00193785  0.25019358  0.24915166  1
  Na  Na4  1  0.52943558  0.22495359  0.56403877  1
  Na  Na5  1  0.47056442  0.77504641  0.43596123  1
  Na  Na6  1  0.02943558  0.27504641  0.93596123  1
  Na  Na7  1  0.97056442  0.72495359  0.06403877  1
  Na  Na8  1  0.96791756  0.26857767  0.59050169  1
  Na  Na9  1  0.03208244  0.73142233  0.40949831  1
  Na  Na10  1  0.46791756  0.23142233  0.90949831  1
  Na  Na11  1  0.53208244  0.76857767  0.09050169  1
  Ga  Ga12  1  0.78432032  0.94065064  0.90746305  1
  Ga  Ga13  1  0.21567968  0.05934936  0.09253695  1
  Ga  Ga14  1  0.28432032  0.55934936  0.59253695  1
  Ga  Ga15  1  0.71567968  0.44065064  0.40746305  1
  Ga  Ga16  1  0.28534504  0.07989851  0.73480126  1
  Ga  Ga17  1  0.71465496  0.92010149  0.26519874  1
  Ga  Ga18  1  0.78534504  0.42010149  0.76519874  1
  Ga  Ga19  1  0.21465496  0.57989851  0.23480126  1
  Ga  Ga20  1  0.78687158  0.89215039  0.57794446  1
  Ga  Ga21  1  0.21312842  0.10784961  0.42205554  1
  Ga  Ga22  1  0.28687158  0.60784961  0.92205554  1
  Ga  Ga23  1  0.71312842  0.39215039  0.07794446  1
  Si  Si24  1  0.67075942  0.60421981  0.92308007  1
  Si  Si25  1  0.32924058  0.39578019  0.07691993  1
  Si  Si26  1  0.17075942  0.89578019  0.57691993  1
  Si  Si27  1  0.82924058  0.10421981  0.42308007  1
  Si  Si28  1  0.66958236  0.08191330  0.73451913  1
  Si  Si29  1  0.33041764  0.91808670  0.26548087  1
  Si  Si30  1  0.16958236  0.41808670  0.76548087  1
  Si  Si31  1  0.83041764  0.58191330  0.23451913  1
  Si  Si32  1  0.16989565  0.94027871  0.91014353  1
  Si  Si33  1  0.83010435  0.05972129  0.08985647  1
  Si  Si34  1  0.66989565  0.55972129  0.58985647  1
  Si  Si35  1  0.33010435  0.44027871  0.41014353  1
  O  O36  1  0.26579582  0.93090458  0.81853832  1
  O  O37  1  0.73420418  0.06909542  0.18146168  1
  O  O38  1  0.76579582  0.56909542  0.68146168  1
  O  O39  1  0.23420418  0.43090458  0.31853832  1
  O  O40  1  0.49219865  0.66736813  0.94747955  1
  O  O41  1  0.50780135  0.33263187  0.05252045  1
  O  O42  1  0.99219865  0.83263187  0.55252045  1
  O  O43  1  0.00780135  0.16736813  0.44747955  1
  O  O44  1  0.65521512  0.73159758  0.54901686  1
  O  O45  1  0.34478488  0.26840242  0.45098314  1
  O  O46  1  0.15521512  0.76840242  0.95098314  1
  O  O47  1  0.84478488  0.23159758  0.04901686  1
  O  O48  1  0.49074383  0.07636009  0.69125552  1
  O  O49  1  0.50925617  0.92363991  0.30874448  1
  O  O50  1  0.99074383  0.42363991  0.80874448  1
  O  O51  1  0.00925617  0.57636009  0.19125552  1
  O  O52  1  0.75390002  0.24164282  0.70708488  1
  O  O53  1  0.24609998  0.75835718  0.29291512  1
  O  O54  1  0.25390002  0.25835718  0.79291512  1
  O  O55  1  0.74609998  0.74164282  0.20708488  1
  O  O56  1  0.99085911  0.00943409  0.89222404  1
  O  O57  1  0.00914089  0.99056591  0.10777596  1
  O  O58  1  0.49085911  0.49056591  0.60777596  1
  O  O59  1  0.50914089  0.50943409  0.39222404  1
  O  O60  1  0.65582157  0.45675638  0.85887422  1
  O  O61  1  0.34417843  0.54324362  0.14112578  1
  O  O62  1  0.15582157  0.04324362  0.64112578  1
  O  O63  1  0.84417843  0.95675638  0.35887422  1
  O  O64  1  0.76731371  0.74055057  0.87374426  1
  O  O65  1  0.23268629  0.25944943  0.12625574  1
  O  O66  1  0.26731371  0.75944943  0.62625574  1
  O  O67  1  0.73268629  0.24055057  0.37374426  1
  O  O68  1  0.76391014  0.44397256  0.52392672  1
  O  O69  1  0.23608986  0.55602744  0.47607328  1
  O  O70  1  0.26391014  0.05602744  0.97607328  1
  O  O71  1  0.73608986  0.94397256  0.02392672  1
  O  O72  1  0.65486779  0.06237963  0.83984479  1
  O  O73  1  0.34513221  0.93762037  0.16015521  1
  O  O74  1  0.15486779  0.43762037  0.66015521  1
  O  O75  1  0.84513221  0.56237963  0.33984479  1
  O  O76  1  0.73555121  0.06147270  0.51311385  1
  O  O77  1  0.26444879  0.93852730  0.48688615  1
  O  O78  1  0.23555121  0.43852730  0.98688615  1
  O  O79  1  0.76444879  0.56147270  0.01311385  1
  O  O80  1  0.77069629  0.94017869  0.69348349  1
  O  O81  1  0.22930371  0.05982131  0.30651651  1
  O  O82  1  0.27069629  0.55982131  0.80651651  1
  O  O83  1  0.72930371  0.44017869  0.19348349  1
