# generated using pymatgen
data_K9Gd3Si12(O16F)2
_symmetry_space_group_name_H-M   'P 1'
_cell_length_a   6.97635417
_cell_length_b   11.53077121
_cell_length_c   11.60343285
_cell_angle_alpha   87.70589024
_cell_angle_beta   89.48721704
_cell_angle_gamma   80.19558210
_symmetry_Int_Tables_number   1
_chemical_formula_structural   K9Gd3Si12(O16F)2
_chemical_formula_sum   'K9 Gd3 Si12 O32 F2'
_cell_volume   919.03993528
_cell_formula_units_Z   1
loop_
 _symmetry_equiv_pos_site_id
 _symmetry_equiv_pos_as_xyz
  1  'x, y, z'
loop_
 _atom_site_type_symbol
 _atom_site_label
 _atom_site_symmetry_multiplicity
 _atom_site_fract_x
 _atom_site_fract_y
 _atom_site_fract_z
 _atom_site_occupancy
  K  K0  1  0.76504096  0.11500901  0.51693806  1
  K  K1  1  0.23495904  0.88499099  0.48306194  1
  K  K2  1  0.66950242  0.30866210  0.27826577  1
  K  K3  1  0.33049758  0.69133790  0.72173423  1
  K  K4  1  0.33204970  0.65356857  0.28647572  1
  K  K5  1  0.66795030  0.34643143  0.71352428  1
  K  K6  1  -0.00000000  0.50000000  0.50000000  1
  K  K7  1  0.51750853  0.83048788  0.01062527  1
  K  K8  1  0.48249147  0.16951212  0.98937473  1
  Gd  Gd9  1  0.01402415  0.01346226  0.16541630  1
  Gd  Gd10  1  0.98597585  0.98653774  0.83458370  1
  Gd  Gd11  1  0.50000000  0.50000000  -0.00000000  1
  Si  Si12  1  0.21504857  0.16708989  0.38185143  1
  Si  Si13  1  0.78495143  0.83291011  0.61814857  1
  Si  Si14  1  0.18852029  0.19543711  0.65960991  1
  Si  Si15  1  0.81147971  0.80456289  0.34039009  1
  Si  Si16  1  0.51714615  0.01491601  0.24324249  1
  Si  Si17  1  0.48285385  0.98508399  0.75675751  1
  Si  Si18  1  0.15721743  0.40964131  0.80436075  1
  Si  Si19  1  0.84278257  0.59035869  0.19563925  1
  Si  Si20  1  0.05399448  0.73331758  0.01082689  1
  Si  Si21  1  0.94600552  0.26668242  0.98917311  1
  Si  Si22  1  0.16149886  0.36190721  0.18872679  1
  Si  Si23  1  0.83850114  0.63809279  0.81127321  1
  O  O24  1  0.35443797  0.37402195  0.11748153  1
  O  O25  1  0.64556203  0.62597805  0.88251847  1
  O  O26  1  0.65399395  0.53504222  0.16820889  1
  O  O27  1  0.34600605  0.46495778  0.83179111  1
  O  O28  1  0.20692167  0.18975670  0.51961607  1
  O  O29  1  0.79307833  0.81024330  0.48038393  1
  O  O30  1  0.68951346  0.07745322  0.18952752  1
  O  O31  1  0.31048654  0.92254678  0.81047248  1
  O  O32  1  0.39809670  0.12420510  0.71191604  1
  O  O33  1  0.60190330  0.87579490  0.28808396  1
  O  O34  1  0.43261754  0.08464551  0.36268161  1
  O  O35  1  0.56738246  0.91535449  0.63731839  1
  O  O36  1  0.26932716  0.66313960  0.03871100  1
  O  O37  1  0.73067284  0.33686040  0.96128900  1
  O  O38  1  0.01235497  0.28729431  0.12524287  1
  O  O39  1  0.98764503  0.71270569  0.87475713  1
  O  O40  1  0.02715431  0.87615006  0.01754549  1
  O  O41  1  0.97284569  0.12384994  0.98245451  1
  O  O42  1  0.04128200  0.10304687  0.34185309  1
  O  O43  1  0.95871800  0.89695313  0.65814691  1
  O  O44  1  0.21654032  0.29666902  0.31688890  1
  O  O45  1  0.78345968  0.70333098  0.68311110  1
  O  O46  1  0.18728509  0.33610512  0.68349099  1
  O  O47  1  0.81271491  0.66389488  0.31650901  1
  O  O48  1  0.00039861  0.14737810  0.71076290  1
  O  O49  1  0.99960139  0.85262190  0.28923710  1
  O  O50  1  0.03828369  0.49131975  0.22400664  1
  O  O51  1  0.96171631  0.50868025  0.77599336  1
  O  O52  1  0.11235638  0.31618152  0.90703795  1
  O  O53  1  0.88764362  0.68381848  0.09296205  1
  O  O54  1  0.34122590  0.01015921  0.15473538  1
  O  O55  1  0.65877410  0.98984079  0.84526462  1
  F  F56  1  0.25387402  0.65682155  0.50416269  1
  F  F57  1  0.74612598  0.34317845  0.49583731  1
