# generated using pymatgen
data_KCoF4
_symmetry_space_group_name_H-M   'P 1'
_cell_length_a   5.91139285
_cell_length_b   7.74441511
_cell_length_c   7.76612087
_cell_angle_alpha   90.00000000
_cell_angle_beta   90.00000000
_cell_angle_gamma   90.00000000
_symmetry_Int_Tables_number   1
_chemical_formula_structural   KCoF4
_chemical_formula_sum   'K4 Co4 F16'
_cell_volume   355.53518879
_cell_formula_units_Z   4
loop_
 _symmetry_equiv_pos_site_id
 _symmetry_equiv_pos_as_xyz
  1  'x, y, z'
loop_
 _atom_site_type_symbol
 _atom_site_label
 _atom_site_symmetry_multiplicity
 _atom_site_fract_x
 _atom_site_fract_y
 _atom_site_fract_z
 _atom_site_occupancy
  K  K0  1  0.48418571  0.00000000  0.50000000  1
  K  K1  1  0.51581429  0.50000000  0.00000000  1
  K  K2  1  0.43571672  0.00000000  0.00000000  1
  K  K3  1  0.56428328  0.50000000  0.50000000  1
  Co  Co4  1  0.00008775  0.24428635  0.25447514  1
  Co  Co5  1  0.00008775  0.75571365  0.74552486  1
  Co  Co6  1  -0.00008775  0.25571365  0.75447514  1
  Co  Co7  1  -0.00008775  0.74428635  0.24552486  1
  F  F8  1  0.09939865  0.99143121  0.26267190  1
  F  F9  1  0.09939865  0.00856879  0.73732810  1
  F  F10  1  0.90060135  0.50856879  0.76267190  1
  F  F11  1  0.90060135  0.49143121  0.23732810  1
  F  F12  1  0.29210136  0.29322728  0.30806426  1
  F  F13  1  0.29210136  0.70677272  0.69193574  1
  F  F14  1  0.70789864  0.20677272  0.80806426  1
  F  F15  1  0.70789864  0.79322728  0.19193574  1
  F  F16  1  0.08946463  0.25152587  0.00552055  1
  F  F17  1  0.08946463  0.74847413  0.99447945  1
  F  F18  1  0.91053537  0.24847413  0.50552055  1
  F  F19  1  0.91053537  0.75152587  0.49447945  1
  F  F20  1  0.28971981  0.67961312  0.29008294  1
  F  F21  1  0.28971981  0.32038688  0.70991706  1
  F  F22  1  0.71028019  0.82038688  0.79008294  1
  F  F23  1  0.71028019  0.17961312  0.20991706  1
