# generated using pymatgen
data_KLiGdF5
_symmetry_space_group_name_H-M   'P 1'
_cell_length_a   6.63151794
_cell_length_b   6.45116062
_cell_length_c   12.00820985
_cell_angle_alpha   90.00000000
_cell_angle_beta   90.00000000
_cell_angle_gamma   113.72213990
_symmetry_Int_Tables_number   1
_chemical_formula_structural   KLiGdF5
_chemical_formula_sum   'K4 Li4 Gd4 F20'
_cell_volume   470.31717649
_cell_formula_units_Z   4
loop_
 _symmetry_equiv_pos_site_id
 _symmetry_equiv_pos_as_xyz
  1  'x, y, z'
loop_
 _atom_site_type_symbol
 _atom_site_label
 _atom_site_symmetry_multiplicity
 _atom_site_fract_x
 _atom_site_fract_y
 _atom_site_fract_z
 _atom_site_occupancy
  K  K0  1  0.94714372  0.96376991  0.35001687  1
  K  K1  1  0.05285628  0.03623009  0.64998313  1
  K  K2  1  0.05285628  0.53623009  0.85001687  1
  K  K3  1  0.94714372  0.46376991  0.14998313  1
  Li  Li4  1  0.55741387  0.96157740  0.74607310  1
  Li  Li5  1  0.44258613  0.03842260  0.25392690  1
  Li  Li6  1  0.44258613  0.53842260  0.24607310  1
  Li  Li7  1  0.55741387  0.46157740  0.75392690  1
  Gd  Gd8  1  0.68207125  0.82043670  0.99767373  1
  Gd  Gd9  1  0.31792875  0.17956330  0.00232627  1
  Gd  Gd10  1  0.31792875  0.67956330  0.49767373  1
  Gd  Gd11  1  0.68207125  0.32043670  0.50232627  1
  F  F12  1  0.71797000  0.77599423  0.80303563  1
  F  F13  1  0.28203000  0.22400577  0.19696437  1
  F  F14  1  0.28203000  0.72400577  0.30303563  1
  F  F15  1  0.71797000  0.27599423  0.69696437  1
  F  F16  1  0.66634530  0.95285508  0.53227095  1
  F  F17  1  0.33365470  0.04714492  0.46772905  1
  F  F18  1  0.33365470  0.54714492  0.03227095  1
  F  F19  1  0.66634530  0.45285508  0.96772905  1
  F  F20  1  0.95634733  0.67464586  0.50654911  1
  F  F21  1  0.04365267  0.32535414  0.49345089  1
  F  F22  1  0.04365267  0.82535414  0.00654911  1
  F  F23  1  0.95634733  0.17464586  0.99345089  1
  F  F24  1  0.46375647  0.96539068  0.89453209  1
  F  F25  1  0.53624353  0.03460932  0.10546791  1
  F  F26  1  0.53624353  0.53460932  0.39453209  1
  F  F27  1  0.46375647  0.46539068  0.60546791  1
  F  F28  1  0.28834273  0.78163332  0.67575671  1
  F  F29  1  0.71165727  0.21836668  0.32424329  1
  F  F30  1  0.71165727  0.71836668  0.17575671  1
  F  F31  1  0.28834273  0.28163332  0.82424329  1
