# generated using pymatgen
data_LiNiPO4
_symmetry_space_group_name_H-M   'P 1'
_cell_length_a   19.89832902
_cell_length_b   5.50131795
_cell_length_c   8.10896528
_cell_angle_alpha   90.00000000
_cell_angle_beta   90.00000000
_cell_angle_gamma   90.00000000
_symmetry_Int_Tables_number   1
_chemical_formula_structural   LiNiPO4
_chemical_formula_sum   'Li12 Ni12 P12 O48'
_cell_volume   887.66438298
_cell_formula_units_Z   12
loop_
 _symmetry_equiv_pos_site_id
 _symmetry_equiv_pos_as_xyz
  1  'x, y, z'
loop_
 _atom_site_type_symbol
 _atom_site_label
 _atom_site_symmetry_multiplicity
 _atom_site_fract_x
 _atom_site_fract_y
 _atom_site_fract_z
 _atom_site_occupancy
  Li  Li0  1  0.97527496  0.19358402  0.72917525  1
  Li  Li1  1  0.17876838  0.81435161  0.25128269  1
  Li  Li2  1  0.15950897  0.21340049  0.74294352  1
  Li  Li3  1  0.34049103  0.71340049  0.24294352  1
  Li  Li4  1  0.32123162  0.31435161  0.75128269  1
  Li  Li5  1  0.52472504  0.69358402  0.22917525  1
  Li  Li6  1  0.47527496  0.19358402  0.77082475  1
  Li  Li7  1  0.67876838  0.81435161  0.24871731  1
  Li  Li8  1  0.65950897  0.21340049  0.75705648  1
  Li  Li9  1  0.84049103  0.71340049  0.25705648  1
  Li  Li10  1  0.82123162  0.31435161  0.74871731  1
  Li  Li11  1  0.02472504  0.69358402  0.27082475  1
  Ni  Ni12  1  0.06231913  0.25254658  0.01672710  1
  Ni  Ni13  1  0.08922552  0.69070574  0.57724034  1
  Ni  Ni14  1  0.24097959  0.26401791  0.43915890  1
  Ni  Ni15  1  0.25902041  0.76401791  0.93915890  1
  Ni  Ni16  1  0.41077448  0.19070574  0.07724034  1
  Ni  Ni17  1  0.43768087  0.75254658  0.51672710  1
  Ni  Ni18  1  0.56231913  0.25254658  0.48327290  1
  Ni  Ni19  1  0.58922552  0.69070574  0.92275966  1
  Ni  Ni20  1  0.74097959  0.26401791  0.06084110  1
  Ni  Ni21  1  0.75902041  0.76401791  0.56084110  1
  Ni  Ni22  1  0.91077448  0.19070574  0.42275966  1
  Ni  Ni23  1  0.93768087  0.75254658  0.98327290  1
  P  P24  1  0.07050445  0.19481988  0.40901684  1
  P  P25  1  0.09521726  0.76451124  0.91019273  1
  P  P26  1  0.23433408  0.24586615  0.06163875  1
  P  P27  1  0.26566592  0.74586615  0.56163875  1
  P  P28  1  0.40478274  0.26451124  0.41019273  1
  P  P29  1  0.42949555  0.69481988  0.90901684  1
  P  P30  1  0.57050445  0.19481988  0.09098316  1
  P  P31  1  0.59521726  0.76451124  0.58980727  1
  P  P32  1  0.73433408  0.24586615  0.43836125  1
  P  P33  1  0.76566592  0.74586615  0.93836125  1
  P  P34  1  0.90478274  0.26451124  0.08980727  1
  P  P35  1  0.92949555  0.69481988  0.59098316  1
  O  O36  1  0.00383932  0.16601458  0.50200778  1
  O  O37  1  0.03796741  0.85070245  0.03153972  1
  O  O38  1  0.09670271  0.94259981  0.76062320  1
  O  O39  1  0.07659448  0.51538378  0.83208839  1
  O  O40  1  0.05919442  0.34344490  0.24905595  1
  O  O41  1  0.09983461  0.93510610  0.37578729  1
  O  O42  1  0.12102928  0.34325888  0.51699297  1
  O  O43  1  0.16059760  0.76267811  0.00726128  1
  O  O44  1  0.16141141  0.25914693  0.00445710  1
  O  O45  1  0.22671477  0.61654959  0.41994842  1
  O  O46  1  0.23166771  0.99352931  0.59228857  1
  O  O47  1  0.25803317  0.59162395  0.72289443  1
  O  O48  1  0.24196683  0.09162395  0.22289443  1
  O  O49  1  0.26833229  0.49352931  0.09228857  1
  O  O50  1  0.27328523  0.11654959  0.91994842  1
  O  O51  1  0.33858859  0.75914693  0.50445710  1
  O  O52  1  0.33940240  0.26267811  0.50726128  1
  O  O53  1  0.37897072  0.84325888  0.01699297  1
  O  O54  1  0.40016539  0.43510610  0.87578729  1
  O  O55  1  0.44080558  0.84344490  0.74905595  1
  O  O56  1  0.42340552  0.01538378  0.33208839  1
  O  O57  1  0.40329729  0.44259981  0.26062420  1
  O  O58  1  0.46203259  0.35070245  0.53153972  1
  O  O59  1  0.49616068  0.66601458  0.00200778  1
  O  O60  1  0.50383932  0.16601458  0.99799222  1
  O  O61  1  0.53796741  0.85070245  0.46846028  1
  O  O62  1  0.59670271  0.94259981  0.73937680  1
  O  O63  1  0.57659448  0.51538378  0.66791161  1
  O  O64  1  0.55919442  0.34344490  0.25094405  1
  O  O65  1  0.59983461  0.93510610  0.12421271  1
  O  O66  1  0.62102928  0.34325888  0.98300703  1
  O  O67  1  0.66059760  0.76267811  0.49273872  1
  O  O68  1  0.66141141  0.25914693  0.49554290  1
  O  O69  1  0.72671477  0.61654959  0.08005158  1
  O  O70  1  0.73166771  0.99352931  0.90771143  1
  O  O71  1  0.75803317  0.59162395  0.77710557  1
  O  O72  1  0.74196683  0.09162395  0.27710557  1
  O  O73  1  0.76833229  0.49352931  0.40771143  1
  O  O74  1  0.77328523  0.11654959  0.58005158  1
  O  O75  1  0.83858859  0.75914693  0.99554290  1
  O  O76  1  0.83940240  0.26267811  0.99273872  1
  O  O77  1  0.87897072  0.84325888  0.48300703  1
  O  O78  1  0.90016539  0.43510610  0.62421271  1
  O  O79  1  0.94080558  0.84344490  0.75094405  1
  O  O80  1  0.92340552  0.01538378  0.16791161  1
  O  O81  1  0.90329729  0.44259981  0.23937680  1
  O  O82  1  0.96203259  0.35070245  0.96846028  1
  O  O83  1  0.99616068  0.66601458  0.49799222  1
