# generated using pymatgen
data_Mn6Si8Mo5
_symmetry_space_group_name_H-M   'P 1'
_cell_length_a   4.86024865
_cell_length_b   12.93046140
_cell_length_c   15.45954932
_cell_angle_alpha   90.00000000
_cell_angle_beta   90.00000000
_cell_angle_gamma   90.00000000
_symmetry_Int_Tables_number   1
_chemical_formula_structural   Mn6Si8Mo5
_chemical_formula_sum   'Mn24 Si32 Mo20'
_cell_volume   971.55935883
_cell_formula_units_Z   4
loop_
 _symmetry_equiv_pos_site_id
 _symmetry_equiv_pos_as_xyz
  1  'x, y, z'
loop_
 _atom_site_type_symbol
 _atom_site_label
 _atom_site_symmetry_multiplicity
 _atom_site_fract_x
 _atom_site_fract_y
 _atom_site_fract_z
 _atom_site_occupancy
  Mn  Mn0  1  0.99068573  0.63747718  0.82238718  1
  Mn  Mn1  1  0.00931427  0.36252282  0.17761282  1
  Mn  Mn2  1  0.00931427  0.86252282  0.32238718  1
  Mn  Mn3  1  0.49068573  0.36252282  0.17761282  1
  Mn  Mn4  1  0.99068573  0.13747718  0.67761282  1
  Mn  Mn5  1  0.50931427  0.63747718  0.82238718  1
  Mn  Mn6  1  0.50931427  0.13747718  0.67761282  1
  Mn  Mn7  1  0.49068573  0.86252282  0.32238718  1
  Mn  Mn8  1  0.75000000  0.63329474  0.65568002  1
  Mn  Mn9  1  0.25000000  0.36670526  0.34431998  1
  Mn  Mn10  1  0.25000000  0.86670526  0.15568002  1
  Mn  Mn11  1  0.75000000  0.13329474  0.84431998  1
  Mn  Mn12  1  0.75000000  0.81110363  0.74927050  1
  Mn  Mn13  1  0.25000000  0.18889637  0.25072950  1
  Mn  Mn14  1  0.25000000  0.68889637  0.24927050  1
  Mn  Mn15  1  0.75000000  0.31110363  0.75072950  1
  Mn  Mn16  1  0.49600907  0.94010457  0.87949853  1
  Mn  Mn17  1  0.50399093  0.05989543  0.12050147  1
  Mn  Mn18  1  0.50399093  0.55989543  0.37949853  1
  Mn  Mn19  1  0.99600907  0.05989543  0.12050147  1
  Mn  Mn20  1  0.49600907  0.44010457  0.62050147  1
  Mn  Mn21  1  0.00399093  0.94010457  0.87949853  1
  Mn  Mn22  1  0.00399093  0.44010457  0.62050147  1
  Mn  Mn23  1  0.99600907  0.55989543  0.37949853  1
  Si  Si24  1  0.75000000  0.91483300  0.19818383  1
  Si  Si25  1  0.25000000  0.08516700  0.80181617  1
  Si  Si26  1  0.25000000  0.58516700  0.69818383  1
  Si  Si27  1  0.75000000  0.41483300  0.30181617  1
  Si  Si28  1  0.75000000  0.99550316  0.75157814  1
  Si  Si29  1  0.25000000  0.00449684  0.24842186  1
  Si  Si30  1  0.25000000  0.50449684  0.25157814  1
  Si  Si31  1  0.75000000  0.49550316  0.74842186  1
  Si  Si32  1  0.75000000  0.70709384  0.30665024  1
  Si  Si33  1  0.25000000  0.29290616  0.69334976  1
  Si  Si34  1  0.25000000  0.79290616  0.80665024  1
  Si  Si35  1  0.75000000  0.20709384  0.19334976  1
  Si  Si36  1  0.75000000  0.94518029  0.43300223  1
  Si  Si37  1  0.25000000  0.05481971  0.56699777  1
  Si  Si38  1  0.25000000  0.55481971  0.93300223  1
  Si  Si39  1  0.75000000  0.44518029  0.06699777  1
  Si  Si40  1  0.00230915  0.78000805  0.62234960  1
  Si  Si41  1  0.99769085  0.21999195  0.37765040  1
  Si  Si42  1  0.99769085  0.71999195  0.12234960  1
  Si  Si43  1  0.50230915  0.21999195  0.37765040  1
  Si  Si44  1  0.00230915  0.28000805  0.87765040  1
  Si  Si45  1  0.49769085  0.78000805  0.62234960  1
  Si  Si46  1  0.49769085  0.28000805  0.87765040  1
  Si  Si47  1  0.50230915  0.71999195  0.12234960  1
  Si  Si48  1  0.75000000  0.77841663  0.89584958  1
  Si  Si49  1  0.25000000  0.22158337  0.10415042  1
  Si  Si50  1  0.25000000  0.72158337  0.39584958  1
  Si  Si51  1  0.75000000  0.27841663  0.60415042  1
  Si  Si52  1  0.75000000  0.55115377  0.51804383  1
  Si  Si53  1  0.25000000  0.44884623  0.48195617  1
  Si  Si54  1  0.25000000  0.94884623  0.01804383  1
  Si  Si55  1  0.75000000  0.05115377  0.98195617  1
  Mo  Mo56  1  0.75000000  0.62582527  0.99623091  1
  Mo  Mo57  1  0.25000000  0.37417473  0.00376909  1
  Mo  Mo58  1  0.25000000  0.87417473  0.49623091  1
  Mo  Mo59  1  0.75000000  0.12582527  0.50376909  1
  Mo  Mo60  1  0.75000000  0.36802354  0.45690926  1
  Mo  Mo61  1  0.25000000  0.63197646  0.54309074  1
  Mo  Mo62  1  0.25000000  0.13197646  0.95690926  1
  Mo  Mo63  1  0.75000000  0.86802354  0.04309074  1
  Mo  Mo64  1  0.75000000  0.74660002  0.47304178  1
  Mo  Mo65  1  0.25000000  0.25339998  0.52695822  1
  Mo  Mo66  1  0.25000000  0.75339998  0.97304178  1
  Mo  Mo67  1  0.75000000  0.24660002  0.02695822  1
  Mo  Mo68  1  0.75000000  0.95399582  0.59420347  1
  Mo  Mo69  1  0.25000000  0.04600418  0.40579653  1
  Mo  Mo70  1  0.25000000  0.54600418  0.09420347  1
  Mo  Mo71  1  0.75000000  0.45399582  0.90579653  1
  Mo  Mo72  1  0.75000000  0.56818798  0.19686440  1
  Mo  Mo73  1  0.25000000  0.43181202  0.80313560  1
  Mo  Mo74  1  0.25000000  0.93181202  0.69686440  1
  Mo  Mo75  1  0.75000000  0.06818798  0.30313560  1
