# generated using pymatgen
data_La4MgNi
_symmetry_space_group_name_H-M   'P 1'
_cell_length_a   10.10809980
_cell_length_b   10.10809980
_cell_length_c   10.10809980
_cell_angle_alpha   60.00000000
_cell_angle_beta   60.00000000
_cell_angle_gamma   60.00000000
_symmetry_Int_Tables_number   1
_chemical_formula_structural   La4MgNi
_chemical_formula_sum   'La16 Mg4 Ni4'
_cell_volume   730.28699213
_cell_formula_units_Z   4
loop_
 _symmetry_equiv_pos_site_id
 _symmetry_equiv_pos_as_xyz
  1  'x, y, z'
loop_
 _atom_site_type_symbol
 _atom_site_label
 _atom_site_symmetry_multiplicity
 _atom_site_fract_x
 _atom_site_fract_y
 _atom_site_fract_z
 _atom_site_occupancy
  La  La0  1  0.65602887  0.65602887  0.65602887  1
  La  La1  1  0.03191340  0.65602887  0.65602887  1
  La  La2  1  0.65602887  0.03191340  0.65602887  1
  La  La3  1  0.65602887  0.65602887  0.03191340  1
  La  La4  1  0.81152277  0.81152277  0.18847723  1
  La  La5  1  0.18847723  0.18847723  0.81152277  1
  La  La6  1  0.81152277  0.18847723  0.81152277  1
  La  La7  1  0.18847723  0.81152277  0.18847723  1
  La  La8  1  0.18847723  0.81152277  0.81152277  1
  La  La9  1  0.81152277  0.18847723  0.18847723  1
  La  La10  1  0.43608837  0.43608837  0.06391163  1
  La  La11  1  0.06391163  0.06391163  0.43608837  1
  La  La12  1  0.43608837  0.06391163  0.43608837  1
  La  La13  1  0.06391163  0.43608837  0.06391163  1
  La  La14  1  0.06391163  0.43608837  0.43608837  1
  La  La15  1  0.43608837  0.06391163  0.06391163  1
  Mg  Mg16  1  0.42064144  0.42064144  0.42064144  1
  Mg  Mg17  1  0.73807567  0.42064144  0.42064144  1
  Mg  Mg18  1  0.42064144  0.73807567  0.42064144  1
  Mg  Mg19  1  0.42064144  0.42064144  0.73807567  1
  Ni  Ni20  1  0.85856669  0.85856669  0.85856669  1
  Ni  Ni21  1  0.42429993  0.85856669  0.85856669  1
  Ni  Ni22  1  0.85856669  0.42429993  0.85856669  1
  Ni  Ni23  1  0.85856669  0.85856669  0.42429993  1
