# generated using pymatgen
data_K3Ta2AsS11
_symmetry_space_group_name_H-M   'P 1'
_cell_length_a   9.66299512
_cell_length_b   9.73403269
_cell_length_c   9.73403269
_cell_angle_alpha   82.55610006
_cell_angle_beta   82.84426931
_cell_angle_gamma   82.84426931
_symmetry_Int_Tables_number   1
_chemical_formula_structural   K3Ta2AsS11
_chemical_formula_sum   'K6 Ta4 As2 S22'
_cell_volume   895.30755769
_cell_formula_units_Z   2
loop_
 _symmetry_equiv_pos_site_id
 _symmetry_equiv_pos_as_xyz
  1  'x, y, z'
loop_
 _atom_site_type_symbol
 _atom_site_label
 _atom_site_symmetry_multiplicity
 _atom_site_fract_x
 _atom_site_fract_y
 _atom_site_fract_z
 _atom_site_occupancy
  K  K0  1  0.07638989  0.07452220  0.90819082  1
  K  K1  1  0.57638989  0.90819082  0.07452220  1
  K  K2  1  0.66706325  0.68976512  0.53959266  1
  K  K3  1  0.16706325  0.53959266  0.68976512  1
  K  K4  1  0.33234095  0.43481510  0.30102504  1
  K  K5  1  0.83234095  0.30102504  0.43481510  1
  Ta  Ta6  1  0.05437055  0.79879727  0.34015153  1
  Ta  Ta7  1  0.55437055  0.34015153  0.79879727  1
  Ta  Ta8  1  0.23855670  0.04644323  0.46747051  1
  Ta  Ta9  1  0.73855670  0.46747051  0.04644323  1
  As  As10  1  0.50111924  0.98481736  0.68340757  1
  As  As11  1  0.00111924  0.68340757  0.98481736  1
  S  S12  1  0.30749345  0.77866397  0.36799566  1
  S  S13  1  0.80749345  0.36799566  0.77866397  1
  S  S14  1  0.30624112  0.87306396  0.67418084  1
  S  S15  1  0.80624112  0.67418084  0.87306396  1
  S  S16  1  0.02830603  0.89937452  0.56949458  1
  S  S17  1  0.52830603  0.56949458  0.89937452  1
  S  S18  1  0.35747442  0.45375767  0.94889676  1
  S  S19  1  0.85747442  0.94889676  0.45375767  1
  S  S20  1  0.29538404  0.12648315  0.21843615  1
  S  S21  1  0.79538404  0.21843615  0.12648315  1
  S  S22  1  0.49129370  0.07796081  0.45933073  1
  S  S23  1  0.99129370  0.45933073  0.07796081  1
  S  S24  1  0.25989277  0.77085076  0.16523780  1
  S  S25  1  0.75989277  0.16523780  0.77085076  1
  S  S26  1  0.00150112  0.58284692  0.42060612  1
  S  S27  1  0.50150112  0.42060612  0.58284692  1
  S  S28  1  0.15041952  0.23430950  0.57276979  1
  S  S29  1  0.65041952  0.57276979  0.23430950  1
  S  S30  1  0.09056705  0.08110826  0.27374923  1
  S  S31  1  0.59056705  0.27374923  0.08110826  1
  S  S32  1  0.40688621  0.14141547  0.83524896  1
  S  S33  1  0.90688621  0.83524896  0.14141547  1
