# generated using pymatgen
data_KErP2O7
_symmetry_space_group_name_H-M   'P 1'
_cell_length_a   7.80072427
_cell_length_b   8.76161858
_cell_length_c   10.97179044
_cell_angle_alpha   90.00000000
_cell_angle_beta   90.00000000
_cell_angle_gamma   106.26130500
_symmetry_Int_Tables_number   1
_chemical_formula_structural   KErP2O7
_chemical_formula_sum   'K4 Er4 P8 O28'
_cell_volume   719.88906253
_cell_formula_units_Z   4
loop_
 _symmetry_equiv_pos_site_id
 _symmetry_equiv_pos_as_xyz
  1  'x, y, z'
loop_
 _atom_site_type_symbol
 _atom_site_label
 _atom_site_symmetry_multiplicity
 _atom_site_fract_x
 _atom_site_fract_y
 _atom_site_fract_z
 _atom_site_occupancy
  K  K0  1  0.82214359  0.94283901  0.31974886  1
  K  K1  1  0.17785641  0.05716099  0.68025114  1
  K  K2  1  0.17785641  0.55716099  0.81974886  1
  K  K3  1  0.82214359  0.44283901  0.18025114  1
  Er  Er4  1  0.76254927  0.74191385  0.89992219  1
  Er  Er5  1  0.23745073  0.25808615  0.10007781  1
  Er  Er6  1  0.23745073  0.75808615  0.39992219  1
  Er  Er7  1  0.76254927  0.24191385  0.60007781  1
  P  P8  1  0.56470862  0.80652589  0.63351389  1
  P  P9  1  0.43529138  0.19347411  0.36648611  1
  P  P10  1  0.43529138  0.69347411  0.13351389  1
  P  P11  1  0.56470862  0.30652589  0.86648611  1
  P  P12  1  0.86882941  0.67726231  0.59774375  1
  P  P13  1  0.13117059  0.32273769  0.40225625  1
  P  P14  1  0.13117059  0.82273769  0.09774375  1
  P  P15  1  0.86882941  0.17726231  0.90225625  1
  O  O16  1  0.37990448  0.76403563  0.57476773  1
  O  O17  1  0.62009552  0.23596437  0.42523227  1
  O  O18  1  0.62009552  0.73596437  0.07476773  1
  O  O19  1  0.37990448  0.26403563  0.92523227  1
  O  O20  1  0.92157991  0.74468005  0.72614971  1
  O  O21  1  0.07842009  0.25531995  0.27385029  1
  O  O22  1  0.07842009  0.75531995  0.22614971  1
  O  O23  1  0.92157991  0.24468005  0.77385029  1
  O  O24  1  0.54925545  0.75824088  0.76829775  1
  O  O25  1  0.45074455  0.24175912  0.23170225  1
  O  O26  1  0.45074455  0.74175912  0.26829775  1
  O  O27  1  0.54925545  0.25824088  0.73170225  1
  O  O28  1  0.67205713  0.97830650  0.60860973  1
  O  O29  1  0.32794287  0.02169350  0.39139027  1
  O  O30  1  0.32794287  0.52169350  0.10860973  1
  O  O31  1  0.67205713  0.47830650  0.89139027  1
  O  O32  1  0.85171598  0.00107501  0.90933547  1
  O  O33  1  0.14828402  0.99892499  0.09066453  1
  O  O34  1  0.14828402  0.49892499  0.40933547  1
  O  O35  1  0.85171598  0.50107501  0.59066453  1
  O  O36  1  0.67176386  0.69648579  0.56422396  1
  O  O37  1  0.32823614  0.30351421  0.43577604  1
  O  O38  1  0.32823614  0.80351421  0.06422396  1
  O  O39  1  0.67176386  0.19648579  0.93577604  1
  O  O40  1  0.00535568  0.72398076  0.00143510  1
  O  O41  1  0.99464432  0.27601924  0.99856490  1
  O  O42  1  0.99464432  0.77601924  0.50143510  1
  O  O43  1  0.00535568  0.22398076  0.49856490  1
