# generated using pymatgen
data_K2Na4ZnSn2
_symmetry_space_group_name_H-M   'P 1'
_cell_length_a   10.04492944
_cell_length_b   11.69116805
_cell_length_c   11.48416969
_cell_angle_alpha   119.40316805
_cell_angle_beta   90.00000000
_cell_angle_gamma   90.00000000
_symmetry_Int_Tables_number   1
_chemical_formula_structural   K2Na4ZnSn2
_chemical_formula_sum   'K8 Na16 Zn4 Sn8'
_cell_volume   1174.93979795
_cell_formula_units_Z   4
loop_
 _symmetry_equiv_pos_site_id
 _symmetry_equiv_pos_as_xyz
  1  'x, y, z'
loop_
 _atom_site_type_symbol
 _atom_site_label
 _atom_site_symmetry_multiplicity
 _atom_site_fract_x
 _atom_site_fract_y
 _atom_site_fract_z
 _atom_site_occupancy
  K  K0  1  0.60789765  0.82331526  0.70328754  1
  K  K1  1  0.39210235  0.17668474  0.29671246  1
  K  K2  1  0.10789765  0.17668474  0.79671246  1
  K  K3  1  0.89210235  0.82331526  0.20328754  1
  K  K4  1  0.96713642  0.85513289  0.81666838  1
  K  K5  1  0.03286358  0.14486711  0.18333162  1
  K  K6  1  0.46713642  0.14486711  0.68333162  1
  K  K7  1  0.53286358  0.85513289  0.31666838  1
  Na  Na8  1  0.84033838  0.51018403  0.57612638  1
  Na  Na9  1  0.15966162  0.48981597  0.42387362  1
  Na  Na10  1  0.34033838  0.48981597  0.92387362  1
  Na  Na11  1  0.65966162  0.51018403  0.07612638  1
  Na  Na12  1  0.82248869  0.99281437  0.57283996  1
  Na  Na13  1  0.17751131  0.00718563  0.42716004  1
  Na  Na14  1  0.32248869  0.00718563  0.92716004  1
  Na  Na15  1  0.67751131  0.99281437  0.07283996  1
  Na  Na16  1  0.52458013  0.42404808  0.62204395  1
  Na  Na17  1  0.47541987  0.57595192  0.37795605  1
  Na  Na18  1  0.02458013  0.57595192  0.87795605  1
  Na  Na19  1  0.97541987  0.42404808  0.12204395  1
  Na  Na20  1  0.77780332  0.33197665  0.76150199  1
  Na  Na21  1  0.22219668  0.66802335  0.23849801  1
  Na  Na22  1  0.27780332  0.66802335  0.73849801  1
  Na  Na23  1  0.72219668  0.33197665  0.26150199  1
  Zn  Zn24  1  0.46467813  0.75653543  0.98795322  1
  Zn  Zn25  1  0.53532187  0.24346457  0.01204678  1
  Zn  Zn26  1  0.96467813  0.24346457  0.51204678  1
  Zn  Zn27  1  0.03532187  0.75653543  0.48795322  1
  Sn  Sn28  1  0.27561917  0.83850026  0.57693176  1
  Sn  Sn29  1  0.72438083  0.16149974  0.42306824  1
  Sn  Sn30  1  0.77561917  0.16149974  0.92306824  1
  Sn  Sn31  1  0.22438083  0.83850026  0.07693176  1
  Sn  Sn32  1  0.69168207  0.64787121  0.88533329  1
  Sn  Sn33  1  0.30831793  0.35212879  0.11466671  1
  Sn  Sn34  1  0.19168207  0.35212879  0.61466671  1
  Sn  Sn35  1  0.80831793  0.64787121  0.38533329  1
