# generated using pymatgen
data_K2WS4
_symmetry_space_group_name_H-M   'P 1'
_cell_length_a   7.18442691
_cell_length_b   9.60915741
_cell_length_c   12.63568737
_cell_angle_alpha   90.00000000
_cell_angle_beta   90.00000000
_cell_angle_gamma   90.00000000
_symmetry_Int_Tables_number   1
_chemical_formula_structural   K2WS4
_chemical_formula_sum   'K8 W4 S16'
_cell_volume   872.32096599
_cell_formula_units_Z   4
loop_
 _symmetry_equiv_pos_site_id
 _symmetry_equiv_pos_as_xyz
  1  'x, y, z'
loop_
 _atom_site_type_symbol
 _atom_site_label
 _atom_site_symmetry_multiplicity
 _atom_site_fract_x
 _atom_site_fract_y
 _atom_site_fract_z
 _atom_site_occupancy
  K  K0  1  0.75000000  0.51293204  0.31014616  1
  K  K1  1  0.25000000  0.48706796  0.68985384  1
  K  K2  1  0.25000000  0.98706796  0.81014616  1
  K  K3  1  0.75000000  0.01293204  0.18985384  1
  K  K4  1  0.75000000  0.82925124  0.58592986  1
  K  K5  1  0.25000000  0.17074876  0.41407014  1
  K  K6  1  0.25000000  0.67074876  0.08592986  1
  K  K7  1  0.75000000  0.32925124  0.91407014  1
  W  W8  1  0.75000000  0.76882712  0.92162174  1
  W  W9  1  0.25000000  0.23117288  0.07837826  1
  W  W10  1  0.25000000  0.73117288  0.42162174  1
  W  W11  1  0.75000000  0.26882712  0.57837826  1
  S  S12  1  0.99823996  0.68823549  0.84045401  1
  S  S13  1  0.00176004  0.31176451  0.15954599  1
  S  S14  1  0.00176004  0.81176451  0.34045401  1
  S  S15  1  0.49823996  0.31176451  0.15954599  1
  S  S16  1  0.99823996  0.18823549  0.65954599  1
  S  S17  1  0.50176004  0.68823549  0.84045401  1
  S  S18  1  0.50176004  0.18823549  0.65954599  1
  S  S19  1  0.49823996  0.81176451  0.34045401  1
  S  S20  1  0.75000000  0.99695939  0.91641431  1
  S  S21  1  0.25000000  0.00304061  0.08358569  1
  S  S22  1  0.25000000  0.50304061  0.41641431  1
  S  S23  1  0.75000000  0.49695939  0.58358569  1
  S  S24  1  0.75000000  0.19265772  0.41300820  1
  S  S25  1  0.25000000  0.80734228  0.58699180  1
  S  S26  1  0.25000000  0.30734228  0.91300820  1
  S  S27  1  0.75000000  0.69265772  0.08699180  1
