# generated using pymatgen
data_Ho4CdPt
_symmetry_space_group_name_H-M   'P 1'
_cell_length_a   9.65893236
_cell_length_b   9.65893236
_cell_length_c   9.65893236
_cell_angle_alpha   60.00000000
_cell_angle_beta   60.00000000
_cell_angle_gamma   60.00000000
_symmetry_Int_Tables_number   1
_chemical_formula_structural   Ho4CdPt
_chemical_formula_sum   'Ho16 Cd4 Pt4'
_cell_volume   637.19502506
_cell_formula_units_Z   4
loop_
 _symmetry_equiv_pos_site_id
 _symmetry_equiv_pos_as_xyz
  1  'x, y, z'
loop_
 _atom_site_type_symbol
 _atom_site_label
 _atom_site_symmetry_multiplicity
 _atom_site_fract_x
 _atom_site_fract_y
 _atom_site_fract_z
 _atom_site_occupancy
  Ho  Ho0  1  0.64851113  0.64851113  0.64851113  1
  Ho  Ho1  1  0.05446662  0.64851113  0.64851113  1
  Ho  Ho2  1  0.64851113  0.05446662  0.64851113  1
  Ho  Ho3  1  0.64851113  0.64851113  0.05446662  1
  Ho  Ho4  1  0.81043796  0.81043796  0.18956204  1
  Ho  Ho5  1  0.18956204  0.18956204  0.81043796  1
  Ho  Ho6  1  0.81043796  0.18956204  0.81043796  1
  Ho  Ho7  1  0.18956204  0.81043796  0.18956204  1
  Ho  Ho8  1  0.18956204  0.81043796  0.81043796  1
  Ho  Ho9  1  0.81043796  0.18956204  0.18956204  1
  Ho  Ho10  1  0.43505325  0.43505325  0.06494675  1
  Ho  Ho11  1  0.06494675  0.06494675  0.43505325  1
  Ho  Ho12  1  0.43505325  0.06494675  0.43505325  1
  Ho  Ho13  1  0.06494675  0.43505325  0.06494675  1
  Ho  Ho14  1  0.06494675  0.43505325  0.43505325  1
  Ho  Ho15  1  0.43505325  0.06494675  0.06494675  1
  Cd  Cd16  1  0.41813508  0.41813508  0.41813508  1
  Cd  Cd17  1  0.74559475  0.41813508  0.41813508  1
  Cd  Cd18  1  0.41813508  0.74559475  0.41813508  1
  Cd  Cd19  1  0.41813508  0.41813508  0.74559475  1
  Pt  Pt20  1  0.85715681  0.85715681  0.85715681  1
  Pt  Pt21  1  0.42852957  0.85715681  0.85715681  1
  Pt  Pt22  1  0.85715681  0.42852957  0.85715681  1
  Pt  Pt23  1  0.85715681  0.85715681  0.42852957  1
