# generated using pymatgen
data_KSr6Sc(SiO4)4
_symmetry_space_group_name_H-M   'P 1'
_cell_length_a   7.21629397
_cell_length_b   11.32410359
_cell_length_c   19.34661974
_cell_angle_alpha   90.00000000
_cell_angle_beta   90.00000000
_cell_angle_gamma   90.00000000
_symmetry_Int_Tables_number   1
_chemical_formula_structural   KSr6Sc(SiO4)4
_chemical_formula_sum   'K4 Sr24 Sc4 Si16 O64'
_cell_volume   1580.96824146
_cell_formula_units_Z   4
loop_
 _symmetry_equiv_pos_site_id
 _symmetry_equiv_pos_as_xyz
  1  'x, y, z'
loop_
 _atom_site_type_symbol
 _atom_site_label
 _atom_site_symmetry_multiplicity
 _atom_site_fract_x
 _atom_site_fract_y
 _atom_site_fract_z
 _atom_site_occupancy
  K  K0  1  0.65571504  0.75000000  0.82243196  1
  K  K1  1  0.34428496  0.25000000  0.17756804  1
  K  K2  1  0.15571504  0.25000000  0.67756804  1
  K  K3  1  0.84428496  0.75000000  0.32243196  1
  Sr  Sr4  1  0.82992416  0.00172755  0.59097036  1
  Sr  Sr5  1  0.17007584  0.99827245  0.40902964  1
  Sr  Sr6  1  0.32992416  0.99827245  0.90902964  1
  Sr  Sr7  1  0.17007584  0.50172755  0.40902964  1
  Sr  Sr8  1  0.67007584  0.00172755  0.09097036  1
  Sr  Sr9  1  0.82992416  0.49827245  0.59097036  1
  Sr  Sr10  1  0.67007584  0.49827245  0.09097036  1
  Sr  Sr11  1  0.32992416  0.50172755  0.90902964  1
  Sr  Sr12  1  0.98634962  0.97332831  0.77553192  1
  Sr  Sr13  1  0.01365038  0.02667169  0.22446808  1
  Sr  Sr14  1  0.48634962  0.02667169  0.72446808  1
  Sr  Sr15  1  0.01365038  0.47332831  0.22446808  1
  Sr  Sr16  1  0.51365038  0.97332831  0.27553192  1
  Sr  Sr17  1  0.98634962  0.52667169  0.77553192  1
  Sr  Sr18  1  0.51365038  0.52667169  0.27553192  1
  Sr  Sr19  1  0.48634962  0.47332831  0.72446808  1
  Sr  Sr20  1  0.00073789  0.75000000  0.97907274  1
  Sr  Sr21  1  0.99926211  0.25000000  0.02092726  1
  Sr  Sr22  1  0.50073789  0.25000000  0.52092726  1
  Sr  Sr23  1  0.49926211  0.75000000  0.47907274  1
  Sr  Sr24  1  0.22423356  0.75000000  0.65753717  1
  Sr  Sr25  1  0.77576644  0.25000000  0.34246283  1
  Sr  Sr26  1  0.72423356  0.25000000  0.84246283  1
  Sr  Sr27  1  0.27576644  0.75000000  0.15753717  1
  Sc  Sc28  1  0.48311817  0.75000000  0.99820394  1
  Sc  Sc29  1  0.51688183  0.25000000  0.00179606  1
  Sc  Sc30  1  0.98311817  0.25000000  0.50179606  1
  Sc  Sc31  1  0.01688183  0.75000000  0.49820394  1
  Si  Si32  1  0.72421751  0.75000000  0.65322964  1
  Si  Si33  1  0.27578249  0.25000000  0.34677036  1
  Si  Si34  1  0.22421751  0.25000000  0.84677036  1
  Si  Si35  1  0.77578249  0.75000000  0.15322964  1
  Si  Si36  1  0.77049848  0.99699082  0.92373501  1
  Si  Si37  1  0.22950152  0.00300918  0.07626499  1
  Si  Si38  1  0.27049848  0.00300918  0.57626499  1
  Si  Si39  1  0.22950152  0.49699082  0.07626499  1
  Si  Si40  1  0.72950152  0.99699082  0.42373501  1
  Si  Si41  1  0.77049848  0.50300918  0.92373501  1
  Si  Si42  1  0.72950152  0.50300918  0.42373501  1
  Si  Si43  1  0.27049848  0.49699082  0.57626499  1
  Si  Si44  1  0.23244367  0.75000000  0.82647006  1
  Si  Si45  1  0.76755633  0.25000000  0.17352994  1
  Si  Si46  1  0.73244367  0.25000000  0.67352994  1
  Si  Si47  1  0.26755633  0.75000000  0.32647006  1
  O  O48  1  0.49197510  0.75000000  0.32199009  1
  O  O49  1  0.50802490  0.25000000  0.67800991  1
  O  O50  1  0.99197510  0.25000000  0.17800991  1
  O  O51  1  0.00802490  0.75000000  0.82199009  1
  O  O52  1  0.31455792  0.75000000  0.90747353  1
  O  O53  1  0.68544208  0.25000000  0.09252647  1
  O  O54  1  0.81455792  0.25000000  0.59252647  1
  O  O55  1  0.18544208  0.75000000  0.40747353  1
  O  O56  1  0.53104624  0.75000000  0.60974505  1
  O  O57  1  0.46895376  0.25000000  0.39025495  1
  O  O58  1  0.03104624  0.25000000  0.89025495  1
  O  O59  1  0.96895376  0.75000000  0.10974505  1
  O  O60  1  0.90252233  0.75000000  0.59616269  1
  O  O61  1  0.09747767  0.25000000  0.40383731  1
  O  O62  1  0.40252233  0.25000000  0.90383731  1
  O  O63  1  0.59747767  0.75000000  0.09616269  1
  O  O64  1  0.71475756  0.38235111  0.96902516  1
  O  O65  1  0.28524244  0.61764889  0.03097484  1
  O  O66  1  0.21475756  0.61764889  0.53097484  1
  O  O67  1  0.28524244  0.88235111  0.03097484  1
  O  O68  1  0.78524244  0.38235111  0.46902516  1
  O  O69  1  0.71475756  0.11764889  0.96902516  1
  O  O70  1  0.78524244  0.11764889  0.46902516  1
  O  O71  1  0.21475756  0.88235111  0.53097484  1
  O  O72  1  0.98967748  0.96592463  0.91652268  1
  O  O73  1  0.01032252  0.03407537  0.08347732  1
  O  O74  1  0.48967748  0.03407537  0.58347732  1
  O  O75  1  0.01032252  0.46592463  0.08347732  1
  O  O76  1  0.51032252  0.96592463  0.41652268  1
  O  O77  1  0.98967748  0.53407537  0.91652268  1
  O  O78  1  0.51032252  0.53407537  0.41652268  1
  O  O79  1  0.48967748  0.46592463  0.58347732  1
  O  O80  1  0.67487886  0.48292531  0.84696089  1
  O  O81  1  0.32512114  0.51707469  0.15303911  1
  O  O82  1  0.17487886  0.51707469  0.65303911  1
  O  O83  1  0.32512114  0.98292531  0.15303911  1
  O  O84  1  0.82512114  0.48292531  0.34696089  1
  O  O85  1  0.67487886  0.01707469  0.84696089  1
  O  O86  1  0.82512114  0.01707469  0.34696089  1
  O  O87  1  0.17487886  0.98292531  0.65303911  1
  O  O88  1  0.81104969  0.36936724  0.71185151  1
  O  O89  1  0.18895031  0.63063276  0.28814849  1
  O  O90  1  0.31104969  0.63063276  0.78814849  1
  O  O91  1  0.18895031  0.86936724  0.28814849  1
  O  O92  1  0.68895031  0.36936724  0.21185151  1
  O  O93  1  0.81104969  0.13063276  0.71185151  1
  O  O94  1  0.68895031  0.13063276  0.21185151  1
  O  O95  1  0.31104969  0.86936724  0.78814849  1
  O  O96  1  0.74732823  0.87260963  0.69788947  1
  O  O97  1  0.25267177  0.12739037  0.30211053  1
  O  O98  1  0.24732823  0.12739037  0.80211053  1
  O  O99  1  0.25267177  0.37260963  0.30211053  1
  O  O100  1  0.75267177  0.87260963  0.19788947  1
  O  O101  1  0.74732823  0.62739037  0.69788947  1
  O  O102  1  0.75267177  0.62739037  0.19788947  1
  O  O103  1  0.24732823  0.37260963  0.80211053  1
  O  O104  1  0.66442926  0.88511284  0.96496307  1
  O  O105  1  0.33557074  0.11488716  0.03503693  1
  O  O106  1  0.16442926  0.11488716  0.53503693  1
  O  O107  1  0.33557074  0.38511284  0.03503693  1
  O  O108  1  0.83557074  0.88511284  0.46496307  1
  O  O109  1  0.66442926  0.61488716  0.96496307  1
  O  O110  1  0.83557074  0.61488716  0.46496307  1
  O  O111  1  0.16442926  0.38511284  0.53503693  1
