# generated using pymatgen
data_PrH10N(ClO4)2
_symmetry_space_group_name_H-M   'P 1'
_cell_length_a   6.70156815
_cell_length_b   12.24437054
_cell_length_c   12.68586327
_cell_angle_alpha   92.43136575
_cell_angle_beta   90.00000000
_cell_angle_gamma   90.00000000
_symmetry_Int_Tables_number   1
_chemical_formula_structural   PrH10N(ClO4)2
_chemical_formula_sum   'Pr4 H40 N4 Cl8 O32'
_cell_volume   1040.02021677
_cell_formula_units_Z   4
loop_
 _symmetry_equiv_pos_site_id
 _symmetry_equiv_pos_as_xyz
  1  'x, y, z'
loop_
 _atom_site_type_symbol
 _atom_site_label
 _atom_site_symmetry_multiplicity
 _atom_site_fract_x
 _atom_site_fract_y
 _atom_site_fract_z
 _atom_site_occupancy
  Pr  Pr0  1  0.72438679  0.50000000  0.75000000  1
  Pr  Pr1  1  0.27561321  0.50000000  0.25000000  1
  Pr  Pr2  1  0.25241861  -0.00000000  0.75000000  1
  Pr  Pr3  1  0.74758139  -0.00000000  0.25000000  1
  H  H4  1  0.99028436  0.77731088  0.23361740  1
  H  H5  1  0.00971564  0.22268912  0.76638260  1
  H  H6  1  0.99028436  0.22268912  0.26638260  1
  H  H7  1  0.00971564  0.77731088  0.73361740  1
  H  H8  1  0.84538115  0.98769451  0.62559867  1
  H  H9  1  0.15461885  0.01230549  0.37440133  1
  H  H10  1  0.84538115  0.01230549  0.87440133  1
  H  H11  1  0.15461885  0.98769451  0.12559867  1
  H  H12  1  0.88859838  0.78624066  0.12158636  1
  H  H13  1  0.11140162  0.21375934  0.87841364  1
  H  H14  1  0.88859838  0.21375934  0.37841364  1
  H  H15  1  0.11140162  0.78624066  0.62158636  1
  H  H16  1  0.94354222  0.90053167  0.90741153  1
  H  H17  1  0.05645778  0.09946833  0.09258847  1
  H  H18  1  0.94354222  0.09946833  0.59258847  1
  H  H19  1  0.05645778  0.90053167  0.40741153  1
  H  H20  1  0.83756800  0.48185101  0.33687869  1
  H  H21  1  0.16243200  0.51814899  0.66312131  1
  H  H22  1  0.83756800  0.51814899  0.16312131  1
  H  H23  1  0.16243200  0.48185101  0.83687869  1
  H  H24  1  0.36968307  0.78138443  0.86273702  1
  H  H25  1  0.63031693  0.21861557  0.13726298  1
  H  H26  1  0.36968307  0.21861557  0.63726298  1
  H  H27  1  0.63031693  0.78138443  0.36273702  1
  H  H28  1  0.40570945  0.87601838  0.94999548  1
  H  H29  1  0.59429055  0.12398162  0.05000452  1
  H  H30  1  0.40570945  0.12398162  0.55000452  1
  H  H31  1  0.59429055  0.87601838  0.44999548  1
  H  H32  1  0.60051119  0.71415482  0.62516059  1
  H  H33  1  0.39948881  0.28584518  0.37483941  1
  H  H34  1  0.60051119  0.28584518  0.87483941  1
  H  H35  1  0.39948881  0.71415482  0.12516059  1
  H  H36  1  0.60244461  0.61620854  0.53993529  1
  H  H37  1  0.39755539  0.38379146  0.46006471  1
  H  H38  1  0.60244461  0.38379146  0.96006471  1
  H  H39  1  0.39755539  0.61620854  0.03993529  1
  H  H40  1  0.96323430  0.41593097  0.41301977  1
  H  H41  1  0.03676570  0.58406903  0.58698023  1
  H  H42  1  0.96323430  0.58406903  0.08698023  1
  H  H43  1  0.03676570  0.41593097  0.91301977  1
  N  N44  1  0.85425484  0.69081818  0.91341268  1
  N  N45  1  0.14574516  0.30918182  0.08658732  1
  N  N46  1  0.85425484  0.30918182  0.58658732  1
  N  N47  1  0.14574516  0.69081818  0.41341268  1
  Cl  Cl48  1  0.38850285  0.60240078  0.86176842  1
  Cl  Cl49  1  0.61149715  0.39759922  0.13823158  1
  Cl  Cl50  1  0.38850285  0.39759922  0.63823158  1
  Cl  Cl51  1  0.61149715  0.60240078  0.36176842  1
  Cl  Cl52  1  0.55704159  0.89342416  0.61903997  1
  Cl  Cl53  1  0.44295841  0.10657584  0.38096003  1
  Cl  Cl54  1  0.55704159  0.10657584  0.88096003  1
  Cl  Cl55  1  0.44295841  0.89342416  0.11903997  1
  O  O56  1  0.89397159  0.81946638  0.19324511  1
  O  O57  1  0.10602841  0.18053362  0.80675489  1
  O  O58  1  0.89397159  0.18053362  0.30675489  1
  O  O59  1  0.10602841  0.81946638  0.69324511  1
  O  O60  1  0.82334162  0.59871815  0.95149664  1
  O  O61  1  0.17665838  0.40128185  0.04850336  1
  O  O62  1  0.82334162  0.40128185  0.54850336  1
  O  O63  1  0.17665838  0.59871815  0.45149664  1
  O  O64  1  0.95955296  0.43603424  0.33906835  1
  O  O65  1  0.04044704  0.56396576  0.66093165  1
  O  O66  1  0.95955296  0.56396576  0.16093165  1
  O  O67  1  0.04044704  0.43603424  0.83906835  1
  O  O68  1  0.90687863  0.77216731  0.97096489  1
  O  O69  1  0.09312137  0.22783269  0.02903511  1
  O  O70  1  0.90687863  0.22783269  0.52903511  1
  O  O71  1  0.09312137  0.77216731  0.47096489  1
  O  O72  1  0.97035000  0.96975642  0.87260556  1
  O  O73  1  0.02965000  0.03024358  0.12739444  1
  O  O74  1  0.97035000  0.03024358  0.62739444  1
  O  O75  1  0.02965000  0.96975642  0.37260556  1
  O  O76  1  0.62588100  0.63474315  0.61537483  1
  O  O77  1  0.37411900  0.36525685  0.38462517  1
  O  O78  1  0.62588100  0.36525685  0.88462517  1
  O  O79  1  0.37411900  0.63474315  0.11537483  1
  O  O80  1  0.37027383  0.86163651  0.87504648  1
  O  O81  1  0.62972617  0.13836349  0.12495352  1
  O  O82  1  0.37027383  0.13836349  0.62495352  1
  O  O83  1  0.62972617  0.86163651  0.37504648  1
  O  O84  1  0.82991862  0.69956182  0.81424309  1
  O  O85  1  0.17008138  0.30043818  0.18575691  1
  O  O86  1  0.82991862  0.30043818  0.68575691  1
  O  O87  1  0.17008138  0.69956182  0.31424309  1
