# generated using pymatgen
data_CrOF
_symmetry_space_group_name_H-M   'P 1'
_cell_length_a   4.86381847
_cell_length_b   9.63838291
_cell_length_c   3.05411095
_cell_angle_alpha   90.00000000
_cell_angle_beta   90.00000000
_cell_angle_gamma   90.00000000
_symmetry_Int_Tables_number   1
_chemical_formula_structural   CrOF
_chemical_formula_sum   'Cr4 O4 F4'
_cell_volume   143.17472034
_cell_formula_units_Z   4
loop_
 _symmetry_equiv_pos_site_id
 _symmetry_equiv_pos_as_xyz
  1  'x, y, z'
loop_
 _atom_site_type_symbol
 _atom_site_label
 _atom_site_symmetry_multiplicity
 _atom_site_fract_x
 _atom_site_fract_y
 _atom_site_fract_z
 _atom_site_occupancy
  Cr  Cr0  1  0.16074305  0.37954470  0.25415449  1
  Cr  Cr1  1  0.33925695  0.62045530  0.75415449  1
  Cr  Cr2  1  0.66074305  0.12045530  0.74584551  1
  Cr  Cr3  1  0.83925695  0.87954470  0.24584551  1
  O  O4  1  0.03695693  0.48767635  0.75459212  1
  O  O5  1  0.46304307  0.51232365  0.25459212  1
  O  O6  1  0.53695693  0.01232365  0.24540788  1
  O  O7  1  0.96304307  0.98767635  0.74540788  1
  F  F8  1  0.32749162  0.25666797  0.75229465  1
  F  F9  1  0.17250838  0.74333203  0.25229465  1
  F  F10  1  0.82749162  0.24333203  0.24770535  1
  F  F11  1  0.67250838  0.75666797  0.74770535  1
