# generated using pymatgen
data_Ho7C2I12N
_symmetry_space_group_name_H-M   'P 1'
_cell_length_a   9.86340156
_cell_length_b   10.55544530
_cell_length_c   16.93703714
_cell_angle_alpha   101.61715964
_cell_angle_beta   92.89289973
_cell_angle_gamma   112.61527723
_symmetry_Int_Tables_number   1
_chemical_formula_structural   Ho7C2I12N
_chemical_formula_sum   'Ho14 C4 I24 N2'
_cell_volume   1578.39248963
_cell_formula_units_Z   2
loop_
 _symmetry_equiv_pos_site_id
 _symmetry_equiv_pos_as_xyz
  1  'x, y, z'
loop_
 _atom_site_type_symbol
 _atom_site_label
 _atom_site_symmetry_multiplicity
 _atom_site_fract_x
 _atom_site_fract_y
 _atom_site_fract_z
 _atom_site_occupancy
  Ho  Ho0  1  0.04523873  0.75194319  0.69037848  1
  Ho  Ho1  1  0.95476127  0.24805681  0.30962152  1
  Ho  Ho2  1  0.43522771  0.07009943  0.23676812  1
  Ho  Ho3  1  0.56477229  0.92990057  0.76323188  1
  Ho  Ho4  1  0.02063422  0.93488418  0.17936262  1
  Ho  Ho5  1  0.97936578  0.06511582  0.82063738  1
  Ho  Ho6  1  0.86073057  0.04780437  0.01925037  1
  Ho  Ho7  1  0.13926943  0.95219563  0.98074963  1
  Ho  Ho8  1  0.36685719  0.38265856  0.35571777  1
  Ho  Ho9  1  0.63314281  0.61734144  0.64428223  1
  Ho  Ho10  1  0.16283676  0.04485863  0.38580664  1
  Ho  Ho11  1  0.83716324  0.95514137  0.61419336  1
  Ho  Ho12  1  0.21739852  0.25638825  0.15010766  1
  Ho  Ho13  1  0.78260148  0.74361175  0.84989234  1
  C  C14  1  0.25622767  0.13853294  0.26613758  1
  C  C15  1  0.74377233  0.86146706  0.73386242  1
  C  C16  1  0.13651104  0.18085861  0.28430201  1
  C  C17  1  0.86348896  0.81914139  0.71569799  1
  I  I18  1  0.45122145  0.55612801  0.23166691  1
  I  I19  1  0.54877855  0.44387199  0.76833309  1
  I  I20  1  0.20090550  0.31716787  0.96990031  1
  I  I21  1  0.79909450  0.68283213  0.03009969  1
  I  I22  1  0.06073328  0.24708366  0.69670636  1
  I  I23  1  0.93926672  0.75291634  0.30329364  1
  I  I24  1  0.67403668  0.34661728  0.33570638  1
  I  I25  1  0.32596332  0.65338272  0.66429362  1
  I  I26  1  0.46933148  0.17898182  0.07563979  1
  I  I27  1  0.53066852  0.82101818  0.92436021  1
  I  I28  1  0.16116265  0.52713367  0.41154033  1
  I  I29  1  0.83883735  0.47286633  0.58845967  1
  I  I30  1  0.22843871  0.79264563  0.11022808  1
  I  I31  1  0.77156129  0.20735437  0.88977192  1
  I  I32  1  0.28654247  0.02963519  0.81219857  1
  I  I33  1  0.71345753  0.97036481  0.18780143  1
  I  I34  1  0.89304180  0.10115523  0.45008094  1
  I  I35  1  0.10695820  0.89884477  0.54991906  1
  I  I36  1  0.59434140  0.07001502  0.62545654  1
  I  I37  1  0.40565860  0.92998498  0.37454346  1
  I  I38  1  0.95767405  0.35577055  0.15026814  1
  I  I39  1  0.04232595  0.64422945  0.84973186  1
  I  I40  1  0.37550704  0.30184125  0.51856455  1
  I  I41  1  0.62449296  0.69815875  0.48143545  1
  N  N42  1  0.05923334  0.04871991  0.08424093  1
  N  N43  1  0.94076666  0.95128009  0.91575907  1
