# generated using pymatgen
data_GdTl(MoO4)2
_symmetry_space_group_name_H-M   'P 1'
_cell_length_a   5.19091210
_cell_length_b   8.25158534
_cell_length_c   18.81076043
_cell_angle_alpha   90.00000000
_cell_angle_beta   90.00000000
_cell_angle_gamma   90.00000000
_symmetry_Int_Tables_number   1
_chemical_formula_structural   GdTl(MoO4)2
_chemical_formula_sum   'Gd4 Tl4 Mo8 O32'
_cell_volume   805.72608292
_cell_formula_units_Z   4
loop_
 _symmetry_equiv_pos_site_id
 _symmetry_equiv_pos_as_xyz
  1  'x, y, z'
loop_
 _atom_site_type_symbol
 _atom_site_label
 _atom_site_symmetry_multiplicity
 _atom_site_fract_x
 _atom_site_fract_y
 _atom_site_fract_z
 _atom_site_occupancy
  Gd  Gd0  1  -0.00000000  0.75000000  0.99339254  1
  Gd  Gd1  1  -0.00000000  0.25000000  0.00660746  1
  Gd  Gd2  1  0.50000000  0.25000000  0.50660746  1
  Gd  Gd3  1  0.50000000  0.75000000  0.49339254  1
  Tl  Tl4  1  -0.00000000  0.75000000  0.23031804  1
  Tl  Tl5  1  -0.00000000  0.25000000  0.76968196  1
  Tl  Tl6  1  0.50000000  0.25000000  0.26968196  1
  Tl  Tl7  1  0.50000000  0.75000000  0.73031804  1
  Mo  Mo8  1  0.97765048  0.98367625  0.60057252  1
  Mo  Mo9  1  0.02234952  0.01632375  0.39942748  1
  Mo  Mo10  1  0.52234952  0.48367625  0.89942748  1
  Mo  Mo11  1  0.02234952  0.51632375  0.60057252  1
  Mo  Mo12  1  0.47765048  0.51632375  0.10057252  1
  Mo  Mo13  1  0.97765048  0.48367625  0.39942748  1
  Mo  Mo14  1  0.47765048  0.01632375  0.89942748  1
  Mo  Mo15  1  0.52234952  0.98367625  0.10057252  1
  O  O16  1  0.89837032  0.52449936  0.68737782  1
  O  O17  1  0.10162968  0.47550064  0.31262218  1
  O  O18  1  0.60162968  0.02449936  0.81262218  1
  O  O19  1  0.10162968  0.97550064  0.68737782  1
  O  O20  1  0.39837032  0.97550064  0.18737782  1
  O  O21  1  0.89837032  0.02449936  0.31262218  1
  O  O22  1  0.39837032  0.47550064  0.81262218  1
  O  O23  1  0.60162968  0.52449936  0.18737782  1
  O  O24  1  0.72797996  0.65888230  0.90125215  1
  O  O25  1  0.27202004  0.34111770  0.09874785  1
  O  O26  1  0.77202004  0.15888230  0.59874785  1
  O  O27  1  0.27202004  0.84111770  0.90125215  1
  O  O28  1  0.22797996  0.84111770  0.40125215  1
  O  O29  1  0.72797996  0.15888230  0.09874785  1
  O  O30  1  0.22797996  0.34111770  0.59874785  1
  O  O31  1  0.77202004  0.65888230  0.40125215  1
  O  O32  1  0.74883383  0.99593883  0.96402579  1
  O  O33  1  0.25116617  0.00406117  0.03597421  1
  O  O34  1  0.75116617  0.49593883  0.53597421  1
  O  O35  1  0.25116617  0.50406117  0.96402579  1
  O  O36  1  0.24883383  0.50406117  0.46402579  1
  O  O37  1  0.74883383  0.49593883  0.03597421  1
  O  O38  1  0.24883383  0.00406117  0.53597421  1
  O  O39  1  0.75116617  0.99593883  0.46402579  1
  O  O40  1  0.75933159  0.81189386  0.59108672  1
  O  O41  1  0.24066841  0.18810614  0.40891328  1
  O  O42  1  0.74066841  0.31189386  0.90891328  1
  O  O43  1  0.24066841  0.68810614  0.59108672  1
  O  O44  1  0.25933159  0.68810614  0.09108672  1
  O  O45  1  0.75933159  0.31189386  0.40891328  1
  O  O46  1  0.25933159  0.18810614  0.90891328  1
  O  O47  1  0.74066841  0.81189386  0.09108672  1
