# generated using pymatgen
data_EuHfF7
_symmetry_space_group_name_H-M   'P 1'
_cell_length_a   5.79297361
_cell_length_b   6.19497052
_cell_length_c   8.40406512
_cell_angle_alpha   101.60882650
_cell_angle_beta   90.00000000
_cell_angle_gamma   90.00000000
_symmetry_Int_Tables_number   1
_chemical_formula_structural   EuHfF7
_chemical_formula_sum   'Eu2 Hf2 F14'
_cell_volume   295.42977786
_cell_formula_units_Z   2
loop_
 _symmetry_equiv_pos_site_id
 _symmetry_equiv_pos_as_xyz
  1  'x, y, z'
loop_
 _atom_site_type_symbol
 _atom_site_label
 _atom_site_symmetry_multiplicity
 _atom_site_fract_x
 _atom_site_fract_y
 _atom_site_fract_z
 _atom_site_occupancy
  Eu  Eu0  1  0.69916509  0.65695050  0.68637962  1
  Eu  Eu1  1  0.19916509  0.34304950  0.31362038  1
  Hf  Hf2  1  0.70882461  0.81232349  0.22367915  1
  Hf  Hf3  1  0.20882461  0.18767651  0.77632085  1
  F  F4  1  0.88464008  0.44993325  0.47558485  1
  F  F5  1  0.38464008  0.55006675  0.52441515  1
  F  F6  1  0.42084377  0.92843871  0.76721280  1
  F  F7  1  0.92084377  0.07156129  0.23278720  1
  F  F8  1  0.94827804  0.96954040  0.76138331  1
  F  F9  1  0.44827804  0.03045960  0.23861669  1
  F  F10  1  0.00099651  0.44910084  0.78590453  1
  F  F11  1  0.50099651  0.55089916  0.21409547  1
  F  F12  1  0.70519675  0.75816571  0.98096384  1
  F  F13  1  0.20519675  0.24183429  0.01903616  1
  F  F14  1  0.71272409  0.85671893  0.46750935  1
  F  F15  1  0.21272409  0.14328107  0.53249065  1
  F  F16  1  0.49569106  0.37508896  0.78245433  1
  F  F17  1  0.99569106  0.62491104  0.21754567  1
