# generated using pymatgen
data_Dy7(TePd)2
_symmetry_space_group_name_H-M   'P 1'
_cell_length_a   3.95990256
_cell_length_b   9.47980249
_cell_length_c   9.47980249
_cell_angle_alpha   61.58010077
_cell_angle_beta   77.94444795
_cell_angle_gamma   77.94444795
_symmetry_Int_Tables_number   1
_chemical_formula_structural   Dy7(TePd)2
_chemical_formula_sum   'Dy7 Te2 Pd2'
_cell_volume   303.58456235
_cell_formula_units_Z   1
loop_
 _symmetry_equiv_pos_site_id
 _symmetry_equiv_pos_as_xyz
  1  'x, y, z'
loop_
 _atom_site_type_symbol
 _atom_site_label
 _atom_site_symmetry_multiplicity
 _atom_site_fract_x
 _atom_site_fract_y
 _atom_site_fract_z
 _atom_site_occupancy
  Dy  Dy0  1  0.35718108  0.37728088  0.90835696  1
  Dy  Dy1  1  0.64281892  0.09164304  0.62271912  1
  Dy  Dy2  1  0.00000000  0.99939960  0.00060040  1
  Dy  Dy3  1  0.12840593  0.45582425  0.28736389  1
  Dy  Dy4  1  0.87159407  0.71263611  0.54417575  1
  Dy  Dy5  1  0.31661404  0.06024454  0.30652739  1
  Dy  Dy6  1  0.68338596  0.69347261  0.93975546  1
  Te  Te7  1  0.50000000  0.73752844  0.26247156  1
  Te  Te8  1  0.00000000  0.33704761  0.66295239  1
  Pd  Pd9  1  0.23739702  0.83463444  0.69057152  1
  Pd  Pd10  1  0.76260298  0.30942848  0.16536556  1
