# generated using pymatgen
data_Gd(ClO4)3
_symmetry_space_group_name_H-M   'P 1'
_cell_length_a   5.76854154
_cell_length_b   9.51194378
_cell_length_c   9.51194378
_cell_angle_alpha   119.99999777
_cell_angle_beta   90.00000000
_cell_angle_gamma   90.00000000
_symmetry_Int_Tables_number   1
_chemical_formula_structural   Gd(ClO4)3
_chemical_formula_sum   'Gd2 Cl6 O24'
_cell_volume   451.99664922
_cell_formula_units_Z   2
loop_
 _symmetry_equiv_pos_site_id
 _symmetry_equiv_pos_as_xyz
  1  'x, y, z'
loop_
 _atom_site_type_symbol
 _atom_site_label
 _atom_site_symmetry_multiplicity
 _atom_site_fract_x
 _atom_site_fract_y
 _atom_site_fract_z
 _atom_site_occupancy
  Gd  Gd0  1  0.75000000  0.33333300  0.66666700  1
  Gd  Gd1  1  0.25000000  0.66666700  0.33333300  1
  Cl  Cl2  1  0.75000000  0.90922550  0.29751454  1
  Cl  Cl3  1  0.25000000  0.09077450  0.70248546  1
  Cl  Cl4  1  0.75000000  0.38828904  0.09077450  1
  Cl  Cl5  1  0.25000000  0.61171096  0.90922550  1
  Cl  Cl6  1  0.75000000  0.70248546  0.61171096  1
  Cl  Cl7  1  0.25000000  0.29751454  0.38828904  1
  O  O8  1  0.95464917  0.85580093  0.35046151  1
  O  O9  1  0.04535083  0.14419907  0.64953849  1
  O  O10  1  0.95464917  0.49466058  0.14419907  1
  O  O11  1  0.45464917  0.14419907  0.64953849  1
  O  O12  1  0.04535083  0.50533942  0.85580093  1
  O  O13  1  0.54535083  0.85580093  0.35046151  1
  O  O14  1  0.95464917  0.64953849  0.50533942  1
  O  O15  1  0.45464917  0.50533942  0.85580093  1
  O  O16  1  0.04535083  0.35046151  0.49466058  1
  O  O17  1  0.54535083  0.49466058  0.14419907  1
  O  O18  1  0.45464917  0.35046151  0.49466058  1
  O  O19  1  0.54535083  0.64953849  0.50533942  1
  O  O20  1  0.75000000  0.84701678  0.12690871  1
  O  O21  1  0.25000000  0.15298322  0.87309129  1
  O  O22  1  0.75000000  0.27989193  0.15298322  1
  O  O23  1  0.25000000  0.72010807  0.84701678  1
  O  O24  1  0.75000000  0.87309129  0.72010807  1
  O  O25  1  0.25000000  0.12690871  0.27989193  1
  O  O26  1  0.75000000  0.61580626  0.70255014  1
  O  O27  1  0.25000000  0.38419374  0.29744986  1
  O  O28  1  0.75000000  0.08674387  0.38419374  1
  O  O29  1  0.25000000  0.91325613  0.61580626  1
  O  O30  1  0.75000000  0.29744986  0.91325613  1
  O  O31  1  0.25000000  0.70255014  0.08674387  1
