# generated using pymatgen
data_Dy4C5
_symmetry_space_group_name_H-M   'P 1'
_cell_length_a   3.67403637
_cell_length_b   6.57583891
_cell_length_c   11.97600048
_cell_angle_alpha   90.00000000
_cell_angle_beta   90.00000000
_cell_angle_gamma   90.00000000
_symmetry_Int_Tables_number   1
_chemical_formula_structural   Dy4C5
_chemical_formula_sum   'Dy8 C10'
_cell_volume   289.33863051
_cell_formula_units_Z   2
loop_
 _symmetry_equiv_pos_site_id
 _symmetry_equiv_pos_as_xyz
  1  'x, y, z'
loop_
 _atom_site_type_symbol
 _atom_site_label
 _atom_site_symmetry_multiplicity
 _atom_site_fract_x
 _atom_site_fract_y
 _atom_site_fract_z
 _atom_site_occupancy
  Dy  Dy0  1  0.50000000  0.39239462  0.30408841  1
  Dy  Dy1  1  0.50000000  0.60760538  0.69591159  1
  Dy  Dy2  1  0.50000000  0.10760538  0.80408841  1
  Dy  Dy3  1  0.50000000  0.89239462  0.19591159  1
  Dy  Dy4  1  0.00000000  0.24480620  0.04279647  1
  Dy  Dy5  1  0.00000000  0.75519380  0.95720353  1
  Dy  Dy6  1  -0.00000000  0.25519380  0.54279647  1
  Dy  Dy7  1  -0.00000000  0.74480620  0.45720353  1
  C  C8  1  0.50000000  -0.00000000  -0.00000000  1
  C  C9  1  0.50000000  0.50000000  0.50000000  1
  C  C10  1  0.00000000  0.13900450  0.23567717  1
  C  C11  1  0.00000000  0.86099550  0.76432283  1
  C  C12  1  -0.00000000  0.36099550  0.73567717  1
  C  C13  1  -0.00000000  0.63900450  0.26432283  1
  C  C14  1  -0.00000000  0.09392328  0.34397328  1
  C  C15  1  -0.00000000  0.90607672  0.65602672  1
  C  C16  1  0.00000000  0.40607672  0.84397328  1
  C  C17  1  0.00000000  0.59392328  0.15602672  1
