# generated using pymatgen
data_Dy5(GeSb)2
_symmetry_space_group_name_H-M   'P 1'
_cell_length_a   7.93404155
_cell_length_b   7.90466459
_cell_length_c   8.54373247
_cell_angle_alpha   117.55502091
_cell_angle_beta   90.00000000
_cell_angle_gamma   90.00000000
_symmetry_Int_Tables_number   1
_chemical_formula_structural   Dy5(GeSb)2
_chemical_formula_sum   'Dy10 Ge4 Sb4'
_cell_volume   475.04759552
_cell_formula_units_Z   2
loop_
 _symmetry_equiv_pos_site_id
 _symmetry_equiv_pos_as_xyz
  1  'x, y, z'
loop_
 _atom_site_type_symbol
 _atom_site_label
 _atom_site_symmetry_multiplicity
 _atom_site_fract_x
 _atom_site_fract_y
 _atom_site_fract_z
 _atom_site_occupancy
  Dy  Dy0  1  0.66384482  0.70711567  0.74394678  1
  Dy  Dy1  1  0.33615518  0.29288433  0.25605322  1
  Dy  Dy2  1  0.16384482  0.79288433  0.25605322  1
  Dy  Dy3  1  0.83615518  0.46316889  0.25605322  1
  Dy  Dy4  1  0.83615518  0.20711567  0.74394678  1
  Dy  Dy5  1  0.16384482  0.53683111  0.74394678  1
  Dy  Dy6  1  0.33615518  0.03683111  0.74394678  1
  Dy  Dy7  1  0.66384482  0.96316889  0.25605322  1
  Dy  Dy8  1  -0.00000000  0.00000000  0.00000000  1
  Dy  Dy9  1  0.50000000  0.50000000  0.00000000  1
  Ge  Ge10  1  0.86277912  0.63837206  0.00000000  1
  Ge  Ge11  1  0.13722088  0.36162794  0.00000000  1
  Ge  Ge12  1  0.36277912  0.86162794  0.00000000  1
  Ge  Ge13  1  0.63722088  0.13837206  0.00000000  1
  Sb  Sb14  1  -0.00000000  0.79506052  0.59012104  1
  Sb  Sb15  1  -0.00000000  0.20493948  0.40987896  1
  Sb  Sb16  1  0.50000000  0.70493948  0.40987896  1
  Sb  Sb17  1  0.50000000  0.29506052  0.59012104  1
