# generated using pymatgen
data_Li4Ti15O32
_symmetry_space_group_name_H-M   'P 1'
_cell_length_a   5.97087937
_cell_length_b   5.97087937
_cell_length_c   19.76762496
_cell_angle_alpha   98.68643153
_cell_angle_beta   90.00000000
_cell_angle_gamma   120.00000000
_symmetry_Int_Tables_number   1
_chemical_formula_structural   Li4Ti15O32
_chemical_formula_sum   'Li4 Ti15 O32'
_cell_volume   600.97348704
_cell_formula_units_Z   1
loop_
 _symmetry_equiv_pos_site_id
 _symmetry_equiv_pos_as_xyz
  1  'x, y, z'
loop_
 _atom_site_type_symbol
 _atom_site_label
 _atom_site_symmetry_multiplicity
 _atom_site_fract_x
 _atom_site_fract_y
 _atom_site_fract_z
 _atom_site_occupancy
  Li  Li0  1  0.18766678  0.37533357  0.56300035  1
  Li  Li1  1  0.84327426  0.68654752  0.52982178  1
  Li  Li2  1  0.24993624  0.49987349  0.74980973  1
  Li  Li3  1  0.49875817  0.99751633  0.49627450  1
  Ti  Ti4  1  0.21717989  0.94100638  0.15818627  1
  Ti  Ti5  1  0.34535132  0.69070264  0.03605397  1
  Ti  Ti6  1  0.72382649  0.94100638  0.15818627  1
  Ti  Ti7  1  0.21717989  0.43436078  0.15818627  1
  Ti  Ti8  1  0.09572059  0.19144017  0.28716076  1
  Ti  Ti9  1  0.21031059  0.93196017  0.65361075  1
  Ti  Ti10  1  0.47794603  0.44337959  0.40881416  1
  Ti  Ti11  1  0.96543357  0.93086813  0.40881416  1
  Ti  Ti12  1  0.96543357  0.44337959  0.40881416  1
  Ti  Ti13  1  0.72164958  0.93196017  0.65361075  1
  Ti  Ti14  1  0.72164958  0.44330015  0.65361075  1
  Ti  Ti15  1  0.46913288  0.93826576  0.90800651  1
  Ti  Ti16  1  0.46913288  0.43887363  0.90800651  1
  Ti  Ti17  1  0.59429367  0.18858734  0.78288101  1
  Ti  Ti18  1  0.96974075  0.43887363  0.90800651  1
  O  O19  1  0.07467256  0.58541732  0.09616209  1
  O  O20  1  0.51074476  0.58541732  0.09616209  1
  O  O21  1  0.40225205  0.80450409  0.20675614  1
  O  O22  1  0.03506302  0.07012503  0.10518805  1
  O  O23  1  0.13119180  0.79544478  0.45969777  1
  O  O24  1  0.92401016  0.84802032  0.21325097  1
  O  O25  1  0.36523065  0.28924081  0.21325097  1
  O  O26  1  0.25996924  0.51993948  0.34733258  1
  O  O27  1  0.51074476  0.02148953  0.09616209  1
  O  O28  1  0.02377711  0.57948199  0.60326010  1
  O  O29  1  0.25996924  0.08736234  0.34733258  1
  O  O30  1  0.15378602  0.30757103  0.46135705  1
  O  O31  1  0.78540596  0.57081192  0.35621688  1
  O  O32  1  0.66425299  0.79544478  0.45969777  1
  O  O33  1  0.92401016  0.28924081  0.21325097  1
  O  O34  1  0.42473423  0.84946746  0.71542559  1
  O  O35  1  0.66425299  0.32850597  0.45969777  1
  O  O36  1  0.02377711  0.04755421  0.60326010  1
  O  O37  1  0.82739310  0.08736234  0.34733258  1
  O  O38  1  0.55570489  0.57948199  0.60326010  1
  O  O39  1  0.90220583  0.80441066  0.70661649  1
  O  O40  1  0.42473423  0.29069236  0.71542559  1
  O  O41  1  0.53392313  0.06784725  0.60177038  1
  O  O42  1  0.17463468  0.78784069  0.96247537  1
  O  O43  1  0.28401884  0.56803767  0.85205751  1
  O  O44  1  0.17463468  0.34926936  0.96247537  1
  O  O45  1  0.86595813  0.29069236  0.71542559  1
  O  O46  1  0.61320601  0.78784069  0.96247537  1
  O  O47  1  0.32490201  0.08603187  0.84716173  1
  O  O48  1  0.76112986  0.52225972  0.84716173  1
  O  O49  1  0.65246226  0.30492452  0.95738578  1
  O  O50  1  0.76112986  0.08603187  0.84716173  1
