# generated using pymatgen
data_Dy4MgNi
_symmetry_space_group_name_H-M   'P 1'
_cell_length_a   9.63780440
_cell_length_b   9.63780440
_cell_length_c   9.63780440
_cell_angle_alpha   60.00000000
_cell_angle_beta   60.00000000
_cell_angle_gamma   60.00000000
_symmetry_Int_Tables_number   1
_chemical_formula_structural   Dy4MgNi
_chemical_formula_sum   'Dy16 Mg4 Ni4'
_cell_volume   633.02276242
_cell_formula_units_Z   4
loop_
 _symmetry_equiv_pos_site_id
 _symmetry_equiv_pos_as_xyz
  1  'x, y, z'
loop_
 _atom_site_type_symbol
 _atom_site_label
 _atom_site_symmetry_multiplicity
 _atom_site_fract_x
 _atom_site_fract_y
 _atom_site_fract_z
 _atom_site_occupancy
  Dy  Dy0  1  0.65413160  0.65413160  0.65413160  1
  Dy  Dy1  1  0.03760519  0.65413160  0.65413160  1
  Dy  Dy2  1  0.65413160  0.03760519  0.65413160  1
  Dy  Dy3  1  0.65413160  0.65413160  0.03760519  1
  Dy  Dy4  1  0.81291815  0.81291815  0.18708185  1
  Dy  Dy5  1  0.18708185  0.18708185  0.81291815  1
  Dy  Dy6  1  0.81291815  0.18708185  0.81291815  1
  Dy  Dy7  1  0.18708185  0.81291815  0.18708185  1
  Dy  Dy8  1  0.18708185  0.81291815  0.81291815  1
  Dy  Dy9  1  0.81291815  0.18708185  0.18708185  1
  Dy  Dy10  1  0.43478640  0.43478640  0.06521360  1
  Dy  Dy11  1  0.06521360  0.06521360  0.43478640  1
  Dy  Dy12  1  0.43478640  0.06521360  0.43478640  1
  Dy  Dy13  1  0.06521360  0.43478640  0.06521360  1
  Dy  Dy14  1  0.06521360  0.43478640  0.43478640  1
  Dy  Dy15  1  0.43478640  0.06521360  0.06521360  1
  Mg  Mg16  1  0.41994133  0.41994133  0.41994133  1
  Mg  Mg17  1  0.74017601  0.41994133  0.41994133  1
  Mg  Mg18  1  0.41994133  0.74017601  0.41994133  1
  Mg  Mg19  1  0.41994133  0.41994133  0.74017601  1
  Ni  Ni20  1  0.85840443  0.85840443  0.85840443  1
  Ni  Ni21  1  0.42478672  0.85840443  0.85840443  1
  Ni  Ni22  1  0.85840443  0.42478672  0.85840443  1
  Ni  Ni23  1  0.85840443  0.85840443  0.42478672  1
