# generated using pymatgen
data_Eu2MgPtO6
_symmetry_space_group_name_H-M   'P 1'
_cell_length_a   5.54268577
_cell_length_b   5.70614083
_cell_length_c   7.89808581
_cell_angle_alpha   90.00000000
_cell_angle_beta   90.02128981
_cell_angle_gamma   90.00000000
_symmetry_Int_Tables_number   1
_chemical_formula_structural   Eu2MgPtO6
_chemical_formula_sum   'Eu4 Mg2 Pt2 O12'
_cell_volume   249.79547242
_cell_formula_units_Z   2
loop_
 _symmetry_equiv_pos_site_id
 _symmetry_equiv_pos_as_xyz
  1  'x, y, z'
loop_
 _atom_site_type_symbol
 _atom_site_label
 _atom_site_symmetry_multiplicity
 _atom_site_fract_x
 _atom_site_fract_y
 _atom_site_fract_z
 _atom_site_occupancy
  Eu  Eu0  1  0.01273518  0.44385283  0.25249243  1
  Eu  Eu1  1  0.98726482  0.55614717  0.74750757  1
  Eu  Eu2  1  0.48726482  0.94385283  0.24750757  1
  Eu  Eu3  1  0.51273518  0.05614717  0.75249243  1
  Mg  Mg4  1  -0.00000000  -0.00000000  0.50000000  1
  Mg  Mg5  1  0.50000000  0.50000000  -0.00000000  1
  Pt  Pt6  1  -0.00000000  -0.00000000  -0.00000000  1
  Pt  Pt7  1  0.50000000  0.50000000  0.50000000  1
  O  O8  1  0.90364942  0.03260657  0.24721225  1
  O  O9  1  0.09635058  0.96739343  0.75278775  1
  O  O10  1  0.59635058  0.53260657  0.25278775  1
  O  O11  1  0.40364942  0.46739343  0.74721225  1
  O  O12  1  0.19335449  0.70664618  0.05197117  1
  O  O13  1  0.80664551  0.29335382  0.94802883  1
  O  O14  1  0.30664551  0.20664618  0.44802883  1
  O  O15  1  0.69335449  0.79335382  0.55197117  1
  O  O16  1  0.29777934  0.19661631  0.04703826  1
  O  O17  1  0.70222066  0.80338369  0.95296174  1
  O  O18  1  0.20222066  0.69661631  0.45296174  1
  O  O19  1  0.79777934  0.30338369  0.54703826  1
