# generated using pymatgen
data_ErSbIr
_symmetry_space_group_name_H-M   'P 1'
_cell_length_a   4.47903913
_cell_length_b   7.12973163
_cell_length_c   7.98613256
_cell_angle_alpha   90.00000000
_cell_angle_beta   90.00000000
_cell_angle_gamma   90.00000000
_symmetry_Int_Tables_number   1
_chemical_formula_structural   ErSbIr
_chemical_formula_sum   'Er4 Sb4 Ir4'
_cell_volume   255.03192802
_cell_formula_units_Z   4
loop_
 _symmetry_equiv_pos_site_id
 _symmetry_equiv_pos_as_xyz
  1  'x, y, z'
loop_
 _atom_site_type_symbol
 _atom_site_label
 _atom_site_symmetry_multiplicity
 _atom_site_fract_x
 _atom_site_fract_y
 _atom_site_fract_z
 _atom_site_occupancy
  Er  Er0  1  0.75000000  0.98713556  0.31135043  1
  Er  Er1  1  0.25000000  0.01286444  0.68864957  1
  Er  Er2  1  0.25000000  0.51286444  0.81135043  1
  Er  Er3  1  0.75000000  0.48713556  0.18864957  1
  Sb  Sb4  1  0.75000000  0.82576988  0.91314442  1
  Sb  Sb5  1  0.25000000  0.17423012  0.08685558  1
  Sb  Sb6  1  0.25000000  0.67423012  0.41314442  1
  Sb  Sb7  1  0.75000000  0.32576988  0.58685558  1
  Ir  Ir8  1  0.75000000  0.71386653  0.59232546  1
  Ir  Ir9  1  0.25000000  0.28613347  0.40767454  1
  Ir  Ir10  1  0.25000000  0.78613347  0.09232546  1
  Ir  Ir11  1  0.75000000  0.21386653  0.90767454  1
