# generated using pymatgen
data_Dy3B7Mo
_symmetry_space_group_name_H-M   'P 1'
_cell_length_a   3.47962803
_cell_length_b   8.18849840
_cell_length_c   9.47842997
_cell_angle_alpha   90.00000000
_cell_angle_beta   90.00000000
_cell_angle_gamma   102.26716691
_symmetry_Int_Tables_number   1
_chemical_formula_structural   Dy3B7Mo
_chemical_formula_sum   'Dy6 B14 Mo2'
_cell_volume   263.90189250
_cell_formula_units_Z   2
loop_
 _symmetry_equiv_pos_site_id
 _symmetry_equiv_pos_as_xyz
  1  'x, y, z'
loop_
 _atom_site_type_symbol
 _atom_site_label
 _atom_site_symmetry_multiplicity
 _atom_site_fract_x
 _atom_site_fract_y
 _atom_site_fract_z
 _atom_site_occupancy
  Dy  Dy0  1  0.74304951  0.48609903  0.25000000  1
  Dy  Dy1  1  0.25695049  0.51390097  0.75000000  1
  Dy  Dy2  1  0.39343129  0.78686258  0.06011673  1
  Dy  Dy3  1  0.60656871  0.21313742  0.93988327  1
  Dy  Dy4  1  0.60656871  0.21313742  0.56011673  1
  Dy  Dy5  1  0.39343129  0.78686258  0.43988327  1
  B  B6  1  0.01966590  0.03933180  0.09213661  1
  B  B7  1  0.98033410  0.96066820  0.90786339  1
  B  B8  1  0.98033410  0.96066820  0.59213661  1
  B  B9  1  0.01966590  0.03933180  0.40786339  1
  B  B10  1  0.22729149  0.45458298  0.03267566  1
  B  B11  1  0.77270851  0.54541702  0.96732434  1
  B  B12  1  0.77270851  0.54541702  0.53267566  1
  B  B13  1  0.22729149  0.45458298  0.46732434  1
  B  B14  1  0.13449638  0.26899276  0.14717125  1
  B  B15  1  0.86550362  0.73100724  0.85282875  1
  B  B16  1  0.86550362  0.73100724  0.64717125  1
  B  B17  1  0.13449638  0.26899276  0.35282875  1
  B  B18  1  0.95631502  0.91263004  0.25000000  1
  B  B19  1  0.04368498  0.08736996  0.75000000  1
  Mo  Mo20  1  0.55323900  0.10647800  0.25000000  1
  Mo  Mo21  1  0.44676100  0.89352200  0.75000000  1
