# generated using pymatgen
data_CsGaAgF6
_symmetry_space_group_name_H-M   'P 1'
_cell_length_a   7.56930520
_cell_length_b   7.70268554
_cell_length_c   10.63359491
_cell_angle_alpha   90.00000000
_cell_angle_beta   90.00000000
_cell_angle_gamma   90.00000000
_symmetry_Int_Tables_number   1
_chemical_formula_structural   CsGaAgF6
_chemical_formula_sum   'Cs4 Ga4 Ag4 F24'
_cell_volume   619.98088063
_cell_formula_units_Z   4
loop_
 _symmetry_equiv_pos_site_id
 _symmetry_equiv_pos_as_xyz
  1  'x, y, z'
loop_
 _atom_site_type_symbol
 _atom_site_label
 _atom_site_symmetry_multiplicity
 _atom_site_fract_x
 _atom_site_fract_y
 _atom_site_fract_z
 _atom_site_occupancy
  Cs  Cs0  1  0.01975311  0.25000000  0.63342083  1
  Cs  Cs1  1  0.98024689  0.75000000  0.36657917  1
  Cs  Cs2  1  0.48024689  0.75000000  0.13342083  1
  Cs  Cs3  1  0.51975311  0.25000000  0.86657917  1
  Ga  Ga4  1  0.00000000  -0.00000000  -0.00000000  1
  Ga  Ga5  1  0.50000000  0.00000000  0.50000000  1
  Ga  Ga6  1  0.00000000  0.50000000  -0.00000000  1
  Ga  Ga7  1  0.50000000  0.50000000  0.50000000  1
  Ag  Ag8  1  0.21520379  0.25000000  0.25275166  1
  Ag  Ag9  1  0.78479621  0.75000000  0.74724834  1
  Ag  Ag10  1  0.28479621  0.75000000  0.75275166  1
  Ag  Ag11  1  0.71520379  0.25000000  0.24724834  1
  F  F12  1  0.29082361  0.03478152  0.40343783  1
  F  F13  1  0.70917639  0.96521848  0.59656217  1
  F  F14  1  0.20917639  0.96521848  0.90343783  1
  F  F15  1  0.70917639  0.53478152  0.59656217  1
  F  F16  1  0.79082361  0.03478152  0.09656217  1
  F  F17  1  0.29082361  0.46521848  0.40343783  1
  F  F18  1  0.79082361  0.46521848  0.09656217  1
  F  F19  1  0.20917639  0.53478152  0.90343783  1
  F  F20  1  0.54477656  0.25000000  0.51041191  1
  F  F21  1  0.45522344  0.75000000  0.48958809  1
  F  F22  1  0.95522344  0.75000000  0.01041191  1
  F  F23  1  0.04477656  0.25000000  0.98958809  1
  F  F24  1  0.14056035  0.50917475  0.14967097  1
  F  F25  1  0.85943965  0.49082525  0.85032903  1
  F  F26  1  0.35943965  0.49082525  0.64967097  1
  F  F27  1  0.85943965  0.00917475  0.85032903  1
  F  F28  1  0.64056035  0.50917475  0.35032903  1
  F  F29  1  0.14056035  0.99082525  0.14967097  1
  F  F30  1  0.64056035  0.99082525  0.35032903  1
  F  F31  1  0.35943965  0.00917475  0.64967097  1
  F  F32  1  0.46337446  0.25000000  0.17048872  1
  F  F33  1  0.53662554  0.75000000  0.82951128  1
  F  F34  1  0.03662554  0.75000000  0.67048872  1
  F  F35  1  0.96337446  0.25000000  0.32951128  1
