# generated using pymatgen
data_EuMg(BO2)5
_symmetry_space_group_name_H-M   'P 1'
_cell_length_a   7.67870929
_cell_length_b   8.78472661
_cell_length_c   9.51658444
_cell_angle_alpha   92.44849066
_cell_angle_beta   90.00000000
_cell_angle_gamma   90.00000000
_symmetry_Int_Tables_number   1
_chemical_formula_structural   EuMg(BO2)5
_chemical_formula_sum   'Eu4 Mg4 B20 O40'
_cell_volume   641.35857171
_cell_formula_units_Z   4
loop_
 _symmetry_equiv_pos_site_id
 _symmetry_equiv_pos_as_xyz
  1  'x, y, z'
loop_
 _atom_site_type_symbol
 _atom_site_label
 _atom_site_symmetry_multiplicity
 _atom_site_fract_x
 _atom_site_fract_y
 _atom_site_fract_z
 _atom_site_occupancy
  Eu  Eu0  1  0.81390405  0.80983762  0.76198834  1
  Eu  Eu1  1  0.18609595  0.19016238  0.23801166  1
  Eu  Eu2  1  0.31390405  0.69016238  0.73801166  1
  Eu  Eu3  1  0.68609595  0.30983762  0.26198834  1
  Mg  Mg4  1  0.09034593  0.10341567  0.62580207  1
  Mg  Mg5  1  0.90965407  0.89658433  0.37419793  1
  Mg  Mg6  1  0.59034593  0.39658433  0.87419793  1
  Mg  Mg7  1  0.40965407  0.60341567  0.12580207  1
  B  B8  1  0.17413783  0.98618452  0.89511546  1
  B  B9  1  0.82586217  0.01381548  0.10488454  1
  B  B10  1  0.67413783  0.51381548  0.60488454  1
  B  B11  1  0.32586217  0.48618452  0.39511546  1
  B  B12  1  0.42255250  0.08714941  0.73968988  1
  B  B13  1  0.57744750  0.91285059  0.26031012  1
  B  B14  1  0.92255250  0.41285059  0.76031012  1
  B  B15  1  0.07744750  0.58714941  0.23968988  1
  B  B16  1  0.18558502  0.43176969  0.91239524  1
  B  B17  1  0.81441498  0.56823031  0.08760476  1
  B  B18  1  0.68558502  0.06823031  0.58760476  1
  B  B19  1  0.31441498  0.93176969  0.41239524  1
  B  B20  1  0.53217332  0.71982294  0.44493644  1
  B  B21  1  0.46782668  0.28017706  0.55506356  1
  B  B22  1  0.03217332  0.78017706  0.05506356  1
  B  B23  1  0.96782668  0.21982294  0.94493644  1
  B  B24  1  0.40135299  0.15660394  0.99926875  1
  B  B25  1  0.59864701  0.84339606  0.00073125  1
  B  B26  1  0.90135299  0.34339606  0.50073125  1
  B  B27  1  0.09864701  0.65660394  0.49926875  1
  O  O28  1  0.08454960  0.48860881  0.80679935  1
  O  O29  1  0.91545040  0.51139119  0.19320065  1
  O  O30  1  0.58454960  0.01139119  0.69320065  1
  O  O31  1  0.41545040  0.98860881  0.30679935  1
  O  O32  1  0.12444262  0.31432586  0.98974770  1
  O  O33  1  0.87555738  0.68567414  0.01025230  1
  O  O34  1  0.62444262  0.18567414  0.51025230  1
  O  O35  1  0.37555738  0.81432586  0.48974770  1
  O  O36  1  0.60757862  0.66876851  0.57999592  1
  O  O37  1  0.39242138  0.33123149  0.42000408  1
  O  O38  1  0.10757862  0.83123149  0.92000408  1
  O  O39  1  0.89242138  0.16876851  0.07999592  1
  O  O40  1  0.28664602  0.97207335  0.76777866  1
  O  O41  1  0.71335398  0.02792665  0.23222134  1
  O  O42  1  0.78664602  0.52792665  0.73222134  1
  O  O43  1  0.21335398  0.47207335  0.26777866  1
  O  O44  1  0.34673382  0.49871744  0.93109568  1
  O  O45  1  0.65326618  0.50128256  0.06890432  1
  O  O46  1  0.84673382  0.00128256  0.56890432  1
  O  O47  1  0.15326618  0.99871744  0.43109568  1
  O  O48  1  0.22482676  0.54545643  0.51606009  1
  O  O49  1  0.77517324  0.45454357  0.48393991  1
  O  O50  1  0.72482676  0.95454357  0.98393991  1
  O  O51  1  0.27517324  0.04545643  0.01606009  1
  O  O52  1  0.34835484  0.18562280  0.63351512  1
  O  O53  1  0.65164516  0.81437720  0.36648488  1
  O  O54  1  0.84835484  0.31437720  0.86648488  1
  O  O55  1  0.15164516  0.68562280  0.13351512  1
  O  O56  1  0.46760306  0.18477652  0.86870645  1
  O  O57  1  0.53239694  0.81522348  0.13129355  1
  O  O58  1  0.96760306  0.31522348  0.63129355  1
  O  O59  1  0.03239694  0.68477652  0.36870645  1
  O  O60  1  0.04755132  0.73856836  0.61649627  1
  O  O61  1  0.95244868  0.26143164  0.38350373  1
  O  O62  1  0.54755132  0.76143164  0.88350373  1
  O  O63  1  0.45244868  0.23856836  0.11649627  1
  O  O64  1  0.02936232  0.08811049  0.85286659  1
  O  O65  1  0.97063768  0.91188951  0.14713341  1
  O  O66  1  0.52936232  0.41188951  0.64713341  1
  O  O67  1  0.47063768  0.58811049  0.35286659  1
