# generated using pymatgen
data_Eu3W(ClO2)3
_symmetry_space_group_name_H-M   'P 1'
_cell_length_a   5.35263267
_cell_length_b   9.41008687
_cell_length_c   9.41008687
_cell_angle_alpha   120.00000324
_cell_angle_beta   90.00000000
_cell_angle_gamma   90.00000000
_symmetry_Int_Tables_number   1
_chemical_formula_structural   Eu3W(ClO2)3
_chemical_formula_sum   'Eu6 W2 Cl6 O12'
_cell_volume   410.47368803
_cell_formula_units_Z   2
loop_
 _symmetry_equiv_pos_site_id
 _symmetry_equiv_pos_as_xyz
  1  'x, y, z'
loop_
 _atom_site_type_symbol
 _atom_site_label
 _atom_site_symmetry_multiplicity
 _atom_site_fract_x
 _atom_site_fract_y
 _atom_site_fract_z
 _atom_site_occupancy
  Eu  Eu0  1  0.75000000  0.59722489  0.68701358  1
  Eu  Eu1  1  0.25000000  0.40277511  0.31298642  1
  Eu  Eu2  1  0.75000000  0.08978869  0.40277511  1
  Eu  Eu3  1  0.25000000  0.91021131  0.59722489  1
  Eu  Eu4  1  0.75000000  0.31298642  0.91021131  1
  Eu  Eu5  1  0.25000000  0.68701358  0.08978869  1
  W  W6  1  0.75000000  0.66666700  0.33333300  1
  W  W7  1  0.25000000  0.33333300  0.66666700  1
  Cl  Cl8  1  0.75000000  0.80757855  0.04939549  1
  Cl  Cl9  1  0.25000000  0.19242145  0.95060451  1
  Cl  Cl10  1  0.75000000  0.24181694  0.19242145  1
  Cl  Cl11  1  0.25000000  0.75818306  0.80757855  1
  Cl  Cl12  1  0.75000000  0.95060451  0.75818306  1
  Cl  Cl13  1  0.25000000  0.04939549  0.24181694  1
  O  O14  1  0.98256369  0.83982963  0.36475656  1
  O  O15  1  0.01743631  0.16017037  0.63524344  1
  O  O16  1  0.98256369  0.52492693  0.16017037  1
  O  O17  1  0.48256369  0.16017037  0.63524344  1
  O  O18  1  0.01743631  0.47507307  0.83982963  1
  O  O19  1  0.51743631  0.83982963  0.36475656  1
  O  O20  1  0.98256369  0.63524344  0.47507307  1
  O  O21  1  0.48256369  0.47507307  0.83982963  1
  O  O22  1  0.01743631  0.36475656  0.52492693  1
  O  O23  1  0.51743631  0.52492693  0.16017037  1
  O  O24  1  0.48256369  0.36475656  0.52492693  1
  O  O25  1  0.51743631  0.63524344  0.47507307  1
