# generated using pymatgen
data_CsTm(NbBr3)6
_symmetry_space_group_name_H-M   'P 1'
_cell_length_a   9.89430918
_cell_length_b   9.89430918
_cell_length_c   18.47373812
_cell_angle_alpha   90.00000000
_cell_angle_beta   90.00000000
_cell_angle_gamma   119.99999708
_symmetry_Int_Tables_number   1
_chemical_formula_structural   CsTm(NbBr3)6
_chemical_formula_sum   'Cs2 Tm2 Nb12 Br36'
_cell_volume   1566.23304277
_cell_formula_units_Z   2
loop_
 _symmetry_equiv_pos_site_id
 _symmetry_equiv_pos_as_xyz
  1  'x, y, z'
loop_
 _atom_site_type_symbol
 _atom_site_label
 _atom_site_symmetry_multiplicity
 _atom_site_fract_x
 _atom_site_fract_y
 _atom_site_fract_z
 _atom_site_occupancy
  Cs  Cs0  1  0.33333300  0.66666700  0.75000000  1
  Cs  Cs1  1  0.66666700  0.33333300  0.25000000  1
  Tm  Tm2  1  0.66666700  0.33333300  0.75000000  1
  Tm  Tm3  1  0.33333300  0.66666700  0.25000000  1
  Nb  Nb4  1  0.96078258  0.15027217  0.93460941  1
  Nb  Nb5  1  0.03921742  0.84972783  0.06539059  1
  Nb  Nb6  1  0.18948959  0.03921742  0.93460941  1
  Nb  Nb7  1  0.18948959  0.15027217  0.56539059  1
  Nb  Nb8  1  0.81051041  0.96078258  0.06539059  1
  Nb  Nb9  1  0.81051041  0.84972783  0.43460941  1
  Nb  Nb10  1  0.84972783  0.81051041  0.93460941  1
  Nb  Nb11  1  0.84972783  0.03921742  0.56539059  1
  Nb  Nb12  1  0.15027217  0.18948959  0.06539059  1
  Nb  Nb13  1  0.15027217  0.96078258  0.43460941  1
  Nb  Nb14  1  0.96078258  0.81051041  0.56539059  1
  Nb  Nb15  1  0.03921742  0.18948959  0.43460941  1
  Br  Br16  1  0.91256398  0.36377963  0.83776186  1
  Br  Br17  1  0.08743602  0.63622037  0.16223814  1
  Br  Br18  1  0.45121565  0.08743602  0.83776186  1
  Br  Br19  1  0.45121565  0.36377963  0.66223814  1
  Br  Br20  1  0.54878435  0.91256398  0.16223814  1
  Br  Br21  1  0.54878435  0.63622037  0.33776186  1
  Br  Br22  1  0.63622037  0.54878435  0.83776186  1
  Br  Br23  1  0.63622037  0.08743602  0.66223814  1
  Br  Br24  1  0.36377963  0.45121565  0.16223814  1
  Br  Br25  1  0.36377963  0.91256398  0.33776186  1
  Br  Br26  1  0.91256398  0.54878435  0.66223814  1
  Br  Br27  1  0.08743602  0.45121565  0.33776186  1
  Br  Br28  1  0.76645955  0.95299557  0.83985376  1
  Br  Br29  1  0.23354045  0.04700443  0.16014624  1
  Br  Br30  1  0.18653602  0.23354045  0.83985376  1
  Br  Br31  1  0.18653602  0.95299557  0.66014624  1
  Br  Br32  1  0.81346398  0.76645955  0.16014624  1
  Br  Br33  1  0.81346398  0.04700443  0.33985376  1
  Br  Br34  1  0.04700443  0.81346398  0.83985376  1
  Br  Br35  1  0.04700443  0.23354045  0.66014624  1
  Br  Br36  1  0.95299557  0.18653602  0.16014624  1
  Br  Br37  1  0.95299557  0.76645955  0.33985376  1
  Br  Br38  1  0.76645955  0.81346398  0.66014624  1
  Br  Br39  1  0.23354045  0.18653602  0.33985376  1
  Br  Br40  1  0.58195095  0.72204727  0.99875037  1
  Br  Br41  1  0.41804905  0.27795273  0.00124963  1
  Br  Br42  1  0.14009631  0.41804905  0.99875037  1
  Br  Br43  1  0.14009631  0.72204727  0.50124963  1
  Br  Br44  1  0.85990369  0.58195095  0.00124963  1
  Br  Br45  1  0.85990369  0.27795273  0.49875037  1
  Br  Br46  1  0.27795273  0.85990369  0.99875037  1
  Br  Br47  1  0.27795273  0.41804905  0.50124963  1
  Br  Br48  1  0.72204727  0.14009631  0.00124963  1
  Br  Br49  1  0.72204727  0.58195095  0.49875037  1
  Br  Br50  1  0.58195095  0.85990369  0.50124963  1
  Br  Br51  1  0.41804905  0.14009631  0.49875037  1
