# generated using pymatgen
data_Gd2Hf2(MoO4)7
_symmetry_space_group_name_H-M   'P 1'
_cell_length_a   9.98574045
_cell_length_b   11.69499267
_cell_length_c   14.05689822
_cell_angle_alpha   110.84534117
_cell_angle_beta   90.00000000
_cell_angle_gamma   115.27249445
_symmetry_Int_Tables_number   1
_chemical_formula_structural   Gd2Hf2(MoO4)7
_chemical_formula_sum   'Gd4 Hf4 Mo14 O56'
_cell_volume   1364.71850473
_cell_formula_units_Z   2
loop_
 _symmetry_equiv_pos_site_id
 _symmetry_equiv_pos_as_xyz
  1  'x, y, z'
loop_
 _atom_site_type_symbol
 _atom_site_label
 _atom_site_symmetry_multiplicity
 _atom_site_fract_x
 _atom_site_fract_y
 _atom_site_fract_z
 _atom_site_occupancy
  Gd  Gd0  1  0.14933014  0.27390740  0.93726505  1
  Gd  Gd1  1  0.85066986  0.72609260  0.06273495  1
  Gd  Gd2  1  0.87542274  0.72609260  0.56273495  1
  Gd  Gd3  1  0.12457726  0.27390740  0.43726505  1
  Hf  Hf4  1  0.41990075  0.76837615  0.81230773  1
  Hf  Hf5  1  0.58009925  0.23162385  0.18769227  1
  Hf  Hf6  1  0.65152460  0.23162385  0.68769227  1
  Hf  Hf7  1  0.34847540  0.76837615  0.31230773  1
  Mo  Mo8  1  0.49909590  0.48680808  0.82568821  1
  Mo  Mo9  1  0.50090410  0.51319192  0.17431179  1
  Mo  Mo10  1  0.01228782  0.51319192  0.67431179  1
  Mo  Mo11  1  0.98771218  0.48680808  0.32568821  1
  Mo  Mo12  1  0.45572983  0.68435634  0.52314409  1
  Mo  Mo13  1  0.54427017  0.31564366  0.47685591  1
  Mo  Mo14  1  0.77137349  0.31564366  0.97685591  1
  Mo  Mo15  1  0.22862651  0.68435634  0.02314409  1
  Mo  Mo16  1  0.81117410  0.87849523  0.85308495  1
  Mo  Mo17  1  0.18882590  0.12150477  0.14691505  1
  Mo  Mo18  1  0.93267887  0.12150477  0.64691505  1
  Mo  Mo19  1  0.06732113  0.87849523  0.35308495  1
  Mo  Mo20  1  0.29788224  0.00000000  0.75000000  1
  Mo  Mo21  1  0.70211776  1.00000000  0.25000000  1
  O  O22  1  0.48687848  0.61356684  0.78267867  1
  O  O23  1  0.51312152  0.38643316  0.21732133  1
  O  O24  1  0.87331164  0.38643316  0.71732133  1
  O  O25  1  0.12668836  0.61356684  0.28267867  1
  O  O26  1  0.64087784  0.71321736  0.50413004  1
  O  O27  1  0.35912216  0.28678264  0.49586996  1
  O  O28  1  0.92766049  0.28678264  0.99586996  1
  O  O29  1  0.07233951  0.71321736  0.00413004  1
  O  O30  1  0.31710500  0.37711697  0.83355867  1
  O  O31  1  0.68289500  0.62288303  0.16644133  1
  O  O32  1  0.93998803  0.62288303  0.66644133  1
  O  O33  1  0.06001197  0.37711697  0.33355867  1
  O  O34  1  0.93449675  0.96076647  0.60185427  1
  O  O35  1  0.06550325  0.03923353  0.39814573  1
  O  O36  1  0.97373028  0.03923353  0.89814573  1
  O  O37  1  0.02626972  0.96076647  0.10185427  1
  O  O38  1  0.79647781  0.79418933  0.71783573  1
  O  O39  1  0.20352219  0.20581067  0.28216427  1
  O  O40  1  0.00228847  0.20581067  0.78216427  1
  O  O41  1  0.99771153  0.79418933  0.21783573  1
  O  O42  1  0.57713224  0.38197806  0.73926991  1
  O  O43  1  0.42286776  0.61802194  0.26073009  1
  O  O44  1  0.19515418  0.61802194  0.76073009  1
  O  O45  1  0.80484582  0.38197806  0.23926991  1
  O  O46  1  0.66464014  0.49393829  0.52881295  1
  O  O47  1  0.33535986  0.50606171  0.47118705  1
  O  O48  1  0.17070184  0.50606171  0.97118705  1
  O  O49  1  0.82929816  0.49393829  0.02881295  1
  O  O50  1  0.82890347  0.77603125  0.91575394  1
  O  O51  1  0.17109653  0.22396875  0.08424606  1
  O  O52  1  0.05287222  0.22396875  0.58424606  1
  O  O53  1  0.94712778  0.77603125  0.41575394  1
  O  O54  1  0.60960221  0.57047295  0.95035786  1
  O  O55  1  0.39039779  0.42952705  0.04964214  1
  O  O56  1  0.03912926  0.42952705  0.54964214  1
  O  O57  1  0.96087074  0.57047295  0.45035786  1
  O  O58  1  0.37542448  0.76556465  0.95636275  1
  O  O59  1  0.62457552  0.23443535  0.04363725  1
  O  O60  1  0.60985983  0.23443535  0.54363725  1
  O  O61  1  0.39014017  0.76556465  0.45636275  1
  O  O62  1  0.26036889  0.12651322  0.84191599  1
  O  O63  1  0.73963111  0.87348678  0.15808401  1
  O  O64  1  0.13385567  0.87348678  0.65808401  1
  O  O65  1  0.86614433  0.12651322  0.34191599  1
  O  O66  1  0.44102967  0.07948784  0.68114567  1
  O  O67  1  0.55897033  0.92051216  0.31885433  1
  O  O68  1  0.36154183  0.92051216  0.81885433  1
  O  O69  1  0.63845817  0.07948784  0.18114567  1
  O  O70  1  0.64193024  0.90595330  0.87510044  1
  O  O71  1  0.35806976  0.09404670  0.12489956  1
  O  O72  1  0.73597694  0.09404670  0.62489956  1
  O  O73  1  0.26402306  0.90595330  0.37510044  1
  O  O74  1  0.44785017  0.75154722  0.66058970  1
  O  O75  1  0.55214983  0.24845278  0.33941030  1
  O  O76  1  0.69630295  0.24845278  0.83941030  1
  O  O77  1  0.30369705  0.75154722  0.16058970  1
