# generated using pymatgen
data_CsK2LaV2O8
_symmetry_space_group_name_H-M   'P 1'
_cell_length_a   6.09640805
_cell_length_b   7.96506159
_cell_length_c   10.20274465
_cell_angle_alpha   91.13523872
_cell_angle_beta   90.00000000
_cell_angle_gamma   90.00000000
_symmetry_Int_Tables_number   1
_chemical_formula_structural   CsK2LaV2O8
_chemical_formula_sum   'Cs2 K4 La2 V4 O16'
_cell_volume   495.33033967
_cell_formula_units_Z   2
loop_
 _symmetry_equiv_pos_site_id
 _symmetry_equiv_pos_as_xyz
  1  'x, y, z'
loop_
 _atom_site_type_symbol
 _atom_site_label
 _atom_site_symmetry_multiplicity
 _atom_site_fract_x
 _atom_site_fract_y
 _atom_site_fract_z
 _atom_site_occupancy
  Cs  Cs0  1  0.75000000  0.87470452  0.59078512  1
  Cs  Cs1  1  0.25000000  0.12529548  0.40921488  1
  K  K2  1  0.75000000  0.00355969  0.19026864  1
  K  K3  1  0.25000000  0.99644031  0.80973136  1
  K  K4  1  0.75000000  0.30428596  0.91910525  1
  K  K5  1  0.25000000  0.69571404  0.08089475  1
  La  La6  1  0.75000000  0.50572859  0.28848437  1
  La  La7  1  0.25000000  0.49427141  0.71151563  1
  V  V8  1  0.75000000  0.73483173  0.91615996  1
  V  V9  1  0.25000000  0.26516827  0.08384004  1
  V  V10  1  0.75000000  0.31357509  0.57786210  1
  V  V11  1  0.25000000  0.68642491  0.42213790  1
  O  O12  1  0.75000000  0.95020239  0.90977211  1
  O  O13  1  0.25000000  0.04979761  0.09022789  1
  O  O14  1  0.75000000  0.52446868  0.54576254  1
  O  O15  1  0.25000000  0.47553132  0.45423746  1
  O  O16  1  0.75000000  0.67281955  0.07941742  1
  O  O17  1  0.25000000  0.32718045  0.92058258  1
  O  O18  1  0.98800784  0.65740330  0.83773080  1
  O  O19  1  0.01199216  0.34259670  0.16226920  1
  O  O20  1  0.48800784  0.34259670  0.16226920  1
  O  O21  1  0.51199216  0.65740330  0.83773080  1
  O  O22  1  0.98620341  0.26088498  0.66642937  1
  O  O23  1  0.01379659  0.73911502  0.33357063  1
  O  O24  1  0.48620341  0.73911502  0.33357063  1
  O  O25  1  0.51379659  0.26088498  0.66642937  1
  O  O26  1  0.75000000  0.22281241  0.42045044  1
  O  O27  1  0.25000000  0.77718759  0.57954956  1
