# generated using pymatgen
data_CuPbF6
_symmetry_space_group_name_H-M   'P 1'
_cell_length_a   5.33831519
_cell_length_b   5.39752718
_cell_length_c   5.64824444
_cell_angle_alpha   62.43248490
_cell_angle_beta   89.78553288
_cell_angle_gamma   62.64608046
_symmetry_Int_Tables_number   1
_chemical_formula_structural   CuPbF6
_chemical_formula_sum   'Cu1 Pb1 F6'
_cell_volume   123.54543332
_cell_formula_units_Z   1
loop_
 _symmetry_equiv_pos_site_id
 _symmetry_equiv_pos_as_xyz
  1  'x, y, z'
loop_
 _atom_site_type_symbol
 _atom_site_label
 _atom_site_symmetry_multiplicity
 _atom_site_fract_x
 _atom_site_fract_y
 _atom_site_fract_z
 _atom_site_occupancy
  Cu  Cu0  1  0.00000000  0.00000000  -0.00000000  1
  Pb  Pb1  1  0.50000000  0.00000000  0.50000000  1
  F  F2  1  0.12619794  0.10815778  0.23859524  1
  F  F3  1  0.87380206  0.89184222  0.76140476  1
  F  F4  1  0.23436574  0.12045274  0.76306289  1
  F  F5  1  0.76563426  0.87954726  0.23693711  1
  F  F6  1  0.37852527  0.48505404  0.25800549  1
  F  F7  1  0.62147473  0.51494596  0.74199451  1
