# generated using pymatgen
data_EuCu(WO4)2
_symmetry_space_group_name_H-M   'P 1'
_cell_length_a   7.31628871
_cell_length_b   7.44596034
_cell_length_c   7.76365706
_cell_angle_alpha   114.98867560
_cell_angle_beta   115.61268168
_cell_angle_gamma   91.04403449
_symmetry_Int_Tables_number   1
_chemical_formula_structural   EuCu(WO4)2
_chemical_formula_sum   'Eu2 Cu2 W4 O16'
_cell_volume   335.08095216
_cell_formula_units_Z   2
loop_
 _symmetry_equiv_pos_site_id
 _symmetry_equiv_pos_as_xyz
  1  'x, y, z'
loop_
 _atom_site_type_symbol
 _atom_site_label
 _atom_site_symmetry_multiplicity
 _atom_site_fract_x
 _atom_site_fract_y
 _atom_site_fract_z
 _atom_site_occupancy
  Eu  Eu0  1  0.18902066  0.27906326  0.46407198  1
  Eu  Eu1  1  0.81097934  0.72093674  0.53592802  1
  Cu  Cu2  1  0.22739037  0.67077051  0.95466524  1
  Cu  Cu3  1  0.77260963  0.32922949  0.04533476  1
  W  W4  1  0.26872912  0.29774708  0.03944832  1
  W  W5  1  0.73127088  0.70225292  0.96055168  1
  W  W6  1  0.64917375  0.10704692  0.29249261  1
  W  W7  1  0.35082625  0.89295308  0.70750739  1
  O  O8  1  0.20188743  0.37037335  0.82029326  1
  O  O9  1  0.79811257  0.62962665  0.17970674  1
  O  O10  1  0.45374343  0.53801720  0.26212870  1
  O  O11  1  0.54625657  0.46198280  0.73787130  1
  O  O12  1  0.85479469  0.00653845  0.19778600  1
  O  O13  1  0.14520531  0.99346155  0.80221400  1
  O  O14  1  0.70503150  0.01289159  0.48166586  1
  O  O15  1  0.29496850  0.98710841  0.51833414  1
  O  O16  1  0.17892272  0.63607094  0.54970001  1
  O  O17  1  0.82107728  0.36392906  0.45029999  1
  O  O18  1  0.47718021  0.82278461  0.00284425  1
  O  O19  1  0.52281979  0.17721539  0.99715575  1
  O  O20  1  0.04335038  0.30983799  0.08832551  1
  O  O21  1  0.95664962  0.69016201  0.91167449  1
  O  O22  1  0.38364076  0.16946993  0.25149376  1
  O  O23  1  0.61635924  0.83053007  0.74850624  1
