# generated using pymatgen
data_Li6Mn(OF2)2
_symmetry_space_group_name_H-M   'P 1'
_cell_length_a   5.57201857
_cell_length_b   8.40452416
_cell_length_c   6.99797912
_cell_angle_alpha   90.02993344
_cell_angle_beta   108.37830751
_cell_angle_gamma   89.58788994
_symmetry_Int_Tables_number   1
_chemical_formula_structural   Li6Mn(OF2)2
_chemical_formula_sum   'Li12 Mn2 O4 F8'
_cell_volume   310.99291088
_cell_formula_units_Z   2
loop_
 _symmetry_equiv_pos_site_id
 _symmetry_equiv_pos_as_xyz
  1  'x, y, z'
loop_
 _atom_site_type_symbol
 _atom_site_label
 _atom_site_symmetry_multiplicity
 _atom_site_fract_x
 _atom_site_fract_y
 _atom_site_fract_z
 _atom_site_occupancy
  Li  Li0  1  0.97286117  0.65541592  0.01533270  1
  Li  Li1  1  0.58431652  0.85533999  0.17660682  1
  Li  Li2  1  0.33102220  0.68243254  0.32158003  1
  Li  Li3  1  0.69746875  0.21683133  0.17131305  1
  Li  Li4  1  0.60773110  0.67703231  0.67150517  1
  Li  Li5  1  0.98799718  0.15476245  0.51293895  1
  Li  Li6  1  0.01200282  0.84523755  0.48706105  1
  Li  Li7  1  0.39226890  0.32296769  0.32849483  1
  Li  Li8  1  0.30253125  0.78316867  0.82868695  1
  Li  Li9  1  0.66897780  0.31756746  0.67841997  1
  Li  Li10  1  0.41568348  0.14466001  0.82339318  1
  Li  Li11  1  0.02713883  0.34458408  0.98466730  1
  Mn  Mn12  1  0.00000000  0.50000000  0.50000000  1
  Mn  Mn13  1  0.00000000  0.00000000  0.00000000  1
  O  O14  1  0.22924117  0.81130345  0.08057945  1
  O  O15  1  0.75073694  0.32367792  0.42842186  1
  O  O16  1  0.24926306  0.67632208  0.57157814  1
  O  O17  1  0.77075883  0.18869655  0.91942055  1
  F  F18  1  0.69426767  0.72638316  0.42655560  1
  F  F19  1  0.85929972  0.00642412  0.29035297  1
  F  F20  1  0.86344481  0.51416692  0.79275585  1
  F  F21  1  0.67225421  0.78929909  0.93269835  1
  F  F22  1  0.32774579  0.21070091  0.06730265  1
  F  F23  1  0.13655519  0.48583308  0.20724415  1
  F  F24  1  0.14070028  0.99357588  0.70964703  1
  F  F25  1  0.30573233  0.27361684  0.57344440  1
