# generated using pymatgen
data_Fe2H2Se3O10
_symmetry_space_group_name_H-M   'P 1'
_cell_length_a   8.03749895
_cell_length_b   10.14353721
_cell_length_c   11.79178733
_cell_angle_alpha   90.00000000
_cell_angle_beta   100.94164757
_cell_angle_gamma   90.00000000
_symmetry_Int_Tables_number   1
_chemical_formula_structural   Fe2H2Se3O10
_chemical_formula_sum   'Fe8 H8 Se12 O40'
_cell_volume   943.89201417
_cell_formula_units_Z   4
loop_
 _symmetry_equiv_pos_site_id
 _symmetry_equiv_pos_as_xyz
  1  'x, y, z'
loop_
 _atom_site_type_symbol
 _atom_site_label
 _atom_site_symmetry_multiplicity
 _atom_site_fract_x
 _atom_site_fract_y
 _atom_site_fract_z
 _atom_site_occupancy
  Fe  Fe0  1  0.19279293  0.26362833  0.22805738  1
  Fe  Fe1  1  0.80720707  0.73637167  0.77194262  1
  Fe  Fe2  1  0.30720707  0.76362833  0.27194262  1
  Fe  Fe3  1  0.69279293  0.23637167  0.72805738  1
  Fe  Fe4  1  0.69573290  0.75883794  0.23089473  1
  Fe  Fe5  1  0.30426710  0.24116206  0.76910527  1
  Fe  Fe6  1  0.80426710  0.25883794  0.26910527  1
  Fe  Fe7  1  0.19573290  0.74116206  0.73089473  1
  H  H8  1  0.53461935  0.69415196  0.00152298  1
  H  H9  1  0.46538065  0.30584804  0.99847702  1
  H  H10  1  0.96538065  0.19415196  0.49847702  1
  H  H11  1  0.03461935  0.80584804  0.50152298  1
  H  H12  1  0.73099125  0.72723813  0.00805909  1
  H  H13  1  0.26900875  0.27276187  0.99194091  1
  H  H14  1  0.76900875  0.22723813  0.49194091  1
  H  H15  1  0.23099125  0.77276187  0.50805909  1
  Se  Se16  1  0.01231224  0.97608789  0.19151207  1
  Se  Se17  1  0.98768776  0.02391211  0.80848793  1
  Se  Se18  1  0.48768776  0.47608789  0.30848793  1
  Se  Se19  1  0.51231224  0.52391211  0.69151207  1
  Se  Se20  1  0.86769302  0.33609630  0.00711482  1
  Se  Se21  1  0.13230698  0.66390370  0.99288518  1
  Se  Se22  1  0.63230698  0.83609630  0.49288518  1
  Se  Se23  1  0.36769302  0.16390370  0.50711482  1
  Se  Se24  1  0.00010907  0.54833200  0.33157857  1
  Se  Se25  1  0.99989093  0.45166800  0.66842143  1
  Se  Se26  1  0.49989093  0.04833200  0.16842143  1
  Se  Se27  1  0.50010907  0.95166800  0.83157857  1
  O  O28  1  0.31030018  0.26865611  0.39237197  1
  O  O29  1  0.68969982  0.73134389  0.60762803  1
  O  O30  1  0.18969982  0.76865611  0.10762803  1
  O  O31  1  0.81030018  0.23134389  0.89237197  1
  O  O32  1  0.88259026  0.63622658  0.21977663  1
  O  O33  1  0.11740974  0.36377342  0.78022337  1
  O  O34  1  0.61740974  0.13622658  0.28022337  1
  O  O35  1  0.38259026  0.86377342  0.71977663  1
  O  O36  1  0.75998307  0.77089104  0.40260662  1
  O  O37  1  0.24001693  0.22910896  0.59739338  1
  O  O38  1  0.74001693  0.27089104  0.09739338  1
  O  O39  1  0.25998307  0.72910896  0.90260662  1
  O  O40  1  0.81121970  0.92236483  0.19411989  1
  O  O41  1  0.18878030  0.07763517  0.80588011  1
  O  O42  1  0.68878030  0.42236483  0.30588011  1
  O  O43  1  0.31121970  0.57763517  0.69411989  1
  O  O44  1  0.20084041  0.60011685  0.32546845  1
  O  O45  1  0.79915959  0.39988315  0.67453155  1
  O  O46  1  0.29915959  0.10011685  0.17453155  1
  O  O47  1  0.70084041  0.89988315  0.82546845  1
  O  O48  1  0.63225474  0.74081124  0.04612510  1
  O  O49  1  0.36774526  0.25918876  0.95387490  1
  O  O50  1  0.86774526  0.24081124  0.45387490  1
  O  O51  1  0.13225474  0.75918876  0.54612510  1
  O  O52  1  0.43066053  0.77524545  0.43938425  1
  O  O53  1  0.56933947  0.22475455  0.56061575  1
  O  O54  1  0.06933947  0.27524545  0.06061575  1
  O  O55  1  0.93066053  0.72475455  0.93938425  1
  O  O56  1  0.49548322  0.63263789  0.23740244  1
  O  O57  1  0.50451678  0.36736211  0.76259756  1
  O  O58  1  0.00451678  0.13263789  0.26259756  1
  O  O59  1  0.99548322  0.86736211  0.73740244  1
  O  O60  1  0.00582371  0.39051093  0.26667860  1
  O  O61  1  0.99417629  0.60948907  0.73332140  1
  O  O62  1  0.49417629  0.89051093  0.23332140  1
  O  O63  1  0.50582371  0.10948907  0.76667860  1
  O  O64  1  0.13403124  0.89218419  0.30489194  1
  O  O65  1  0.86596876  0.10781581  0.69510806  1
  O  O66  1  0.36596876  0.39218419  0.19510806  1
  O  O67  1  0.63403124  0.60781581  0.80489194  1
