# generated using pymatgen
data_BaNiP2O7
_symmetry_space_group_name_H-M   'P 1'
_cell_length_a   5.35954243
_cell_length_b   7.31160191
_cell_length_c   7.68046818
_cell_angle_alpha   101.95957561
_cell_angle_beta   90.56828727
_cell_angle_gamma   94.83371863
_symmetry_Int_Tables_number   1
_chemical_formula_structural   BaNiP2O7
_chemical_formula_sum   'Ba2 Ni2 P4 O14'
_cell_volume   293.27742698
_cell_formula_units_Z   2
loop_
 _symmetry_equiv_pos_site_id
 _symmetry_equiv_pos_as_xyz
  1  'x, y, z'
loop_
 _atom_site_type_symbol
 _atom_site_label
 _atom_site_symmetry_multiplicity
 _atom_site_fract_x
 _atom_site_fract_y
 _atom_site_fract_z
 _atom_site_occupancy
  Ba  Ba0  1  0.28730352  0.72595637  0.06753554  1
  Ba  Ba1  1  0.71269648  0.27404363  0.93246446  1
  Ni  Ni2  1  0.69109651  0.11957126  0.39890100  1
  Ni  Ni3  1  0.30890349  0.88042874  0.60109900  1
  P  P4  1  0.20527952  0.22832352  0.21226364  1
  P  P5  1  0.79472048  0.77167648  0.78773636  1
  P  P6  1  0.20707517  0.31169520  0.59484675  1
  P  P7  1  0.79292483  0.68830480  0.40515325  1
  O  O8  1  0.21470505  0.34559053  0.06952673  1
  O  O9  1  0.78529495  0.65440947  0.93047327  1
  O  O10  1  0.95495582  0.10780827  0.20693168  1
  O  O11  1  0.04504418  0.89219173  0.79306832  1
  O  O12  1  0.06277045  0.77686137  0.39921073  1
  O  O13  1  0.93722955  0.22313863  0.60078927  1
  O  O14  1  0.43205366  0.10855509  0.19901120  1
  O  O15  1  0.56794634  0.89144491  0.80098880  1
  O  O16  1  0.39872381  0.15870885  0.59011540  1
  O  O17  1  0.60127619  0.84129115  0.40988460  1
  O  O18  1  0.23444461  0.37354512  0.40348222  1
  O  O19  1  0.76555539  0.62645488  0.59651778  1
  O  O20  1  0.72433770  0.51563444  0.26457079  1
  O  O21  1  0.27566230  0.48436556  0.73542921  1
