# generated using pymatgen
data_Ce2Si3Pd
_symmetry_space_group_name_H-M   'P 1'
_cell_length_a   8.25464141
_cell_length_b   8.25464141
_cell_length_c   8.36928432
_cell_angle_alpha   90.00000000
_cell_angle_beta   90.00000000
_cell_angle_gamma   119.99999670
_symmetry_Int_Tables_number   1
_chemical_formula_structural   Ce2Si3Pd
_chemical_formula_sum   'Ce8 Si12 Pd4'
_cell_volume   493.87312228
_cell_formula_units_Z   4
loop_
 _symmetry_equiv_pos_site_id
 _symmetry_equiv_pos_as_xyz
  1  'x, y, z'
loop_
 _atom_site_type_symbol
 _atom_site_label
 _atom_site_symmetry_multiplicity
 _atom_site_fract_x
 _atom_site_fract_y
 _atom_site_fract_z
 _atom_site_occupancy
  Ce  Ce0  1  0.49946422  0.50053578  0.75000000  1
  Ce  Ce1  1  0.50053578  0.49946422  0.25000000  1
  Ce  Ce2  1  0.00107157  0.50053578  0.75000000  1
  Ce  Ce3  1  0.99892843  0.49946422  0.25000000  1
  Ce  Ce4  1  0.49946422  0.99892843  0.75000000  1
  Ce  Ce5  1  0.50053578  0.00107157  0.25000000  1
  Ce  Ce6  1  -0.00000000  0.00000000  0.75000000  1
  Ce  Ce7  1  -0.00000000  -0.00000000  0.25000000  1
  Si  Si8  1  0.83534547  0.16465453  0.99879578  1
  Si  Si9  1  0.16465453  0.83534547  0.00120422  1
  Si  Si10  1  0.32930906  0.16465453  0.99879578  1
  Si  Si11  1  0.16465453  0.83534547  0.49879578  1
  Si  Si12  1  0.67069094  0.83534547  0.00120422  1
  Si  Si13  1  0.83534547  0.16465453  0.50120422  1
  Si  Si14  1  0.83534547  0.67069094  0.99879578  1
  Si  Si15  1  0.67069094  0.83534547  0.49879578  1
  Si  Si16  1  0.16465453  0.32930906  0.00120422  1
  Si  Si17  1  0.32930906  0.16465453  0.50120422  1
  Si  Si18  1  0.16465453  0.32930906  0.49879578  1
  Si  Si19  1  0.83534547  0.67069094  0.50120422  1
  Pd  Pd20  1  0.66666700  0.33333300  0.99880732  1
  Pd  Pd21  1  0.33333300  0.66666700  0.00119268  1
  Pd  Pd22  1  0.33333300  0.66666700  0.49880732  1
  Pd  Pd23  1  0.66666700  0.33333300  0.50119268  1
