# generated using pymatgen
data_CsZr6MnCl14
_symmetry_space_group_name_H-M   'P 1'
_cell_length_a   10.05276057
_cell_length_b   10.05276057
_cell_length_c   12.21174617
_cell_angle_alpha   90.00000000
_cell_angle_beta   90.00000000
_cell_angle_gamma   94.53582970
_symmetry_Int_Tables_number   1
_chemical_formula_structural   CsZr6MnCl14
_chemical_formula_sum   'Cs2 Zr12 Mn2 Cl28'
_cell_volume   1230.22949124
_cell_formula_units_Z   2
loop_
 _symmetry_equiv_pos_site_id
 _symmetry_equiv_pos_as_xyz
  1  'x, y, z'
loop_
 _atom_site_type_symbol
 _atom_site_label
 _atom_site_symmetry_multiplicity
 _atom_site_fract_x
 _atom_site_fract_y
 _atom_site_fract_z
 _atom_site_occupancy
  Cs  Cs0  1  0.50000000  0.50000000  0.00000000  1
  Cs  Cs1  1  0.00000000  0.00000000  0.50000000  1
  Zr  Zr2  1  0.35442394  0.35442394  0.39186354  1
  Zr  Zr3  1  0.64557606  0.64557606  0.60813646  1
  Zr  Zr4  1  0.14557606  0.14557606  0.89186354  1
  Zr  Zr5  1  0.85442394  0.85442394  0.10813646  1
  Zr  Zr6  1  0.18807425  0.95145973  0.11690171  1
  Zr  Zr7  1  0.81192575  0.04854027  0.88309829  1
  Zr  Zr8  1  0.31192575  0.54854027  0.61690171  1
  Zr  Zr9  1  0.45145973  0.68807425  0.38309829  1
  Zr  Zr10  1  0.68807425  0.45145973  0.38309829  1
  Zr  Zr11  1  0.54854027  0.31192575  0.61690171  1
  Zr  Zr12  1  0.04854027  0.81192575  0.88309829  1
  Zr  Zr13  1  0.95145973  0.18807425  0.11690171  1
  Mn  Mn14  1  0.00000000  0.00000000  0.00000000  1
  Mn  Mn15  1  0.50000000  0.50000000  0.50000000  1
  Cl  Cl16  1  0.35425475  0.11138429  0.00792482  1
  Cl  Cl17  1  0.64574525  0.88861571  0.99207518  1
  Cl  Cl18  1  0.14574525  0.38861571  0.50792482  1
  Cl  Cl19  1  0.61138429  0.85425475  0.49207518  1
  Cl  Cl20  1  0.85425475  0.61138429  0.49207518  1
  Cl  Cl21  1  0.38861571  0.14574525  0.50792482  1
  Cl  Cl22  1  0.88861571  0.64574525  0.99207518  1
  Cl  Cl23  1  0.11138429  0.35425475  0.00792482  1
  Cl  Cl24  1  0.24801961  0.75198039  0.00000000  1
  Cl  Cl25  1  0.75198039  0.24801961  0.00000000  1
  Cl  Cl26  1  0.25198039  0.74801961  0.50000000  1
  Cl  Cl27  1  0.74801961  0.25198039  0.50000000  1
  Cl  Cl28  1  0.39012063  0.89012063  0.25000000  1
  Cl  Cl29  1  0.60987937  0.10987937  0.75000000  1
  Cl  Cl30  1  0.10987937  0.60987937  0.75000000  1
  Cl  Cl31  1  0.89012063  0.39012063  0.25000000  1
  Cl  Cl32  1  0.15211635  0.15211635  0.25247602  1
  Cl  Cl33  1  0.84788365  0.84788365  0.74752398  1
  Cl  Cl34  1  0.34788365  0.34788365  0.75247602  1
  Cl  Cl35  1  0.65211635  0.65211635  0.24752398  1
  Cl  Cl36  1  0.53736595  0.29499528  0.25711461  1
  Cl  Cl37  1  0.46263405  0.70500472  0.74288539  1
  Cl  Cl38  1  0.96263405  0.20500472  0.75711461  1
  Cl  Cl39  1  0.79499528  0.03736595  0.24288539  1
  Cl  Cl40  1  0.03736595  0.79499528  0.24288539  1
  Cl  Cl41  1  0.20500472  0.96263405  0.75711461  1
  Cl  Cl42  1  0.70500472  0.46263405  0.74288539  1
  Cl  Cl43  1  0.29499528  0.53736595  0.25711461  1
