# generated using pymatgen
data_CsNpMoO6
_symmetry_space_group_name_H-M   'P 1'
_cell_length_a   7.79923680
_cell_length_b   8.75332460
_cell_length_c   10.63463968
_cell_angle_alpha   90.00000000
_cell_angle_beta   102.34736685
_cell_angle_gamma   90.00000000
_symmetry_Int_Tables_number   1
_chemical_formula_structural   CsNpMoO6
_chemical_formula_sum   'Cs4 Np4 Mo4 O24'
_cell_volume   709.22543764
_cell_formula_units_Z   4
loop_
 _symmetry_equiv_pos_site_id
 _symmetry_equiv_pos_as_xyz
  1  'x, y, z'
loop_
 _atom_site_type_symbol
 _atom_site_label
 _atom_site_symmetry_multiplicity
 _atom_site_fract_x
 _atom_site_fract_y
 _atom_site_fract_z
 _atom_site_occupancy
  Cs  Cs0  1  0.54137651  0.24254030  0.35344511  1
  Cs  Cs1  1  0.45862349  0.75745970  0.64655489  1
  Cs  Cs2  1  0.45862349  0.74254030  0.14655489  1
  Cs  Cs3  1  0.54137651  0.25745970  0.85344511  1
  Np  Np4  1  0.01244739  0.52234631  0.32479343  1
  Np  Np5  1  0.98755261  0.47765369  0.67520657  1
  Np  Np6  1  0.98755261  0.02234631  0.17520657  1
  Np  Np7  1  0.01244739  0.97765369  0.82479343  1
  Mo  Mo8  1  0.11100258  0.35240108  0.05375062  1
  Mo  Mo9  1  0.88899742  0.64759892  0.94624938  1
  Mo  Mo10  1  0.88899742  0.85240108  0.44624938  1
  Mo  Mo11  1  0.11100258  0.14759892  0.55375062  1
  O  O12  1  0.04141319  0.56357761  0.10829102  1
  O  O13  1  0.95858681  0.43642239  0.89170898  1
  O  O14  1  0.95858681  0.06357761  0.39170898  1
  O  O15  1  0.04141319  0.93642239  0.60829102  1
  O  O16  1  0.75266783  0.06251212  0.12809732  1
  O  O17  1  0.24733217  0.93748788  0.87190268  1
  O  O18  1  0.24733217  0.56251212  0.37190268  1
  O  O19  1  0.75266783  0.43748788  0.62809732  1
  O  O20  1  0.77671906  0.49067538  0.27335206  1
  O  O21  1  0.22328094  0.50932462  0.72664794  1
  O  O22  1  0.22328094  0.99067538  0.22664794  1
  O  O23  1  0.77671906  0.00932462  0.77335206  1
  O  O24  1  0.33660374  0.36391101  0.06163132  1
  O  O25  1  0.66339626  0.63608899  0.93836868  1
  O  O26  1  0.66339626  0.86391101  0.43836868  1
  O  O27  1  0.33660374  0.13608899  0.56163132  1
  O  O28  1  0.05880855  0.29009270  0.21712104  1
  O  O29  1  0.94119145  0.70990730  0.78287896  1
  O  O30  1  0.94119145  0.79009270  0.28287896  1
  O  O31  1  0.05880855  0.20990730  0.71712104  1
  O  O32  1  0.03047591  0.35155988  0.48843561  1
  O  O33  1  0.96952409  0.64844012  0.51156439  1
  O  O34  1  0.96952409  0.85155988  0.01156439  1
  O  O35  1  0.03047591  0.14844012  0.98843561  1
