# generated using pymatgen
data_Ba6Gd2Ga4O15
_symmetry_space_group_name_H-M   'P 1'
_cell_length_a   6.08680787
_cell_length_b   8.10382415
_cell_length_c   18.74471259
_cell_angle_alpha   91.09232986
_cell_angle_beta   90.00000000
_cell_angle_gamma   90.00000000
_symmetry_Int_Tables_number   1
_chemical_formula_structural   Ba6Gd2Ga4O15
_chemical_formula_sum   'Ba12 Gd4 Ga8 O30'
_cell_volume   924.44155137
_cell_formula_units_Z   2
loop_
 _symmetry_equiv_pos_site_id
 _symmetry_equiv_pos_as_xyz
  1  'x, y, z'
loop_
 _atom_site_type_symbol
 _atom_site_label
 _atom_site_symmetry_multiplicity
 _atom_site_fract_x
 _atom_site_fract_y
 _atom_site_fract_z
 _atom_site_occupancy
  Ba  Ba0  1  0.75668797  0.49833720  0.42102669  1
  Ba  Ba1  1  0.24331203  0.50166280  0.57897331  1
  Ba  Ba2  1  0.75668797  0.50166280  0.07897331  1
  Ba  Ba3  1  0.24331203  0.49833720  0.92102669  1
  Ba  Ba4  1  0.74235169  0.97029328  0.40993551  1
  Ba  Ba5  1  0.25764831  0.02970672  0.59006449  1
  Ba  Ba6  1  0.74235169  0.02970672  0.09006449  1
  Ba  Ba7  1  0.25764831  0.97029328  0.90993551  1
  Ba  Ba8  1  0.72312223  0.00000000  0.75000000  1
  Ba  Ba9  1  0.27687777  0.00000000  0.25000000  1
  Ba  Ba10  1  0.66614464  0.50000000  0.75000000  1
  Ba  Ba11  1  0.33385536  0.50000000  0.25000000  1
  Gd  Gd12  1  0.74414795  0.75142727  0.59022295  1
  Gd  Gd13  1  0.25585205  0.24857273  0.40977705  1
  Gd  Gd14  1  0.74414795  0.24857273  0.90977705  1
  Gd  Gd15  1  0.25585205  0.75142727  0.09022295  1
  Ga  Ga16  1  0.75297323  0.75354034  0.94047690  1
  Ga  Ga17  1  0.24702677  0.24645966  0.05952310  1
  Ga  Ga18  1  0.75297323  0.24645966  0.55952310  1
  Ga  Ga19  1  0.24702677  0.75354034  0.44047690  1
  Ga  Ga20  1  0.77657239  0.77049422  0.23511047  1
  Ga  Ga21  1  0.22342761  0.22950578  0.76488953  1
  Ga  Ga22  1  0.77657239  0.22950578  0.26488953  1
  Ga  Ga23  1  0.22342761  0.77049422  0.73511047  1
  O  O24  1  0.20921983  0.00000000  0.75000000  1
  O  O25  1  0.79078017  0.00000000  0.25000000  1
  O  O26  1  0.49809108  0.76526965  0.49949216  1
  O  O27  1  0.50190892  0.23473035  0.50050784  1
  O  O28  1  0.49809108  0.23473035  0.00050784  1
  O  O29  1  0.50190892  0.76526965  0.99949216  1
  O  O30  1  0.76046836  0.95136650  0.89004031  1
  O  O31  1  0.23953164  0.04863350  0.10995969  1
  O  O32  1  0.76046836  0.04863350  0.60995969  1
  O  O33  1  0.23953164  0.95136650  0.39004031  1
  O  O34  1  0.00031759  0.76293396  0.50278964  1
  O  O35  1  0.99968241  0.23706604  0.49721036  1
  O  O36  1  0.00031759  0.23706604  0.99721036  1
  O  O37  1  0.99968241  0.76293396  0.00278964  1
  O  O38  1  0.32468485  0.68989695  0.81922237  1
  O  O39  1  0.67531515  0.31010305  0.18077763  1
  O  O40  1  0.32468485  0.31010305  0.68077763  1
  O  O41  1  0.67531515  0.68989695  0.31922237  1
  O  O42  1  0.44589709  0.74734347  0.66513003  1
  O  O43  1  0.55410291  0.25265653  0.33486997  1
  O  O44  1  0.44589709  0.25265653  0.83486997  1
  O  O45  1  0.55410291  0.74734347  0.16513003  1
  O  O46  1  0.95424949  0.72636135  0.69250601  1
  O  O47  1  0.04575051  0.27363865  0.30749399  1
  O  O48  1  0.95424949  0.27363865  0.80749399  1
  O  O49  1  0.04575051  0.72636135  0.19250601  1
  O  O50  1  0.75668950  0.53453935  0.90657061  1
  O  O51  1  0.24331050  0.46546065  0.09342939  1
  O  O52  1  0.75668950  0.46546065  0.59342939  1
  O  O53  1  0.24331050  0.53453935  0.40657061  1
