# generated using pymatgen
data_Ba6Na2V2Sb2O17
_symmetry_space_group_name_H-M   'P 1'
_cell_length_a   6.00781998
_cell_length_b   6.00784760
_cell_length_c   30.44963141
_cell_angle_alpha   90.00023602
_cell_angle_beta   89.99984806
_cell_angle_gamma   119.99940953
_symmetry_Int_Tables_number   1
_chemical_formula_structural   Ba6Na2V2Sb2O17
_chemical_formula_sum   'Ba12 Na4 V4 Sb4 O34'
_cell_volume   951.81177664
_cell_formula_units_Z   2
loop_
 _symmetry_equiv_pos_site_id
 _symmetry_equiv_pos_as_xyz
  1  'x, y, z'
loop_
 _atom_site_type_symbol
 _atom_site_label
 _atom_site_symmetry_multiplicity
 _atom_site_fract_x
 _atom_site_fract_y
 _atom_site_fract_z
 _atom_site_occupancy
  Ba  Ba0  1  0.66666331  0.33333152  0.82216997  1
  Ba  Ba1  1  0.33333383  0.66666158  0.17782849  1
  Ba  Ba2  1  0.33333265  0.66665999  0.32217022  1
  Ba  Ba3  1  0.66666948  0.33336935  0.67783072  1
  Ba  Ba4  1  0.00000091  0.99999883  -0.00000056  1
  Ba  Ba5  1  0.00000238  0.00000003  0.49999863  1
  Ba  Ba6  1  0.66667315  0.33333018  0.40865334  1
  Ba  Ba7  1  0.33332810  0.66665451  0.59134775  1
  Ba  Ba8  1  0.33333568  0.66666932  0.90865290  1
  Ba  Ba9  1  0.66666470  0.33333047  0.09134567  1
  Ba  Ba10  1  0.99999720  0.99998734  0.74999948  1
  Ba  Ba11  1  0.00000214  0.00000037  0.25000162  1
  Na  Na12  1  0.99999869  0.00000122  0.87537740  1
  Na  Na13  1  0.00000326  0.00000009  0.12462225  1
  Na  Na14  1  0.99999907  0.00000225  0.37537834  1
  Na  Na15  1  0.99999903  0.99998917  0.62462142  1
  V  V16  1  0.66667017  0.33333329  0.94784081  1
  V  V17  1  0.33333399  0.66666757  0.05217007  1
  V  V18  1  0.33333327  0.66666772  0.44782805  1
  V  V19  1  0.66666730  0.33333078  0.55215592  1
  Sb  Sb20  1  0.66666578  0.33333393  0.29755893  1
  Sb  Sb21  1  0.33333433  0.66662367  0.70244220  1
  Sb  Sb22  1  0.33333150  0.66666303  0.79755882  1
  Sb  Sb23  1  0.66666707  0.33333385  0.20244163  1
  O  O24  1  0.66666596  0.33333139  0.49532736  1
  O  O25  1  0.33333297  0.66666888  0.50469237  1
  O  O26  1  0.33333276  0.66666693  0.99531023  1
  O  O27  1  0.66666697  0.33333337  0.00467597  1
  O  O28  1  0.82743202  0.17299338  0.33005939  1
  O  O29  1  0.17265885  0.82704051  0.66993705  1
  O  O30  1  0.34555644  0.17256178  0.33005894  1
  O  O31  1  0.17256666  0.82701140  0.83005792  1
  O  O32  1  0.65444322  0.82714016  0.66994111  1
  O  O33  1  0.82743286  0.17299165  0.16993948  1
  O  O34  1  0.82700128  0.65444047  0.33005946  1
  O  O35  1  0.65443726  0.82743347  0.83006004  1
  O  O36  1  0.17290100  0.34550186  0.66994438  1
  O  O37  1  0.34556052  0.17256819  0.16993999  1
  O  O38  1  0.17298824  0.34555962  0.83006008  1
  O  O39  1  0.82700567  0.65443855  0.16993995  1
  O  O40  1  0.48160498  0.51845707  0.75000552  1
  O  O41  1  0.51838153  0.48151764  0.25000023  1
  O  O42  1  0.03686724  0.51838626  0.74999990  1
  O  O43  1  0.96313362  0.48161748  0.25000000  1
  O  O44  1  0.48153005  0.96312009  0.74999442  1
  O  O45  1  0.51848717  0.03687074  0.24999942  1
  O  O46  1  0.82381971  0.17619307  0.92738369  1
  O  O47  1  0.17618816  0.82379780  0.07261099  1
  O  O48  1  0.35237974  0.17618553  0.92738414  1
  O  O49  1  0.17619093  0.82380006  0.42738913  1
  O  O50  1  0.64760740  0.82381013  0.07261078  1
  O  O51  1  0.82381761  0.17618955  0.57261843  1
  O  O52  1  0.82380600  0.64762125  0.92738368  1
  O  O53  1  0.64760602  0.82380884  0.42738942  1
  O  O54  1  0.17620296  0.35239477  0.07261081  1
  O  O55  1  0.35237538  0.17618628  0.57261716  1
  O  O56  1  0.17620328  0.35239796  0.42738883  1
  O  O57  1  0.82380853  0.64762377  0.57261566  1
