# generated using pymatgen
data_AgPtF6
_symmetry_space_group_name_H-M   'P 1'
_cell_length_a   5.25276170
_cell_length_b   5.26525431
_cell_length_c   10.50475649
_cell_angle_alpha   76.10671284
_cell_angle_beta   76.20399390
_cell_angle_gamma   60.38860092
_symmetry_Int_Tables_number   1
_chemical_formula_structural   AgPtF6
_chemical_formula_sum   'Ag2 Pt2 F12'
_cell_volume   242.71367516
_cell_formula_units_Z   2
loop_
 _symmetry_equiv_pos_site_id
 _symmetry_equiv_pos_as_xyz
  1  'x, y, z'
loop_
 _atom_site_type_symbol
 _atom_site_label
 _atom_site_symmetry_multiplicity
 _atom_site_fract_x
 _atom_site_fract_y
 _atom_site_fract_z
 _atom_site_occupancy
  Ag  Ag0  1  0.50000000  0.50000000  0.50000000  1
  Ag  Ag1  1  -0.00000000  0.00000000  -0.00000000  1
  Pt  Pt2  1  0.23010559  0.27804803  0.25002552  1
  Pt  Pt3  1  0.76989441  0.72195197  0.74997448  1
  F  F4  1  0.19560799  0.54055846  0.36494631  1
  F  F5  1  0.80439201  0.45944154  0.63505369  1
  F  F6  1  0.89270997  0.23406889  0.36307604  1
  F  F7  1  0.10729003  0.76593111  0.63692396  1
  F  F8  1  0.56826123  0.31046606  0.13681561  1
  F  F9  1  0.43173877  0.68953394  0.86318439  1
  F  F10  1  0.27021108  0.01160480  0.13636002  1
  F  F11  1  0.72978892  0.98839520  0.86363998  1
  F  F12  1  0.03592527  0.38315893  0.86368439  1
  F  F13  1  0.96407473  0.61684107  0.13631561  1
  F  F14  1  0.51101950  0.05973760  0.63666143  1
  F  F15  1  0.48898050  0.94026240  0.36333857  1
