# generated using pymatgen
data_BaHfF6
_symmetry_space_group_name_H-M   'P 1'
_cell_length_a   5.60102682
_cell_length_b   6.90255303
_cell_length_c   6.90255303
_cell_angle_alpha   112.20768034
_cell_angle_beta   90.00000000
_cell_angle_gamma   90.00000000
_symmetry_Int_Tables_number   1
_chemical_formula_structural   BaHfF6
_chemical_formula_sum   'Ba2 Hf2 F12'
_cell_volume   247.06639605
_cell_formula_units_Z   2
loop_
 _symmetry_equiv_pos_site_id
 _symmetry_equiv_pos_as_xyz
  1  'x, y, z'
loop_
 _atom_site_type_symbol
 _atom_site_label
 _atom_site_symmetry_multiplicity
 _atom_site_fract_x
 _atom_site_fract_y
 _atom_site_fract_z
 _atom_site_occupancy
  Ba  Ba0  1  0.55444280  0.75000000  0.25000000  1
  Ba  Ba1  1  0.44555720  0.25000000  0.75000000  1
  Hf  Hf2  1  -0.00000000  0.75000000  0.75000000  1
  Hf  Hf3  1  -0.00000000  0.25000000  0.25000000  1
  F  F4  1  0.75237565  0.56933798  0.81724794  1
  F  F5  1  0.24762435  0.43066202  0.18275206  1
  F  F6  1  0.75237565  0.93066202  0.68275206  1
  F  F7  1  0.24762435  0.68275206  0.93066202  1
  F  F8  1  0.24762435  0.06933798  0.31724794  1
  F  F9  1  0.75237565  0.31724794  0.06933798  1
  F  F10  1  0.24762435  0.81724794  0.56933798  1
  F  F11  1  0.75237565  0.18275206  0.43066202  1
  F  F12  1  0.85224661  0.93012934  0.06987066  1
  F  F13  1  0.14775339  0.06987066  0.93012934  1
  F  F14  1  0.85224661  0.56987066  0.43012934  1
  F  F15  1  0.14775339  0.43012934  0.56987066  1
