# generated using pymatgen
data_BaFe2PbO5
_symmetry_space_group_name_H-M   'P 1'
_cell_length_a   4.02615174
_cell_length_b   5.85742922
_cell_length_c   21.60656418
_cell_angle_alpha   90.00000000
_cell_angle_beta   90.00000000
_cell_angle_gamma   90.00000000
_symmetry_Int_Tables_number   1
_chemical_formula_structural   BaFe2PbO5
_chemical_formula_sum   'Ba4 Fe8 Pb4 O20'
_cell_volume   509.54541747
_cell_formula_units_Z   4
loop_
 _symmetry_equiv_pos_site_id
 _symmetry_equiv_pos_as_xyz
  1  'x, y, z'
loop_
 _atom_site_type_symbol
 _atom_site_label
 _atom_site_symmetry_multiplicity
 _atom_site_fract_x
 _atom_site_fract_y
 _atom_site_fract_z
 _atom_site_occupancy
  Ba  Ba0  1  0.75000000  0.98008855  0.31539617  1
  Ba  Ba1  1  0.25000000  0.01991145  0.68460383  1
  Ba  Ba2  1  0.25000000  0.51991145  0.81539617  1
  Ba  Ba3  1  0.75000000  0.48008855  0.18460383  1
  Fe  Fe4  1  0.75000000  0.52208781  0.68673413  1
  Fe  Fe5  1  0.25000000  0.47791219  0.31326587  1
  Fe  Fe6  1  0.25000000  0.97791219  0.18673413  1
  Fe  Fe7  1  0.75000000  0.02208781  0.81326587  1
  Fe  Fe8  1  0.75000000  0.51942361  0.94680471  1
  Fe  Fe9  1  0.25000000  0.48057639  0.05319529  1
  Fe  Fe10  1  0.25000000  0.98057639  0.44680471  1
  Fe  Fe11  1  0.75000000  0.01942361  0.55319529  1
  Pb  Pb12  1  0.75000000  0.48916725  0.42888657  1
  Pb  Pb13  1  0.25000000  0.51083275  0.57111343  1
  Pb  Pb14  1  0.25000000  0.01083275  0.92888657  1
  Pb  Pb15  1  0.75000000  0.98916725  0.07111343  1
  O  O16  1  0.75000000  0.94060322  0.46261285  1
  O  O17  1  0.25000000  0.05939678  0.53738715  1
  O  O18  1  0.25000000  0.55939678  0.96261285  1
  O  O19  1  0.75000000  0.44060322  0.03738715  1
  O  O20  1  0.75000000  0.78594174  0.89104437  1
  O  O21  1  0.25000000  0.21405826  0.10895563  1
  O  O22  1  0.25000000  0.71405826  0.39104437  1
  O  O23  1  0.75000000  0.28594174  0.60895563  1
  O  O24  1  0.75000000  0.76668108  0.60920789  1
  O  O25  1  0.25000000  0.23331892  0.39079211  1
  O  O26  1  0.25000000  0.73331892  0.10920789  1
  O  O27  1  0.75000000  0.26668108  0.89079211  1
  O  O28  1  0.75000000  0.77161257  0.75005503  1
  O  O29  1  0.25000000  0.22838743  0.24994497  1
  O  O30  1  0.25000000  0.72838743  0.25005503  1
  O  O31  1  0.75000000  0.27161257  0.74994497  1
  O  O32  1  0.75000000  0.97954594  0.17699034  1
  O  O33  1  0.25000000  0.02045406  0.82300966  1
  O  O34  1  0.25000000  0.52045406  0.67699034  1
  O  O35  1  0.75000000  0.47954594  0.32300966  1
