# generated using pymatgen
data_AlNi2BO5
_symmetry_space_group_name_H-M   'P 1'
_cell_length_a   2.92506296
_cell_length_b   9.27397716
_cell_length_c   12.09879887
_cell_angle_alpha   90.00000000
_cell_angle_beta   90.00000000
_cell_angle_gamma   90.00000000
_symmetry_Int_Tables_number   1
_chemical_formula_structural   AlNi2BO5
_chemical_formula_sum   'Al4 Ni8 B4 O20'
_cell_volume   328.20371869
_cell_formula_units_Z   4
loop_
 _symmetry_equiv_pos_site_id
 _symmetry_equiv_pos_as_xyz
  1  'x, y, z'
loop_
 _atom_site_type_symbol
 _atom_site_label
 _atom_site_symmetry_multiplicity
 _atom_site_fract_x
 _atom_site_fract_y
 _atom_site_fract_z
 _atom_site_occupancy
  Al  Al0  1  0.00000000  0.23852254  0.38608246  1
  Al  Al1  1  0.00000000  0.76147746  0.61391754  1
  Al  Al2  1  0.00000000  0.26147746  0.88608246  1
  Al  Al3  1  0.00000000  0.73852254  0.11391754  1
  Ni  Ni4  1  0.50000000  -0.00000000  0.50000000  1
  Ni  Ni5  1  0.50000000  0.50000000  -0.00000000  1
  Ni  Ni6  1  0.50000000  0.99819216  0.21920259  1
  Ni  Ni7  1  0.50000000  0.00180784  0.78079741  1
  Ni  Ni8  1  0.50000000  0.50180784  0.71920259  1
  Ni  Ni9  1  0.50000000  0.49819216  0.28079741  1
  Ni  Ni10  1  0.00000000  0.00000000  -0.00000000  1
  Ni  Ni11  1  0.00000000  0.50000000  0.50000000  1
  B  B12  1  0.00000000  0.26987373  0.13961907  1
  B  B13  1  0.00000000  0.73012627  0.86038093  1
  B  B14  1  0.00000000  0.23012627  0.63961907  1
  B  B15  1  0.00000000  0.76987373  0.36038093  1
  O  O16  1  0.50000000  0.37303937  0.42225972  1
  O  O17  1  0.50000000  0.62696063  0.57774028  1
  O  O18  1  0.50000000  0.12696063  0.92225972  1
  O  O19  1  0.50000000  0.87303937  0.07774028  1
  O  O20  1  0.00000000  0.12135248  0.14005867  1
  O  O21  1  0.00000000  0.87864752  0.85994133  1
  O  O22  1  0.00000000  0.37864752  0.64005867  1
  O  O23  1  0.00000000  0.62135248  0.35994133  1
  O  O24  1  0.00000000  0.34515180  0.04000539  1
  O  O25  1  0.00000000  0.65484820  0.95999461  1
  O  O26  1  0.00000000  0.15484820  0.54000539  1
  O  O27  1  0.00000000  0.84515180  0.45999461  1
  O  O28  1  0.00000000  0.34132573  0.24024208  1
  O  O29  1  0.00000000  0.65867427  0.75975792  1
  O  O30  1  0.00000000  0.15867427  0.74024208  1
  O  O31  1  0.00000000  0.84132573  0.25975792  1
  O  O32  1  0.50000000  0.11551084  0.35682448  1
  O  O33  1  0.50000000  0.88448916  0.64317552  1
  O  O34  1  0.50000000  0.38448916  0.85682448  1
  O  O35  1  0.50000000  0.61551084  0.14317552  1
