# generated using pymatgen
data_Li2VSiO4
_symmetry_space_group_name_H-M   'P 1'
_cell_length_a   6.32643071
_cell_length_b   5.80103276
_cell_length_c   4.82890852
_cell_angle_alpha   90.00000000
_cell_angle_beta   89.64166315
_cell_angle_gamma   90.00000000
_symmetry_Int_Tables_number   1
_chemical_formula_structural   Li2VSiO4
_chemical_formula_sum   'Li4 V2 Si2 O8'
_cell_volume   177.21666461
_cell_formula_units_Z   2
loop_
 _symmetry_equiv_pos_site_id
 _symmetry_equiv_pos_as_xyz
  1  'x, y, z'
loop_
 _atom_site_type_symbol
 _atom_site_label
 _atom_site_symmetry_multiplicity
 _atom_site_fract_x
 _atom_site_fract_y
 _atom_site_fract_z
 _atom_site_occupancy
  Li  Li0  1  0.00207495  0.85469969  0.49117190  1
  Li  Li1  1  0.24412567  0.69433889  0.99147873  1
  Li  Li2  1  0.50207495  0.14530031  0.99117190  1
  Li  Li3  1  0.74412567  0.30566111  0.49147873  1
  V  V4  1  0.26056759  0.34874377  0.46902851  1
  V  V5  1  0.76056759  0.65125623  0.96902851  1
  Si  Si6  1  0.99902231  0.16516771  0.00805880  1
  Si  Si7  1  0.49902231  0.83483229  0.50805880  1
  O  O8  1  0.21425066  0.31938947  0.92056917  1
  O  O9  1  0.28222288  0.70058305  0.40358971  1
  O  O10  1  0.49673460  0.83816593  0.84968043  1
  O  O11  1  0.50230233  0.10296188  0.39652175  1
  O  O12  1  0.71425066  0.68061053  0.42056917  1
  O  O13  1  0.78222288  0.29941695  0.90358971  1
  O  O14  1  0.00230233  0.89703812  0.89652175  1
  O  O15  1  0.99673460  0.16183407  0.34968043  1
