# generated using pymatgen
data_Ba6Eu2Al4O15
_symmetry_space_group_name_H-M   'P 1'
_cell_length_a   6.00149775
_cell_length_b   7.99368631
_cell_length_c   18.60251204
_cell_angle_alpha   91.27628161
_cell_angle_beta   90.00000000
_cell_angle_gamma   90.00000000
_symmetry_Int_Tables_number   1
_chemical_formula_structural   Ba6Eu2Al4O15
_chemical_formula_sum   'Ba12 Eu4 Al8 O30'
_cell_volume   892.21719452
_cell_formula_units_Z   2
loop_
 _symmetry_equiv_pos_site_id
 _symmetry_equiv_pos_as_xyz
  1  'x, y, z'
loop_
 _atom_site_type_symbol
 _atom_site_label
 _atom_site_symmetry_multiplicity
 _atom_site_fract_x
 _atom_site_fract_y
 _atom_site_fract_z
 _atom_site_occupancy
  Ba  Ba0  1  0.75668596  0.50145077  0.41761080  1
  Ba  Ba1  1  0.24331404  0.49854923  0.58238920  1
  Ba  Ba2  1  0.75668596  0.49854923  0.08238920  1
  Ba  Ba3  1  0.24331404  0.50145077  0.91761080  1
  Ba  Ba4  1  0.74431013  0.96941876  0.41024815  1
  Ba  Ba5  1  0.25568987  0.03058124  0.58975185  1
  Ba  Ba6  1  0.74431013  0.03058124  0.08975185  1
  Ba  Ba7  1  0.25568987  0.96941876  0.91024815  1
  Ba  Ba8  1  0.72317897  0.00000000  0.75000000  1
  Ba  Ba9  1  0.27682103  0.00000000  0.25000000  1
  Ba  Ba10  1  0.67052020  0.50000000  0.75000000  1
  Ba  Ba11  1  0.32947980  0.50000000  0.25000000  1
  Eu  Eu12  1  0.74386282  0.75203421  0.59045433  1
  Eu  Eu13  1  0.25613718  0.24796579  0.40954567  1
  Eu  Eu14  1  0.74386282  0.24796579  0.90954567  1
  Eu  Eu15  1  0.25613718  0.75203421  0.09045433  1
  Al  Al16  1  0.75442677  0.75316018  0.94274314  1
  Al  Al17  1  0.24557323  0.24683982  0.05725686  1
  Al  Al18  1  0.75442677  0.24683982  0.55725686  1
  Al  Al19  1  0.24557323  0.75316018  0.44274314  1
  Al  Al20  1  0.77398171  0.78052541  0.23433526  1
  Al  Al21  1  0.22601829  0.21947459  0.76566474  1
  Al  Al22  1  0.77398171  0.21947459  0.26566474  1
  Al  Al23  1  0.22601829  0.78052541  0.73433526  1
  O  O24  1  0.21310843  0.00000000  0.75000000  1
  O  O25  1  0.78689157  0.00000000  0.25000000  1
  O  O26  1  0.48643204  0.76403224  0.49943288  1
  O  O27  1  0.51356796  0.23596776  0.50056712  1
  O  O28  1  0.48643204  0.23596776  0.00056712  1
  O  O29  1  0.51356796  0.76403224  0.99943288  1
  O  O30  1  0.75703479  0.94026050  0.89200085  1
  O  O31  1  0.24296521  0.05973950  0.10799915  1
  O  O32  1  0.75703479  0.05973950  0.60799915  1
  O  O33  1  0.24296521  0.94026050  0.39200085  1
  O  O34  1  0.00349435  0.76256471  0.49979823  1
  O  O35  1  0.99650565  0.23743529  0.50020177  1
  O  O36  1  0.00349435  0.23743529  0.00020177  1
  O  O37  1  0.99650565  0.76256471  0.99979823  1
  O  O38  1  0.31226635  0.69447252  0.81507915  1
  O  O39  1  0.68773365  0.30552748  0.18492085  1
  O  O40  1  0.31226635  0.30552748  0.68492085  1
  O  O41  1  0.68773365  0.69447252  0.31507915  1
  O  O42  1  0.44041448  0.75031729  0.66863523  1
  O  O43  1  0.55958552  0.24968271  0.33136477  1
  O  O44  1  0.44041448  0.24968271  0.83136477  1
  O  O45  1  0.55958552  0.75031729  0.16863523  1
  O  O46  1  0.96618774  0.73087438  0.69385465  1
  O  O47  1  0.03381226  0.26912562  0.30614535  1
  O  O48  1  0.96618774  0.26912562  0.80614535  1
  O  O49  1  0.03381226  0.73087438  0.19385465  1
  O  O50  1  0.75461557  0.54479469  0.90531219  1
  O  O51  1  0.24538443  0.45520531  0.09468781  1
  O  O52  1  0.75461557  0.45520531  0.59468781  1
  O  O53  1  0.24538443  0.54479469  0.40531219  1
