# generated using pymatgen
data_Cs2SbF5
_symmetry_space_group_name_H-M   'P 1'
_cell_length_a   6.79947467
_cell_length_b   7.18370029
_cell_length_c   8.27012400
_cell_angle_alpha   90.00000000
_cell_angle_beta   114.27311712
_cell_angle_gamma   90.00000000
_symmetry_Int_Tables_number   1
_chemical_formula_structural   Cs2SbF5
_chemical_formula_sum   'Cs4 Sb2 F10'
_cell_volume   368.24606907
_cell_formula_units_Z   2
loop_
 _symmetry_equiv_pos_site_id
 _symmetry_equiv_pos_as_xyz
  1  'x, y, z'
loop_
 _atom_site_type_symbol
 _atom_site_label
 _atom_site_symmetry_multiplicity
 _atom_site_fract_x
 _atom_site_fract_y
 _atom_site_fract_z
 _atom_site_occupancy
  Cs  Cs0  1  0.24602124  0.25000000  0.49204249  1
  Cs  Cs1  1  0.75397876  0.75000000  0.50795751  1
  Cs  Cs2  1  0.56557024  0.25000000  0.13114048  1
  Cs  Cs3  1  0.43442976  0.75000000  0.86885952  1
  Sb  Sb4  1  0.90496506  0.25000000  0.80993013  1
  Sb  Sb5  1  0.09503494  0.75000000  0.19006987  1
  F  F6  1  0.10347678  0.04608184  0.76546971  1
  F  F7  1  0.89652322  0.95391816  0.23453029  1
  F  F8  1  0.89652322  0.54608184  0.23453029  1
  F  F9  1  0.66199293  0.45391816  0.76546971  1
  F  F10  1  0.10347678  0.45391816  0.76546971  1
  F  F11  1  0.33800707  0.54608184  0.23453029  1
  F  F12  1  0.33800707  0.95391816  0.23453029  1
  F  F13  1  0.66199293  0.04608184  0.76546971  1
  F  F14  1  0.77228760  0.25000000  0.54457520  1
  F  F15  1  0.22771240  0.75000000  0.45542480  1
