# generated using pymatgen
data_Ba6Na2Mn2Nb2O17
_symmetry_space_group_name_H-M   'P 1'
_cell_length_a   5.98613547
_cell_length_b   5.98613990
_cell_length_c   30.42192201
_cell_angle_alpha   90.00013594
_cell_angle_beta   89.99988554
_cell_angle_gamma   119.99969760
_symmetry_Int_Tables_number   1
_chemical_formula_structural   Ba6Na2Mn2Nb2O17
_chemical_formula_sum   'Ba12 Na4 Mn4 Nb4 O34'
_cell_volume   944.08697841
_cell_formula_units_Z   2
loop_
 _symmetry_equiv_pos_site_id
 _symmetry_equiv_pos_as_xyz
  1  'x, y, z'
loop_
 _atom_site_type_symbol
 _atom_site_label
 _atom_site_symmetry_multiplicity
 _atom_site_fract_x
 _atom_site_fract_y
 _atom_site_fract_z
 _atom_site_occupancy
  Ba  Ba0  1  0.66666559  0.33332332  0.81910698  1
  Ba  Ba1  1  0.33333496  0.66666886  0.18090296  1
  Ba  Ba2  1  0.33333359  0.66666717  0.31910339  1
  Ba  Ba3  1  0.66666374  0.33337113  0.68088280  1
  Ba  Ba4  1  0.00000196  0.99999931  0.00003204  1
  Ba  Ba5  1  0.00000019  0.00000202  0.49997465  1
  Ba  Ba6  1  0.66667419  0.33333897  0.40993848  1
  Ba  Ba7  1  0.33333310  0.66665367  0.59000006  1
  Ba  Ba8  1  0.33333170  0.66666766  0.91000476  1
  Ba  Ba9  1  0.66667052  0.33333550  0.09006435  1
  Ba  Ba10  1  0.99999740  0.99999417  0.74998677  1
  Ba  Ba11  1  -0.00000099  0.00000170  0.25000418  1
  Na  Na12  1  0.99999940  -0.00000017  0.87533953  1
  Na  Na13  1  0.00000109  0.99999949  0.12466104  1
  Na  Na14  1  0.99999858  0.99999831  0.37534282  1
  Na  Na15  1  0.00000085  0.99998233  0.62465545  1
  Mn  Mn16  1  0.66666883  0.33332981  0.94797019  1
  Mn  Mn17  1  0.33333388  0.66666378  0.05211327  1
  Mn  Mn18  1  0.33333200  0.66666093  0.44788094  1
  Mn  Mn19  1  0.66667494  0.33334368  0.55201493  1
  Nb  Nb20  1  0.66666626  0.33333218  0.29863487  1
  Nb  Nb21  1  0.33332858  0.66662948  0.70136751  1
  Nb  Nb22  1  0.33333063  0.66665775  0.79863383  1
  Nb  Nb23  1  0.66666913  0.33333414  0.20137419  1
  O  O24  1  0.66666782  0.33332755  0.49611192  1
  O  O25  1  0.33333216  0.66666576  0.50386199  1
  O  O26  1  0.33333220  0.66666801  0.99613840  1
  O  O27  1  0.66666520  0.33333222  0.00389094  1
  O  O28  1  0.82580880  0.17463513  0.33045227  1
  O  O29  1  0.17431185  0.82540872  0.66951552  1
  O  O30  1  0.34882357  0.17419068  0.33045321  1
  O  O31  1  0.17419878  0.82535365  0.83047529  1
  O  O32  1  0.65115963  0.82552342  0.66952186  1
  O  O33  1  0.82581116  0.17463437  0.16955025  1
  O  O34  1  0.82536238  0.65117336  0.33045272  1
  O  O35  1  0.65115309  0.82580296  0.83047715  1
  O  O36  1  0.17452849  0.34877938  0.66952803  1
  O  O37  1  0.34881921  0.17418541  0.16955043  1
  O  O38  1  0.17464863  0.34885168  0.83047948  1
  O  O39  1  0.82536708  0.65117809  0.16955014  1
  O  O40  1  0.48652574  0.51351191  0.75000302  1
  O  O41  1  0.51344760  0.48645847  0.25000195  1
  O  O42  1  0.02701414  0.51345440  0.74999736  1
  O  O43  1  0.97300651  0.48654933  0.25000200  1
  O  O44  1  0.48646324  0.97296946  0.74999232  1
  O  O45  1  0.51354282  0.02699422  0.25000155  1
  O  O46  1  0.82228323  0.17772783  0.92762880  1
  O  O47  1  0.17774284  0.82224227  0.07242517  1
  O  O48  1  0.35544772  0.17771854  0.92762900  1
  O  O49  1  0.17774110  0.82224339  0.42757382  1
  O  O50  1  0.64449938  0.82225559  0.07242530  1
  O  O51  1  0.82227701  0.17772835  0.57237463  1
  O  O52  1  0.82226980  0.64455132  0.92762906  1
  O  O53  1  0.64450154  0.82225656  0.42757355  1
  O  O54  1  0.17775786  0.35550244  0.07242485  1
  O  O55  1  0.35545274  0.17772550  0.57237337  1
  O  O56  1  0.17775165  0.35549348  0.42757312  1
  O  O57  1  0.82227492  0.64455135  0.57237150  1
