# generated using pymatgen
data_Ba2DyCl7
_symmetry_space_group_name_H-M   'P 1'
_cell_length_a   6.91062381
_cell_length_b   10.64523746
_cell_length_c   15.72596379
_cell_angle_alpha   90.00000000
_cell_angle_beta   90.00000000
_cell_angle_gamma   90.70720441
_symmetry_Int_Tables_number   1
_chemical_formula_structural   Ba2DyCl7
_chemical_formula_sum   'Ba8 Dy4 Cl28'
_cell_volume   1156.79604204
_cell_formula_units_Z   4
loop_
 _symmetry_equiv_pos_site_id
 _symmetry_equiv_pos_as_xyz
  1  'x, y, z'
loop_
 _atom_site_type_symbol
 _atom_site_label
 _atom_site_symmetry_multiplicity
 _atom_site_fract_x
 _atom_site_fract_y
 _atom_site_fract_z
 _atom_site_occupancy
  Ba  Ba0  1  0.23503879  0.95082527  0.77980325  1
  Ba  Ba1  1  0.76496121  0.04917473  0.22019675  1
  Ba  Ba2  1  0.76496121  0.54917473  0.27980325  1
  Ba  Ba3  1  0.23503879  0.45082527  0.72019675  1
  Ba  Ba4  1  0.76545820  0.67632580  0.93910152  1
  Ba  Ba5  1  0.23454180  0.32367420  0.06089848  1
  Ba  Ba6  1  0.23454180  0.82367420  0.43910152  1
  Ba  Ba7  1  0.76545820  0.17632580  0.56089848  1
  Dy  Dy8  1  0.71694940  0.71803193  0.62686722  1
  Dy  Dy9  1  0.28305060  0.28196807  0.37313278  1
  Dy  Dy10  1  0.28305060  0.78196807  0.12686722  1
  Dy  Dy11  1  0.71694940  0.21803193  0.87313278  1
  Cl  Cl12  1  0.37108893  0.62429818  0.57099438  1
  Cl  Cl13  1  0.62891107  0.37570182  0.42900562  1
  Cl  Cl14  1  0.62891107  0.87570182  0.07099438  1
  Cl  Cl15  1  0.37108893  0.12429818  0.92900562  1
  Cl  Cl16  1  0.98628006  0.91361327  0.60496641  1
  Cl  Cl17  1  0.01371994  0.08638673  0.39503359  1
  Cl  Cl18  1  0.01371994  0.58638673  0.10496641  1
  Cl  Cl19  1  0.98628006  0.41361327  0.89503359  1
  Cl  Cl20  1  0.79417416  0.71302448  0.46036293  1
  Cl  Cl21  1  0.20582584  0.28697552  0.53963707  1
  Cl  Cl22  1  0.20582584  0.78697552  0.96036293  1
  Cl  Cl23  1  0.79417416  0.21302448  0.03963707  1
  Cl  Cl24  1  0.79031602  0.97241770  0.86038365  1
  Cl  Cl25  1  0.20968398  0.02758230  0.13961635  1
  Cl  Cl26  1  0.20968398  0.52758230  0.36038365  1
  Cl  Cl27  1  0.79031602  0.47241770  0.63961635  1
  Cl  Cl28  1  0.98808448  0.69820464  0.75694392  1
  Cl  Cl29  1  0.01191552  0.30179536  0.24305608  1
  Cl  Cl30  1  0.01191552  0.80179536  0.25694392  1
  Cl  Cl31  1  0.98808448  0.19820464  0.74305608  1
  Cl  Cl32  1  0.50144823  0.70551755  0.77193708  1
  Cl  Cl33  1  0.49855177  0.29448245  0.22806292  1
  Cl  Cl34  1  0.49855177  0.79448245  0.27193708  1
  Cl  Cl35  1  0.50144823  0.20551755  0.72806292  1
  Cl  Cl36  1  0.50013228  0.92848216  0.60450899  1
  Cl  Cl37  1  0.49986772  0.07151784  0.39549101  1
  Cl  Cl38  1  0.49986772  0.57151784  0.10450899  1
  Cl  Cl39  1  0.50013228  0.42848216  0.89549101  1
