# generated using pymatgen
data_ZrUC2
_symmetry_space_group_name_H-M   'P 1'
_cell_length_a   3.39879003
_cell_length_b   3.39879003
_cell_length_c   6.02139390
_cell_angle_alpha   106.39311522
_cell_angle_beta   73.60688478
_cell_angle_gamma   120.00000000
_symmetry_Int_Tables_number   1
_chemical_formula_structural   ZrUC2
_chemical_formula_sum   'Zr1 U1 C2'
_cell_volume   56.95029701
_cell_formula_units_Z   1
loop_
 _symmetry_equiv_pos_site_id
 _symmetry_equiv_pos_as_xyz
  1  'x, y, z'
loop_
 _atom_site_type_symbol
 _atom_site_label
 _atom_site_symmetry_multiplicity
 _atom_site_fract_x
 _atom_site_fract_y
 _atom_site_fract_z
 _atom_site_occupancy
  Zr  Zr0  1  0.75000000  0.25000000  0.75000000  1
  U  U1  1  0.25000000  0.75000000  0.25000000  1
  C  C2  1  0.00054650  0.99945350  0.99836050  1
  C  C3  1  0.49945350  0.50054650  0.50163950  1
