# generated using pymatgen
data_AlP2H12N3O8
_symmetry_space_group_name_H-M   'P 1'
_cell_length_a   9.11847007
_cell_length_b   10.12317507
_cell_length_c   11.30294957
_cell_angle_alpha   90.00000000
_cell_angle_beta   90.32111031
_cell_angle_gamma   90.00000000
_symmetry_Int_Tables_number   1
_chemical_formula_structural   AlP2H12N3O8
_chemical_formula_sum   'Al4 P8 H48 N12 O32'
_cell_volume   1043.33480150
_cell_formula_units_Z   4
loop_
 _symmetry_equiv_pos_site_id
 _symmetry_equiv_pos_as_xyz
  1  'x, y, z'
loop_
 _atom_site_type_symbol
 _atom_site_label
 _atom_site_symmetry_multiplicity
 _atom_site_fract_x
 _atom_site_fract_y
 _atom_site_fract_z
 _atom_site_occupancy
  Al  Al0  1  0.13539143  0.92794547  0.14886437  1
  Al  Al1  1  0.86460857  0.07205453  0.85113563  1
  Al  Al2  1  0.36460857  0.42794547  0.35113563  1
  Al  Al3  1  0.63539143  0.57205453  0.64886437  1
  P  P4  1  0.23641640  0.14089735  0.34322735  1
  P  P5  1  0.76358360  0.85910265  0.65677265  1
  P  P6  1  0.26358360  0.64089735  0.15677265  1
  P  P7  1  0.73641640  0.35910265  0.84322735  1
  P  P8  1  0.80118403  0.94742597  0.09270505  1
  P  P9  1  0.19881597  0.05257403  0.90729495  1
  P  P10  1  0.69881597  0.44742597  0.40729495  1
  P  P11  1  0.30118403  0.55257403  0.59270505  1
  H  H12  1  0.93276443  0.36005209  0.04341096  1
  H  H13  1  0.06723557  0.63994791  0.95658904  1
  H  H14  1  0.56723557  0.86005209  0.45658904  1
  H  H15  1  0.43276443  0.13994791  0.54341096  1
  H  H16  1  0.72216795  0.51473035  0.05083552  1
  H  H17  1  0.27783205  0.48526965  0.94916448  1
  H  H18  1  0.77783205  0.01473035  0.44916448  1
  H  H19  1  0.22216795  0.98526965  0.55083552  1
  H  H20  1  0.94665957  0.73833985  0.47868572  1
  H  H21  1  0.05334043  0.26166015  0.52131428  1
  H  H22  1  0.55334043  0.23833985  0.02131428  1
  H  H23  1  0.44665957  0.76166015  0.97868572  1
  H  H24  1  0.95593288  0.33243683  0.19291954  1
  H  H25  1  0.04406712  0.66756317  0.80708046  1
  H  H26  1  0.54406712  0.83243683  0.30708046  1
  H  H27  1  0.45593288  0.16756317  0.69291954  1
  H  H28  1  0.73891274  0.54730412  0.19763221  1
  H  H29  1  0.26108726  0.45269588  0.80236779  1
  H  H30  1  0.76108726  0.04730412  0.30236779  1
  H  H31  1  0.23891274  0.95269588  0.69763221  1
  H  H32  1  0.07333852  0.26218175  0.09202890  1
  H  H33  1  0.92666148  0.73781825  0.90797110  1
  H  H34  1  0.42666148  0.76218175  0.40797110  1
  H  H35  1  0.57333852  0.23781825  0.59202890  1
  H  H36  1  0.58121225  0.59625608  0.12290832  1
  H  H37  1  0.41878775  0.40374392  0.87709168  1
  H  H38  1  0.91878775  0.09625608  0.37709168  1
  H  H39  1  0.08121225  0.90374392  0.62290832  1
  H  H40  1  0.01174996  0.74301940  0.33563593  1
  H  H41  1  0.98825004  0.25698060  0.66436407  1
  H  H42  1  0.48825004  0.24301940  0.16436407  1
  H  H43  1  0.51174996  0.75698060  0.83563593  1
  H  H44  1  0.73986531  0.67315989  0.09309430  1
  H  H45  1  0.26013469  0.32684011  0.90690570  1
  H  H46  1  0.76013469  0.17315989  0.40690570  1
  H  H47  1  0.23986531  0.82684011  0.59309430  1
  H  H48  1  0.93733404  0.60118934  0.38472555  1
  H  H49  1  0.06266596  0.39881066  0.61527445  1
  H  H50  1  0.56266596  0.10118934  0.11527445  1
  H  H51  1  0.43733404  0.89881066  0.88472555  1
  H  H52  1  0.07514162  0.42764912  0.11520444  1
  H  H53  1  0.92485838  0.57235088  0.88479556  1
  H  H54  1  0.42485838  0.92764912  0.38479556  1
  H  H55  1  0.57514162  0.07235088  0.61520444  1
  H  H56  1  0.10347058  0.66324628  0.44031878  1
  H  H57  1  0.89652942  0.33675372  0.55968122  1
  H  H58  1  0.39652942  0.16324628  0.05968122  1
  H  H59  1  0.60347058  0.83675372  0.94031878  1
  N  N60  1  0.99814126  0.68583199  0.40982674  1
  N  N61  1  0.00185874  0.31416801  0.59017326  1
  N  N62  1  0.50185874  0.18583199  0.09017326  1
  N  N63  1  0.49814126  0.81416801  0.90982674  1
  N  N64  1  0.00862372  0.34274672  0.11332434  1
  N  N65  1  0.99137628  0.65725328  0.88667566  1
  N  N66  1  0.49137628  0.84274672  0.38667566  1
  N  N67  1  0.50862372  0.15725328  0.61332434  1
  N  N68  1  0.69506012  0.58125325  0.11731446  1
  N  N69  1  0.30493988  0.41874675  0.88268554  1
  N  N70  1  0.80493988  0.08125325  0.38268554  1
  N  N71  1  0.19506012  0.91874675  0.61731446  1
  O  O72  1  0.94502100  0.94529501  0.17069984  1
  O  O73  1  0.05497900  0.05470499  0.82930016  1
  O  O74  1  0.55497900  0.44529501  0.32930016  1
  O  O75  1  0.44502100  0.55470499  0.67069984  1
  O  O76  1  0.27405104  0.54994515  0.26859286  1
  O  O77  1  0.72594896  0.45005485  0.73140714  1
  O  O78  1  0.22594896  0.04994515  0.23140714  1
  O  O79  1  0.77405104  0.95005485  0.76859286  1
  O  O80  1  0.78458361  0.81834080  0.02298851  1
  O  O81  1  0.21541639  0.18165920  0.97701149  1
  O  O82  1  0.71541639  0.31834080  0.47701149  1
  O  O83  1  0.28458361  0.68165920  0.52298851  1
  O  O84  1  0.67253958  0.97882369  0.17469429  1
  O  O85  1  0.32746042  0.02117631  0.82530571  1
  O  O86  1  0.82746042  0.47882369  0.32530571  1
  O  O87  1  0.17253958  0.52117631  0.67469429  1
  O  O88  1  0.18348956  0.76955868  0.20150301  1
  O  O89  1  0.81651044  0.23044132  0.79849699  1
  O  O90  1  0.31651044  0.26955868  0.29849699  1
  O  O91  1  0.68348956  0.73044132  0.70150301  1
  O  O92  1  0.16558867  0.57049805  0.06470982  1
  O  O93  1  0.83441133  0.42950195  0.93529018  1
  O  O94  1  0.33441133  0.07049805  0.43529018  1
  O  O95  1  0.66558867  0.92950195  0.56470982  1
  O  O96  1  0.41491542  0.67449503  0.10913940  1
  O  O97  1  0.58508458  0.32550497  0.89086060  1
  O  O98  1  0.08508458  0.17449503  0.39086060  1
  O  O99  1  0.91491542  0.82550497  0.60913940  1
  O  O100  1  0.31849494  0.43492254  0.50193728  1
  O  O101  1  0.68150506  0.56507746  0.49806272  1
  O  O102  1  0.18150506  0.93492254  0.99806272  1
  O  O103  1  0.81849494  0.06507746  0.00193728  1
