# generated using pymatgen
data_Ba5GaRu2O11
_symmetry_space_group_name_H-M   'P 1'
_cell_length_a   5.91769963
_cell_length_b   19.02670138
_cell_length_c   11.23289115
_cell_angle_alpha   90.00000000
_cell_angle_beta   90.00000000
_cell_angle_gamma   90.00000000
_symmetry_Int_Tables_number   1
_chemical_formula_structural   Ba5GaRu2O11
_chemical_formula_sum   'Ba20 Ga4 Ru8 O44'
_cell_volume   1264.75955776
_cell_formula_units_Z   4
loop_
 _symmetry_equiv_pos_site_id
 _symmetry_equiv_pos_as_xyz
  1  'x, y, z'
loop_
 _atom_site_type_symbol
 _atom_site_label
 _atom_site_symmetry_multiplicity
 _atom_site_fract_x
 _atom_site_fract_y
 _atom_site_fract_z
 _atom_site_occupancy
  Ba  Ba0  1  0.75000000  0.47345507  0.39329030  1
  Ba  Ba1  1  0.25000000  0.52654493  0.60670970  1
  Ba  Ba2  1  0.25000000  0.02654493  0.89329030  1
  Ba  Ba3  1  0.75000000  0.97345507  0.10670970  1
  Ba  Ba4  1  0.75000000  0.63799513  0.19138391  1
  Ba  Ba5  1  0.25000000  0.36200487  0.80861609  1
  Ba  Ba6  1  0.25000000  0.86200487  0.69138391  1
  Ba  Ba7  1  0.75000000  0.13799513  0.30861609  1
  Ba  Ba8  1  0.75000000  0.75004726  0.86869117  1
  Ba  Ba9  1  0.25000000  0.24995274  0.13130883  1
  Ba  Ba10  1  0.25000000  0.74995274  0.36869117  1
  Ba  Ba11  1  0.75000000  0.25004726  0.63130883  1
  Ba  Ba12  1  0.75000000  0.66928009  0.54746003  1
  Ba  Ba13  1  0.25000000  0.33071991  0.45253997  1
  Ba  Ba14  1  0.25000000  0.83071991  0.04746003  1
  Ba  Ba15  1  0.75000000  0.16928009  0.95253997  1
  Ba  Ba16  1  0.75000000  0.93241461  0.47121509  1
  Ba  Ba17  1  0.25000000  0.06758539  0.52878491  1
  Ba  Ba18  1  0.25000000  0.56758539  0.97121509  1
  Ba  Ba19  1  0.75000000  0.43241461  0.02878491  1
  Ga  Ga20  1  0.75000000  0.81159674  0.23834541  1
  Ga  Ga21  1  0.25000000  0.18840326  0.76165459  1
  Ga  Ga22  1  0.25000000  0.68840326  0.73834541  1
  Ga  Ga23  1  0.75000000  0.31159674  0.26165459  1
  Ru  Ru24  1  0.75000000  0.55914214  0.79545415  1
  Ru  Ru25  1  0.25000000  0.44085786  0.20454585  1
  Ru  Ru26  1  0.25000000  0.94085786  0.29545415  1
  Ru  Ru27  1  0.75000000  0.05914214  0.70454585  1
  Ru  Ru28  1  0.75000000  0.93576459  0.79067837  1
  Ru  Ru29  1  0.25000000  0.06423541  0.20932163  1
  Ru  Ru30  1  0.25000000  0.56423541  0.29067837  1
  Ru  Ru31  1  0.75000000  0.43576459  0.70932163  1
  O  O32  1  0.75000000  0.58967578  0.95706872  1
  O  O33  1  0.25000000  0.41032422  0.04293128  1
  O  O34  1  0.25000000  0.91032422  0.45706872  1
  O  O35  1  0.75000000  0.08967578  0.54293128  1
  O  O36  1  0.75000000  0.85114932  0.69179582  1
  O  O37  1  0.25000000  0.14885068  0.30820418  1
  O  O38  1  0.25000000  0.64885068  0.19179582  1
  O  O39  1  0.75000000  0.35114932  0.80820418  1
  O  O40  1  0.75000000  0.74850435  0.36140523  1
  O  O41  1  0.25000000  0.25149565  0.63859477  1
  O  O42  1  0.25000000  0.75149565  0.86140523  1
  O  O43  1  0.75000000  0.24850435  0.13859477  1
  O  O44  1  0.98399429  0.90134082  0.89399264  1
  O  O45  1  0.01600571  0.09865918  0.10600736  1
  O  O46  1  0.01600571  0.59865918  0.39399264  1
  O  O47  1  0.48399429  0.09865918  0.10600736  1
  O  O48  1  0.98399429  0.40134082  0.60600736  1
  O  O49  1  0.51600571  0.90134082  0.89399264  1
  O  O50  1  0.51600571  0.40134082  0.60600736  1
  O  O51  1  0.48399429  0.59865918  0.39399264  1
  O  O52  1  0.98557263  0.98283467  0.67558053  1
  O  O53  1  0.01442737  0.01716533  0.32441947  1
  O  O54  1  0.01442737  0.51716533  0.17558053  1
  O  O55  1  0.48557263  0.01716533  0.32441947  1
  O  O56  1  0.98557263  0.48283467  0.82441947  1
  O  O57  1  0.51442737  0.98283467  0.67558053  1
  O  O58  1  0.51442737  0.48283467  0.82441947  1
  O  O59  1  0.48557263  0.51716533  0.17558053  1
  O  O60  1  0.75000000  0.53021181  0.61715371  1
  O  O61  1  0.25000000  0.46978819  0.38284629  1
  O  O62  1  0.25000000  0.96978819  0.11715371  1
  O  O63  1  0.75000000  0.03021181  0.88284629  1
  O  O64  1  0.75000000  0.77065027  0.08993756  1
  O  O65  1  0.25000000  0.22934973  0.91006244  1
  O  O66  1  0.25000000  0.72934973  0.58993756  1
  O  O67  1  0.75000000  0.27065027  0.41006244  1
  O  O68  1  0.50901627  0.63264104  0.75239621  1
  O  O69  1  0.49098373  0.36735896  0.24760379  1
  O  O70  1  0.49098373  0.86735896  0.25239621  1
  O  O71  1  0.00901627  0.36735896  0.24760379  1
  O  O72  1  0.50901627  0.13264104  0.74760379  1
  O  O73  1  0.99098373  0.63264104  0.75239621  1
  O  O74  1  0.99098373  0.13264104  0.74760379  1
  O  O75  1  0.00901627  0.86735896  0.25239621  1
