# generated using pymatgen
data_Li2Mn3(FeO4)3
_symmetry_space_group_name_H-M   'P 1'
_cell_length_a   6.06183407
_cell_length_b   7.98117708
_cell_length_c   5.10997589
_cell_angle_alpha   77.45674092
_cell_angle_beta   73.38974247
_cell_angle_gamma   76.07642203
_symmetry_Int_Tables_number   1
_chemical_formula_structural   Li2Mn3(FeO4)3
_chemical_formula_sum   'Li2 Mn3 Fe3 O12'
_cell_volume   227.00105467
_cell_formula_units_Z   1
loop_
 _symmetry_equiv_pos_site_id
 _symmetry_equiv_pos_as_xyz
  1  'x, y, z'
loop_
 _atom_site_type_symbol
 _atom_site_label
 _atom_site_symmetry_multiplicity
 _atom_site_fract_x
 _atom_site_fract_y
 _atom_site_fract_z
 _atom_site_occupancy
  Li  Li0  1  0.16666700  0.83333300  0.50000000  1
  Li  Li1  1  0.66666700  0.33333300  0.00000000  1
  Mn  Mn2  1  0.82937567  0.66623699  0.00231383  1
  Mn  Mn3  1  0.50395733  0.00043001  0.99768617  1
  Mn  Mn4  1  0.16666700  0.33333300  0.00000000  1
  Fe  Fe5  1  0.66666700  0.83333300  0.50000000  1
  Fe  Fe6  1  0.33483829  0.16994548  0.50248477  1
  Fe  Fe7  1  0.99849471  0.49672152  0.49751523  1
  O  O8  1  0.80560292  0.89127755  0.76152630  1
  O  O9  1  0.95414033  0.73758408  0.27336211  1
  O  O10  1  0.69388703  0.60629894  0.74871190  1
  O  O11  1  0.37919267  0.92908292  0.72663789  1
  O  O12  1  0.86114868  0.43332257  0.21452930  1
  O  O13  1  0.52773008  0.77538945  0.23847370  1
  O  O14  1  0.47218432  0.23334343  0.78547070  1
  O  O15  1  0.12746645  0.57099965  0.77936998  1
  O  O16  1  0.63944697  0.06036806  0.25128810  1
  O  O17  1  0.30669427  0.39747509  0.24722048  1
  O  O18  1  0.02663873  0.26919191  0.75277952  1
  O  O19  1  0.20586755  0.09566735  0.22063002  1
