# generated using pymatgen
data_Tm2Ga3Cu
_symmetry_space_group_name_H-M   'P 1'
_cell_length_a   4.34890323
_cell_length_b   4.34890323
_cell_length_c   7.08871787
_cell_angle_alpha   90.00715623
_cell_angle_beta   89.99284377
_cell_angle_gamma   119.95987205
_symmetry_Int_Tables_number   1
_chemical_formula_structural   Tm2Ga3Cu
_chemical_formula_sum   'Tm2 Ga3 Cu1'
_cell_volume   116.15376043
_cell_formula_units_Z   1
loop_
 _symmetry_equiv_pos_site_id
 _symmetry_equiv_pos_as_xyz
  1  'x, y, z'
loop_
 _atom_site_type_symbol
 _atom_site_label
 _atom_site_symmetry_multiplicity
 _atom_site_fract_x
 _atom_site_fract_y
 _atom_site_fract_z
 _atom_site_occupancy
  Tm  Tm0  1  0.00004810  0.99995190  0.73022416  1
  Tm  Tm1  1  0.99991548  0.00008452  0.26093830  1
  Ga  Ga2  1  0.33330324  0.66669676  0.47613215  1
  Ga  Ga3  1  0.33337838  0.66662162  0.04646220  1
  Ga  Ga4  1  0.66662121  0.33337879  0.94872091  1
  Cu  Cu5  1  0.66673359  0.33326641  0.53752228  1
