# generated using pymatgen
data_Zr2CoCuSn2
_symmetry_space_group_name_H-M   'P 1'
_cell_length_a   4.39040314
_cell_length_b   4.39036191
_cell_length_c   6.83584366
_cell_angle_alpha   89.99991517
_cell_angle_beta   89.99745827
_cell_angle_gamma   60.00013162
_symmetry_Int_Tables_number   1
_chemical_formula_structural   Zr2CoCuSn2
_chemical_formula_sum   'Zr2 Co1 Cu1 Sn2'
_cell_volume   114.11114170
_cell_formula_units_Z   1
loop_
 _symmetry_equiv_pos_site_id
 _symmetry_equiv_pos_as_xyz
  1  'x, y, z'
loop_
 _atom_site_type_symbol
 _atom_site_label
 _atom_site_symmetry_multiplicity
 _atom_site_fract_x
 _atom_site_fract_y
 _atom_site_fract_z
 _atom_site_occupancy
  Zr  Zr0  1  0.00001933  0.99999120  0.49688225  1
  Zr  Zr1  1  0.99998641  0.00000531  0.97853794  1
  Co  Co2  1  0.66665722  0.66666987  0.83555578  1
  Cu  Cu3  1  0.33333267  0.33333592  0.32319274  1
  Sn  Sn4  1  0.66665547  0.66667252  0.22605763  1
  Sn  Sn5  1  0.33334890  0.33332518  0.73577366  1
