# generated using pymatgen
data_Cs2B7H5O14
_symmetry_space_group_name_H-M   'P 1'
_cell_length_a   8.49458490
_cell_length_b   12.41580826
_cell_length_c   14.34159655
_cell_angle_alpha   90.00000000
_cell_angle_beta   103.38766332
_cell_angle_gamma   90.00000000
_symmetry_Int_Tables_number   1
_chemical_formula_structural   Cs2B7H5O14
_chemical_formula_sum   'Cs8 B28 H20 O56'
_cell_volume   1471.46426274
_cell_formula_units_Z   4
loop_
 _symmetry_equiv_pos_site_id
 _symmetry_equiv_pos_as_xyz
  1  'x, y, z'
loop_
 _atom_site_type_symbol
 _atom_site_label
 _atom_site_symmetry_multiplicity
 _atom_site_fract_x
 _atom_site_fract_y
 _atom_site_fract_z
 _atom_site_occupancy
  Cs  Cs0  1  0.52919263  0.83630823  0.06728302  1
  Cs  Cs1  1  0.47080737  0.16369177  0.93271698  1
  Cs  Cs2  1  0.97080737  0.33630823  0.43271698  1
  Cs  Cs3  1  0.02919263  0.66369177  0.56728302  1
  Cs  Cs4  1  0.23622275  0.99180506  0.42275090  1
  Cs  Cs5  1  0.76377725  0.00819494  0.57724910  1
  Cs  Cs6  1  0.26377725  0.49180506  0.07724910  1
  Cs  Cs7  1  0.73622275  0.50819494  0.92275090  1
  B  B8  1  0.94405517  0.68737718  0.13017757  1
  B  B9  1  0.05594483  0.31262282  0.86982243  1
  B  B10  1  0.55594483  0.18737718  0.36982243  1
  B  B11  1  0.44405517  0.81262282  0.63017757  1
  B  B12  1  0.96585666  0.88244552  0.09256873  1
  B  B13  1  0.03414334  0.11755448  0.90743127  1
  B  B14  1  0.53414334  0.38244552  0.40743127  1
  B  B15  1  0.46585666  0.61755448  0.59256873  1
  B  B16  1  0.04994194  0.27634646  0.20092308  1
  B  B17  1  0.95005806  0.72365354  0.79907692  1
  B  B18  1  0.45005806  0.77634646  0.29907692  1
  B  B19  1  0.54994194  0.22365354  0.70092308  1
  B  B20  1  0.72990667  0.80025649  0.37767365  1
  B  B21  1  0.27009333  0.19974351  0.62232635  1
  B  B22  1  0.77009333  0.30025649  0.12232635  1
  B  B23  1  0.22990667  0.69974351  0.87767365  1
  B  B24  1  0.76040295  0.58696134  0.21303421  1
  B  B25  1  0.23959705  0.41303866  0.78696579  1
  B  B26  1  0.73959705  0.08696134  0.28696579  1
  B  B27  1  0.26040295  0.91303866  0.71303421  1
  B  B28  1  0.96479152  0.25288960  0.02011507  1
  B  B29  1  0.03520848  0.74711040  0.97988493  1
  B  B30  1  0.53520848  0.75288960  0.47988493  1
  B  B31  1  0.46479152  0.24711040  0.52011507  1
  B  B32  1  0.03981772  0.60905407  0.29624803  1
  B  B33  1  0.96018228  0.39094593  0.70375197  1
  B  B34  1  0.46018228  0.10905407  0.20375197  1
  B  B35  1  0.53981772  0.89094593  0.79624803  1
  H  H36  1  0.45579706  0.45596969  0.56908281  1
  H  H37  1  0.54420294  0.54403031  0.43091719  1
  H  H38  1  0.04420294  0.95596969  0.93091719  1
  H  H39  1  0.95579706  0.04403031  0.06908281  1
  H  H40  1  0.26450787  0.23493431  0.28193872  1
  H  H41  1  0.73549213  0.76506569  0.71806128  1
  H  H42  1  0.23549213  0.73493431  0.21806128  1
  H  H43  1  0.76450787  0.26506569  0.78193872  1
  H  H44  1  0.89193283  0.83189825  0.30392972  1
  H  H45  1  0.10806717  0.16810175  0.69607028  1
  H  H46  1  0.60806717  0.33189825  0.19607028  1
  H  H47  1  0.39193283  0.66810175  0.80392972  1
  H  H48  1  0.25640248  0.63544341  0.38158926  1
  H  H49  1  0.74359752  0.36455659  0.61841074  1
  H  H50  1  0.24359752  0.13544341  0.11841074  1
  H  H51  1  0.75640248  0.86455659  0.88158926  1
  H  H52  1  0.59975780  0.52749721  0.27991296  1
  H  H53  1  0.40024220  0.47250279  0.72008704  1
  H  H54  1  0.90024220  0.02749721  0.22008704  1
  H  H55  1  0.09975780  0.97250279  0.77991296  1
  O  O56  1  0.16261291  0.27295027  0.28613243  1
  O  O57  1  0.83738709  0.72704973  0.71386757  1
  O  O58  1  0.33738709  0.77295027  0.21386757  1
  O  O59  1  0.66261291  0.22704973  0.78613243  1
  O  O60  1  0.88368217  0.57562627  0.29696020  1
  O  O61  1  0.11631783  0.42437373  0.70303980  1
  O  O62  1  0.61631783  0.07562627  0.20303980  1
  O  O63  1  0.38368217  0.92437373  0.79696020  1
  O  O64  1  0.88731700  0.82079610  0.37074876  1
  O  O65  1  0.11268300  0.17920390  0.62925124  1
  O  O66  1  0.61268300  0.32079610  0.12925124  1
  O  O67  1  0.38731700  0.67920390  0.87074876  1
  O  O68  1  0.79892588  0.27584605  0.03565941  1
  O  O69  1  0.20107412  0.72415395  0.96434059  1
  O  O70  1  0.70107412  0.77584605  0.46434059  1
  O  O71  1  0.29892588  0.22415395  0.53565941  1
  O  O72  1  0.93841589  0.98822159  0.11594501  1
  O  O73  1  0.06158411  0.01177841  0.88405499  1
  O  O74  1  0.56158411  0.48822159  0.38405499  1
  O  O75  1  0.43841589  0.51177841  0.61594501  1
  O  O76  1  0.91893923  0.80403445  0.14773367  1
  O  O77  1  0.08106077  0.19596555  0.85226633  1
  O  O78  1  0.58106077  0.30403445  0.35226633  1
  O  O79  1  0.41893923  0.69596555  0.64773367  1
  O  O80  1  0.15397160  0.59804644  0.38141573  1
  O  O81  1  0.84602840  0.40195356  0.61858427  1
  O  O82  1  0.34602840  0.09804644  0.11858427  1
  O  O83  1  0.65397160  0.90195356  0.88141573  1
  O  O84  1  0.60723480  0.55406944  0.21516306  1
  O  O85  1  0.39276520  0.44593056  0.78483694  1
  O  O86  1  0.89276520  0.05406944  0.28483694  1
  O  O87  1  0.10723480  0.94593056  0.71516306  1
  O  O88  1  0.08693922  0.25426426  0.11540763  1
  O  O89  1  0.91306078  0.74573574  0.88459237  1
  O  O90  1  0.41306078  0.75426426  0.38459237  1
  O  O91  1  0.58693922  0.24573574  0.61540763  1
  O  O92  1  0.46827018  0.35977368  0.48430310  1
  O  O93  1  0.53172982  0.64022632  0.51569690  1
  O  O94  1  0.03172982  0.85977368  0.01569690  1
  O  O95  1  0.96827018  0.14022632  0.98430310  1
  O  O96  1  0.07594628  0.64858244  0.21467919  1
  O  O97  1  0.92405372  0.35141756  0.78532081  1
  O  O98  1  0.42405372  0.14858244  0.28532081  1
  O  O99  1  0.57594628  0.85141756  0.71467919  1
  O  O100  1  0.79027648  0.62939404  0.13097616  1
  O  O101  1  0.20972352  0.37060596  0.86902384  1
  O  O102  1  0.70972352  0.12939404  0.36902384  1
  O  O103  1  0.29027648  0.87060596  0.63097616  1
  O  O104  1  0.99336348  0.66751833  0.04272377  1
  O  O105  1  0.00663652  0.33248167  0.95727623  1
  O  O106  1  0.50663652  0.16751833  0.45727623  1
  O  O107  1  0.49336348  0.83248167  0.54272377  1
  O  O108  1  0.60687088  0.80692086  0.29433989  1
  O  O109  1  0.39312912  0.19307914  0.70566011  1
  O  O110  1  0.89312912  0.30692086  0.20566011  1
  O  O111  1  0.10687088  0.69307914  0.79433989  1
