# generated using pymatgen
data_Zn10Fe3
_symmetry_space_group_name_H-M   'P 1'
_cell_length_a   7.79537093
_cell_length_b   7.80317252
_cell_length_c   7.80317252
_cell_angle_alpha   70.62661828
_cell_angle_beta   70.45950811
_cell_angle_gamma   109.54049189
_symmetry_Int_Tables_number   1
_chemical_formula_structural   Zn10Fe3
_chemical_formula_sum   'Zn20 Fe6'
_cell_volume   365.20610989
_cell_formula_units_Z   2
loop_
 _symmetry_equiv_pos_site_id
 _symmetry_equiv_pos_as_xyz
  1  'x, y, z'
loop_
 _atom_site_type_symbol
 _atom_site_label
 _atom_site_symmetry_multiplicity
 _atom_site_fract_x
 _atom_site_fract_y
 _atom_site_fract_z
 _atom_site_occupancy
  Zn  Zn0  1  0.64278179  0.64411597  0.00293076  1
  Zn  Zn1  1  0.64278179  0.99706924  0.35588403  1
  Zn  Zn2  1  0.00000000  0.64691511  0.35308489  1
  Zn  Zn3  1  0.35721821  0.35428745  0.99866582  1
  Zn  Zn4  1  0.35721821  0.00133418  0.64571255  1
  Zn  Zn5  1  -0.00000000  0.35849689  0.64150311  1
  Zn  Zn6  1  0.39522841  0.64589290  0.35410710  1
  Zn  Zn7  1  0.64664855  0.64808423  0.60715385  1
  Zn  Zn8  1  0.64664855  0.39284615  0.35191577  1
  Zn  Zn9  1  0.60477159  0.25066449  0.74933551  1
  Zn  Zn10  1  0.35335145  0.74619760  0.99856432  1
  Zn  Zn11  1  0.35335145  0.00143568  0.25380240  1
  Zn  Zn12  1  -0.00000000  0.35332115  0.25748127  1
  Zn  Zn13  1  0.74611822  0.35516170  0.99785815  1
  Zn  Zn14  1  0.25388178  0.60904348  0.74397637  1
  Zn  Zn15  1  0.00000000  0.74251873  0.64667885  1
  Zn  Zn16  1  0.25388178  0.25602363  0.39095652  1
  Zn  Zn17  1  0.74611822  0.00214185  0.64483830  1
  Zn  Zn18  1  -0.00000000  0.20545663  0.99932799  1
  Zn  Zn19  1  -0.00000000  0.00067201  0.79454337  1
  Fe  Fe20  1  0.34186448  0.33631993  0.66368007  1
  Fe  Fe21  1  0.65813552  0.99445545  0.00554455  1
  Fe  Fe22  1  -0.00000000  0.66917249  0.00625088  1
  Fe  Fe23  1  -0.00000000  0.99374912  0.33082751  1
  Fe  Fe24  1  0.79713503  0.79587948  0.20412052  1
  Fe  Fe25  1  0.20286497  0.99874445  0.00125555  1
