# generated using pymatgen
data_Y4GeS3
_symmetry_space_group_name_H-M   'P 1'
_cell_length_a   4.01747031
_cell_length_b   4.01747031
_cell_length_c   13.06449091
_cell_angle_alpha   81.15538319
_cell_angle_beta   98.84461681
_cell_angle_gamma   120.00000000
_symmetry_Int_Tables_number   1
_chemical_formula_structural   Y4GeS3
_chemical_formula_sum   'Y4 Ge1 S3'
_cell_volume   179.71055817
_cell_formula_units_Z   1
loop_
 _symmetry_equiv_pos_site_id
 _symmetry_equiv_pos_as_xyz
  1  'x, y, z'
loop_
 _atom_site_type_symbol
 _atom_site_label
 _atom_site_symmetry_multiplicity
 _atom_site_fract_x
 _atom_site_fract_y
 _atom_site_fract_z
 _atom_site_occupancy
  Y  Y0  1  0.62433935  0.37566065  0.87301804  1
  Y  Y1  1  0.87283720  0.12716280  0.61851159  1
  Y  Y2  1  0.37566065  0.62433935  0.12698196  1
  Y  Y3  1  0.12716280  0.87283720  0.38148841  1
  Ge  Ge4  1  0.00000000  -0.00000000  -0.00000000  1
  S  S5  1  0.75274393  0.24725607  0.25823179  1
  S  S6  1  0.50000000  0.50000000  0.50000000  1
  S  S7  1  0.24725607  0.75274393  0.74176821  1
