# generated using pymatgen
data_Ta12Co3Pt3Se32
_symmetry_space_group_name_H-M   'P 1'
_cell_length_a   3.44085520
_cell_length_b   7.35083187
_cell_length_c   47.82144562
_cell_angle_alpha   89.45656102
_cell_angle_beta   90.00000000
_cell_angle_gamma   103.53535277
_symmetry_Int_Tables_number   1
_chemical_formula_structural   Ta12Co3Pt3Se32
_chemical_formula_sum   'Ta12 Co3 Pt3 Se32'
_cell_volume   1175.90439649
_cell_formula_units_Z   1
loop_
 _symmetry_equiv_pos_site_id
 _symmetry_equiv_pos_as_xyz
  1  'x, y, z'
loop_
 _atom_site_type_symbol
 _atom_site_label
 _atom_site_symmetry_multiplicity
 _atom_site_fract_x
 _atom_site_fract_y
 _atom_site_fract_z
 _atom_site_occupancy
  Ta  Ta0  1  0.58547017  0.17094034  0.38283931  1
  Ta  Ta1  1  0.08321761  0.16643521  0.88198941  1
  Ta  Ta2  1  0.91648840  0.83297679  0.11762198  1
  Ta  Ta3  1  0.41672269  0.83344539  0.61796596  1
  Ta  Ta4  1  0.46018957  0.92037913  0.05598906  1
  Ta  Ta5  1  0.95993261  0.91986522  0.55596695  1
  Ta  Ta6  1  0.03988555  0.07977109  0.44391243  1
  Ta  Ta7  1  0.53954325  0.07908651  0.94436237  1
  Ta  Ta8  1  0.55403838  0.10807676  0.28309645  1
  Ta  Ta9  1  0.05320884  0.10641769  0.78446190  1
  Ta  Ta10  1  0.94432279  0.88864557  0.21510270  1
  Ta  Ta11  1  0.44658511  0.89317022  0.71561142  1
  Co  Co12  1  0.61074699  0.22149398  0.83005629  1
  Co  Co13  1  0.38872887  0.77745774  0.16990306  1
  Co  Co14  1  0.88932358  0.77864717  0.67014010  1
  Pt  Pt15  1  0.00010226  0.00020451  0.99996288  1
  Pt  Pt16  1  0.49901074  0.99802147  0.50039232  1
  Pt  Pt17  1  0.11422730  0.22845460  0.33090013  1
  Se  Se18  1  0.95455151  0.90910302  0.39594086  1
  Se  Se19  1  0.45329715  0.90659429  0.89628430  1
  Se  Se20  1  0.54682083  0.09364166  0.10391803  1
  Se  Se21  1  0.04637401  0.09274802  0.60381166  1
  Se  Se22  1  0.31097438  0.62194875  0.21433761  1
  Se  Se23  1  0.81325362  0.62650725  0.71474140  1
  Se  Se24  1  0.18889008  0.37778015  0.28188796  1
  Se  Se25  1  0.68665044  0.37330087  0.78541302  1
  Se  Se26  1  0.48128634  0.96257268  0.33350052  1
  Se  Se27  1  0.99173904  0.98347807  0.83435503  1
  Se  Se28  1  0.00827557  0.01655114  0.16550556  1
  Se  Se29  1  0.50839925  0.01679850  0.66579748  1
  Se  Se30  1  0.57796295  0.15592589  0.22735882  1
  Se  Se31  1  0.07960335  0.15920671  0.72839771  1
  Se  Se32  1  0.92013194  0.84026388  0.27137060  1
  Se  Se33  1  0.42032965  0.84065931  0.77169063  1
  Se  Se34  1  0.78553977  0.57107955  0.15375186  1
  Se  Se35  1  0.28567969  0.57135939  0.65425576  1
  Se  Se36  1  0.72544691  0.45089382  0.34889005  1
  Se  Se37  1  0.21453945  0.42907891  0.84594286  1
  Se  Se38  1  0.18608093  0.37216185  0.41105112  1
  Se  Se39  1  0.68495756  0.36991513  0.90973167  1
  Se  Se40  1  0.31422741  0.62845483  0.09017804  1
  Se  Se41  1  0.81514374  0.63028748  0.59045700  1
  Se  Se42  1  0.64327383  0.28654766  0.47124108  1
  Se  Se43  1  0.14482805  0.28965610  0.97077432  1
  Se  Se44  1  0.85557766  0.71115532  0.02923953  1
  Se  Se45  1  0.35459791  0.70919581  0.52949410  1
  Se  Se46  1  0.40787449  0.81574899  0.45673395  1
  Se  Se47  1  0.90699318  0.81398637  0.95659541  1
  Se  Se48  1  0.09256115  0.18512231  0.04346160  1
  Se  Se49  1  0.59239346  0.18478691  0.54361578  1
