# generated using pymatgen
data_Tl5Re6S8Cl7
_symmetry_space_group_name_H-M   'P 1'
_cell_length_a   9.59041268
_cell_length_b   9.59041241
_cell_length_c   18.30101661
_cell_angle_alpha   74.79918192
_cell_angle_beta   105.20081933
_cell_angle_gamma   120.00176892
_symmetry_Int_Tables_number   1
_chemical_formula_structural   Tl5Re6S8Cl7
_chemical_formula_sum   'Tl10 Re12 S16 Cl14'
_cell_volume   1389.29852541
_cell_formula_units_Z   2
loop_
 _symmetry_equiv_pos_site_id
 _symmetry_equiv_pos_as_xyz
  1  'x, y, z'
loop_
 _atom_site_type_symbol
 _atom_site_label
 _atom_site_symmetry_multiplicity
 _atom_site_fract_x
 _atom_site_fract_y
 _atom_site_fract_z
 _atom_site_occupancy
  Tl  Tl0  1  0.25097889  0.05001382  0.75143197  1
  Tl  Tl1  1  0.55044138  0.74905328  0.75144151  1
  Tl  Tl2  1  0.95005075  0.44955858  0.75144239  1
  Tl  Tl3  1  0.44998618  0.24902111  0.25143197  1
  Tl  Tl4  1  0.05044142  0.54994925  0.25144239  1
  Tl  Tl5  1  0.75094672  0.94955862  0.25144151  1
  Tl  Tl6  1  0.15624206  0.84377165  0.46861647  1
  Tl  Tl7  1  0.65622835  0.34375794  0.96861647  1
  Tl  Tl8  1  0.84236803  0.15764111  0.52712667  1
  Tl  Tl9  1  0.34235889  0.65763197  0.02712667  1
  Re  Re10  1  0.65077532  0.55201148  0.43873922  1
  Re  Re11  1  0.34000888  0.34919078  0.43874700  1
  Re  Re12  1  0.44796603  0.66004687  0.43874465  1
  Re  Re13  1  0.94798852  0.84922468  0.93873922  1
  Re  Re14  1  0.83995313  0.05203397  0.93874465  1
  Re  Re15  1  0.15080922  0.15999112  0.93874700  1
  Re  Re16  1  0.34953124  0.44825253  0.56167036  1
  Re  Re17  1  0.66034870  0.65047773  0.56163177  1
  Re  Re18  1  0.55175851  0.33963373  0.56162520  1
  Re  Re19  1  0.05174747  0.15046876  0.06167036  1
  Re  Re20  1  0.16036627  0.94824149  0.06162520  1
  Re  Re21  1  0.84952227  0.83965130  0.06163177  1
  S  S22  1  0.44314543  0.55685341  0.32956043  1
  S  S23  1  0.94314659  0.05685457  0.82956043  1
  S  S24  1  0.55693119  0.44306768  0.67071633  1
  S  S25  1  0.05693232  0.94306881  0.17071633  1
  S  S26  1  0.73886001  0.83644584  0.44293142  1
  S  S27  1  0.54046343  0.26113631  0.44293394  1
  S  S28  1  0.16352607  0.45954034  0.44293956  1
  S  S29  1  0.66355416  0.76113999  0.94293142  1
  S  S30  1  0.04045966  0.33647393  0.94293956  1
  S  S31  1  0.23886369  0.95953657  0.94293394  1
  S  S32  1  0.26062551  0.16367155  0.55739925  1
  S  S33  1  0.46050132  0.73938533  0.55740327  1
  S  S34  1  0.83633512  0.53950721  0.55739805  1
  S  S35  1  0.33632845  0.23937449  0.05739925  1
  S  S36  1  0.96049279  0.66366488  0.05739805  1
  S  S37  1  0.76061467  0.03949868  0.05740327  1
  Cl  Cl38  1  0.85414159  0.63124515  0.35699082  1
  Cl  Cl39  1  0.13404691  0.14583778  0.35696945  1
  Cl  Cl40  1  0.36874203  0.86601685  0.35695087  1
  Cl  Cl41  1  0.86875485  0.64585841  0.85699082  1
  Cl  Cl42  1  0.63398315  0.13125797  0.85695087  1
  Cl  Cl43  1  0.35416222  0.36595309  0.85696945  1
  Cl  Cl44  1  0.14749529  0.37471306  0.64307611  1
  Cl  Cl45  1  0.87035527  0.85253312  0.64309306  1
  Cl  Cl46  1  0.62532711  0.12961567  0.64311019  1
  Cl  Cl47  1  0.12528694  0.35250471  0.14307611  1
  Cl  Cl48  1  0.37038433  0.87467289  0.14311019  1
  Cl  Cl49  1  0.64746688  0.62964473  0.14309306  1
  Cl  Cl50  1  0.76363189  0.23637709  0.29091006  1
  Cl  Cl51  1  0.26362291  0.73636811  0.79091006  1
