# generated using pymatgen
data_SrNdMgRuO6
_symmetry_space_group_name_H-M   'P 1'
_cell_length_a   5.58895800
_cell_length_b   5.67480249
_cell_length_c   7.90925366
_cell_angle_alpha   90.00000000
_cell_angle_beta   90.28634844
_cell_angle_gamma   90.00000000
_symmetry_Int_Tables_number   1
_chemical_formula_structural   SrNdMgRuO6
_chemical_formula_sum   'Sr2 Nd2 Mg2 Ru2 O12'
_cell_volume   250.84859737
_cell_formula_units_Z   2
loop_
 _symmetry_equiv_pos_site_id
 _symmetry_equiv_pos_as_xyz
  1  'x, y, z'
loop_
 _atom_site_type_symbol
 _atom_site_label
 _atom_site_symmetry_multiplicity
 _atom_site_fract_x
 _atom_site_fract_y
 _atom_site_fract_z
 _atom_site_occupancy
  Sr  Sr0  1  0.50455569  0.96865093  0.74959392  1
  Sr  Sr1  1  0.00455569  0.53134907  0.24959392  1
  Nd  Nd2  1  0.48611265  0.05241203  0.24905543  1
  Nd  Nd3  1  0.98611265  0.44758797  0.74905543  1
  Mg  Mg4  1  0.49921718  0.50702101  0.99857673  1
  Mg  Mg5  1  0.99921718  0.99297899  0.49857673  1
  Ru  Ru6  1  0.50013906  0.50239516  0.50025822  1
  Ru  Ru7  1  0.00013906  0.99760484  0.00025822  1
  O  O8  1  0.30505427  0.78868718  0.45443230  1
  O  O9  1  0.80505427  0.71131282  0.95443230  1
  O  O10  1  0.71668691  0.22831638  0.54057123  1
  O  O11  1  0.21668691  0.27168362  0.04057123  1
  O  O12  1  0.40779146  0.51474785  0.74333638  1
  O  O13  1  0.90779146  0.98525215  0.24333638  1
  O  O14  1  0.56482562  0.47463363  0.25647414  1
  O  O15  1  0.06482562  0.02536637  0.75647414  1
  O  O16  1  0.78770653  0.69887342  0.54524720  1
  O  O17  1  0.28770653  0.80112658  0.04524720  1
  O  O18  1  0.22791063  0.28332777  0.46245445  1
  O  O19  1  0.72791063  0.21667223  0.96245445  1
