# generated using pymatgen
data_SrPrFeCoO6
_symmetry_space_group_name_H-M   'P 1'
_cell_length_a   5.41785344
_cell_length_b   5.42157434
_cell_length_c   5.48130281
_cell_angle_alpha   60.34088120
_cell_angle_beta   119.46130618
_cell_angle_gamma   90.01367965
_symmetry_Int_Tables_number   1
_chemical_formula_structural   SrPrFeCoO6
_chemical_formula_sum   'Sr1 Pr1 Fe1 Co1 O6'
_cell_volume   115.35663669
_cell_formula_units_Z   1
loop_
 _symmetry_equiv_pos_site_id
 _symmetry_equiv_pos_as_xyz
  1  'x, y, z'
loop_
 _atom_site_type_symbol
 _atom_site_label
 _atom_site_symmetry_multiplicity
 _atom_site_fract_x
 _atom_site_fract_y
 _atom_site_fract_z
 _atom_site_occupancy
  Sr  Sr0  1  0.75004668  0.25005862  0.49990900  1
  Pr  Pr1  1  0.24977894  0.75284099  0.49992708  1
  Fe  Fe2  1  0.50026996  0.00034008  0.00004891  1
  Co  Co3  1  0.00057053  0.50006703  0.00021180  1
  O  O4  1  0.27737890  0.71054573  0.99143163  1
  O  O5  1  0.20901801  0.21460426  0.00654899  1
  O  O6  1  0.70567060  0.30596513  0.97795492  1
  O  O7  1  0.80697682  0.77041386  0.02410975  1
  O  O8  1  0.24721259  0.24082004  0.49370793  1
  O  O9  1  0.75307696  0.75434426  0.50615000  1
