# generated using pymatgen
data_V12Ga2GeS24
_symmetry_space_group_name_H-M   'P 1'
_cell_length_a   6.86877363
_cell_length_b   9.70730307
_cell_length_c   11.89255095
_cell_angle_alpha   114.08712662
_cell_angle_beta   73.21478791
_cell_angle_gamma   90.00000000
_symmetry_Int_Tables_number   1
_chemical_formula_structural   V12Ga2GeS24
_chemical_formula_sum   'V12 Ga2 Ge1 S24'
_cell_volume   686.74290860
_cell_formula_units_Z   1
loop_
 _symmetry_equiv_pos_site_id
 _symmetry_equiv_pos_as_xyz
  1  'x, y, z'
loop_
 _atom_site_type_symbol
 _atom_site_label
 _atom_site_symmetry_multiplicity
 _atom_site_fract_x
 _atom_site_fract_y
 _atom_site_fract_z
 _atom_site_occupancy
  V  V0  1  0.20936356  0.39495234  0.00034496  1
  V  V1  1  0.54304151  0.06127439  0.33298804  1
  V  V2  1  0.87687122  0.72903291  0.66666700  1
  V  V3  1  0.06941387  0.53542651  0.86117227  1
  V  V4  1  0.40356787  0.20201315  0.19286326  1
  V  V5  1  0.73679281  0.86761008  0.52641538  1
  V  V6  1  0.92976513  0.67581589  0.14046974  1
  V  V7  1  0.26391913  0.34092124  0.47216073  1
  V  V8  1  0.59654119  0.00786169  0.80691862  1
  V  V9  1  0.79029149  0.39495234  0.00034496  1
  V  V10  1  0.12396944  0.06127439  0.33298804  1
  V  V11  1  0.45646278  0.72903291  0.66666700  1
  Ga  Ga12  1  0.99996455  0.00021149  0.00007089  1
  Ga  Ga13  1  0.33336845  0.66680759  0.33326211  1
  Ge  Ge14  1  0.66666700  0.33300884  0.66666700  1
  S  S15  1  0.74108634  0.62926975  0.00029746  1
  S  S16  1  0.07471679  0.29563929  0.33303554  1
  S  S17  1  0.40785015  0.96248805  0.66666700  1
  S  S18  1  0.91367129  0.45735859  0.17265843  1
  S  S19  1  0.24715664  0.12364526  0.50568671  1
  S  S20  1  0.58040295  0.79038983  0.83919310  1
  S  S21  1  0.08617636  0.28462555  0.82764629  1
  S  S22  1  0.41966271  0.95136716  0.16067557  1
  S  S23  1  0.75293005  0.61786273  0.49413990  1
  S  S24  1  0.25861621  0.62926975  0.00029746  1
  S  S25  1  0.59224666  0.29563929  0.33303554  1
  S  S26  1  0.92548385  0.96248805  0.66666700  1
  S  S27  1  0.72635249  0.13694693  0.99975171  1
  S  S28  1  0.05943720  0.80386222  0.33358129  1
  S  S29  1  0.39450205  0.46917899  0.66666700  1
  S  S30  1  0.57612906  0.28796789  0.84774288  1
  S  S31  1  0.90867488  0.95458110  0.18265024  1
  S  S32  1  0.24194698  0.62059242  0.51610503  1
  S  S33  1  0.42465812  0.43859786  0.15068276  1
  S  S34  1  0.75720494  0.10689202  0.48559112  1
  S  S35  1  0.09138602  0.77115339  0.81722797  1
  S  S36  1  0.27389580  0.13694693  0.99975171  1
  S  S37  1  0.60698051  0.80386222  0.33358129  1
  S  S38  1  0.93883195  0.46917899  0.66666700  1
