# generated using pymatgen
data_UNi3P2
_symmetry_space_group_name_H-M   'P 1'
_cell_length_a   3.76117770
_cell_length_b   10.46617756
_cell_length_c   12.37769828
_cell_angle_alpha   90.00000000
_cell_angle_beta   90.00000000
_cell_angle_gamma   90.00000000
_symmetry_Int_Tables_number   1
_chemical_formula_structural   UNi3P2
_chemical_formula_sum   'U6 Ni18 P12'
_cell_volume   487.24999454
_cell_formula_units_Z   6
loop_
 _symmetry_equiv_pos_site_id
 _symmetry_equiv_pos_as_xyz
  1  'x, y, z'
loop_
 _atom_site_type_symbol
 _atom_site_label
 _atom_site_symmetry_multiplicity
 _atom_site_fract_x
 _atom_site_fract_y
 _atom_site_fract_z
 _atom_site_occupancy
  U  U0  1  0.75215174  0.25000000  0.47738726  1
  U  U1  1  0.25215174  0.75000000  0.52261274  1
  U  U2  1  0.25212174  0.93524970  0.79526472  1
  U  U3  1  0.25212174  0.56475030  0.79526472  1
  U  U4  1  0.75212174  0.06475030  0.20473528  1
  U  U5  1  0.75212174  0.43524970  0.20473528  1
  Ni  Ni6  1  0.74952665  0.25000000  0.01600237  1
  Ni  Ni7  1  0.24952665  0.75000000  0.98399763  1
  Ni  Ni8  1  0.24956268  0.45254962  0.56786737  1
  Ni  Ni9  1  0.24956268  0.04745038  0.56786737  1
  Ni  Ni10  1  0.74956268  0.54745038  0.43213263  1
  Ni  Ni11  1  0.74956268  0.95254962  0.43213263  1
  Ni  Ni12  1  0.25019088  0.87015570  0.29290398  1
  Ni  Ni13  1  0.25019088  0.62984430  0.29290398  1
  Ni  Ni14  1  0.75019088  0.12984430  0.70709602  1
  Ni  Ni15  1  0.75019088  0.37015570  0.70709602  1
  Ni  Ni16  1  0.25023278  0.41877680  0.00462187  1
  Ni  Ni17  1  0.25023278  0.08122320  0.00462187  1
  Ni  Ni18  1  0.75023278  0.58122320  0.99537813  1
  Ni  Ni19  1  0.75023278  0.91877680  0.99537813  1
  Ni  Ni20  1  0.25013494  0.25000000  0.84189499  1
  Ni  Ni21  1  0.75013494  0.75000000  0.15810501  1
  Ni  Ni22  1  0.27930830  0.25000000  0.29855332  1
  Ni  Ni23  1  0.77930830  0.75000000  0.70144668  1
  P  P24  1  0.24938992  0.43799132  0.38441063  1
  P  P25  1  0.24938992  0.06200868  0.38441063  1
  P  P26  1  0.74938992  0.56200868  0.61558937  1
  P  P27  1  0.74938992  0.93799132  0.61558937  1
  P  P28  1  0.24905688  0.25000000  0.12081116  1
  P  P29  1  0.74905688  0.75000000  0.87918884  1
  P  P30  1  0.24979455  0.90207131  0.10869245  1
  P  P31  1  0.24979455  0.59792869  0.10869245  1
  P  P32  1  0.74979455  0.09792869  0.89130755  1
  P  P33  1  0.74979455  0.40207131  0.89130755  1
  P  P34  1  0.25003640  0.25000000  0.65402799  1
  P  P35  1  0.75003640  0.75000000  0.34597201  1
