# generated using pymatgen
data_Tb5Te9
_symmetry_space_group_name_H-M   'P 1'
_cell_length_a   9.66319439
_cell_length_b   9.66857918
_cell_length_c   18.11971832
_cell_angle_alpha   90.00000000
_cell_angle_beta   90.00000000
_cell_angle_gamma   89.95037634
_symmetry_Int_Tables_number   1
_chemical_formula_structural   Tb5Te9
_chemical_formula_sum   'Tb20 Te36'
_cell_volume   1692.91305319
_cell_formula_units_Z   4
loop_
 _symmetry_equiv_pos_site_id
 _symmetry_equiv_pos_as_xyz
  1  'x, y, z'
loop_
 _atom_site_type_symbol
 _atom_site_label
 _atom_site_symmetry_multiplicity
 _atom_site_fract_x
 _atom_site_fract_y
 _atom_site_fract_z
 _atom_site_occupancy
  Tb  Tb0  1  0.69847240  0.09701917  0.12118703  1
  Tb  Tb1  1  0.30152760  0.90298083  0.12118703  1
  Tb  Tb2  1  0.90526512  0.69887922  0.11961873  1
  Tb  Tb3  1  0.09473488  0.30112078  0.11961873  1
  Tb  Tb4  1  0.70247685  0.09249939  0.61765794  1
  Tb  Tb5  1  0.29752315  0.90750061  0.61765794  1
  Tb  Tb6  1  0.90028064  0.69875796  0.61461080  1
  Tb  Tb7  1  0.09971936  0.30124204  0.61461080  1
  Tb  Tb8  1  0.50000000  0.50000000  0.63042222  1
  Tb  Tb9  1  0.80093880  0.39991045  0.39118109  1
  Tb  Tb10  1  0.19906120  0.60008955  0.39118109  1
  Tb  Tb11  1  0.59281214  0.79738793  0.38819671  1
  Tb  Tb12  1  0.40718786  0.20261207  0.38819671  1
  Tb  Tb13  1  -0.00000000  -0.00000000  0.89832237  1
  Tb  Tb14  1  -0.00000000  -0.00000000  0.37600877  1
  Tb  Tb15  1  0.50000000  0.50000000  0.10707420  1
  Tb  Tb16  1  0.80139900  0.40589902  0.88673050  1
  Tb  Tb17  1  0.19860100  0.59410098  0.88673050  1
  Tb  Tb18  1  0.59598997  0.80165296  0.88540583  1
  Tb  Tb19  1  0.40401003  0.19834704  0.88540583  1
  Te  Te20  1  0.88241176  0.20844019  0.25215699  1
  Te  Te21  1  0.11758824  0.79155981  0.25215699  1
  Te  Te22  1  0.78327160  0.86754305  0.25271625  1
  Te  Te23  1  0.21672840  0.13245695  0.25271625  1
  Te  Te24  1  0.50000000  -0.00000000  0.25073095  1
  Te  Te25  1  -0.00000000  0.50000000  0.25206370  1
  Te  Te26  1  -0.00000000  -0.00000000  0.07271504  1
  Te  Te27  1  0.50000000  -0.00000000  0.75583668  1
  Te  Te28  1  -0.00000000  0.50000000  0.75433029  1
  Te  Te29  1  0.90095878  0.70223669  0.93981955  1
  Te  Te30  1  0.09904122  0.29776331  0.93981955  1
  Te  Te31  1  0.29766698  0.89953166  0.93950011  1
  Te  Te32  1  0.70233302  0.10046834  0.93950011  1
  Te  Te33  1  0.50000000  0.50000000  0.45114272  1
  Te  Te34  1  0.80022780  0.39683891  0.56995033  1
  Te  Te35  1  0.19977220  0.60316109  0.56995033  1
  Te  Te36  1  0.59948385  0.79995414  0.56827944  1
  Te  Te37  1  0.40051615  0.20004586  0.56827944  1
  Te  Te38  1  0.89672504  0.69920402  0.43594592  1
  Te  Te39  1  0.10327496  0.30079598  0.43594592  1
  Te  Te40  1  0.30034298  0.90045088  0.43768460  1
  Te  Te41  1  0.69965702  0.09954912  0.43768460  1
  Te  Te42  1  0.79850457  0.40127199  0.06634841  1
  Te  Te43  1  0.20149543  0.59872801  0.06634841  1
  Te  Te44  1  0.60042444  0.79825292  0.06706667  1
  Te  Te45  1  0.39957556  0.20174708  0.06706667  1
  Te  Te46  1  -0.00000000  -0.00000000  0.55436029  1
  Te  Te47  1  0.50000000  0.50000000  0.93305826  1
  Te  Te48  1  0.70821836  0.61835083  0.75401212  1
  Te  Te49  1  0.29178164  0.38164917  0.75401212  1
  Te  Te50  1  0.36626846  0.71725394  0.75346807  1
  Te  Te51  1  0.63373154  0.28274606  0.75346807  1
  Te  Te52  1  0.12409528  0.08375299  0.74274732  1
  Te  Te53  1  0.87590472  0.91624701  0.74274732  1
  Te  Te54  1  0.58411022  0.37577247  0.26258286  1
  Te  Te55  1  0.41588978  0.62422753  0.26258286  1
