# generated using pymatgen
data_Li3Fe2(PO5)2
_symmetry_space_group_name_H-M   'P 1'
_cell_length_a   6.44122124
_cell_length_b   6.44122124
_cell_length_c   8.69118408
_cell_angle_alpha   90.00000000
_cell_angle_beta   90.00000000
_cell_angle_gamma   90.70848319
_symmetry_Int_Tables_number   1
_chemical_formula_structural   Li3Fe2(PO5)2
_chemical_formula_sum   'Li6 Fe4 P4 O20'
_cell_volume   360.56384627
_cell_formula_units_Z   2
loop_
 _symmetry_equiv_pos_site_id
 _symmetry_equiv_pos_as_xyz
  1  'x, y, z'
loop_
 _atom_site_type_symbol
 _atom_site_label
 _atom_site_symmetry_multiplicity
 _atom_site_fract_x
 _atom_site_fract_y
 _atom_site_fract_z
 _atom_site_occupancy
  Li  Li0  1  0.25000000  0.75000000  0.25000000  1
  Li  Li1  1  0.25000000  0.25000000  0.25000000  1
  Li  Li2  1  0.25000000  0.25000000  0.75000000  1
  Li  Li3  1  0.75000000  0.25000000  0.75000000  1
  Li  Li4  1  0.75000000  0.75000000  0.25000000  1
  Li  Li5  1  0.75000000  0.75000000  0.75000000  1
  Fe  Fe6  1  0.99261225  0.49261225  0.04749282  1
  Fe  Fe7  1  0.00738775  0.50738775  0.54749282  1
  Fe  Fe8  1  0.49261225  0.99261225  0.95250718  1
  Fe  Fe9  1  0.50738775  0.00738775  0.45250718  1
  P  P10  1  0.00272056  0.00272056  0.00000000  1
  P  P11  1  0.99727944  0.99727944  0.50000000  1
  P  P12  1  0.50272056  0.50272056  0.00000000  1
  P  P13  1  0.49727944  0.49727944  0.50000000  1
  O  O14  1  0.00886321  0.19455799  0.10727049  1
  O  O15  1  0.00272676  0.80486741  0.10197902  1
  O  O16  1  0.02392544  0.52392544  0.34567400  1
  O  O17  1  0.99727324  0.19513259  0.60197902  1
  O  O18  1  0.99113679  0.80544201  0.60727049  1
  O  O19  1  0.97607456  0.47607456  0.84567400  1
  O  O20  1  0.19455799  0.00886321  0.89272951  1
  O  O21  1  0.19513259  0.99727324  0.39802098  1
  O  O22  1  0.30486741  0.50272676  0.10197902  1
  O  O23  1  0.30544201  0.49113679  0.60727049  1
  O  O24  1  0.49113679  0.30544201  0.39272951  1
  O  O25  1  0.50272676  0.30486741  0.89802098  1
  O  O26  1  0.52392544  0.02392544  0.65432600  1
  O  O27  1  0.47607456  0.97607456  0.15432600  1
  O  O28  1  0.49727324  0.69513259  0.39802098  1
  O  O29  1  0.50886321  0.69455799  0.89272951  1
  O  O30  1  0.69455799  0.50886321  0.10727049  1
  O  O31  1  0.69513259  0.49727324  0.60197902  1
  O  O32  1  0.80544201  0.99113679  0.39272951  1
  O  O33  1  0.80486741  0.00272676  0.89802098  1
