# generated using pymatgen
data_Sr4Zn(IrO4)3
_symmetry_space_group_name_H-M   'P 1'
_cell_length_a   5.64313341
_cell_length_b   5.67401302
_cell_length_c   7.96440635
_cell_angle_alpha   90.43055491
_cell_angle_beta   89.90874111
_cell_angle_gamma   90.05195582
_symmetry_Int_Tables_number   1
_chemical_formula_structural   Sr4Zn(IrO4)3
_chemical_formula_sum   'Sr4 Zn1 Ir3 O12'
_cell_volume   255.00639303
_cell_formula_units_Z   1
loop_
 _symmetry_equiv_pos_site_id
 _symmetry_equiv_pos_as_xyz
  1  'x, y, z'
loop_
 _atom_site_type_symbol
 _atom_site_label
 _atom_site_symmetry_multiplicity
 _atom_site_fract_x
 _atom_site_fract_y
 _atom_site_fract_z
 _atom_site_occupancy
  Sr  Sr0  1  0.50276659  0.53422677  0.24217929  1
  Sr  Sr1  1  0.99035972  0.03844073  0.24153185  1
  Sr  Sr2  1  0.49723341  0.46577323  0.75782071  1
  Sr  Sr3  1  0.00964028  0.96155927  0.75846815  1
  Zn  Zn4  1  0.00000000  0.50000000  -0.00000000  1
  Ir  Ir5  1  0.50000000  0.00000000  0.50000000  1
  Ir  Ir6  1  0.00000000  0.50000000  0.50000000  1
  Ir  Ir7  1  0.50000000  0.00000000  -0.00000000  1
  O  O8  1  0.77489062  0.79020180  0.02962596  1
  O  O9  1  0.70198980  0.29904550  0.46196098  1
  O  O10  1  0.20162497  0.20292061  0.53654246  1
  O  O11  1  0.29255900  0.72392368  0.96754016  1
  O  O12  1  0.22510938  0.20979820  0.97037404  1
  O  O13  1  0.29801020  0.70095450  0.53803902  1
  O  O14  1  0.79837503  0.79707939  0.46345754  1
  O  O15  1  0.70744100  0.27607632  0.03245984  1
  O  O16  1  0.42620838  0.98736368  0.24894574  1
  O  O17  1  0.05989951  0.49302440  0.25942033  1
  O  O18  1  0.57379162  0.01263632  0.75105426  1
  O  O19  1  0.94010049  0.50697560  0.74057967  1
