# generated using pymatgen
data_SrLaMgRuO6
_symmetry_space_group_name_H-M   'P 1'
_cell_length_a   5.65087992
_cell_length_b   5.64066700
_cell_length_c   7.94819825
_cell_angle_alpha   90.28347644
_cell_angle_beta   90.00000000
_cell_angle_gamma   90.00000000
_symmetry_Int_Tables_number   1
_chemical_formula_structural   SrLaMgRuO6
_chemical_formula_sum   'Sr2 La2 Mg2 Ru2 O12'
_cell_volume   253.34358760
_cell_formula_units_Z   2
loop_
 _symmetry_equiv_pos_site_id
 _symmetry_equiv_pos_as_xyz
  1  'x, y, z'
loop_
 _atom_site_type_symbol
 _atom_site_label
 _atom_site_symmetry_multiplicity
 _atom_site_fract_x
 _atom_site_fract_y
 _atom_site_fract_z
 _atom_site_occupancy
  Sr  Sr0  1  0.02369000  0.49603846  0.25096947  1
  Sr  Sr1  1  0.47631000  0.99603846  0.75096947  1
  La  La2  1  0.96764830  0.51047998  0.75047066  1
  La  La3  1  0.53235170  0.01047998  0.25047066  1
  Mg  Mg4  1  0.49722718  0.50074358  0.00065040  1
  Mg  Mg5  1  0.00277282  0.00074358  0.50065040  1
  Ru  Ru6  1  0.49884263  0.49962994  0.50042759  1
  Ru  Ru7  1  0.00115737  0.99962994  0.00042759  1
  O  O8  1  0.28814676  0.22423417  0.45764553  1
  O  O9  1  0.21185324  0.72423417  0.95764553  1
  O  O10  1  0.72338366  0.76419957  0.53812758  1
  O  O11  1  0.77661634  0.26419957  0.03812758  1
  O  O12  1  0.22115075  0.70835409  0.54203466  1
  O  O13  1  0.27884925  0.20835409  0.04203466  1
  O  O14  1  0.76581779  0.27745848  0.45986794  1
  O  O15  1  0.73418221  0.77745848  0.95986794  1
  O  O16  1  0.48966633  0.58440431  0.25678047  1
  O  O17  1  0.01033367  0.08440431  0.75678047  1
  O  O18  1  0.51741075  0.43445742  0.74302571  1
  O  O19  1  0.98258925  0.93445742  0.24302571  1
