# generated using pymatgen
data_SrCaLaSbO6
_symmetry_space_group_name_H-M   'P 1'
_cell_length_a   5.82666577
_cell_length_b   5.97165556
_cell_length_c   8.33813203
_cell_angle_alpha   90.00000000
_cell_angle_beta   90.38387160
_cell_angle_gamma   90.00000000
_symmetry_Int_Tables_number   1
_chemical_formula_structural   SrCaLaSbO6
_chemical_formula_sum   'Sr2 Ca2 La2 Sb2 O12'
_cell_volume   290.11746707
_cell_formula_units_Z   2
loop_
 _symmetry_equiv_pos_site_id
 _symmetry_equiv_pos_as_xyz
  1  'x, y, z'
loop_
 _atom_site_type_symbol
 _atom_site_label
 _atom_site_symmetry_multiplicity
 _atom_site_fract_x
 _atom_site_fract_y
 _atom_site_fract_z
 _atom_site_occupancy
  Sr  Sr0  1  0.48838032  0.54212260  0.25187739  1
  Sr  Sr1  1  0.98838032  0.95787740  0.75187739  1
  Ca  Ca2  1  0.00098555  0.50522784  0.50020915  1
  Ca  Ca3  1  0.50098555  0.99477216  0.00020915  1
  La  La4  1  0.51650560  0.44793943  0.75060618  1
  La  La5  1  0.01650560  0.05206057  0.25060618  1
  Sb  Sb6  1  0.50021110  -0.00021966  0.50008933  1
  Sb  Sb7  1  0.00021110  0.50021966  0.00008933  1
  O  O8  1  0.61415818  0.96904743  0.27112744  1
  O  O9  1  0.11415818  0.53095257  0.77112744  1
  O  O10  1  0.40841825  0.04222188  0.73126692  1
  O  O11  1  0.90841825  0.45777812  0.23126692  1
  O  O12  1  0.17362106  0.78325486  0.05892165  1
  O  O13  1  0.67362106  0.71674514  0.55892165  1
  O  O14  1  0.80664739  0.22915603  0.94264479  1
  O  O15  1  0.30664739  0.27084397  0.44264479  1
  O  O16  1  0.22024920  0.81719056  0.44375863  1
  O  O17  1  0.72024920  0.68280944  0.94375863  1
  O  O18  1  0.77082334  0.19860976  0.54949852  1
  O  O19  1  0.27082334  0.30139024  0.04949852  1
