# generated using pymatgen
data_SrLa4Si3O13
_symmetry_space_group_name_H-M   'P 1'
_cell_length_a   7.27346506
_cell_length_b   9.76843286
_cell_length_c   9.76847401
_cell_angle_alpha   120.00041845
_cell_angle_beta   90.00000000
_cell_angle_gamma   90.00000000
_symmetry_Int_Tables_number   1
_chemical_formula_structural   SrLa4Si3O13
_chemical_formula_sum   'Sr2 La8 Si6 O26'
_cell_volume   601.06546887
_cell_formula_units_Z   2
loop_
 _symmetry_equiv_pos_site_id
 _symmetry_equiv_pos_as_xyz
  1  'x, y, z'
loop_
 _atom_site_type_symbol
 _atom_site_label
 _atom_site_symmetry_multiplicity
 _atom_site_fract_x
 _atom_site_fract_y
 _atom_site_fract_z
 _atom_site_occupancy
  Sr  Sr0  1  0.50014970  0.66663377  0.33331297  1
  Sr  Sr1  1  0.00014970  0.33336623  0.66668703  1
  La  La2  1  0.50002066  0.33334978  0.66667914  1
  La  La3  1  0.00002066  0.66665022  0.33332086  1
  La  La4  1  0.74953163  0.76772040  0.75643510  1
  La  La5  1  0.74951656  0.24355394  0.01126492  1
  La  La6  1  0.74953002  0.98872213  0.23229911  1
  La  La7  1  0.24953163  0.23227960  0.24356490  1
  La  La8  1  0.24951656  0.75644606  0.98873508  1
  La  La9  1  0.24953002  0.01127787  0.76770089  1
  Si  Si10  1  0.75112738  0.02937063  0.62970383  1
  Si  Si11  1  0.75112683  0.37028994  0.39966329  1
  Si  Si12  1  0.75112377  0.60033668  0.97062618  1
  Si  Si13  1  0.25112738  0.97062937  0.37029617  1
  Si  Si14  1  0.25112683  0.62971006  0.60033671  1
  Si  Si15  1  0.25112377  0.39966332  0.02937382  1
  O  O16  1  0.75527647  0.83736537  0.51607780  1
  O  O17  1  0.75528041  0.48391537  0.32128530  1
  O  O18  1  0.75527700  0.67871412  0.16263356  1
  O  O19  1  0.25527647  0.16263463  0.48392220  1
  O  O20  1  0.25528041  0.51608463  0.67871470  1
  O  O21  1  0.25527700  0.32128588  0.83736644  1
  O  O22  1  0.56885406  0.08960026  0.74741150  1
  O  O23  1  0.56885067  0.25258978  0.34219192  1
  O  O24  1  0.56884987  0.65780182  0.91039456  1
  O  O25  1  0.06885406  0.91039974  0.25258850  1
  O  O26  1  0.06885067  0.74741022  0.65780808  1
  O  O27  1  0.06884987  0.34219818  0.08960544  1
  O  O28  1  0.43032241  0.91193186  0.25029404  1
  O  O29  1  0.43032667  0.74970747  0.66163472  1
  O  O30  1  0.43032466  0.33836737  0.08807223  1
  O  O31  1  0.93032241  0.08806814  0.74970596  1
  O  O32  1  0.93032667  0.25029253  0.33836528  1
  O  O33  1  0.93032466  0.66163263  0.91192777  1
  O  O34  1  0.74506647  0.12297473  0.52894761  1
  O  O35  1  0.74506345  0.47106152  0.59402395  1
  O  O36  1  0.74506689  0.40597549  0.87703345  1
  O  O37  1  0.24506647  0.87702527  0.47105239  1
  O  O38  1  0.24506345  0.52893848  0.40597605  1
  O  O39  1  0.24506689  0.59402451  0.12296655  1
  O  O40  1  0.74931443  0.99999737  0.00000525  1
  O  O41  1  0.24931443  0.00000263  -0.00000525  1
