# generated using pymatgen
data_Ti3Mn2Co3O16
_symmetry_space_group_name_H-M   'P 1'
_cell_length_a   5.75506220
_cell_length_b   5.82772063
_cell_length_c   8.89751277
_cell_angle_alpha   89.78899240
_cell_angle_beta   88.87476847
_cell_angle_gamma   120.14203444
_symmetry_Int_Tables_number   1
_chemical_formula_structural   Ti3Mn2Co3O16
_chemical_formula_sum   'Ti3 Mn2 Co3 O16'
_cell_volume   257.98092389
_cell_formula_units_Z   1
loop_
 _symmetry_equiv_pos_site_id
 _symmetry_equiv_pos_as_xyz
  1  'x, y, z'
loop_
 _atom_site_type_symbol
 _atom_site_label
 _atom_site_symmetry_multiplicity
 _atom_site_fract_x
 _atom_site_fract_y
 _atom_site_fract_z
 _atom_site_occupancy
  Ti  Ti0  1  0.15302074  0.82769848  0.20596114  1
  Ti  Ti1  1  0.15328322  0.32553605  0.20611235  1
  Ti  Ti2  1  0.31453058  0.15819749  0.70710338  1
  Mn  Mn3  1  0.33524337  0.66657994  0.48491018  1
  Mn  Mn4  1  0.66778270  0.33497370  0.97920157  1
  Co  Co5  1  0.65746109  0.82852805  0.21343981  1
  Co  Co6  1  0.82611814  0.66403803  0.70756445  1
  Co  Co7  1  0.82563663  0.16915578  0.71139693  1
  O  O8  1  0.16946427  0.82958068  0.60366207  1
  O  O9  1  0.04743715  0.52382808  0.34585665  1
  O  O10  1  0.35113934  0.67569294  0.09978617  1
  O  O11  1  0.98753082  0.99350140  0.31804201  1
  O  O12  1  0.97892927  0.99372334  0.81681156  1
  O  O13  1  0.17043338  0.33875401  0.60195469  1
  O  O14  1  0.49036958  0.95601572  0.34291838  1
  O  O15  1  0.49084821  0.53338736  0.34274405  1
  O  O16  1  0.34619255  0.17326909  0.10364744  1
  O  O17  1  0.67435083  0.83167370  0.60650317  1
  O  O18  1  0.52675293  0.48136565  0.84047033  1
  O  O19  1  0.52900555  0.04365470  0.84235008  1
  O  O20  1  0.68112089  0.33643380  0.60316125  1
  O  O21  1  0.83303421  0.65981842  0.10034349  1
  O  O22  1  0.95714381  0.48162934  0.83126632  1
  O  O23  1  0.83317176  0.17316325  0.10051255  1
