# generated using pymatgen
data_Sm12Sn(GeS7)4
_symmetry_space_group_name_H-M   'P 1'
_cell_length_a   10.10195401
_cell_length_b   11.63812360
_cell_length_c   11.64368477
_cell_angle_alpha   59.81239368
_cell_angle_beta   115.70293766
_cell_angle_gamma   115.73833514
_symmetry_Int_Tables_number   1
_chemical_formula_structural   Sm12Sn(GeS7)4
_chemical_formula_sum   'Sm12 Sn1 Ge4 S28'
_cell_volume   1024.30166197
_cell_formula_units_Z   1
loop_
 _symmetry_equiv_pos_site_id
 _symmetry_equiv_pos_as_xyz
  1  'x, y, z'
loop_
 _atom_site_type_symbol
 _atom_site_label
 _atom_site_symmetry_multiplicity
 _atom_site_fract_x
 _atom_site_fract_y
 _atom_site_fract_z
 _atom_site_occupancy
  Sm  Sm0  1  0.87755453  0.17704546  0.47954460  1
  Sm  Sm1  1  0.86010383  0.64467127  0.98461108  1
  Sm  Sm2  1  0.36771126  0.94665635  0.28406432  1
  Sm  Sm3  1  0.34559110  0.45792376  0.76336582  1
  Sm  Sm4  1  0.76667055  0.89851330  0.23745671  1
  Sm  Sm5  1  0.78020451  0.41013230  0.71416684  1
  Sm  Sm6  1  0.12615533  0.75272298  0.59341916  1
  Sm  Sm7  1  0.13300343  0.28443628  0.08406989  1
  Sm  Sm8  1  0.63341507  0.98098637  0.78082652  1
  Sm  Sm9  1  0.65295678  0.47033900  0.31123670  1
  Sm  Sm10  1  0.23326877  0.03282080  0.83356381  1
  Sm  Sm11  1  0.22191810  0.51685466  0.35745951  1
  Sn  Sn12  1  0.99964742  0.97980068  0.02012092  1
  Ge  Ge13  1  0.66650057  0.71236231  0.62023197  1
  Ge  Ge14  1  0.66732921  0.21500399  0.11959079  1
  Ge  Ge15  1  0.32939786  0.13272303  0.53124815  1
  Ge  Ge16  1  0.33768342  0.63444330  0.03559264  1
  S  S17  1  0.67452615  0.90927723  0.43807313  1
  S  S18  1  0.65929598  0.39667685  0.92324485  1
  S  S19  1  0.33514149  0.32378982  0.34544309  1
  S  S20  1  0.33204772  0.82108423  0.84326860  1
  S  S21  1  0.58095422  0.20844422  0.27109218  1
  S  S22  1  0.58263522  0.70797286  0.77304828  1
  S  S23  1  0.51853543  0.01869276  0.08308854  1
  S  S24  1  0.52042257  0.51870868  0.58267970  1
  S  S25  1  0.89814451  0.17613751  0.24021065  1
  S  S26  1  0.89872845  0.67780376  0.74179680  1
  S  S27  1  0.40369751  0.97473090  0.53409040  1
  S  S28  1  0.42829546  0.48377576  0.04432126  1
  S  S29  1  0.48392260  0.17122690  0.72564097  1
  S  S30  1  0.47939601  0.66785555  0.23242671  1
  S  S31  1  0.09824440  0.00597402  0.56676660  1
  S  S32  1  0.10682778  0.51820694  0.07763564  1
  S  S33  1  0.16835661  0.29874695  0.60538433  1
  S  S34  1  0.15151318  0.81699364  0.08845776  1
  S  S35  1  0.09299721  0.98771381  0.25825947  1
  S  S36  1  0.09736092  0.47869309  0.78672793  1
  S  S37  1  0.73755469  0.26324637  0.56833121  1
  S  S38  1  0.75220479  0.78688793  0.05974421  1
  S  S39  1  0.83505061  0.64839148  0.44856309  1
  S  S40  1  0.83945513  0.14100291  0.94870373  1
  S  S41  1  0.91003543  0.97095329  0.77864081  1
  S  S42  1  0.90302777  0.46875172  0.26911594  1
  S  S43  1  0.26203210  0.68200533  0.48277420  1
  S  S44  1  0.25048428  0.17682963  0.98389049  1
