# generated using pymatgen
data_Sr2CoRuO6
_symmetry_space_group_name_H-M   'P 1'
_cell_length_a   5.63723664
_cell_length_b   5.58956860
_cell_length_c   5.64721852
_cell_angle_alpha   59.84563210
_cell_angle_beta   59.91918211
_cell_angle_gamma   59.72014644
_symmetry_Int_Tables_number   1
_chemical_formula_structural   Sr2CoRuO6
_chemical_formula_sum   'Sr2 Co1 Ru1 O6'
_cell_volume   125.33313003
_cell_formula_units_Z   1
loop_
 _symmetry_equiv_pos_site_id
 _symmetry_equiv_pos_as_xyz
  1  'x, y, z'
loop_
 _atom_site_type_symbol
 _atom_site_label
 _atom_site_symmetry_multiplicity
 _atom_site_fract_x
 _atom_site_fract_y
 _atom_site_fract_z
 _atom_site_occupancy
  Sr  Sr0  1  0.75078214  0.75133666  0.74818226  1
  Sr  Sr1  1  0.24921786  0.24866334  0.25181774  1
  Co  Co2  1  0.50000000  0.50000000  0.50000000  1
  Ru  Ru3  1  0.00000000  -0.00000000  0.00000000  1
  O  O4  1  0.20416597  0.75599864  0.28183887  1
  O  O5  1  0.79583403  0.24400136  0.71816113  1
  O  O6  1  0.71137092  0.23884609  0.24916203  1
  O  O7  1  0.76331030  0.74876282  0.19987285  1
  O  O8  1  0.28862908  0.76115391  0.75083797  1
  O  O9  1  0.23668970  0.25123718  0.80012715  1
