# generated using pymatgen
data_SrNd10Se12(Cl2O9)4
_symmetry_space_group_name_H-M   'P 1'
_cell_length_a   12.07199086
_cell_length_b   12.07199086
_cell_length_c   16.03222685
_cell_angle_alpha   90.05375361
_cell_angle_beta   89.94624639
_cell_angle_gamma   97.56307766
_symmetry_Int_Tables_number   1
_chemical_formula_structural   SrNd10Se12(Cl2O9)4
_chemical_formula_sum   'Sr2 Nd20 Se24 Cl16 O72'
_cell_volume   2316.09655052
_cell_formula_units_Z   2
loop_
 _symmetry_equiv_pos_site_id
 _symmetry_equiv_pos_as_xyz
  1  'x, y, z'
loop_
 _atom_site_type_symbol
 _atom_site_label
 _atom_site_symmetry_multiplicity
 _atom_site_fract_x
 _atom_site_fract_y
 _atom_site_fract_z
 _atom_site_occupancy
  Sr  Sr0  1  0.31257609  0.45057128  0.13043567  1
  Sr  Sr1  1  0.04942872  0.18742391  0.63043567  1
  Nd  Nd2  1  0.74947691  0.25035031  0.25007799  1
  Nd  Nd3  1  0.24964969  0.75052309  0.75007799  1
  Nd  Nd4  1  0.24922253  0.74755922  0.01340930  1
  Nd  Nd5  1  0.75244078  0.25077747  0.51340930  1
  Nd  Nd6  1  0.75075001  0.25050288  0.98690623  1
  Nd  Nd7  1  0.24949712  0.74924999  0.48690623  1
  Nd  Nd8  1  0.01430413  0.51255017  0.24868753  1
  Nd  Nd9  1  0.98744983  0.48569587  0.74868753  1
  Nd  Nd10  1  0.51337434  0.01287837  0.74990609  1
  Nd  Nd11  1  0.48712163  0.98662566  0.24990609  1
  Nd  Nd12  1  0.00216874  0.49876309  0.00053841  1
  Nd  Nd13  1  0.00123691  0.49783126  0.50053841  1
  Nd  Nd14  1  0.50022170  0.00047525  0.50000679  1
  Nd  Nd15  1  0.49952475  0.99977830  0.00000679  1
  Nd  Nd16  1  0.45430375  0.30534457  0.62995158  1
  Nd  Nd17  1  0.19465543  0.04569625  0.12995158  1
  Nd  Nd18  1  0.69452289  0.54395596  0.87060267  1
  Nd  Nd19  1  0.95604404  0.80547711  0.37060267  1
  Nd  Nd20  1  0.54296222  0.69374342  0.36868960  1
  Nd  Nd21  1  0.80625658  0.95703778  0.86868960  1
  Se  Se22  1  0.74652351  0.49737787  0.10089064  1
  Se  Se23  1  0.00262213  0.75347649  0.60089064  1
  Se  Se24  1  0.49690829  0.74619762  0.60058547  1
  Se  Se25  1  0.75380238  0.00309171  0.10058547  1
  Se  Se26  1  0.25163350  0.50423425  0.89820576  1
  Se  Se27  1  0.99576575  0.24836650  0.39820576  1
  Se  Se28  1  0.50277016  0.25327500  0.39953172  1
  Se  Se29  1  0.24672500  0.99722984  0.89953172  1
  Se  Se30  1  0.02707611  0.75299352  0.13997372  1
  Se  Se31  1  0.74700648  0.47292389  0.63997372  1
  Se  Se32  1  0.74963113  0.02698656  0.63883088  1
  Se  Se33  1  0.47301344  0.75036887  0.13883088  1
  Se  Se34  1  0.97239519  0.25007986  0.86166908  1
  Se  Se35  1  0.24992014  0.52760481  0.36166908  1
  Se  Se36  1  0.24819452  0.97276218  0.35995364  1
  Se  Se37  1  0.52723782  0.25180548  0.85995364  1
  Se  Se38  1  0.47804837  0.22286779  0.12768094  1
  Se  Se39  1  0.27713221  0.02195163  0.62768094  1
  Se  Se40  1  0.22293110  0.47950191  0.62781627  1
  Se  Se41  1  0.02049809  0.27706890  0.12781627  1
  Se  Se42  1  0.52188898  0.77695637  0.87231666  1
  Se  Se43  1  0.72304363  0.97811102  0.37231666  1
  Se  Se44  1  0.77691337  0.52232499  0.37238327  1
  Se  Se45  1  0.97767501  0.72308663  0.87238327  1
  Cl  Cl46  1  0.24550751  0.23937760  0.23533863  1
  Cl  Cl47  1  0.26062240  0.25449249  0.73533863  1
  Cl  Cl48  1  0.74867778  0.74920963  0.76756954  1
  Cl  Cl49  1  0.75079037  0.75132222  0.26756954  1
  Cl  Cl50  1  0.24618453  0.23875944  0.01819340  1
  Cl  Cl51  1  0.26124056  0.25381547  0.51819340  1
  Cl  Cl52  1  0.75010862  0.75064468  0.97842013  1
  Cl  Cl53  1  0.74935532  0.74989138  0.47842013  1
  Cl  Cl54  1  0.51116076  0.50507851  0.25782957  1
  Cl  Cl55  1  0.99492149  0.98883924  0.75782957  1
  Cl  Cl56  1  0.50112348  0.50031964  0.74962826  1
  Cl  Cl57  1  0.99968036  0.99887652  0.24962826  1
  Cl  Cl58  1  0.50998357  0.50568676  0.99203328  1
  Cl  Cl59  1  0.99431324  0.99001643  0.49203328  1
  Cl  Cl60  1  0.50058517  0.50052359  0.50063355  1
  Cl  Cl61  1  0.99947641  0.99941483  0.00063355  1
  O  O62  1  0.09046525  0.63587404  0.11280769  1
  O  O63  1  0.86412596  0.40953475  0.61280769  1
  O  O64  1  0.62961346  0.08793807  0.61311680  1
  O  O65  1  0.41206193  0.87038654  0.11311680  1
  O  O66  1  0.90729525  0.36635198  0.89126479  1
  O  O67  1  0.13364802  0.59270475  0.39126479  1
  O  O68  1  0.36588730  0.90983958  0.38747610  1
  O  O69  1  0.59016042  0.13411270  0.88747610  1
  O  O70  1  0.88637976  0.53156151  0.12787892  1
  O  O71  1  0.96843849  0.61362024  0.62787892  1
  O  O72  1  0.53058100  0.88590608  0.62812759  1
  O  O73  1  0.61409392  0.96941900  0.12812759  1
  O  O74  1  0.11212185  0.46880733  0.86969420  1
  O  O75  1  0.03119267  0.38787815  0.36969420  1
  O  O76  1  0.46914016  0.11309438  0.37197579  1
  O  O77  1  0.38690562  0.03085984  0.87197579  1
  O  O78  1  0.71522090  0.35758387  0.12485012  1
  O  O79  1  0.14241613  0.78477910  0.62485012  1
  O  O80  1  0.35736060  0.71553104  0.62488750  1
  O  O81  1  0.78446896  0.14263940  0.12488750  1
  O  O82  1  0.28543589  0.64371651  0.87348750  1
  O  O83  1  0.85628349  0.21456411  0.37348750  1
  O  O84  1  0.64234307  0.28421289  0.37517729  1
  O  O85  1  0.21578711  0.85765693  0.87517729  1
  O  O86  1  0.55788858  0.19848720  0.04118648  1
  O  O87  1  0.30151280  0.94211142  0.54118648  1
  O  O88  1  0.20070494  0.56008003  0.54117169  1
  O  O89  1  0.93991997  0.29929506  0.04117169  1
  O  O90  1  0.44190757  0.80182853  0.95880694  1
  O  O91  1  0.69817147  0.05809243  0.45880694  1
  O  O92  1  0.80159464  0.44263598  0.45887712  1
  O  O93  1  0.05736402  0.69840536  0.95887712  1
  O  O94  1  0.14681713  0.84641817  0.12174282  1
  O  O95  1  0.65358183  0.35318287  0.62174282  1
  O  O96  1  0.84066017  0.14593485  0.62122733  1
  O  O97  1  0.35406515  0.65933983  0.12122733  1
  O  O98  1  0.85243743  0.15477142  0.87900943  1
  O  O99  1  0.34522858  0.64756257  0.37900943  1
  O  O100  1  0.15518027  0.85257972  0.37748288  1
  O  O101  1  0.64742028  0.34481973  0.87748288  1
  O  O102  1  0.77726591  0.47195740  0.99542829  1
  O  O103  1  0.02804260  0.72273409  0.49542829  1
  O  O104  1  0.47222054  0.77731223  0.49514347  1
  O  O105  1  0.72268777  0.02777946  0.99514347  1
  O  O106  1  0.21866170  0.53143206  0.00231776  1
  O  O107  1  0.96856794  0.28133830  0.50231776  1
  O  O108  1  0.52863344  0.22221878  0.50484824  1
  O  O109  1  0.27778122  0.97136656  0.00484824  1
  O  O110  1  0.02072411  0.72168367  0.24599336  1
  O  O111  1  0.77831633  0.47927589  0.74599336  1
  O  O112  1  0.71974897  0.02044714  0.74587982  1
  O  O113  1  0.47955286  0.78025103  0.24587982  1
  O  O114  1  0.97740002  0.28096446  0.75714100  1
  O  O115  1  0.21903554  0.52259998  0.25714100  1
  O  O116  1  0.27896738  0.97786348  0.25394023  1
  O  O117  1  0.52213652  0.22103262  0.75394023  1
  O  O118  1  0.55491338  0.19404839  0.21325139  1
  O  O119  1  0.30595161  0.94508662  0.71325139  1
  O  O120  1  0.19591093  0.55679570  0.71416961  1
  O  O121  1  0.94320430  0.30408907  0.21416961  1
  O  O122  1  0.44535812  0.80625086  0.78656412  1
  O  O123  1  0.69374914  0.05464188  0.28656412  1
  O  O124  1  0.80592288  0.44501810  0.28687606  1
  O  O125  1  0.05498190  0.69407712  0.78687606  1
  O  O126  1  0.40075028  0.08894762  0.12552328  1
  O  O127  1  0.41105238  0.09924972  0.62552328  1
  O  O128  1  0.08858154  0.40551400  0.62485162  1
  O  O129  1  0.09448600  0.41141846  0.12485162  1
  O  O130  1  0.59985748  0.91082623  0.87464090  1
  O  O131  1  0.58917377  0.90014252  0.37464090  1
  O  O132  1  0.91057028  0.60036553  0.37448560  1
  O  O133  1  0.89963447  0.58942972  0.87448560  1
