# generated using pymatgen
data_Ca5Si3O13
_symmetry_space_group_name_H-M   'P 1'
_cell_length_a   6.99487175
_cell_length_b   9.64640316
_cell_length_c   9.64640316
_cell_angle_alpha   119.99999773
_cell_angle_beta   90.00000000
_cell_angle_gamma   90.00000000
_symmetry_Int_Tables_number   1
_chemical_formula_structural   Ca5Si3O13
_chemical_formula_sum   'Ca10 Si6 O26'
_cell_volume   563.69114852
_cell_formula_units_Z   2
loop_
 _symmetry_equiv_pos_site_id
 _symmetry_equiv_pos_as_xyz
  1  'x, y, z'
loop_
 _atom_site_type_symbol
 _atom_site_label
 _atom_site_symmetry_multiplicity
 _atom_site_fract_x
 _atom_site_fract_y
 _atom_site_fract_z
 _atom_site_occupancy
  Ca  Ca0  1  0.00544189  0.66666700  0.33333300  1
  Ca  Ca1  1  0.99455811  0.33333300  0.66666700  1
  Ca  Ca2  1  0.50544189  0.33333300  0.66666700  1
  Ca  Ca3  1  0.49455811  0.66666700  0.33333300  1
  Ca  Ca4  1  0.75000000  0.74687808  0.99412268  1
  Ca  Ca5  1  0.25000000  0.25312192  0.00587732  1
  Ca  Ca6  1  0.75000000  0.24724459  0.25312192  1
  Ca  Ca7  1  0.25000000  0.75275541  0.74687808  1
  Ca  Ca8  1  0.75000000  0.00587732  0.75275541  1
  Ca  Ca9  1  0.25000000  0.99412268  0.24724459  1
  Si  Si10  1  0.75000000  0.97182081  0.36834211  1
  Si  Si11  1  0.25000000  0.02817919  0.63165789  1
  Si  Si12  1  0.75000000  0.39652131  0.02817919  1
  Si  Si13  1  0.25000000  0.60347869  0.97182081  1
  Si  Si14  1  0.75000000  0.63165789  0.60347869  1
  Si  Si15  1  0.25000000  0.36834211  0.39652131  1
  O  O16  1  0.93741533  0.91025586  0.24990640  1
  O  O17  1  0.06258467  0.08974414  0.75009360  1
  O  O18  1  0.93741533  0.33965054  0.08974414  1
  O  O19  1  0.43741533  0.08974414  0.75009360  1
  O  O20  1  0.06258467  0.66034946  0.91025586  1
  O  O21  1  0.56258467  0.91025586  0.24990640  1
  O  O22  1  0.93741533  0.75009360  0.66034946  1
  O  O23  1  0.43741533  0.66034946  0.91025586  1
  O  O24  1  0.06258467  0.24990640  0.33965054  1
  O  O25  1  0.56258467  0.33965054  0.08974414  1
  O  O26  1  0.43741533  0.24990640  0.33965054  1
  O  O27  1  0.56258467  0.75009360  0.66034946  1
  O  O28  1  0.75000000  0.87359390  0.46655646  1
  O  O29  1  0.25000000  0.12640610  0.53344354  1
  O  O30  1  0.75000000  0.59296257  0.12640610  1
  O  O31  1  0.25000000  0.40703743  0.87359390  1
  O  O32  1  0.75000000  0.53344354  0.40703743  1
  O  O33  1  0.25000000  0.46655646  0.59296257  1
  O  O34  1  0.75000000  0.51736692  0.68408803  1
  O  O35  1  0.25000000  0.48263308  0.31591197  1
  O  O36  1  0.75000000  0.16672110  0.48263308  1
  O  O37  1  0.25000000  0.83327890  0.51736692  1
  O  O38  1  0.75000000  0.31591197  0.83327890  1
  O  O39  1  0.25000000  0.68408803  0.16672110  1
  O  O40  1  0.75000000  0.00000000  -0.00000000  1
  O  O41  1  0.25000000  0.00000000  -0.00000000  1
