# generated using pymatgen
data_Nb3Fe(BiO3)6
_symmetry_space_group_name_H-M   'P 1'
_cell_length_a   5.49266713
_cell_length_b   5.55048580
_cell_length_c   13.27119182
_cell_angle_alpha   89.54991945
_cell_angle_beta   77.71250042
_cell_angle_gamma   89.88340235
_symmetry_Int_Tables_number   1
_chemical_formula_structural   Nb3Fe(BiO3)6
_chemical_formula_sum   'Nb3 Fe1 Bi6 O18'
_cell_volume   395.31768458
_cell_formula_units_Z   1
loop_
 _symmetry_equiv_pos_site_id
 _symmetry_equiv_pos_as_xyz
  1  'x, y, z'
loop_
 _atom_site_type_symbol
 _atom_site_label
 _atom_site_symmetry_multiplicity
 _atom_site_fract_x
 _atom_site_fract_y
 _atom_site_fract_z
 _atom_site_occupancy
  Nb  Nb0  1  0.66129189  0.30042558  0.17407986  1
  Nb  Nb1  1  0.16383754  0.80114499  0.17418237  1
  Nb  Nb2  1  0.33834732  0.81194532  0.82207256  1
  Fe  Fe3  1  0.84563161  0.30808083  0.82319265  1
  Bi  Bi4  1  0.40334475  0.25402765  0.60334455  1
  Bi  Bi5  1  0.01955741  0.25124893  0.40562281  1
  Bi  Bi6  1  0.57292611  0.76449555  0.40499796  1
  Bi  Bi7  1  0.96578717  0.73199275  0.60290171  1
  Bi  Bi8  1  0.27054865  0.25314121  0.98491916  1
  Bi  Bi9  1  0.74937137  0.74881280  0.98610807  1
  O  O10  1  0.25987880  0.52330634  0.49803798  1
  O  O11  1  0.75531415  0.52377059  0.50270419  1
  O  O12  1  0.73884114  0.02027445  0.50260977  1
  O  O13  1  0.24321943  0.02014083  0.49905223  1
  O  O14  1  0.66781176  0.34880944  0.00237885  1
  O  O15  1  0.33092376  0.84786020  0.00249157  1
  O  O16  1  0.46679881  0.62664185  0.17492067  1
  O  O17  1  0.64065225  0.63135589  0.83181120  1
  O  O18  1  0.52376665  0.12898696  0.83165244  1
  O  O19  1  0.35759544  0.12580900  0.17503168  1
  O  O20  1  0.98616665  0.33512175  0.67915595  1
  O  O21  1  0.65738080  0.31659147  0.31559808  1
  O  O22  1  0.02724722  0.81877193  0.31635222  1
  O  O23  1  0.34921083  0.81265448  0.68061949  1
  O  O24  1  0.10464332  0.54185912  0.87028659  1
  O  O25  1  0.97105761  0.54115700  0.13263654  1
  O  O26  1  0.89558057  0.03932146  0.13273146  1
  O  O27  1  0.03326699  0.03405163  0.87050739  1
