# generated using pymatgen
data_Li13Co15O28
_symmetry_space_group_name_H-M   'P 1'
_cell_length_a   8.25594700
_cell_length_b   8.89005316
_cell_length_c   7.76922014
_cell_angle_alpha   104.98161198
_cell_angle_beta   75.46298331
_cell_angle_gamma   76.06117387
_symmetry_Int_Tables_number   1
_chemical_formula_structural   Li13Co15O28
_chemical_formula_sum   'Li13 Co15 O28'
_cell_volume   503.89674349
_cell_formula_units_Z   1
loop_
 _symmetry_equiv_pos_site_id
 _symmetry_equiv_pos_as_xyz
  1  'x, y, z'
loop_
 _atom_site_type_symbol
 _atom_site_label
 _atom_site_symmetry_multiplicity
 _atom_site_fract_x
 _atom_site_fract_y
 _atom_site_fract_z
 _atom_site_occupancy
  Li  Li0  1  0.71101703  0.21520422  0.92844678  1
  Li  Li1  1  0.57157288  0.07266158  0.64467934  1
  Li  Li2  1  0.42953376  0.42774085  0.85429853  1
  Li  Li3  1  0.85363673  0.85735455  0.71646075  1
  Li  Li4  1  0.85355862  0.36022021  0.21770365  1
  Li  Li5  1  0.28753394  0.28645575  0.57000797  1
  Li  Li6  1  0.71246606  0.71354425  0.42999203  1
  Li  Li7  1  0.14636327  0.14264545  0.28353925  1
  Li  Li8  1  0.57046624  0.57225915  0.14570147  1
  Li  Li9  1  0.14644138  0.63977979  0.78229635  1
  Li  Li10  1  0.00000000  0.50000000  0.50000000  1
  Li  Li11  1  0.42842712  0.92733842  0.35532066  1
  Li  Li12  1  0.28898297  0.78479578  0.07155322  1
  Co  Co13  1  0.92845796  0.43389415  0.85904221  1
  Co  Co14  1  0.78604928  0.28720110  0.57159136  1
  Co  Co15  1  0.21564185  0.21347429  0.93390883  1
  Co  Co16  1  0.63959030  0.14686367  0.28772239  1
  Co  Co17  1  0.64324031  0.64032581  0.78807800  1
  Co  Co18  1  0.93182673  0.92327610  0.35320096  1
  Co  Co19  1  0.50000000  0.00000000  0.00000000  1
  Co  Co20  1  0.06817327  0.07672390  0.64679904  1
  Co  Co21  1  0.50000000  0.50000000  0.50000000  1
  Co  Co22  1  0.35675969  0.35967419  0.21192200  1
  Co  Co23  1  0.78435815  0.78652571  0.06609117  1
  Co  Co24  1  0.36040970  0.85313633  0.71227761  1
  Co  Co25  1  0.21395072  0.71279890  0.42840864  1
  Co  Co26  1  0.00000000  0.00000000  0.00000000  1
  Co  Co27  1  0.07154204  0.56610585  0.14095779  1
  O  O28  1  0.96994174  0.19894389  0.92978170  1
  O  O29  1  0.83341531  0.07483725  0.63228096  1
  O  O30  1  0.69464363  0.43976647  0.85688379  1
  O  O31  1  0.45827383  0.21092933  0.93162073  1
  O  O32  1  0.88556702  0.65121166  0.79619131  1
  O  O33  1  0.23696042  0.00228860  0.99507101  1
  O  O34  1  0.89000342  0.12915848  0.27205953  1
  O  O35  1  0.54372962  0.29707536  0.56039002  1
  O  O36  1  0.97639735  0.70514456  0.40401809  1
  O  O37  1  0.30744894  0.07476127  0.65349272  1
  O  O38  1  0.73389816  0.49536667  0.50930371  1
  O  O39  1  0.84253138  0.56872113  0.12425280  1
  O  O40  1  0.40584116  0.14957833  0.27893676  1
  O  O41  1  0.59505115  0.36416917  0.23458314  1
  O  O42  1  0.40494885  0.63583083  0.76541686  1
  O  O43  1  0.59415884  0.85042167  0.72106324  1
  O  O44  1  0.15746862  0.43127887  0.87574720  1
  O  O45  1  0.69255106  0.92523873  0.34650728  1
  O  O46  1  0.02360265  0.29485544  0.59598191  1
  O  O47  1  0.26610184  0.50463333  0.49069629  1
  O  O48  1  0.45627038  0.70292464  0.43960998  1
  O  O49  1  0.30535637  0.56023353  0.14311621  1
  O  O50  1  0.11443298  0.34878834  0.20380869  1
  O  O51  1  0.10999658  0.87084152  0.72794047  1
  O  O52  1  0.54172617  0.78907067  0.06837927  1
  O  O53  1  0.76303958  0.99771040  0.00492899  1
  O  O54  1  0.16658469  0.92516275  0.36771904  1
  O  O55  1  0.03005826  0.80105611  0.07021830  1
