# generated using pymatgen
data_PrGa3Pt
_symmetry_space_group_name_H-M   'P 1'
_cell_length_a   4.24628640
_cell_length_b   4.24628640
_cell_length_c   6.19804635
_cell_angle_alpha   69.96766595
_cell_angle_beta   69.96766595
_cell_angle_gamma   90.00000000
_symmetry_Int_Tables_number   1
_chemical_formula_structural   PrGa3Pt
_chemical_formula_sum   'Pr1 Ga3 Pt1'
_cell_volume   97.76749311
_cell_formula_units_Z   1
loop_
 _symmetry_equiv_pos_site_id
 _symmetry_equiv_pos_as_xyz
  1  'x, y, z'
loop_
 _atom_site_type_symbol
 _atom_site_label
 _atom_site_symmetry_multiplicity
 _atom_site_fract_x
 _atom_site_fract_y
 _atom_site_fract_z
 _atom_site_occupancy
  Pr  Pr0  1  -0.00000000  -0.00000000  -0.00000000  1
  Ga  Ga1  1  0.38464166  0.38464166  0.23071668  1
  Ga  Ga2  1  0.61535834  0.61535834  0.76928332  1
  Ga  Ga3  1  0.25000000  0.75000000  0.50000000  1
  Pt  Pt4  1  0.75000000  0.25000000  0.50000000  1
