# generated using pymatgen
data_Nb3Os2
_symmetry_space_group_name_H-M   'P 1'
_cell_length_a   5.09260947
_cell_length_b   9.94997282
_cell_length_c   9.94997282
_cell_angle_alpha   89.76551941
_cell_angle_beta   90.00000000
_cell_angle_gamma   90.00000000
_symmetry_Int_Tables_number   1
_chemical_formula_structural   Nb3Os2
_chemical_formula_sum   'Nb18 Os12'
_cell_volume   504.17409257
_cell_formula_units_Z   6
loop_
 _symmetry_equiv_pos_site_id
 _symmetry_equiv_pos_as_xyz
  1  'x, y, z'
loop_
 _atom_site_type_symbol
 _atom_site_label
 _atom_site_symmetry_multiplicity
 _atom_site_fract_x
 _atom_site_fract_y
 _atom_site_fract_z
 _atom_site_occupancy
  Nb  Nb0  1  0.50226700  0.10486840  0.89513160  1
  Nb  Nb1  1  0.50226700  0.89513160  0.10486840  1
  Nb  Nb2  1  0.99488295  0.39801411  0.39801411  1
  Nb  Nb3  1  0.99488295  0.60198589  0.60198589  1
  Nb  Nb4  1  0.50066377  0.37230529  0.96219255  1
  Nb  Nb5  1  0.50066377  0.62769471  0.03780745  1
  Nb  Nb6  1  0.00226274  0.12857753  0.46570099  1
  Nb  Nb7  1  0.00226274  0.87142247  0.53429901  1
  Nb  Nb8  1  0.50066377  0.96219255  0.37230529  1
  Nb  Nb9  1  0.50066377  0.03780745  0.62769471  1
  Nb  Nb10  1  0.00226274  0.46570099  0.12857753  1
  Nb  Nb11  1  0.00226274  0.53429901  0.87142247  1
  Nb  Nb12  1  0.75020393  0.18098230  0.18098230  1
  Nb  Nb13  1  0.75020393  0.81901770  0.81901770  1
  Nb  Nb14  1  0.75233913  0.67998273  0.32001727  1
  Nb  Nb15  1  0.75233913  0.32001727  0.67998273  1
  Nb  Nb16  1  0.25031138  0.81896783  0.81896783  1
  Nb  Nb17  1  0.25031138  0.18103217  0.18103217  1
  Os  Os18  1  0.47774626  0.50000000  0.50000000  1
  Os  Os19  1  0.00127829  -0.00000000  0.00000000  1
  Os  Os20  1  0.50039714  0.43516696  0.24452157  1
  Os  Os21  1  0.50039714  0.56483304  0.75547843  1
  Os  Os22  1  0.00185952  0.07114935  0.74217961  1
  Os  Os23  1  0.00185952  0.92885065  0.25782039  1
  Os  Os24  1  0.50039714  0.24452157  0.43516696  1
  Os  Os25  1  0.50039714  0.75547843  0.56483304  1
  Os  Os26  1  0.00185952  0.74217961  0.07114935  1
  Os  Os27  1  0.00185952  0.25782039  0.92885065  1
  Os  Os28  1  0.25011699  0.31912819  0.68087181  1
  Os  Os29  1  0.25011699  0.68087181  0.31912819  1
