# generated using pymatgen
data_Sc(AlFe)6
_symmetry_space_group_name_H-M   'P 1'
_cell_length_a   4.95438324
_cell_length_b   6.49650081
_cell_length_c   6.49650081
_cell_angle_alpha   99.20683095
_cell_angle_beta   112.41495464
_cell_angle_gamma   67.58504536
_symmetry_Int_Tables_number   1
_chemical_formula_structural   Sc(AlFe)6
_chemical_formula_sum   'Sc1 Al6 Fe6'
_cell_volume   178.66883508
_cell_formula_units_Z   1
loop_
 _symmetry_equiv_pos_site_id
 _symmetry_equiv_pos_as_xyz
  1  'x, y, z'
loop_
 _atom_site_type_symbol
 _atom_site_label
 _atom_site_symmetry_multiplicity
 _atom_site_fract_x
 _atom_site_fract_y
 _atom_site_fract_z
 _atom_site_occupancy
  Sc  Sc0  1  0.00000000  -0.00000000  0.00000000  1
  Al  Al1  1  0.65710852  0.34289148  0.65710852  1
  Al  Al2  1  0.34289148  0.65710852  0.34289148  1
  Al  Al3  1  -0.00000000  0.33224125  0.33224125  1
  Al  Al4  1  0.00000000  0.66775875  0.66775875  1
  Al  Al5  1  0.68228657  0.81771343  0.18228657  1
  Al  Al6  1  0.31771343  0.18228657  0.81771343  1
  Fe  Fe7  1  0.50000000  -0.00000000  0.50000000  1
  Fe  Fe8  1  0.00000000  -0.00000000  0.50000000  1
  Fe  Fe9  1  0.50000000  0.50000000  0.00000000  1
  Fe  Fe10  1  0.00000000  0.50000000  0.00000000  1
  Fe  Fe11  1  0.50000000  0.75906722  0.75906722  1
  Fe  Fe12  1  0.50000000  0.24093278  0.24093278  1
