# generated using pymatgen
data_Sb28(Mo3Ru)3
_symmetry_space_group_name_H-M   'P 1'
_cell_length_a   8.32853805
_cell_length_b   8.32853805
_cell_length_c   13.61691524
_cell_angle_alpha   89.85112172
_cell_angle_beta   90.14887828
_cell_angle_gamma   109.81656515
_symmetry_Int_Tables_number   1
_chemical_formula_structural   Sb28(Mo3Ru)3
_chemical_formula_sum   'Sb28 Mo9 Ru3'
_cell_volume   888.59416800
_cell_formula_units_Z   1
loop_
 _symmetry_equiv_pos_site_id
 _symmetry_equiv_pos_as_xyz
  1  'x, y, z'
loop_
 _atom_site_type_symbol
 _atom_site_label
 _atom_site_symmetry_multiplicity
 _atom_site_fract_x
 _atom_site_fract_y
 _atom_site_fract_z
 _atom_site_occupancy
  Sb  Sb0  1  0.17268137  0.49941509  0.50042579  1
  Sb  Sb1  1  0.67372097  0.00047033  0.99988640  1
  Sb  Sb2  1  -0.00018817  0.67505962  0.00012815  1
  Sb  Sb3  1  0.49936015  0.17511290  0.50022560  1
  Sb  Sb4  1  0.66224788  0.66313109  0.33752256  1
  Sb  Sb5  1  0.16205944  0.16265061  0.83822724  1
  Sb  Sb6  1  0.16214548  0.16353586  0.16195709  1
  Sb  Sb7  1  0.66193890  0.66226359  0.66264854  1
  Sb  Sb8  1  0.82488710  0.50063985  0.50022560  1
  Sb  Sb9  1  0.32494038  0.00018817  0.00012815  1
  Sb  Sb10  1  0.99952967  0.32627903  0.99988640  1
  Sb  Sb11  1  0.50058491  0.82731863  0.50042579  1
  Sb  Sb12  1  0.83646414  0.83785452  0.16195709  1
  Sb  Sb13  1  0.33773641  0.33806110  0.66264854  1
  Sb  Sb14  1  0.33686891  0.33775212  0.33752256  1
  Sb  Sb15  1  0.83734939  0.83794056  0.83822724  1
  Sb  Sb16  1  0.37330707  0.62669293  0.12474662  1
  Sb  Sb17  1  0.87641213  0.12358787  0.62442580  1
  Sb  Sb18  1  0.62598762  0.37401238  0.12796317  1
  Sb  Sb19  1  0.12499845  0.87500155  0.62688582  1
  Sb  Sb20  1  0.99811003  0.50129882  0.24974380  1
  Sb  Sb21  1  0.49895028  0.00059021  0.75101549  1
  Sb  Sb22  1  0.87414059  0.12585941  0.37558003  1
  Sb  Sb23  1  0.37311772  0.62688228  0.87450485  1
  Sb  Sb24  1  0.12522343  0.87477657  0.37239000  1
  Sb  Sb25  1  0.62709870  0.37290130  0.87384158  1
  Sb  Sb26  1  0.49870118  0.00188997  0.24974380  1
  Sb  Sb27  1  0.99940979  0.50104972  0.75101549  1
  Mo  Mo28  1  0.82938250  0.17061750  0.82888012  1
  Mo  Mo29  1  0.15938475  0.15795008  0.49945614  1
  Mo  Mo30  1  0.65749638  0.65775018  0.00037750  1
  Mo  Mo31  1  0.67293446  0.32706554  0.32819541  1
  Mo  Mo32  1  0.17305057  0.82694943  0.82749895  1
  Mo  Mo33  1  0.17217374  0.82782626  0.17201850  1
  Mo  Mo34  1  0.67172808  0.32827192  0.67020963  1
  Mo  Mo35  1  0.34224982  0.34250362  0.00037750  1
  Mo  Mo36  1  0.84204992  0.84061525  0.49945614  1
  Ru  Ru37  1  0.83060421  0.16939579  0.17025022  1
  Ru  Ru38  1  0.33028031  0.66971969  0.66843752  1
  Ru  Ru39  1  0.33088135  0.66911865  0.33094319  1
