# generated using pymatgen
data_SbAsRh
_symmetry_space_group_name_H-M   'P 1'
_cell_length_a   6.40241490
_cell_length_b   6.42306707
_cell_length_c   6.49661738
_cell_angle_alpha   114.84548179
_cell_angle_beta   90.00000000
_cell_angle_gamma   90.00000000
_symmetry_Int_Tables_number   1
_chemical_formula_structural   SbAsRh
_chemical_formula_sum   'Sb4 As4 Rh4'
_cell_volume   242.43398738
_cell_formula_units_Z   4
loop_
 _symmetry_equiv_pos_site_id
 _symmetry_equiv_pos_as_xyz
  1  'x, y, z'
loop_
 _atom_site_type_symbol
 _atom_site_label
 _atom_site_symmetry_multiplicity
 _atom_site_fract_x
 _atom_site_fract_y
 _atom_site_fract_z
 _atom_site_occupancy
  Sb  Sb0  1  0.12990235  0.84411725  0.13175993  1
  Sb  Sb1  1  0.62990235  0.15588275  0.36824007  1
  Sb  Sb2  1  0.87009765  0.15588275  0.86824007  1
  Sb  Sb3  1  0.37009765  0.84411725  0.63175993  1
  As  As4  1  0.86343326  0.65300050  0.32363284  1
  As  As5  1  0.36343326  0.34699950  0.17636716  1
  As  As6  1  0.13656674  0.34699950  0.67636716  1
  As  As7  1  0.63656674  0.65300050  0.82363284  1
  Rh  Rh8  1  0.50807494  0.71528833  0.20426375  1
  Rh  Rh9  1  0.00807494  0.28471167  0.29573625  1
  Rh  Rh10  1  0.49192506  0.28471167  0.79573625  1
  Rh  Rh11  1  0.99192506  0.71528833  0.70426375  1
