# generated using pymatgen
data_NdCdIn
_symmetry_space_group_name_H-M   'P 1'
_cell_length_a   4.94875936
_cell_length_b   4.94875936
_cell_length_c   7.76628193
_cell_angle_alpha   89.99302715
_cell_angle_beta   90.00697285
_cell_angle_gamma   119.99501788
_symmetry_Int_Tables_number   1
_chemical_formula_structural   NdCdIn
_chemical_formula_sum   'Nd2 Cd2 In2'
_cell_volume   164.72452076
_cell_formula_units_Z   2
loop_
 _symmetry_equiv_pos_site_id
 _symmetry_equiv_pos_as_xyz
  1  'x, y, z'
loop_
 _atom_site_type_symbol
 _atom_site_label
 _atom_site_symmetry_multiplicity
 _atom_site_fract_x
 _atom_site_fract_y
 _atom_site_fract_z
 _atom_site_occupancy
  Nd  Nd0  1  0.00001618  0.99998382  0.73859777  1
  Nd  Nd1  1  0.99998382  0.00001618  0.26140223  1
  Cd  Cd2  1  0.66670484  0.33329516  0.52569756  1
  Cd  Cd3  1  0.33329516  0.66670484  0.47430244  1
  In  In4  1  0.33331210  0.66668790  0.05218965  1
  In  In5  1  0.66668790  0.33331210  0.94781035  1
