# generated using pymatgen
data_Nd6Ge3Se14
_symmetry_space_group_name_H-M   'P 1'
_cell_length_a   6.09826271
_cell_length_b   10.70631515
_cell_length_c   10.70616086
_cell_angle_alpha   59.99945748
_cell_angle_beta   89.99992007
_cell_angle_gamma   89.99915789
_symmetry_Int_Tables_number   1
_chemical_formula_structural   Nd6Ge3Se14
_chemical_formula_sum   'Nd6 Ge3 Se14'
_cell_volume   605.35226861
_cell_formula_units_Z   1
loop_
 _symmetry_equiv_pos_site_id
 _symmetry_equiv_pos_as_xyz
  1  'x, y, z'
loop_
 _atom_site_type_symbol
 _atom_site_label
 _atom_site_symmetry_multiplicity
 _atom_site_fract_x
 _atom_site_fract_y
 _atom_site_fract_z
 _atom_site_occupancy
  Nd  Nd0  1  0.24671679  0.22712609  0.13021637  1
  Nd  Nd1  1  0.24670233  0.64266909  0.22711592  1
  Nd  Nd2  1  0.24670547  0.13022064  0.64266348  1
  Nd  Nd3  1  0.74870516  0.77241485  0.86969127  1
  Nd  Nd4  1  0.74868965  0.35787750  0.77241692  1
  Nd  Nd5  1  0.74870618  0.86969022  0.35789790  1
  Ge  Ge6  1  0.82832146  0.33332546  0.33333656  1
  Ge  Ge7  1  0.33078657  0.66666635  0.66666826  1
  Ge  Ge8  1  0.48311519  -0.00000090  0.00000140  1
  Se  Se9  1  0.44346179  0.33334585  0.33332893  1
  Se  Se10  1  0.94585198  0.66664950  0.66667267  1
  Se  Se11  1  0.99038925  0.09937322  0.41744093  1
  Se  Se12  1  0.99037899  0.48317937  0.09937329  1
  Se  Se13  1  0.99037188  0.41743952  0.48318633  1
  Se  Se14  1  0.49291481  0.90029384  0.58283086  1
  Se  Se15  1  0.49291869  0.51688254  0.90028717  1
  Se  Se16  1  0.49291846  0.58283937  0.51687701  1
  Se  Se17  1  0.72317323  0.16135142  0.09555249  1
  Se  Se18  1  0.72316782  0.74310368  0.16135818  1
  Se  Se19  1  0.72317783  0.09554378  0.74308928  1
  Se  Se20  1  0.23294041  0.83570028  0.90685321  1
  Se  Se21  1  0.23293998  0.25744536  0.83568806  1
  Se  Se22  1  0.23294606  0.90686296  0.25745351  1
