# generated using pymatgen
data_Rb4Cu8(GeS4)3
_symmetry_space_group_name_H-M   'P 1'
_cell_length_a   12.70121456
_cell_length_b   12.70121456
_cell_length_c   12.37146044
_cell_angle_alpha   60.85517671
_cell_angle_beta   119.14482329
_cell_angle_gamma   121.71035342
_symmetry_Int_Tables_number   1
_chemical_formula_structural   Rb4Cu8(GeS4)3
_chemical_formula_sum   'Rb8 Cu16 Ge6 S24'
_cell_volume   1409.37109327
_cell_formula_units_Z   2
loop_
 _symmetry_equiv_pos_site_id
 _symmetry_equiv_pos_as_xyz
  1  'x, y, z'
loop_
 _atom_site_type_symbol
 _atom_site_label
 _atom_site_symmetry_multiplicity
 _atom_site_fract_x
 _atom_site_fract_y
 _atom_site_fract_z
 _atom_site_occupancy
  Rb  Rb0  1  0.57058946  0.07058946  0.07058946  1
  Rb  Rb1  1  0.92941054  0.42941054  0.42941054  1
  Rb  Rb2  1  0.07058946  0.57058946  0.92941054  1
  Rb  Rb3  1  0.42941054  0.92941054  0.57058946  1
  Rb  Rb4  1  0.09638060  0.90361940  0.59638060  1
  Rb  Rb5  1  0.40361940  0.59638060  0.90361940  1
  Rb  Rb6  1  0.59638060  0.40361940  0.09638060  1
  Rb  Rb7  1  0.90361940  0.09638060  0.40361940  1
  Cu  Cu8  1  0.91048121  0.73113124  0.08887974  1
  Cu  Cu9  1  0.90952977  0.08887974  0.73113124  1
  Cu  Cu10  1  0.91112026  0.09047023  0.08951879  1
  Cu  Cu11  1  0.26886876  0.08951879  0.09047023  1
  Cu  Cu12  1  0.41048121  0.23113124  0.59047023  1
  Cu  Cu13  1  0.41112026  0.59047023  0.23113124  1
  Cu  Cu14  1  0.40952977  0.58887974  0.58951879  1
  Cu  Cu15  1  0.76886876  0.58951879  0.58887974  1
  Cu  Cu16  1  0.08618829  0.26804165  0.91255127  1
  Cu  Cu17  1  0.09440463  0.91255127  0.26804165  1
  Cu  Cu18  1  0.08744873  0.90559537  0.91381171  1
  Cu  Cu19  1  0.73195835  0.91381171  0.90559537  1
  Cu  Cu20  1  0.58618829  0.76804165  0.40559537  1
  Cu  Cu21  1  0.58744873  0.40559537  0.76804165  1
  Cu  Cu22  1  0.59440463  0.41255127  0.41381171  1
  Cu  Cu23  1  0.23195835  0.41381171  0.41255127  1
  Ge  Ge24  1  0.75087755  0.75087755  0.24912245  1
  Ge  Ge25  1  0.24912245  0.24912245  0.75087755  1
  Ge  Ge26  1  0.75000000  0.25000000  0.75000000  1
  Ge  Ge27  1  0.25000000  0.75000000  0.25000000  1
  Ge  Ge28  1  0.74912245  0.74912245  0.74912245  1
  Ge  Ge29  1  0.25087755  0.25087755  0.25087755  1
  S  S30  1  0.92568754  0.72035678  0.28195300  1
  S  S31  1  0.07662224  0.28195300  0.72035678  1
  S  S32  1  0.71804700  0.92337776  0.07431246  1
  S  S33  1  0.27964322  0.07431246  0.92337776  1
  S  S34  1  0.56880987  0.21579807  0.77949076  1
  S  S35  1  0.42647896  0.77949076  0.21579807  1
  S  S36  1  0.22050924  0.57352104  0.43119013  1
  S  S37  1  0.78420193  0.43119013  0.57352104  1
  S  S38  1  0.92647896  0.27949076  0.93119013  1
  S  S39  1  0.06880987  0.71579807  0.07352104  1
  S  S40  1  0.72050924  0.07352104  0.71579807  1
  S  S41  1  0.28420193  0.93119013  0.27949076  1
  S  S42  1  0.57662224  0.78195300  0.57431246  1
  S  S43  1  0.42568754  0.22035678  0.42337776  1
  S  S44  1  0.21804700  0.42337776  0.22035678  1
  S  S45  1  0.77964322  0.57431246  0.78195300  1
  S  S46  1  0.93133683  0.93014575  0.72031043  1
  S  S47  1  0.06985425  0.06866317  0.28088066  1
  S  S48  1  0.71911934  0.72031043  0.93014575  1
  S  S49  1  0.27968957  0.28088066  0.06866317  1
  S  S50  1  0.56985425  0.56866317  0.22031043  1
  S  S51  1  0.43133683  0.43014575  0.78088066  1
  S  S52  1  0.21911934  0.22031043  0.56866317  1
  S  S53  1  0.77968957  0.78088066  0.43014575  1
