# generated using pymatgen
data_NaMg3V3Cr3Si6B3H3O31
_symmetry_space_group_name_H-M   'P 1'
_cell_length_a   7.61734135
_cell_length_b   9.79093762
_cell_length_c   9.81504763
_cell_angle_alpha   113.34030022
_cell_angle_beta   105.13967945
_cell_angle_gamma   104.99257498
_symmetry_Int_Tables_number   1
_chemical_formula_structural   NaMg3V3Cr3Si6B3H3O31
_chemical_formula_sum   'Na1 Mg3 V3 Cr3 Si6 B3 H3 O31'
_cell_volume   592.14648506
_cell_formula_units_Z   1
loop_
 _symmetry_equiv_pos_site_id
 _symmetry_equiv_pos_as_xyz
  1  'x, y, z'
loop_
 _atom_site_type_symbol
 _atom_site_label
 _atom_site_symmetry_multiplicity
 _atom_site_fract_x
 _atom_site_fract_y
 _atom_site_fract_z
 _atom_site_occupancy
  Na  Na0  1  0.77057102  0.99987608  0.00002164  1
  Mg  Mg1  1  0.42319115  0.76967333  0.33793492  1
  Mg  Mg2  1  0.09174225  0.66494233  0.43481133  1
  Mg  Mg3  1  0.42660277  0.33656408  0.77167831  1
  V  V4  1  0.42319504  0.99727608  0.19157377  1
  V  V5  1  0.23909000  0.81280661  0.80749432  1
  V  V6  1  0.40823782  0.18223371  0.99969860  1
  Cr  Cr7  1  0.65465312  0.56377868  0.22758268  1
  Cr  Cr8  1  0.65299958  0.22721928  0.56362646  1
  Cr  Cr9  1  0.09327102  0.43923402  0.66441911  1
  Si  Si10  1  0.00049805  0.81369492  0.18777824  1
  Si  Si11  1  0.81506083  0.80815797  0.62262222  1
  Si  Si12  1  0.18655783  0.37729632  0.18434303  1
  Si  Si13  1  0.00155610  0.18821927  0.81408848  1
  Si  Si14  1  0.18734935  0.18548053  0.37647543  1
  Si  Si15  1  0.81527043  0.62328827  0.80709273  1
  B  B16  1  0.43228672  0.67012934  0.99932818  1
  B  B17  1  0.43743605  0.00128994  0.66968140  1
  B  B18  1  0.75851938  0.33109780  0.32905637  1
  H  H19  1  0.74291163  0.00257201  0.38649009  1
  H  H20  1  0.35681398  0.61182812  0.61471650  1
  H  H21  1  0.73928885  0.38142875  0.00347231  1
  O  O22  1  0.00454143  -0.00011448  0.27062410  1
  O  O23  1  0.73488203  0.72803949  0.72739259  1
  O  O24  1  0.00358398  0.26960335  0.99783610  1
  O  O25  1  0.61699058  0.00611996  0.38983333  1
  O  O26  1  0.22741736  0.60838936  0.61405458  1
  O  O27  1  0.61198378  0.38116658  0.00603437  1
  O  O28  1  0.84257846  0.72512762  0.99621889  1
  O  O29  1  0.84048851  0.99853115  0.72273934  1
  O  O30  1  0.11833311  0.27042667  0.26973579  1
  O  O31  1  0.24730003  0.01630343  0.00464418  1
  O  O32  1  0.22285291  0.82881160  0.19826714  1
  O  O33  1  0.02895808  0.80109177  0.63197743  1
  O  O34  1  0.39705794  0.37119692  0.16824122  1
  O  O35  1  0.22526638  0.19754690  0.83099196  1
  O  O36  1  0.39977946  0.17406651  0.37954093  1
  O  O37  1  0.02862247  0.62696874  0.79689935  1
  O  O38  1  0.92090254  0.71658191  0.27437767  1
  O  O39  1  0.65393092  0.71758559  0.43684680  1
  O  O40  1  0.20757180  0.55812558  0.27854795  1
  O  O41  1  0.92967664  0.27902015  0.71656808  1
  O  O42  1  0.20289448  0.28199444  0.55926150  1
  O  O43  1  0.65344617  0.43775499  0.71811089  1
  O  O44  1  0.50849552  0.67707343  0.14531181  1
  O  O45  1  0.35911692  0.85629668  0.53418302  1
  O  O46  1  0.82086770  0.47407340  0.32976602  1
  O  O47  1  0.51020164  0.14925349  0.67787633  1
  O  O48  1  0.82568337  0.32543050  0.47175707  1
  O  O49  1  0.34735035  0.52636687  0.85463916  1
  O  O50  1  0.43925989  0.81721193  0.99873007  1
  O  O51  1  0.44542704  0.00727369  0.82160334  1
  O  O52  1  0.62468552  0.18459435  0.18340287  1
