# generated using pymatgen
data_Na3Mo4P5O24
_symmetry_space_group_name_H-M   'P 1'
_cell_length_a   8.64756481
_cell_length_b   9.57358919
_cell_length_c   14.18902877
_cell_angle_alpha   93.18197284
_cell_angle_beta   72.25825017
_cell_angle_gamma   116.84872930
_symmetry_Int_Tables_number   1
_chemical_formula_structural   Na3Mo4P5O24
_chemical_formula_sum   'Na6 Mo8 P10 O48'
_cell_volume   993.53826293
_cell_formula_units_Z   2
loop_
 _symmetry_equiv_pos_site_id
 _symmetry_equiv_pos_as_xyz
  1  'x, y, z'
loop_
 _atom_site_type_symbol
 _atom_site_label
 _atom_site_symmetry_multiplicity
 _atom_site_fract_x
 _atom_site_fract_y
 _atom_site_fract_z
 _atom_site_occupancy
  Na  Na0  1  0.30238899  0.02319225  0.73080935  1
  Na  Na1  1  0.01581706  0.47766072  0.76703453  1
  Na  Na2  1  0.69480913  0.97766072  0.26703453  1
  Na  Na3  1  0.98999391  0.52319225  0.23080935  1
  Na  Na4  1  0.54156903  0.46328397  0.92698130  1
  Na  Na5  1  0.99473365  0.96328397  0.42698130  1
  Mo  Mo6  1  0.46821235  0.49086723  0.67936315  1
  Mo  Mo7  1  0.66102499  0.00935342  0.81912800  1
  Mo  Mo8  1  0.52920043  0.50935342  0.31912800  1
  Mo  Mo9  1  0.34329173  0.99086723  0.17936315  1
  Mo  Mo10  1  0.81061187  0.22198092  0.48393826  1
  Mo  Mo11  1  0.07200444  0.27997504  0.01813584  1
  Mo  Mo12  1  0.18983476  0.77997504  0.51813584  1
  Mo  Mo13  1  0.92743079  0.72198092  0.98393826  1
  P  P14  1  0.85162889  0.74948274  0.75001780  1
  P  P15  1  0.14783605  0.24948274  0.25001780  1
  P  P16  1  0.19512143  0.44247314  0.54069023  1
  P  P17  1  0.29466990  0.05722807  0.95836725  1
  P  P18  1  0.80419093  0.55722807  0.45836725  1
  P  P19  1  0.70666148  0.94247314  0.04069023  1
  P  P20  1  0.55830843  0.87377286  0.60426564  1
  P  P21  1  0.28803140  0.62720673  0.89533897  1
  P  P22  1  0.44383637  0.12720673  0.39533897  1
  P  P23  1  0.71119878  0.37377286  0.10426564  1
  O  O24  1  0.24466333  0.40232837  0.62796607  1
  O  O25  1  0.47277705  0.10013895  0.87186854  1
  O  O26  1  0.75549337  0.60013895  0.37186854  1
  O  O27  1  0.52969898  0.90232837  0.12796607  1
  O  O28  1  0.05104282  0.28951091  0.51521336  1
  O  O29  1  0.28153141  0.21295288  0.98250697  1
  O  O30  1  0.94891451  0.71295288  0.48250697  1
  O  O31  1  0.72325473  0.78951091  0.01521336  1
  O  O32  1  0.68885255  0.60624992  0.73018502  1
  O  O33  1  0.81165414  0.89076020  0.77315680  1
  O  O34  1  0.30594927  0.39076020  0.27315680  1
  O  O35  1  0.18721235  0.10624992  0.23018502  1
  O  O36  1  0.60984557  0.12820937  0.41672006  1
  O  O37  1  0.89750281  0.37229842  0.08369542  1
  O  O38  1  0.39110018  0.87229842  0.58369542  1
  O  O39  1  0.10164374  0.62820937  0.91672006  1
  O  O40  1  0.55180693  0.71258489  0.60450908  1
  O  O41  1  0.44271623  0.78823611  0.89483036  1
  O  O42  1  0.45068953  0.28823611  0.39483036  1
  O  O43  1  0.55626888  0.21258489  0.10450908  1
  O  O44  1  0.63442426  0.47376293  0.54853873  1
  O  O45  1  0.70815320  0.02604258  0.95131961  1
  O  O46  1  0.36656977  0.52604258  0.45131961  1
  O  O47  1  0.29079994  0.97376293  0.04853873  1
  O  O48  1  0.40287726  0.30942133  0.73591294  1
  O  O49  1  0.82753834  0.19389712  0.76589635  1
  O  O50  1  0.60046243  0.69389712  0.26589635  1
  O  O51  1  0.17063112  0.80942133  0.23591294  1
  O  O52  1  0.96799650  0.18573695  0.33956205  1
  O  O53  1  0.11327024  0.30669764  0.16230162  1
  O  O54  1  0.03112578  0.80669764  0.66230162  1
  O  O55  1  0.87817840  0.68573695  0.83956205  1
  O  O56  1  0.73898083  0.98591898  0.52288556  1
  O  O57  1  0.28003863  0.51273313  0.97350429  1
  O  O58  1  0.25919020  0.01273313  0.47350429  1
  O  O59  1  0.72405259  0.48591898  0.02288556  1
  O  O60  1  0.89185934  0.44461581  0.42053017  1
  O  O61  1  0.86776523  0.05609673  0.07955923  1
  O  O62  1  0.10877227  0.55609673  0.57955923  1
  O  O63  1  0.13222630  0.94461581  0.92053017  1
  O  O64  1  0.31243765  0.56142824  0.79173907  1
  O  O65  1  0.54501490  0.93946405  0.70738741  1
  O  O66  1  0.68706174  0.43946405  0.20738741  1
  O  O67  1  0.45725153  0.06142824  0.29173907  1
  O  O68  1  0.68753043  0.23852699  0.59909837  1
  O  O69  1  0.04755176  0.26001040  0.90274261  1
  O  O70  1  0.30971603  0.76001040  0.40274261  1
  O  O71  1  0.95189819  0.73852699  0.09909837  1
