# generated using pymatgen
data_MnGa2(CuSe2)3
_symmetry_space_group_name_H-M   'P 1'
_cell_length_a   6.89191369
_cell_length_b   6.89191369
_cell_length_c   12.66092832
_cell_angle_alpha   79.40592691
_cell_angle_beta   100.59407309
_cell_angle_gamma   71.06408290
_symmetry_Int_Tables_number   1
_chemical_formula_structural   MnGa2(CuSe2)3
_chemical_formula_sum   'Mn2 Ga4 Cu6 Se12'
_cell_volume   539.61591078
_cell_formula_units_Z   2
loop_
 _symmetry_equiv_pos_site_id
 _symmetry_equiv_pos_as_xyz
  1  'x, y, z'
loop_
 _atom_site_type_symbol
 _atom_site_label
 _atom_site_symmetry_multiplicity
 _atom_site_fract_x
 _atom_site_fract_y
 _atom_site_fract_z
 _atom_site_occupancy
  Mn  Mn0  1  0.41670000  0.08336600  0.83333300  1
  Mn  Mn1  1  0.16670000  0.83336600  0.33333300  1
  Ga  Ga2  1  0.08566878  0.41419910  0.16734809  1
  Ga  Ga3  1  0.74753210  0.75233578  0.49931891  1
  Ga  Ga4  1  0.83154619  0.16832169  0.66734809  1
  Ga  Ga5  1  0.50165469  0.49821319  0.99931891  1
  Cu  Cu6  1  0.25197343  0.24915776  0.49999414  1
  Cu  Cu7  1  0.91546201  0.58212801  0.83333300  1
  Cu  Cu8  1  0.58249076  0.91864043  0.16667286  1
  Cu  Cu9  1  0.33531229  0.66581890  0.66667286  1
  Cu  Cu10  1  0.99915190  0.00197929  -0.00000586  1
  Cu  Cu11  1  0.66546201  0.33212801  0.33333300  1
  Se  Se12  1  0.12094159  0.62969464  0.99795608  1
  Se  Se13  1  0.78716349  0.96216333  0.33166749  1
  Se  Se14  1  0.45412949  0.29608038  0.66412969  1
  Se  Se15  1  0.62941338  0.12079649  0.00253731  1
  Se  Se16  1  0.29549633  0.45383049  0.33499951  1
  Se  Se17  1  0.96302864  0.78760759  0.66870992  1
  Se  Se18  1  0.03883000  0.21049682  0.83499951  1
  Se  Se19  1  0.70631851  0.54431772  0.16870992  1
  Se  Se20  1  0.37333280  0.87687707  0.50253731  1
  Se  Se21  1  0.87765172  0.37298451  0.49795608  1
  Se  Se22  1  0.54382982  0.70549700  0.83166749  1
  Se  Se23  1  0.21021007  0.03999980  0.16412969  1
