# generated using pymatgen
data_NaFe2Mo2H3O10
_symmetry_space_group_name_H-M   'P 1'
_cell_length_a   5.85470708
_cell_length_b   5.85470708
_cell_length_c   7.76674536
_cell_angle_alpha   68.06418913
_cell_angle_beta   68.06418913
_cell_angle_gamma   68.92469756
_symmetry_Int_Tables_number   1
_chemical_formula_structural   NaFe2Mo2H3O10
_chemical_formula_sum   'Na1 Fe2 Mo2 H3 O10'
_cell_volume   221.45581427
_cell_formula_units_Z   1
loop_
 _symmetry_equiv_pos_site_id
 _symmetry_equiv_pos_as_xyz
  1  'x, y, z'
loop_
 _atom_site_type_symbol
 _atom_site_label
 _atom_site_symmetry_multiplicity
 _atom_site_fract_x
 _atom_site_fract_y
 _atom_site_fract_z
 _atom_site_occupancy
  Na  Na0  1  0.50044453  0.50044453  0.50035679  1
  Fe  Fe1  1  0.99065054  0.50175236  0.99659507  1
  Fe  Fe2  1  0.50175236  0.99065054  0.99659507  1
  Mo  Mo3  1  0.91743813  0.91743813  0.28533004  1
  Mo  Mo4  1  0.08158667  0.08158667  0.71444429  1
  H  H5  1  0.67670559  0.67670559  0.78278528  1
  H  H6  1  0.31360776  0.31360776  0.22551810  1
  H  H7  1  0.47477002  0.47477002  0.01587052  1
  O  O8  1  0.17109037  0.17109037  0.87971214  1
  O  O9  1  0.83107897  0.83107897  0.11686770  1
  O  O10  1  0.64323627  0.64323627  0.92301105  1
  O  O11  1  0.34978251  0.34978251  0.08374696  1
  O  O12  1  0.23725771  0.23725771  0.47956630  1
  O  O13  1  0.75977328  0.75977328  0.51804791  1
  O  O14  1  0.25674617  0.81324104  0.25674358  1
  O  O15  1  0.81324104  0.25674617  0.25674358  1
  O  O16  1  0.74200717  0.18583090  0.74503281  1
  O  O17  1  0.18583090  0.74200717  0.74503281  1
