# generated using pymatgen
data_Li7(SbS)2
_symmetry_space_group_name_H-M   'P 1'
_cell_length_a   13.19094982
_cell_length_b   7.51687909
_cell_length_c   8.69999104
_cell_angle_alpha   90.00000000
_cell_angle_beta   90.00000000
_cell_angle_gamma   90.00000000
_symmetry_Int_Tables_number   1
_chemical_formula_structural   Li7(SbS)2
_chemical_formula_sum   'Li28 Sb8 S8'
_cell_volume   862.64565302
_cell_formula_units_Z   4
loop_
 _symmetry_equiv_pos_site_id
 _symmetry_equiv_pos_as_xyz
  1  'x, y, z'
loop_
 _atom_site_type_symbol
 _atom_site_label
 _atom_site_symmetry_multiplicity
 _atom_site_fract_x
 _atom_site_fract_y
 _atom_site_fract_z
 _atom_site_occupancy
  Li  Li0  1  0.04379755  0.66928617  0.49513253  1
  Li  Li1  1  0.04312008  0.67062625  0.00727896  1
  Li  Li2  1  0.08490847  0.25812811  0.75143149  1
  Li  Li3  1  0.11317384  0.31129337  0.25135545  1
  Li  Li4  1  0.18527468  0.55103387  0.75154833  1
  Li  Li5  1  0.20811063  0.08462718  0.53108827  1
  Li  Li6  1  0.20619969  0.08307336  0.97374387  1
  Li  Li7  1  0.29380031  0.58307336  0.47374387  1
  Li  Li8  1  0.29188937  0.58462718  0.03108827  1
  Li  Li9  1  0.31472532  0.05103387  0.25154833  1
  Li  Li10  1  0.38682616  0.81129337  0.75135545  1
  Li  Li11  1  0.41509153  0.75812811  0.25143149  1
  Li  Li12  1  0.45687992  0.17062625  0.50727896  1
  Li  Li13  1  0.45620245  0.16928617  0.99513253  1
  Li  Li14  1  0.54379755  0.83071383  0.49513253  1
  Li  Li15  1  0.54312008  0.82937375  0.00727896  1
  Li  Li16  1  0.58490847  0.24187189  0.75143149  1
  Li  Li17  1  0.61317384  0.18870663  0.25135545  1
  Li  Li18  1  0.68527468  0.94896613  0.75154833  1
  Li  Li19  1  0.70811063  0.41537282  0.53108827  1
  Li  Li20  1  0.70619969  0.41692664  0.97374387  1
  Li  Li21  1  0.79380031  0.91692664  0.47374387  1
  Li  Li22  1  0.79188937  0.91537282  0.03108827  1
  Li  Li23  1  0.81472532  0.44896613  0.25154833  1
  Li  Li24  1  0.88682616  0.68870663  0.75135545  1
  Li  Li25  1  0.91509153  0.74187189  0.25143149  1
  Li  Li26  1  0.95687992  0.32937375  0.50727896  1
  Li  Li27  1  0.95620245  0.33071383  0.99513253  1
  Sb  Sb28  1  0.09937166  0.92670852  0.25274667  1
  Sb  Sb29  1  0.08644843  0.89563131  0.75072796  1
  Sb  Sb30  1  0.41355157  0.39563131  0.25072796  1
  Sb  Sb31  1  0.40062834  0.42670852  0.75274667  1
  Sb  Sb32  1  0.59937166  0.57329148  0.25274667  1
  Sb  Sb33  1  0.58644843  0.60436869  0.75072796  1
  Sb  Sb34  1  0.91355157  0.10436869  0.25072796  1
  Sb  Sb35  1  0.90062834  0.07329148  0.75274667  1
  S  S36  1  0.13971157  0.39871651  0.98511451  1
  S  S37  1  0.14043420  0.39825102  0.51783395  1
  S  S38  1  0.35956580  0.89825102  0.01783395  1
  S  S39  1  0.36028843  0.89871651  0.48511451  1
  S  S40  1  0.63971157  0.10128349  0.98511451  1
  S  S41  1  0.64043420  0.10174898  0.51783395  1
  S  S42  1  0.85956580  0.60174898  0.01783395  1
  S  S43  1  0.86028843  0.60128349  0.48511451  1
