# generated using pymatgen
data_NaNd9(Si3O13)2
_symmetry_space_group_name_H-M   'P 1'
_cell_length_a   7.10637223
_cell_length_b   9.65238488
_cell_length_c   9.65234700
_cell_angle_alpha   59.99963569
_cell_angle_beta   90.00018490
_cell_angle_gamma   89.99997655
_symmetry_Int_Tables_number   1
_chemical_formula_structural   NaNd9(Si3O13)2
_chemical_formula_sum   'Na1 Nd9 Si6 O26'
_cell_volume   573.38264877
_cell_formula_units_Z   1
loop_
 _symmetry_equiv_pos_site_id
 _symmetry_equiv_pos_as_xyz
  1  'x, y, z'
loop_
 _atom_site_type_symbol
 _atom_site_label
 _atom_site_symmetry_multiplicity
 _atom_site_fract_x
 _atom_site_fract_y
 _atom_site_fract_z
 _atom_site_occupancy
  Na  Na0  1  0.49484337  0.33336188  0.33331889  1
  Nd  Nd1  1  0.99918169  0.66666848  0.66666443  1
  Nd  Nd2  1  0.49949612  0.66666715  0.66666585  1
  Nd  Nd3  1  0.99793253  0.33332101  0.33334021  1
  Nd  Nd4  1  0.74781224  0.24017212  0.76645036  1
  Nd  Nd5  1  0.74780891  0.99337743  0.24017867  1
  Nd  Nd6  1  0.74781191  0.76645143  0.99337764  1
  Nd  Nd7  1  0.25145329  0.75520756  0.23367628  1
  Nd  Nd8  1  0.25145820  0.01111380  0.75521054  1
  Nd  Nd9  1  0.25145755  0.23367964  0.01111391  1
  Si  Si10  1  0.75022004  0.03004890  0.59830176  1
  Si  Si11  1  0.75022135  0.37164907  0.03005045  1
  Si  Si12  1  0.75022175  0.59829856  0.37164819  1
  Si  Si13  1  0.24708236  0.97040359  0.39918381  1
  Si  Si14  1  0.24708377  0.63041104  0.97040527  1
  Si  Si15  1  0.24708370  0.39918448  0.63041186  1
  O  O16  1  0.57163234  0.07815710  0.67429487  1
  O  O17  1  0.57163066  0.24754670  0.07816615  1
  O  O18  1  0.57163085  0.67428834  0.24754695  1
  O  O19  1  0.06339305  0.89848387  0.34923696  1
  O  O20  1  0.06339447  0.75227718  0.89848088  1
  O  O21  1  0.06339406  0.34924111  0.75227700  1
  O  O22  1  0.43465507  0.90490151  0.34755979  1
  O  O23  1  0.43465784  0.74753827  0.90489393  1
  O  O24  1  0.43465856  0.34756557  0.74753836  1
  O  O25  1  0.93602168  0.09082235  0.65703072  1
  O  O26  1  0.93602400  0.25214444  0.09083230  1
  O  O27  1  0.93602417  0.65702298  0.25214496  1
  O  O28  1  0.74927399  0.83380635  0.67490298  1
  O  O29  1  0.74927326  0.49127878  0.83380401  1
  O  O30  1  0.74927428  0.67491049  0.49128042  1
  O  O31  1  0.23985734  0.16272878  0.31560237  1
  O  O32  1  0.23986187  0.52167540  0.16273206  1
  O  O33  1  0.23985976  0.31559477  0.52167565  1
  O  O34  1  0.75641658  0.99999937  0.00000387  1
  O  O35  1  0.25112826  0.00000183  -0.00000037  1
  O  O36  1  0.75916600  0.12161383  0.40371072  1
  O  O37  1  0.75916160  0.47468076  0.12160658  1
  O  O38  1  0.75916121  0.40370875  0.47467784  1
  O  O39  1  0.24975946  0.87243383  0.59742414  1
  O  O40  1  0.24975971  0.53013717  0.87244027  1
  O  O41  1  0.24976113  0.59742431  0.53013848  1
