# generated using pymatgen
data_Na2CaMg5Si8(O11F)2
_symmetry_space_group_name_H-M   'P 1'
_cell_length_a   5.32982928
_cell_length_b   9.97529632
_cell_length_c   10.39170036
_cell_angle_alpha   61.28011172
_cell_angle_beta   83.45295037
_cell_angle_gamma   76.22972919
_symmetry_Int_Tables_number   1
_chemical_formula_structural   Na2CaMg5Si8(O11F)2
_chemical_formula_sum   'Na2 Ca1 Mg5 Si8 O22 F2'
_cell_volume   470.59754067
_cell_formula_units_Z   1
loop_
 _symmetry_equiv_pos_site_id
 _symmetry_equiv_pos_as_xyz
  1  'x, y, z'
loop_
 _atom_site_type_symbol
 _atom_site_label
 _atom_site_symmetry_multiplicity
 _atom_site_fract_x
 _atom_site_fract_y
 _atom_site_fract_z
 _atom_site_occupancy
  Na  Na0  1  0.91618814  0.52052215  0.02351651  1
  Na  Na1  1  0.50003098  0.27438888  0.44986563  1
  Ca  Ca2  1  0.49984960  0.72321520  0.55257364  1
  Mg  Mg3  1  0.49933646  0.91267481  0.17629330  1
  Mg  Mg4  1  0.49953635  0.09128653  0.81855843  1
  Mg  Mg5  1  0.00011017  0.82243810  0.35585791  1
  Mg  Mg6  1  0.00039416  0.18218307  0.63545292  1
  Mg  Mg7  1  0.99996336  0.00116544  0.99894840  1
  Si  Si8  1  0.29293668  0.63728999  0.16866066  1
  Si  Si9  1  0.70635205  0.19401089  0.16879085  1
  Si  Si10  1  0.70766307  0.36197594  0.83229739  1
  Si  Si11  1  0.29178510  0.80608195  0.83210392  1
  Si  Si12  1  0.79808711  0.54217896  0.34232322  1
  Si  Si13  1  0.20160148  0.11694020  0.34116390  1
  Si  Si14  1  0.19961331  0.45559148  0.65990071  1
  Si  Si15  1  0.80008522  0.88548305  0.65912902  1
  O  O16  1  0.07846605  0.52874315  0.25249142  1
  O  O17  1  0.91933806  0.21888882  0.25335824  1
  O  O18  1  0.91290774  0.47684216  0.74225037  1
  O  O19  1  0.08554667  0.78065189  0.74323858  1
  O  O20  1  0.29506979  0.65943084  0.00015022  1
  O  O21  1  0.70528873  0.34089085  0.00012186  1
  O  O22  1  0.72286652  0.71290371  0.33956868  1
  O  O23  1  0.27612513  0.94782880  0.33961688  1
  O  O24  1  0.27089468  0.28616639  0.66601897  1
  O  O25  1  0.72816483  0.04800897  0.66621679  1
  O  O26  1  0.58564905  0.54207604  0.23227635  1
  O  O27  1  0.41800585  0.22333138  0.23558615  1
  O  O28  1  0.42121661  0.46379609  0.76021774  1
  O  O29  1  0.58140070  0.77423325  0.76299931  1
  O  O30  1  0.79693392  0.39150251  0.49643555  1
  O  O31  1  0.20155694  0.11156690  0.49655751  1
  O  O32  1  0.20302004  0.61283485  0.50692734  1
  O  O33  1  0.79594299  0.87969653  0.50733209  1
  O  O34  1  0.21649729  0.80375657  0.17027148  1
  O  O35  1  0.78394197  0.02598592  0.16968797  1
  O  O36  1  0.78242316  0.19549538  0.83218510  1
  O  O37  1  0.21739765  0.97260224  0.83173265  1
  F  F38  1  0.71128012  0.89724701  0.00079064  1
  F  F39  1  0.29053227  0.10009312  0.00053168  1
