# generated using pymatgen
data_Na2Nd4NCl9O
_symmetry_space_group_name_H-M   'P 1'
_cell_length_a   8.18088706
_cell_length_b   9.44577607
_cell_length_c   11.38947527
_cell_angle_alpha   90.00000000
_cell_angle_beta   90.00000000
_cell_angle_gamma   107.04450173
_symmetry_Int_Tables_number   1
_chemical_formula_structural   Na2Nd4NCl9O
_chemical_formula_sum   'Na4 Nd8 N2 Cl18 O2'
_cell_volume   841.46257027
_cell_formula_units_Z   2
loop_
 _symmetry_equiv_pos_site_id
 _symmetry_equiv_pos_as_xyz
  1  'x, y, z'
loop_
 _atom_site_type_symbol
 _atom_site_label
 _atom_site_symmetry_multiplicity
 _atom_site_fract_x
 _atom_site_fract_y
 _atom_site_fract_z
 _atom_site_occupancy
  Na  Na0  1  0.77082503  0.57036752  0.49017698  1
  Na  Na1  1  0.22917497  0.42963248  0.99017698  1
  Na  Na2  1  0.22817466  0.42912992  0.50832168  1
  Na  Na3  1  0.77182534  0.57087008  0.00832168  1
  Nd  Nd4  1  0.38726403  0.78115998  0.74803707  1
  Nd  Nd5  1  0.61273597  0.21884002  0.24803707  1
  Nd  Nd6  1  0.71571810  0.04942324  0.54931308  1
  Nd  Nd7  1  0.28428190  0.95057676  0.04931308  1
  Nd  Nd8  1  0.27864735  0.94912323  0.45963263  1
  Nd  Nd9  1  0.72135265  0.05087677  0.95963263  1
  Nd  Nd10  1  0.40390989  0.17079018  0.74778669  1
  Nd  Nd11  1  0.59609011  0.82920982  0.24778669  1
  N  N12  1  0.43870528  0.98527831  0.62589609  1
  N  N13  1  0.56129472  0.01472169  0.12589609  1
  Cl  Cl14  1  0.76749634  0.25660823  0.75026095  1
  Cl  Cl15  1  0.23250366  0.74339177  0.25026095  1
  Cl  Cl16  1  0.49353175  0.69805965  0.49533568  1
  Cl  Cl17  1  0.50646825  0.30194035  0.99533568  1
  Cl  Cl18  1  0.50649109  0.30254832  0.50135937  1
  Cl  Cl19  1  0.49350891  0.69745168  0.00135937  1
  Cl  Cl20  1  0.36225145  0.46785245  0.74761855  1
  Cl  Cl21  1  0.63774855  0.53214755  0.24761855  1
  Cl  Cl22  1  0.11157717  0.12135780  0.90315057  1
  Cl  Cl23  1  0.88842283  0.87864220  0.40315057  1
  Cl  Cl24  1  0.89166555  0.87584807  0.09688043  1
  Cl  Cl25  1  0.10833445  0.12415193  0.59688043  1
  Cl  Cl26  1  0.09595763  0.68494331  0.58908785  1
  Cl  Cl27  1  0.90404237  0.31505669  0.08908785  1
  Cl  Cl28  1  0.90028143  0.31069325  0.40951889  1
  Cl  Cl29  1  0.09971857  0.68930675  0.90951889  1
  Cl  Cl30  1  0.74742362  0.86115843  0.75040397  1
  Cl  Cl31  1  0.25257638  0.13884157  0.25040397  1
  O  O32  1  0.55983839  0.01454582  0.37721954  1
  O  O33  1  0.44016161  0.98545418  0.87721954  1
