# generated using pymatgen
data_LiSc(BH4)4
_symmetry_space_group_name_H-M   'P 1'
_cell_length_a   6.24435466
_cell_length_b   6.24435466
_cell_length_c   12.19509444
_cell_angle_alpha   90.00000000
_cell_angle_beta   90.00000000
_cell_angle_gamma   93.67184818
_symmetry_Int_Tables_number   1
_chemical_formula_structural   LiSc(BH4)4
_chemical_formula_sum   'Li2 Sc2 B8 H32'
_cell_volume   474.53457077
_cell_formula_units_Z   2
loop_
 _symmetry_equiv_pos_site_id
 _symmetry_equiv_pos_as_xyz
  1  'x, y, z'
loop_
 _atom_site_type_symbol
 _atom_site_label
 _atom_site_symmetry_multiplicity
 _atom_site_fract_x
 _atom_site_fract_y
 _atom_site_fract_z
 _atom_site_occupancy
  Li  Li0  1  -0.00000000  0.00000000  0.60138156  1
  Li  Li1  1  -0.00000000  0.00000000  0.10138156  1
  Sc  Sc2  1  0.50000000  0.50000000  0.76198451  1
  Sc  Sc3  1  0.50000000  0.50000000  0.26198451  1
  B  B4  1  0.71586081  0.74832035  0.14145066  1
  B  B5  1  0.28413919  0.25167965  0.14145066  1
  B  B6  1  0.68853795  0.26868729  0.36025399  1
  B  B7  1  0.31146205  0.73131271  0.36025399  1
  B  B8  1  0.73131271  0.31146205  0.86025399  1
  B  B9  1  0.26868729  0.68853795  0.86025399  1
  B  B10  1  0.25167965  0.28413919  0.64145066  1
  B  B11  1  0.74832035  0.71586081  0.64145066  1
  H  H12  1  0.71891179  0.77975385  0.24183078  1
  H  H13  1  0.28108821  0.22024615  0.24183078  1
  H  H14  1  0.67339983  0.21743573  0.26207575  1
  H  H15  1  0.32660017  0.78256427  0.26207575  1
  H  H16  1  0.78256427  0.32660017  0.76207575  1
  H  H17  1  0.21743573  0.67339983  0.76207575  1
  H  H18  1  0.22024615  0.28108821  0.74183078  1
  H  H19  1  0.77975385  0.71891179  0.74183078  1
  H  H20  1  0.85705939  0.63201366  0.11504192  1
  H  H21  1  0.14294061  0.36798634  0.11504192  1
  H  H22  1  0.77054246  0.45617616  0.35986174  1
  H  H23  1  0.22945754  0.54382384  0.35986174  1
  H  H24  1  0.54382384  0.22945754  0.85986174  1
  H  H25  1  0.45617616  0.77054246  0.85986174  1
  H  H26  1  0.36798634  0.14294061  0.61504192  1
  H  H27  1  0.63201366  0.85705939  0.61504192  1
  H  H28  1  0.71809344  0.92097013  0.09443653  1
  H  H29  1  0.28190656  0.07902987  0.09443653  1
  H  H30  1  0.78294951  0.14285310  0.41404608  1
  H  H31  1  0.21705049  0.85714690  0.41404708  1
  H  H32  1  0.85714690  0.21705049  0.91404608  1
  H  H33  1  0.14285310  0.78294951  0.91404608  1
  H  H34  1  0.07902987  0.28190656  0.59443653  1
  H  H35  1  0.92097013  0.71809344  0.59443653  1
  H  H36  1  0.53890274  0.66840766  0.11339048  1
  H  H37  1  0.46109726  0.33159234  0.11339048  1
  H  H38  1  0.50190465  0.28345666  0.39272802  1
  H  H39  1  0.49809535  0.71654334  0.39272802  1
  H  H40  1  0.71654334  0.49809535  0.89272802  1
  H  H41  1  0.28345666  0.50190465  0.89272802  1
  H  H42  1  0.33159234  0.46109726  0.61339048  1
  H  H43  1  0.66840766  0.53890274  0.61339048  1
