# generated using pymatgen
data_Li8FeS6
_symmetry_space_group_name_H-M   'P 1'
_cell_length_a   6.81195164
_cell_length_b   6.81088820
_cell_length_c   13.46200209
_cell_angle_alpha   90.05571398
_cell_angle_beta   89.95866078
_cell_angle_gamma   120.02772314
_symmetry_Int_Tables_number   1
_chemical_formula_structural   Li8FeS6
_chemical_formula_sum   'Li16 Fe2 S12'
_cell_volume   540.74682777
_cell_formula_units_Z   2
loop_
 _symmetry_equiv_pos_site_id
 _symmetry_equiv_pos_as_xyz
  1  'x, y, z'
loop_
 _atom_site_type_symbol
 _atom_site_label
 _atom_site_symmetry_multiplicity
 _atom_site_fract_x
 _atom_site_fract_y
 _atom_site_fract_z
 _atom_site_occupancy
  Li  Li0  1  0.00040800  0.68601892  0.76671373  1
  Li  Li1  1  -0.00001239  0.62784135  0.12999158  1
  Li  Li2  1  0.00031561  0.37211206  0.62923045  1
  Li  Li3  1  0.99956391  0.31260054  0.26654252  1
  Li  Li4  1  0.33294159  0.66657759  0.40080177  1
  Li  Li5  1  0.33379448  0.66679575  0.90002178  1
  Li  Li6  1  0.31445496  0.31442077  0.76644155  1
  Li  Li7  1  0.37173317  0.37148227  0.12989847  1
  Li  Li8  1  0.62838343  0.62803029  0.62926919  1
  Li  Li9  1  0.31221587  0.99980500  0.26680226  1
  Li  Li10  1  0.68685367  0.68714052  0.26659160  1
  Li  Li11  1  0.37236812  0.99988202  0.62926393  1
  Li  Li12  1  0.66659947  0.33349094  0.90000255  1
  Li  Li13  1  0.66660996  0.33358456  0.40087347  1
  Li  Li14  1  0.62771149  0.99982279  0.12993451  1
  Li  Li15  1  0.68606542  0.00040283  0.76653269  1
  Fe  Fe16  1  0.00031664  0.00004741  0.00007553  1
  Fe  Fe17  1  -0.00064030  -0.00026134  0.50134596  1
  S  S18  1  0.00034757  0.69426849  0.95079107  1
  S  S19  1  0.99964810  0.30566716  0.45041672  1
  S  S20  1  0.33306900  0.66651749  0.21726421  1
  S  S21  1  0.99974504  0.99978020  0.16961633  1
  S  S22  1  0.00026403  0.00001037  0.67025354  1
  S  S23  1  0.33365198  0.66682149  0.71655777  1
  S  S24  1  0.30507725  0.30527196  0.95053181  1
  S  S25  1  0.30646644  0.00011098  0.45056674  1
  S  S26  1  0.69392232  0.69453087  0.45053114  1
  S  S27  1  0.66695056  0.33352057  0.71652784  1
  S  S28  1  0.66633965  0.33316777  0.21731514  1
  S  S29  1  0.69463495  0.00053838  0.95055515  1
