# generated using pymatgen
data_MgTi4(PO4)6
_symmetry_space_group_name_H-M   'P 1'
_cell_length_a   8.65523915
_cell_length_b   8.65523915
_cell_length_c   8.58056705
_cell_angle_alpha   59.71170410
_cell_angle_beta   59.71170410
_cell_angle_gamma   60.00000469
_symmetry_Int_Tables_number   1
_chemical_formula_structural   MgTi4(PO4)6
_chemical_formula_sum   'Mg1 Ti4 P6 O24'
_cell_volume   452.53571950
_cell_formula_units_Z   1
loop_
 _symmetry_equiv_pos_site_id
 _symmetry_equiv_pos_as_xyz
  1  'x, y, z'
loop_
 _atom_site_type_symbol
 _atom_site_label
 _atom_site_symmetry_multiplicity
 _atom_site_fract_x
 _atom_site_fract_y
 _atom_site_fract_z
 _atom_site_occupancy
  Mg  Mg0  1  0.50000000  0.50000000  0.50000000  1
  Ti  Ti1  1  0.64681025  0.64681025  0.05956925  1
  Ti  Ti2  1  0.13333132  0.13333132  0.60000603  1
  Ti  Ti3  1  0.35318975  0.35318975  0.94043075  1
  Ti  Ti4  1  0.86666868  0.86666868  0.39999397  1
  P  P5  1  0.46946730  0.04703033  0.73872535  1
  P  P6  1  0.04703033  0.74477702  0.73872535  1
  P  P7  1  0.74477702  0.46946730  0.73872535  1
  P  P8  1  0.95296967  0.25522298  0.26127465  1
  P  P9  1  0.25522298  0.53053270  0.26127465  1
  P  P10  1  0.53053270  0.95296967  0.26127465  1
  O  O11  1  0.50921369  0.88462085  0.92428102  1
  O  O12  1  0.88462085  0.68188445  0.92428102  1
  O  O13  1  0.68188445  0.50921369  0.92428102  1
  O  O14  1  0.99648045  0.20212775  0.43639308  1
  O  O15  1  0.20212775  0.36499872  0.43639308  1
  O  O16  1  0.36499872  0.99648045  0.43639308  1
  O  O17  1  0.49078631  0.11537915  0.07571898  1
  O  O18  1  0.11537915  0.31811555  0.07571898  1
  O  O19  1  0.31811555  0.49078631  0.07571898  1
  O  O20  1  0.00351955  0.79787225  0.56360692  1
  O  O21  1  0.79787225  0.63500128  0.56360692  1
  O  O22  1  0.63500128  0.00351955  0.56360692  1
  O  O23  1  0.54933896  0.75998583  0.27026008  1
  O  O24  1  0.75998583  0.42041513  0.27026008  1
  O  O25  1  0.42041513  0.54933896  0.27026008  1
  O  O26  1  0.06203225  0.90831411  0.74878478  1
  O  O27  1  0.90831411  0.28086885  0.74878478  1
  O  O28  1  0.28086885  0.06203225  0.74878478  1
  O  O29  1  0.45066104  0.24001417  0.72973992  1
  O  O30  1  0.24001417  0.57958487  0.72973992  1
  O  O31  1  0.57958487  0.45066104  0.72973992  1
  O  O32  1  0.93796775  0.09168589  0.25121522  1
  O  O33  1  0.09168589  0.71913115  0.25121522  1
  O  O34  1  0.71913115  0.93796775  0.25121522  1
