# generated using pymatgen
data_LaH3(SO4)3
_symmetry_space_group_name_H-M   'P 1'
_cell_length_a   6.00284507
_cell_length_b   9.61279648
_cell_length_c   9.61282579
_cell_angle_alpha   59.99980879
_cell_angle_beta   90.00000000
_cell_angle_gamma   90.00000000
_symmetry_Int_Tables_number   1
_chemical_formula_structural   LaH3(SO4)3
_chemical_formula_sum   'La2 H6 S6 O24'
_cell_volume   480.38313180
_cell_formula_units_Z   2
loop_
 _symmetry_equiv_pos_site_id
 _symmetry_equiv_pos_as_xyz
  1  'x, y, z'
loop_
 _atom_site_type_symbol
 _atom_site_label
 _atom_site_symmetry_multiplicity
 _atom_site_fract_x
 _atom_site_fract_y
 _atom_site_fract_z
 _atom_site_occupancy
  La  La0  1  0.75218358  0.33333998  0.33333187  1
  La  La1  1  0.25218358  0.66666002  0.66666813  1
  H  H2  1  0.63869568  0.06712064  0.77615439  1
  H  H3  1  0.63869373  0.15672162  0.06712494  1
  H  H4  1  0.63869411  0.77615762  0.15672526  1
  H  H5  1  0.13869568  0.93287936  0.22384561  1
  H  H6  1  0.13869373  0.84327838  0.93287506  1
  H  H7  1  0.13869411  0.22384238  0.84327474  1
  S  S8  1  0.74727411  0.90479041  0.69880052  1
  S  S9  1  0.74727327  0.39640651  0.90479318  1
  S  S10  1  0.74727239  0.69880850  0.39640926  1
  S  S11  1  0.24727411  0.09520959  0.30119948  1
  S  S12  1  0.24727327  0.60359349  0.09520682  1
  S  S13  1  0.24727239  0.30119150  0.60359074  1
  O  O14  1  0.75230508  0.98181019  0.81281470  1
  O  O15  1  0.75229987  0.20537045  0.98181529  1
  O  O16  1  0.75230217  0.81281279  0.20537720  1
  O  O17  1  0.25230508  0.01818981  0.18718530  1
  O  O18  1  0.25229987  0.79462955  0.01818471  1
  O  O19  1  0.25230217  0.18718721  0.79462280  1
  O  O20  1  0.74710639  0.03513960  0.53285179  1
  O  O21  1  0.74710816  0.43201409  0.03513477  1
  O  O22  1  0.74710695  0.53284374  0.43201172  1
  O  O23  1  0.24710639  0.96486040  0.46714821  1
  O  O24  1  0.24710816  0.56798591  0.96486523  1
  O  O25  1  0.24710695  0.46715626  0.56798828  1
  O  O26  1  0.45229904  0.55776001  0.19116131  1
  O  O27  1  0.45229907  0.25108445  0.55775628  1
  O  O28  1  0.45230181  0.19116450  0.25108142  1
  O  O29  1  0.95229904  0.44223999  0.80883869  1
  O  O30  1  0.95229907  0.74891555  0.44224372  1
  O  O31  1  0.95230181  0.80883550  0.74891858  1
  O  O32  1  0.54659381  0.45328065  0.80566147  1
  O  O33  1  0.54659597  0.74105313  0.45328560  1
  O  O34  1  0.54659482  0.80565514  0.74105714  1
  O  O35  1  0.04659381  0.54671935  0.19433853  1
  O  O36  1  0.04659597  0.25894687  0.54671440  1
  O  O37  1  0.04659482  0.19434486  0.25894286  1
