# generated using pymatgen
data_La6Mg(SiS7)2
_symmetry_space_group_name_H-M   'P 1'
_cell_length_a   5.76531354
_cell_length_b   10.41097394
_cell_length_c   10.41061671
_cell_angle_alpha   59.99947546
_cell_angle_beta   89.99957297
_cell_angle_gamma   89.99945615
_symmetry_Int_Tables_number   1
_chemical_formula_structural   La6Mg(SiS7)2
_chemical_formula_sum   'La6 Mg1 Si2 S14'
_cell_volume   541.15177046
_cell_formula_units_Z   1
loop_
 _symmetry_equiv_pos_site_id
 _symmetry_equiv_pos_as_xyz
  1  'x, y, z'
loop_
 _atom_site_type_symbol
 _atom_site_label
 _atom_site_symmetry_multiplicity
 _atom_site_fract_x
 _atom_site_fract_y
 _atom_site_fract_z
 _atom_site_occupancy
  La  La0  1  0.24787154  0.23489760  0.12198710  1
  La  La1  1  0.24788602  0.64313634  0.23489028  1
  La  La2  1  0.24785958  0.12198503  0.64313015  1
  La  La3  1  0.74953152  0.76485860  0.87814176  1
  La  La4  1  0.74952322  0.35697922  0.76483910  1
  La  La5  1  0.74952801  0.87816110  0.35699889  1
  Mg  Mg6  1  0.49157666  0.99999788  0.00000177  1
  Si  Si7  1  0.83173623  0.33334785  0.33332420  1
  Si  Si8  1  0.33369171  0.66664941  0.66667914  1
  S  S9  1  0.46690768  0.33335642  0.33332249  1
  S  S10  1  0.96830088  0.66663219  0.66668309  1
  S  S11  1  0.72902637  0.16116667  0.08268719  1
  S  S12  1  0.72902873  0.75614450  0.16117222  1
  S  S13  1  0.72902912  0.08268470  0.75613922  1
  S  S14  1  0.24893976  0.83759270  0.91943444  1
  S  S15  1  0.24893044  0.24296891  0.83759044  1
  S  S16  1  0.24892920  0.91943754  0.24297936  1
  S  S17  1  0.97318502  0.11653817  0.40777922  1
  S  S18  1  0.97321124  0.47570972  0.11650851  1
  S  S19  1  0.97321276  0.40778999  0.47569150  1
  S  S20  1  0.47434286  0.88348098  0.59191138  1
  S  S21  1  0.47438378  0.52458615  0.88350944  1
  S  S22  1  0.47436766  0.59189832  0.52459910  1
