# generated using pymatgen
data_La4Ti3(SO2)4
_symmetry_space_group_name_H-M   'P 1'
_cell_length_a   3.89506417
_cell_length_b   9.52494734
_cell_length_c   17.32790196
_cell_angle_alpha   81.11517890
_cell_angle_beta   83.54672934
_cell_angle_gamma   101.79826679
_symmetry_Int_Tables_number   1
_chemical_formula_structural   La4Ti3(SO2)4
_chemical_formula_sum   'La8 Ti6 S8 O16'
_cell_volume   614.80975923
_cell_formula_units_Z   2
loop_
 _symmetry_equiv_pos_site_id
 _symmetry_equiv_pos_as_xyz
  1  'x, y, z'
loop_
 _atom_site_type_symbol
 _atom_site_label
 _atom_site_symmetry_multiplicity
 _atom_site_fract_x
 _atom_site_fract_y
 _atom_site_fract_z
 _atom_site_occupancy
  La  La0  1  0.48945753  0.79911378  0.82310920  1
  La  La1  1  0.51345296  0.20088622  0.17689080  1
  La  La2  1  0.86587370  0.41602134  0.68437916  1
  La  La3  1  0.13423151  0.58397866  0.31562084  1
  La  La4  1  0.36839575  0.16580195  0.42904571  1
  La  La5  1  0.63163950  0.83419805  0.57095429  1
  La  La6  1  0.68938355  0.33148335  0.93744465  1
  La  La7  1  0.29534485  0.66851665  0.06255535  1
  Ti  Ti8  1  0.18469084  0.16833377  0.81152947  1
  Ti  Ti9  1  0.82788654  0.83166623  0.18847053  1
  Ti  Ti10  1  0.50009453  0.50000000  0.50000000  1
  Ti  Ti11  1  0.17853595  0.02866990  0.67115717  1
  Ti  Ti12  1  0.82102322  0.97133010  0.32884283  1
  Ti  Ti13  1  0.81639285  0.00000000  -0.00000000  1
  S  S14  1  0.67476942  0.54238331  0.19052673  1
  S  S15  1  0.32291284  0.45761669  0.80947327  1
  S  S16  1  0.01843421  0.73514649  0.69815170  1
  S  S17  1  0.98143942  0.26485351  0.30184830  1
  S  S18  1  0.10534347  0.68245206  0.47171105  1
  S  S19  1  0.89460246  0.31754794  0.52828895  1
  S  S20  1  0.85584422  0.64119812  0.93575475  1
  S  S21  1  0.15040085  0.35880188  0.06424525  1
  O  O22  1  0.26247517  0.22059028  0.69294552  1
  O  O23  1  0.73483040  0.77940972  0.30705448  1
  O  O24  1  0.21978410  0.00431299  0.56488347  1
  O  O25  1  0.78035457  0.99568701  0.43511653  1
  O  O26  1  0.53754408  0.47015334  0.39512096  1
  O  O27  1  0.46251170  0.52984666  0.60487904  1
  O  O28  1  0.08955031  0.97444429  0.79748561  1
  O  O29  1  0.91259162  0.02555571  0.20251439  1
  O  O30  1  0.69258117  0.20358746  0.80939628  1
  O  O31  1  0.29839000  0.79641254  0.19060372  1
  O  O32  1  0.50405081  0.90284495  0.94838574  1
  O  O33  1  0.54959160  0.09715505  0.05161426  1
  O  O34  1  0.65707902  0.99205991  0.67815168  1
  O  O35  1  0.34317079  0.00794009  0.32184832  1
  O  O36  1  0.87152587  0.83915148  0.07564423  1
  O  O37  1  0.10801861  0.16084852  0.92435577  1
