# generated using pymatgen
data_Mn2InSbO6
_symmetry_space_group_name_H-M   'P 1'
_cell_length_a   6.35986520
_cell_length_b   6.38229836
_cell_length_c   6.38780705
_cell_angle_alpha   90.94662261
_cell_angle_beta   90.96465726
_cell_angle_gamma   90.75105874
_symmetry_Int_Tables_number   1
_chemical_formula_structural   Mn2InSbO6
_chemical_formula_sum   'Mn4 In2 Sb2 O12'
_cell_volume   259.18927886
_cell_formula_units_Z   2
loop_
 _symmetry_equiv_pos_site_id
 _symmetry_equiv_pos_as_xyz
  1  'x, y, z'
loop_
 _atom_site_type_symbol
 _atom_site_label
 _atom_site_symmetry_multiplicity
 _atom_site_fract_x
 _atom_site_fract_y
 _atom_site_fract_z
 _atom_site_occupancy
  Mn  Mn0  1  0.56107486  0.05500518  0.74763071  1
  Mn  Mn1  1  0.94270855  0.24797838  0.43737499  1
  Mn  Mn2  1  0.25292354  0.43152738  0.94571478  1
  Mn  Mn3  1  0.43775969  0.95084681  0.25099671  1
  In  In4  1  0.06039755  0.75052468  0.56458780  1
  In  In5  1  0.74641940  0.56551721  0.05624205  1
  Sb  Sb6  1  0.49824379  0.49769655  0.49979793  1
  Sb  Sb7  1  0.00124736  0.00332335  0.00045812  1
  O  O8  1  0.04168644  0.69684406  0.91073045  1
  O  O9  1  0.70179312  0.90799913  0.04412598  1
  O  O10  1  0.91305527  0.03769744  0.69802933  1
  O  O11  1  0.95509866  0.30310799  0.09208250  1
  O  O12  1  0.29929646  0.08916195  0.95702251  1
  O  O13  1  0.09000543  0.95699506  0.30045308  1
  O  O14  1  0.80048466  0.57545363  0.41882839  1
  O  O15  1  0.57333812  0.42303408  0.79867439  1
  O  O16  1  0.41767681  0.79693012  0.57164156  1
  O  O17  1  0.19697180  0.43206414  0.57537198  1
  O  O18  1  0.43246050  0.57506370  0.19962366  1
  O  O19  1  0.57735798  0.20322916  0.43061308  1
