# generated using pymatgen
data_MgTi2NiO6
_symmetry_space_group_name_H-M   'P 1'
_cell_length_a   5.08547009
_cell_length_b   5.08547036
_cell_length_c   5.52001684
_cell_angle_alpha   62.57164963
_cell_angle_beta   117.42834977
_cell_angle_gamma   120.00000176
_symmetry_Int_Tables_number   1
_chemical_formula_structural   MgTi2NiO6
_chemical_formula_sum   'Mg1 Ti2 Ni1 O6'
_cell_volume   104.69302487
_cell_formula_units_Z   1
loop_
 _symmetry_equiv_pos_site_id
 _symmetry_equiv_pos_as_xyz
  1  'x, y, z'
loop_
 _atom_site_type_symbol
 _atom_site_label
 _atom_site_symmetry_multiplicity
 _atom_site_fract_x
 _atom_site_fract_y
 _atom_site_fract_z
 _atom_site_occupancy
  Mg  Mg0  1  0.35323401  0.64676599  0.05970203  1
  Ti  Ti1  1  0.85675256  0.14324744  0.57025767  1
  Ti  Ti2  1  0.14366933  0.85633067  0.43100800  1
  Ni  Ni3  1  0.64901129  0.35098871  0.94703386  1
  O  O4  1  0.43677792  0.22750833  0.25884663  1
  O  O5  1  0.04957703  0.56322208  0.25884663  1
  O  O6  1  0.77249167  0.95042297  0.25884663  1
  O  O7  1  0.56202100  0.77176360  0.73848619  1
  O  O8  1  0.94822878  0.43797900  0.73848619  1
  O  O9  1  0.22823640  0.05177122  0.73848619  1
