# generated using pymatgen
data_LaB3F12
_symmetry_space_group_name_H-M   'P 1'
_cell_length_a   11.17077777
_cell_length_b   11.17077369
_cell_length_c   11.34974982
_cell_angle_alpha   90.00114676
_cell_angle_beta   90.00122834
_cell_angle_gamma   59.99960349
_symmetry_Int_Tables_number   1
_chemical_formula_structural   LaB3F12
_chemical_formula_sum   'La6 B18 F72'
_cell_volume   1226.54037990
_cell_formula_units_Z   6
loop_
 _symmetry_equiv_pos_site_id
 _symmetry_equiv_pos_as_xyz
  1  'x, y, z'
loop_
 _atom_site_type_symbol
 _atom_site_label
 _atom_site_symmetry_multiplicity
 _atom_site_fract_x
 _atom_site_fract_y
 _atom_site_fract_z
 _atom_site_occupancy
  La  La0  1  0.99997849  0.65607965  0.74984007  1
  La  La1  1  0.34393674  0.99997767  0.74985060  1
  La  La2  1  0.65606985  0.34395523  0.74984755  1
  La  La3  1  0.65608056  0.99997147  0.24984045  1
  La  La4  1  0.34395536  0.65607203  0.24984896  1
  La  La5  1  0.99996803  0.34394916  0.24984809  1
  B  B6  1  0.68282863  0.95536557  0.59290477  1
  B  B7  1  0.36180374  0.68283019  0.59290599  1
  B  B8  1  0.95536518  0.36180381  0.59290636  1
  B  B9  1  0.95536587  0.68282824  0.09290412  1
  B  B10  1  0.36180431  0.95536436  0.09290569  1
  B  B11  1  0.68282991  0.36180416  0.09290484  1
  B  B12  1  0.31695437  0.04449688  0.40693252  1
  B  B13  1  0.63854844  0.31695300  0.40693226  1
  B  B14  1  0.04449932  0.63854880  0.40693044  1
  B  B15  1  0.04449689  0.31695403  0.90693264  1
  B  B16  1  0.63854839  0.04449968  0.90693028  1
  B  B17  1  0.31695327  0.63854836  0.90693270  1
  B  B18  1  0.00000049  0.99999841  0.19966237  1
  B  B19  1  0.99999883  0.00000113  0.69966212  1
  B  B20  1  0.33332533  0.33332166  0.64747308  1
  B  B21  1  0.33332167  0.33332525  0.14747288  1
  B  B22  1  0.66667811  0.66667863  0.35249991  1
  B  B23  1  0.66667945  0.66667744  0.85249936  1
  F  F24  1  0.04424275  0.64500663  0.53286099  1
  F  F25  1  0.31075417  0.04423999  0.53286172  1
  F  F26  1  0.64500508  0.31075501  0.53286168  1
  F  F27  1  0.64500696  0.04424224  0.03286174  1
  F  F28  1  0.31075515  0.64500502  0.03286171  1
  F  F29  1  0.04424089  0.31075306  0.03286170  1
  F  F30  1  0.95579433  0.35504424  0.46705213  1
  F  F31  1  0.68915771  0.95579722  0.46704981  1
  F  F32  1  0.35504564  0.68915585  0.46705212  1
  F  F33  1  0.35504402  0.95579394  0.96705203  1
  F  F34  1  0.68915612  0.35504564  0.96705148  1
  F  F35  1  0.95579742  0.68915715  0.96705026  1
  F  F36  1  0.94949274  0.48677698  0.62843063  1
  F  F37  1  0.56373087  0.94949353  0.62842974  1
  F  F38  1  0.48677931  0.56372947  0.62843377  1
  F  F39  1  0.48677760  0.94949280  0.12843093  1
  F  F40  1  0.56373057  0.48677831  0.12843314  1
  F  F41  1  0.94949397  0.56373128  0.12842996  1
  F  F42  1  0.05055989  0.51342214  0.37151514  1
  F  F43  1  0.43601839  0.05055748  0.37151792  1
  F  F44  1  0.51341963  0.43601988  0.37151547  1
  F  F45  1  0.51342197  0.05055954  0.87151444  1
  F  F46  1  0.43602014  0.51341951  0.87151541  1
  F  F47  1  0.05055767  0.43601844  0.87151841  1
  F  F48  1  0.00004977  0.87982472  0.74636377  1
  F  F49  1  0.12012645  0.00004671  0.74636739  1
  F  F50  1  0.87982465  0.12012764  0.74636453  1
  F  F51  1  0.87982464  0.00005007  0.24636383  1
  F  F52  1  0.12012829  0.87982480  0.24636506  1
  F  F53  1  0.00004696  0.12012636  0.24636799  1
  F  F54  1  0.21183950  0.44899577  0.69527482  1
  F  F55  1  0.33915141  0.21183575  0.69528347  1
  F  F56  1  0.44899749  0.33914863  0.69526121  1
  F  F57  1  0.44899639  0.21183858  0.19527504  1
  F  F58  1  0.33914904  0.44899728  0.19526129  1
  F  F59  1  0.21183553  0.33915091  0.19528392  1
  F  F60  1  0.78816228  0.55100352  0.30471263  1
  F  F61  1  0.66085351  0.78816458  0.30469995  1
  F  F62  1  0.55100392  0.66085256  0.30472778  1
  F  F63  1  0.55100163  0.78816322  0.80471190  1
  F  F64  1  0.66085319  0.55100206  0.80472717  1
  F  F65  1  0.78816551  0.66085249  0.80469937  1
  F  F66  1  0.68139587  0.07078480  0.63780984  1
  F  F67  1  0.24782152  0.68139487  0.63780890  1
  F  F68  1  0.07078268  0.24781987  0.63781012  1
  F  F69  1  0.07078515  0.68139587  0.13781049  1
  F  F70  1  0.24781986  0.07078306  0.13781038  1
  F  F71  1  0.68139566  0.24782095  0.13780853  1
  F  F72  1  0.31847311  0.92903557  0.36216548  1
  F  F73  1  0.75248670  0.31847345  0.36216774  1
  F  F74  1  0.92903846  0.75248900  0.36216612  1
  F  F75  1  0.92903527  0.31847322  0.86216532  1
  F  F76  1  0.75248892  0.92903821  0.86216542  1
  F  F77  1  0.31847326  0.75248716  0.86216791  1
  F  F78  1  0.33331465  0.33331533  0.52763761  1
  F  F79  1  0.33331586  0.33331495  0.02763806  1
  F  F80  1  0.66668638  0.66668600  0.47234749  1
  F  F81  1  0.66668631  0.66668638  0.97234726  1
  F  F82  1  0.80275722  0.83058466  0.63218907  1
  F  F83  1  0.36665837  0.80275629  0.63219091  1
  F  F84  1  0.83058389  0.36665900  0.63219003  1
  F  F85  1  0.83058537  0.80275723  0.13218863  1
  F  F86  1  0.36665914  0.83058389  0.13219021  1
  F  F87  1  0.80275622  0.36665826  0.13219002  1
  F  F88  1  0.19683443  0.16924472  0.36763786  1
  F  F89  1  0.63391718  0.19683699  0.36763646  1
  F  F90  1  0.16924733  0.63391727  0.36763644  1
  F  F91  1  0.16924365  0.19683477  0.86763778  1
  F  F92  1  0.63391775  0.16924732  0.86763651  1
  F  F93  1  0.19683684  0.63391735  0.86763724  1
  F  F94  1  0.00000009  0.99999838  0.57948497  1
  F  F95  1  0.99999852  0.99999938  0.07948568  1
