# generated using pymatgen
data_La8Br13N3O
_symmetry_space_group_name_H-M   'P 1'
_cell_length_a   8.57858245
_cell_length_b   12.00557653
_cell_length_c   15.92523277
_cell_angle_alpha   85.78647497
_cell_angle_beta   74.37504242
_cell_angle_gamma   110.93293497
_symmetry_Int_Tables_number   1
_chemical_formula_structural   La8Br13N3O
_chemical_formula_sum   'La16 Br26 N6 O2'
_cell_volume   1448.79646118
_cell_formula_units_Z   2
loop_
 _symmetry_equiv_pos_site_id
 _symmetry_equiv_pos_as_xyz
  1  'x, y, z'
loop_
 _atom_site_type_symbol
 _atom_site_label
 _atom_site_symmetry_multiplicity
 _atom_site_fract_x
 _atom_site_fract_y
 _atom_site_fract_z
 _atom_site_occupancy
  La  La0  1  0.45151807  0.20461790  0.93762052  1
  La  La1  1  0.68194450  0.29119327  0.56201525  1
  La  La2  1  0.54723352  0.79119327  0.06201525  1
  La  La3  1  0.31547931  0.70461790  0.43762052  1
  La  La4  1  0.01339893  0.98827854  0.88677629  1
  La  La5  1  0.41109746  0.51013139  0.61405732  1
  La  La6  1  0.98497660  0.01013139  0.11405732  1
  La  La7  1  0.58810332  0.48827854  0.38677629  1
  La  La8  1  0.24023393  0.18171941  0.55460162  1
  La  La9  1  0.10827176  0.31581003  0.94513649  1
  La  La10  1  0.76240177  0.81581003  0.44513649  1
  La  La11  1  0.88688386  0.68171941  0.05460162  1
  La  La12  1  0.61949611  0.57824434  0.88788848  1
  La  La13  1  0.42704305  0.92993732  0.61430606  1
  La  La14  1  0.38858821  0.42993732  0.11430606  1
  La  La15  1  0.57085975  0.07824434  0.38788848  1
  Br  Br16  1  0.10967407  0.40235657  0.52715355  1
  Br  Br17  1  0.73581119  0.09939546  0.97220700  1
  Br  Br18  1  0.89137727  0.59939546  0.47220700  1
  Br  Br19  1  0.26552896  0.90235657  0.02715355  1
  Br  Br20  1  0.83289104  0.07998855  0.55956336  1
  Br  Br21  1  0.80985785  0.41798513  0.94017106  1
  Br  Br22  1  0.16795622  0.91798513  0.44017106  1
  Br  Br23  1  0.18753415  0.57998855  0.05956336  1
  Br  Br24  1  0.63891708  0.41811590  0.73181230  1
  Br  Br25  1  0.45207950  0.08123113  0.76972465  1
  Br  Br26  1  0.35942698  0.58123113  0.26972465  1
  Br  Br27  1  0.54738652  0.91811590  0.23181230  1
  Br  Br28  1  0.11692079  0.25012461  0.75050696  1
  Br  Br29  1  0.88269686  0.75012461  0.25050696  1
  Br  Br30  1  0.65437602  0.75938657  0.64016777  1
  Br  Br31  1  0.03536620  0.74028503  0.85904014  1
  Br  Br32  1  0.34587869  0.24028503  0.35904014  1
  Br  Br33  1  0.96484278  0.25938657  0.14016777  1
  Br  Br34  1  0.63597692  0.83745720  0.86390031  1
  Br  Br35  1  0.16386974  0.66368649  0.63493552  1
  Br  Br36  1  0.36488123  0.16368649  0.13493552  1
  Br  Br37  1  0.83757997  0.33745720  0.36390031  1
  Br  Br38  1  0.06670948  0.94351068  0.68449081  1
  Br  Br39  1  0.30711600  0.55528304  0.81662495  1
  Br  Br40  1  0.93154208  0.05528304  0.31662495  1
  Br  Br41  1  0.69231038  0.44351068  0.18449081  1
  N  N42  1  0.15384130  0.13521517  0.96330094  1
  N  N43  1  0.48310442  0.36868364  0.53545267  1
  N  N44  1  0.85012655  0.86868364  0.03545267  1
  N  N45  1  0.51807293  0.63521517  0.46330094  1
  N  N46  1  0.47735645  0.11135663  0.53085985  1
  N  N47  1  0.60314033  0.61135663  0.03085985  1
  O  O48  1  0.39479035  0.38600599  0.96768612  1
  O  O49  1  0.52352953  0.88600599  0.46768612  1
