# generated using pymatgen
data_KMg3AlSi3(HO6)2
_symmetry_space_group_name_H-M   'P 1'
_cell_length_a   5.36434030
_cell_length_b   5.36146714
_cell_length_c   10.57924431
_cell_angle_alpha   95.43320902
_cell_angle_beta   95.41247350
_cell_angle_gamma   119.98956251
_symmetry_Int_Tables_number   1
_chemical_formula_structural   KMg3AlSi3(HO6)2
_chemical_formula_sum   'K1 Mg3 Al1 Si3 H2 O12'
_cell_volume   258.78190964
_cell_formula_units_Z   1
loop_
 _symmetry_equiv_pos_site_id
 _symmetry_equiv_pos_as_xyz
  1  'x, y, z'
loop_
 _atom_site_type_symbol
 _atom_site_label
 _atom_site_symmetry_multiplicity
 _atom_site_fract_x
 _atom_site_fract_y
 _atom_site_fract_z
 _atom_site_occupancy
  K  K0  1  0.99529157  0.99429760  0.02135751  1
  Mg  Mg1  1  0.82768081  0.16466512  0.49372897  1
  Mg  Mg2  1  0.16023260  0.82633617  0.49473735  1
  Mg  Mg3  1  0.50417819  0.50198268  0.49432097  1
  Al  Al4  1  0.73456634  0.40039358  0.23169940  1
  Si  Si5  1  0.39890039  0.73245614  0.22738086  1
  Si  Si6  1  0.26748948  0.59916988  0.76540326  1
  Si  Si7  1  0.59963089  0.26415935  0.76517492  1
  H  H8  1  0.09773396  0.09711630  0.30909136  1
  H  H9  1  0.90288108  0.91488259  0.69495413  1
  O  O10  1  0.79634686  0.46091192  0.40019108  1
  O  O11  1  0.45696016  0.79202238  0.38767683  1
  O  O12  1  0.21301335  0.54435719  0.61044748  1
  O  O13  1  0.53952783  0.20389986  0.61023398  1
  O  O14  1  0.46742742  0.48008046  0.17253860  1
  O  O15  1  0.46691600  0.46485085  0.82428007  1
  O  O16  1  0.05811866  0.62286879  0.17149013  1
  O  O17  1  0.61037197  0.03152562  0.17165507  1
  O  O18  1  0.95540425  0.44223289  0.82393366  1
  O  O19  1  0.44538172  0.95431249  0.82561997  1
  O  O20  1  0.13288217  0.13293230  0.40207749  1
  O  O21  1  0.86906428  0.87454583  0.60200693  1
