# generated using pymatgen
data_La2CrFeO6
_symmetry_space_group_name_H-M   'P 1'
_cell_length_a   5.59470309
_cell_length_b   5.60529484
_cell_length_c   7.91296373
_cell_angle_alpha   89.98325069
_cell_angle_beta   90.00000000
_cell_angle_gamma   90.00000000
_symmetry_Int_Tables_number   1
_chemical_formula_structural   La2CrFeO6
_chemical_formula_sum   'La4 Cr2 Fe2 O12'
_cell_volume   248.15021845
_cell_formula_units_Z   2
loop_
 _symmetry_equiv_pos_site_id
 _symmetry_equiv_pos_as_xyz
  1  'x, y, z'
loop_
 _atom_site_type_symbol
 _atom_site_label
 _atom_site_symmetry_multiplicity
 _atom_site_fract_x
 _atom_site_fract_y
 _atom_site_fract_z
 _atom_site_occupancy
  La  La0  1  0.47410431  0.49290485  0.75000978  1
  La  La1  1  0.97410431  0.00709515  0.74999022  1
  La  La2  1  0.52589569  0.50709515  0.24999022  1
  La  La3  1  0.02589569  0.99290485  0.25000978  1
  Cr  Cr4  1  0.50000000  0.00000000  0.50000000  1
  Cr  Cr5  1  0.00000000  0.50000000  -0.00000000  1
  Fe  Fe6  1  0.50000000  0.00000000  -0.00000000  1
  Fe  Fe7  1  0.00000000  0.50000000  0.50000000  1
  O  O8  1  0.01482203  0.58157795  0.75031630  1
  O  O9  1  0.51482203  0.91842205  0.74968370  1
  O  O10  1  0.98517797  0.41842205  0.24968370  1
  O  O11  1  0.48517797  0.08157795  0.25031630  1
  O  O12  1  0.21911533  0.21956777  0.95594546  1
  O  O13  1  0.71911533  0.28043223  0.54405454  1
  O  O14  1  0.78067936  0.78040882  0.45608840  1
  O  O15  1  0.28067936  0.71959118  0.04391160  1
  O  O16  1  0.78088467  0.78043223  0.04405454  1
  O  O17  1  0.28088467  0.71956777  0.45594546  1
  O  O18  1  0.21932064  0.21959118  0.54391160  1
  O  O19  1  0.71932064  0.28040882  0.95608840  1
