# generated using pymatgen
data_KFeAs3H7O13
_symmetry_space_group_name_H-M   'P 1'
_cell_length_a   4.76563121
_cell_length_b   8.73561324
_cell_length_c   14.25900558
_cell_angle_alpha   90.00000000
_cell_angle_beta   94.62827358
_cell_angle_gamma   90.00000000
_symmetry_Int_Tables_number   1
_chemical_formula_structural   KFeAs3H7O13
_chemical_formula_sum   'K2 Fe2 As6 H14 O26'
_cell_volume   591.67687927
_cell_formula_units_Z   2
loop_
 _symmetry_equiv_pos_site_id
 _symmetry_equiv_pos_as_xyz
  1  'x, y, z'
loop_
 _atom_site_type_symbol
 _atom_site_label
 _atom_site_symmetry_multiplicity
 _atom_site_fract_x
 _atom_site_fract_y
 _atom_site_fract_z
 _atom_site_occupancy
  K  K0  1  0.12751247  0.00644958  0.51259072  1
  K  K1  1  0.62751247  0.99355042  0.01259072  1
  Fe  Fe2  1  0.25072499  0.22714688  0.74933489  1
  Fe  Fe3  1  0.75072499  0.77285312  0.24933489  1
  As  As4  1  0.74951503  0.96522111  0.74871168  1
  As  As5  1  0.24951503  0.03477889  0.24871168  1
  As  As6  1  0.70768388  0.35468952  0.60175763  1
  As  As7  1  0.29637126  0.65446222  0.39640193  1
  As  As8  1  0.79637126  0.34553778  0.89640193  1
  As  As9  1  0.20768388  0.64531048  0.10175763  1
  H  H10  1  0.48465193  0.77036396  0.80598092  1
  H  H11  1  0.51417837  0.22935788  0.19222028  1
  H  H12  1  0.01417837  0.77064212  0.69222028  1
  H  H13  1  0.98465193  0.22963604  0.30598092  1
  H  H14  1  0.40858347  0.32573481  0.46985257  1
  H  H15  1  0.60632658  0.66305305  0.52681000  1
  H  H16  1  0.10632658  0.33694695  0.02681000  1
  H  H17  1  0.90858347  0.67426519  0.96985257  1
  H  H18  1  0.34980543  0.58266444  0.71043097  1
  H  H19  1  0.64991176  0.41571120  0.28911762  1
  H  H20  1  0.14991176  0.58428880  0.78911762  1
  H  H21  1  0.84980543  0.41733556  0.21043097  1
  H  H22  1  0.02334121  0.49715588  0.48455363  1
  H  H23  1  0.52334121  0.50284412  0.98455363  1
  O  O24  1  0.47880078  0.39246411  0.68636361  1
  O  O25  1  0.52876076  0.60707699  0.31623564  1
  O  O26  1  0.02876076  0.39292301  0.81623564  1
  O  O27  1  0.97880078  0.60753589  0.18636361  1
  O  O28  1  0.53448843  0.25180123  0.50595470  1
  O  O29  1  0.46112394  0.73915976  0.49813805  1
  O  O30  1  0.96112394  0.26084024  0.99813805  1
  O  O31  1  0.03448843  0.74819877  0.00595470  1
  O  O32  1  0.24914959  0.65660277  0.74920979  1
  O  O33  1  0.74914959  0.34339723  0.24920979  1
  O  O34  1  0.97471257  0.23025531  0.63473229  1
  O  O35  1  0.02668312  0.77700126  0.36657193  1
  O  O36  1  0.52668312  0.22299874  0.86657193  1
  O  O37  1  0.47471257  0.76974469  0.13473229  1
  O  O38  1  0.47330845  0.05834593  0.69092444  1
  O  O39  1  0.51601406  0.93663774  0.30804674  1
  O  O40  1  0.01601406  0.06336226  0.80804674  1
  O  O41  1  0.97330845  0.94165407  0.19092444  1
  O  O42  1  0.82339702  0.52281520  0.55762443  1
  O  O43  1  0.16681818  0.47791592  0.43263083  1
  O  O44  1  0.66681818  0.52208408  0.93263083  1
  O  O45  1  0.32339702  0.47718480  0.05762443  1
  O  O46  1  0.63427983  0.84215981  0.83545284  1
  O  O47  1  0.37435689  0.15324484  0.16145190  1
  O  O48  1  0.87435689  0.84675516  0.66145190  1
  O  O49  1  0.13427983  0.15784019  0.33545284  1
