# generated using pymatgen
data_KNb3(PO5)3
_symmetry_space_group_name_H-M   'P 1'
_cell_length_a   6.56858786
_cell_length_b   13.52780971
_cell_length_c   14.99039780
_cell_angle_alpha   90.00000000
_cell_angle_beta   90.00000000
_cell_angle_gamma   89.93655873
_symmetry_Int_Tables_number   1
_chemical_formula_structural   KNb3(PO5)3
_chemical_formula_sum   'K4 Nb12 P12 O60'
_cell_volume   1332.02504448
_cell_formula_units_Z   4
loop_
 _symmetry_equiv_pos_site_id
 _symmetry_equiv_pos_as_xyz
  1  'x, y, z'
loop_
 _atom_site_type_symbol
 _atom_site_label
 _atom_site_symmetry_multiplicity
 _atom_site_fract_x
 _atom_site_fract_y
 _atom_site_fract_z
 _atom_site_occupancy
  K  K0  1  0.58893766  0.50877027  0.17676995  1
  K  K1  1  0.91106234  0.99122973  0.67676995  1
  K  K2  1  0.41106234  0.49122973  0.82323005  1
  K  K3  1  0.08893766  0.00877027  0.32323005  1
  Nb  Nb4  1  0.50092912  0.93798309  0.11301207  1
  Nb  Nb5  1  0.49907088  0.06201691  0.88698793  1
  Nb  Nb6  1  0.00092912  0.43798309  0.38698793  1
  Nb  Nb7  1  0.99907088  0.56201691  0.61301207  1
  Nb  Nb8  1  0.49913006  0.85876738  0.52639586  1
  Nb  Nb9  1  0.50086994  0.14123262  0.47360414  1
  Nb  Nb10  1  0.99913006  0.35876738  0.97360414  1
  Nb  Nb11  1  0.00086994  0.64123262  0.02639586  1
  Nb  Nb12  1  0.50137462  0.19316646  0.22341366  1
  Nb  Nb13  1  0.49862538  0.80683354  0.77658634  1
  Nb  Nb14  1  0.00137462  0.69316646  0.27658634  1
  Nb  Nb15  1  0.99862538  0.30683354  0.72341366  1
  P  P16  1  0.99987418  0.87446836  0.12048536  1
  P  P17  1  0.00012582  0.12553164  0.87951464  1
  P  P18  1  0.49987418  0.37446836  0.37951464  1
  P  P19  1  0.50012582  0.62553164  0.62048536  1
  P  P20  1  0.50016300  0.77244342  0.29797308  1
  P  P21  1  0.49983700  0.22755658  0.70202692  1
  P  P22  1  0.00016300  0.27244342  0.20202692  1
  P  P23  1  0.99983700  0.72755658  0.79797308  1
  P  P24  1  0.49997643  0.70643176  0.99734921  1
  P  P25  1  0.50002357  0.29356824  0.00265079  1
  P  P26  1  -0.00002357  0.20643176  0.50265079  1
  P  P27  1  0.00002357  0.79356824  0.49734921  1
  O  O28  1  0.49925464  0.06506713  0.17393413  1
  O  O29  1  0.50074536  0.93493287  0.82606587  1
  O  O30  1  0.99925464  0.56506713  0.32606587  1
  O  O31  1  0.00074536  0.43493287  0.67393413  1
  O  O32  1  0.49970822  0.81263462  0.39355304  1
  O  O33  1  0.50029178  0.18736538  0.60644696  1
  O  O34  1  0.99970822  0.31263462  0.10644696  1
  O  O35  1  0.00029178  0.68736538  0.89355304  1
  O  O36  1  0.00004150  0.79602200  0.04746333  1
  O  O37  1  0.99995850  0.20397800  0.95253667  1
  O  O38  1  0.50004150  0.29602200  0.45253667  1
  O  O39  1  0.49995850  0.70397800  0.54746333  1
  O  O40  1  0.50000392  0.79952636  0.05495319  1
  O  O41  1  0.49999608  0.20047364  0.94504681  1
  O  O42  1  0.00000392  0.29952636  0.44504681  1
  O  O43  1  -0.00000392  0.70047364  0.55495319  1
  O  O44  1  0.49928097  0.86178392  0.23452714  1
  O  O45  1  0.50071903  0.13821608  0.76547286  1
  O  O46  1  0.99928097  0.36178392  0.26547286  1
  O  O47  1  0.00071903  0.63821608  0.73452714  1
  O  O48  1  0.50031498  0.33195278  0.28360833  1
  O  O49  1  0.49968502  0.66804722  0.71639167  1
  O  O50  1  0.00031498  0.83195278  0.21639167  1
  O  O51  1  0.99968502  0.16804722  0.78360833  1
  O  O52  1  0.80897397  0.94109186  0.11322894  1
  O  O53  1  0.80937824  0.05880346  0.88642053  1
  O  O54  1  0.69062176  0.44119654  0.38642053  1
  O  O55  1  0.69102603  0.55890814  0.61322894  1
  O  O56  1  0.19102603  0.05890814  0.88677106  1
  O  O57  1  0.19062176  0.94119654  0.11357947  1
  O  O58  1  0.30937824  0.55880346  0.61357947  1
  O  O59  1  0.30897397  0.44109186  0.38677106  1
  O  O60  1  0.50010046  0.27090231  0.10298890  1
  O  O61  1  0.49989954  0.72909769  0.89701110  1
  O  O62  1  0.00010046  0.77090231  0.39701110  1
  O  O63  1  0.99989954  0.22909769  0.60298890  1
  O  O64  1  0.81166175  0.20514345  0.21984852  1
  O  O65  1  0.81179153  0.79516769  0.77995536  1
  O  O66  1  0.68820847  0.70483231  0.27995536  1
  O  O67  1  0.68833825  0.29485655  0.71984852  1
  O  O68  1  0.18833825  0.79485655  0.78015148  1
  O  O69  1  0.18820847  0.20483231  0.22004464  1
  O  O70  1  0.31179153  0.29516769  0.72004464  1
  O  O71  1  0.31166175  0.70514345  0.28015148  1
  O  O72  1  0.50000000  0.00000000  0.50000000  1
  O  O73  1  -0.00000000  0.50000000  0.00000000  1
  O  O74  1  0.68695218  0.64086086  0.02129482  1
  O  O75  1  0.68694996  0.35911899  0.97914781  1
  O  O76  1  0.81305004  0.14088101  0.47914781  1
  O  O77  1  0.81304782  0.85913914  0.52129482  1
  O  O78  1  0.31304782  0.35913914  0.97870518  1
  O  O79  1  0.31305004  0.64088101  0.02085219  1
  O  O80  1  0.18694996  0.85911899  0.52085219  1
  O  O81  1  0.18695218  0.14086086  0.47870518  1
  O  O82  1  0.50000000  0.00000000  0.00000000  1
  O  O83  1  -0.00000000  0.50000000  0.50000000  1
  O  O84  1  0.49869148  0.13536644  0.34570646  1
  O  O85  1  0.50130852  0.86463356  0.65429354  1
  O  O86  1  0.99869148  0.63536644  0.15429354  1
  O  O87  1  0.00130852  0.36463356  0.84570646  1
