# generated using pymatgen
data_Li2CuH14C4(N3O4)2
_symmetry_space_group_name_H-M   'P 1'
_cell_length_a   3.51861088
_cell_length_b   12.96633414
_cell_length_c   13.52367129
_cell_angle_alpha   90.00000000
_cell_angle_beta   97.66096692
_cell_angle_gamma   90.00000000
_symmetry_Int_Tables_number   1
_chemical_formula_structural   Li2CuH14C4(N3O4)2
_chemical_formula_sum   'Li4 Cu2 H28 C8 N12 O16'
_cell_volume   611.48984430
_cell_formula_units_Z   2
loop_
 _symmetry_equiv_pos_site_id
 _symmetry_equiv_pos_as_xyz
  1  'x, y, z'
loop_
 _atom_site_type_symbol
 _atom_site_label
 _atom_site_symmetry_multiplicity
 _atom_site_fract_x
 _atom_site_fract_y
 _atom_site_fract_z
 _atom_site_occupancy
  Li  Li0  1  0.07872889  0.09436653  0.36427663  1
  Li  Li1  1  0.57872889  0.40563347  0.86427663  1
  Li  Li2  1  0.42127111  0.59436653  0.13572337  1
  Li  Li3  1  0.92127111  0.90563347  0.63572337  1
  Cu  Cu4  1  0.00000000  0.00000000  0.00000000  1
  Cu  Cu5  1  0.50000000  0.50000000  0.50000000  1
  H  H6  1  0.02289941  0.58635171  0.93548513  1
  H  H7  1  0.08451629  0.58528535  0.82252739  1
  H  H8  1  0.08779916  0.78781319  0.37579042  1
  H  H9  1  0.22347742  0.14907007  0.83341132  1
  H  H10  1  0.25533985  0.24183101  0.76002200  1
  H  H11  1  0.24466015  0.74183101  0.73997800  1
  H  H12  1  0.13897465  0.48767726  0.32375910  1
  H  H13  1  0.27652258  0.64907007  0.66658868  1
  H  H14  1  0.26689505  0.33706118  0.39328552  1
  H  H15  1  0.23310495  0.83706118  0.10671448  1
  H  H16  1  0.41548371  0.08528535  0.67747261  1
  H  H17  1  0.36102535  0.98767726  0.17624090  1
  H  H18  1  0.47710059  0.08635171  0.56451487  1
  H  H19  1  0.41220084  0.28781319  0.12420958  1
  H  H20  1  0.58779916  0.71218681  0.87579042  1
  H  H21  1  0.52289941  0.91364829  0.43548513  1
  H  H22  1  0.63897465  0.01232274  0.82375910  1
  H  H23  1  0.58451629  0.91471465  0.32252739  1
  H  H24  1  0.76689505  0.16293882  0.89328552  1
  H  H25  1  0.73310495  0.66293882  0.60671448  1
  H  H26  1  0.72347742  0.35092993  0.33341132  1
  H  H27  1  0.86102535  0.51232274  0.67624090  1
  H  H28  1  0.75533985  0.25816899  0.26002200  1
  H  H29  1  0.74466015  0.75816899  0.23997800  1
  H  H30  1  0.77652258  0.85092993  0.16658868  1
  H  H31  1  0.91220084  0.21218681  0.62420958  1
  H  H32  1  0.91548371  0.41471465  0.17747261  1
  H  H33  1  0.97710059  0.41364829  0.06451487  1
  C  C34  1  0.09968937  0.63332764  0.34522241  1
  C  C35  1  0.08481928  0.22903548  0.00155245  1
  C  C36  1  0.41518072  0.72903548  0.49844755  1
  C  C37  1  0.40031063  0.13332764  0.15477759  1
  C  C38  1  0.59968937  0.86667236  0.84522241  1
  C  C39  1  0.58481928  0.27096452  0.50155245  1
  C  C40  1  0.91518072  0.77096452  0.99844755  1
  C  C41  1  0.90031063  0.36667236  0.65477759  1
  N  N42  1  0.03074976  0.85564193  0.04737880  1
  N  N43  1  0.18512012  0.71989436  0.40621441  1
  N  N44  1  0.21621683  0.54214808  0.37692798  1
  N  N45  1  0.28378317  0.04214808  0.12307202  1
  N  N46  1  0.31487988  0.21989436  0.09378559  1
  N  N47  1  0.46925024  0.35564193  0.45262120  1
  N  N48  1  0.53074976  0.64435807  0.54737880  1
  N  N49  1  0.68512012  0.78010564  0.90621441  1
  N  N50  1  0.71621683  0.95785192  0.87692798  1
  N  N51  1  0.78378317  0.45785192  0.62307202  1
  N  N52  1  0.81487988  0.28010564  0.59378559  1
  N  N53  1  0.96925024  0.14435807  0.95262120  1
  O  O54  1  0.00542942  0.32180169  0.97028248  1
  O  O55  1  0.04589401  0.53823131  0.87871502  1
  O  O56  1  0.09128806  0.35023249  0.74207018  1
  O  O57  1  0.13671102  0.66963253  0.72215821  1
  O  O58  1  0.36328898  0.16963253  0.77784179  1
  O  O59  1  0.40871194  0.85023249  0.75792982  1
  O  O60  1  0.45410599  0.03823131  0.62128498  1
  O  O61  1  0.49457058  0.82180169  0.52971752  1
  O  O62  1  0.50542942  0.17819831  0.47028248  1
  O  O63  1  0.54589401  0.96176869  0.37871502  1
  O  O64  1  0.59128806  0.14976751  0.24207018  1
  O  O65  1  0.63671102  0.83036747  0.22215821  1
  O  O66  1  0.86328898  0.33036747  0.27784179  1
  O  O67  1  0.90871194  0.64976751  0.25792982  1
  O  O68  1  0.95410599  0.46176869  0.12128498  1
  O  O69  1  0.99457058  0.67819831  0.02971752  1
