# generated using pymatgen
data_Hf3AlGe5
_symmetry_space_group_name_H-M   'P 1'
_cell_length_a   3.78536982
_cell_length_b   3.83356379
_cell_length_c   22.38887157
_cell_angle_alpha   85.08871551
_cell_angle_beta   90.00000000
_cell_angle_gamma   90.00000000
_symmetry_Int_Tables_number   1
_chemical_formula_structural   Hf3AlGe5
_chemical_formula_sum   'Hf6 Al2 Ge10'
_cell_volume   323.70227234
_cell_formula_units_Z   2
loop_
 _symmetry_equiv_pos_site_id
 _symmetry_equiv_pos_as_xyz
  1  'x, y, z'
loop_
 _atom_site_type_symbol
 _atom_site_label
 _atom_site_symmetry_multiplicity
 _atom_site_fract_x
 _atom_site_fract_y
 _atom_site_fract_z
 _atom_site_occupancy
  Hf  Hf0  1  0.25000000  0.86884507  0.26231087  1
  Hf  Hf1  1  0.25000000  0.20023255  0.59953490  1
  Hf  Hf2  1  0.25000000  0.53318545  0.93362810  1
  Hf  Hf3  1  0.75000000  0.46458379  0.07083341  1
  Hf  Hf4  1  0.75000000  0.80024878  0.39950244  1
  Hf  Hf5  1  0.75000000  0.13319905  0.73360091  1
  Al  Al6  1  0.75000000  0.24993573  0.50012753  1
  Al  Al7  1  0.75000000  0.58321901  0.83356297  1
  Ge  Ge8  1  0.25000000  0.41685436  0.16629028  1
  Ge  Ge9  1  0.25000000  0.75006011  0.49988078  1
  Ge  Ge10  1  0.25000000  0.08343890  0.83312220  1
  Ge  Ge11  1  0.75000000  0.91669695  0.16660611  1
  Ge  Ge12  1  0.25000000  0.97973173  0.04053655  1
  Ge  Ge13  1  0.25000000  0.31130540  0.37738820  1
  Ge  Ge14  1  0.25000000  0.64504973  0.70990154  1
  Ge  Ge15  1  0.75000000  0.35342859  0.29314181  1
  Ge  Ge16  1  0.75000000  0.68806390  0.62387320  1
  Ge  Ge17  1  0.75000000  0.02192090  0.95615819  1
