# generated using pymatgen
data_FeCl4
_symmetry_space_group_name_H-M   'P 1'
_cell_length_a   7.04347138
_cell_length_b   6.86917060
_cell_length_c   7.51044818
_cell_angle_alpha   90.00000000
_cell_angle_beta   57.78148991
_cell_angle_gamma   119.18471597
_symmetry_Int_Tables_number   1
_chemical_formula_structural   FeCl4
_chemical_formula_sum   'Fe2 Cl8'
_cell_volume   251.22216707
_cell_formula_units_Z   2
loop_
 _symmetry_equiv_pos_site_id
 _symmetry_equiv_pos_as_xyz
  1  'x, y, z'
loop_
 _atom_site_type_symbol
 _atom_site_label
 _atom_site_symmetry_multiplicity
 _atom_site_fract_x
 _atom_site_fract_y
 _atom_site_fract_z
 _atom_site_occupancy
  Fe  Fe0  1  0.50000000  0.00000000  0.50000000  1
  Fe  Fe1  1  0.50000000  0.50000000  0.50000000  1
  Cl  Cl2  1  0.94572415  0.72203765  0.27713792  1
  Cl  Cl3  1  0.94572415  0.22368650  0.27713792  1
  Cl  Cl4  1  0.49951234  0.24975617  0.70626630  1
  Cl  Cl5  1  0.49951234  0.24975617  0.29422136  1
  Cl  Cl6  1  0.05427585  0.27796235  0.72286208  1
  Cl  Cl7  1  0.05427585  0.77631350  0.72286208  1
  Cl  Cl8  1  0.50048766  0.75024383  0.29373370  1
  Cl  Cl9  1  0.50048766  0.75024383  0.70577864  1
