# generated using pymatgen
data_Er10NiSb5
_symmetry_space_group_name_H-M   'P 1'
_cell_length_a   7.89524654
_cell_length_b   9.18274190
_cell_length_c   11.78154737
_cell_angle_alpha   90.00106101
_cell_angle_beta   90.00076300
_cell_angle_gamma   90.00027951
_symmetry_Int_Tables_number   1
_chemical_formula_structural   Er10NiSb5
_chemical_formula_sum   'Er20 Ni2 Sb10'
_cell_volume   854.16231632
_cell_formula_units_Z   2
loop_
 _symmetry_equiv_pos_site_id
 _symmetry_equiv_pos_as_xyz
  1  'x, y, z'
loop_
 _atom_site_type_symbol
 _atom_site_label
 _atom_site_symmetry_multiplicity
 _atom_site_fract_x
 _atom_site_fract_y
 _atom_site_fract_z
 _atom_site_occupancy
  Er  Er0  1  0.67932417  0.43297865  0.43517157  1
  Er  Er1  1  0.82062568  0.06703082  0.93522527  1
  Er  Er2  1  0.31608903  0.96642647  0.56610611  1
  Er  Er3  1  0.18395359  0.53368360  0.06610313  1
  Er  Er4  1  0.31609605  0.53358937  0.56610040  1
  Er  Er5  1  0.18395769  0.96631978  0.06610621  1
  Er  Er6  1  0.67931563  0.06705346  0.43516851  1
  Er  Er7  1  0.82062910  0.43297137  0.93524201  1
  Er  Er8  1  0.82777408  0.74998647  0.22453314  1
  Er  Er9  1  0.67217086  0.74999794  0.72453798  1
  Er  Er10  1  0.16476232  0.25000005  0.79106939  1
  Er  Er11  1  0.33523802  0.25000321  0.29105162  1
  Er  Er12  1  0.51739441  0.74999491  0.00496033  1
  Er  Er13  1  0.98258819  0.74998943  0.50491174  1
  Er  Er14  1  0.45295172  0.25000077  0.00238962  1
  Er  Er15  1  0.04714297  0.24999931  0.50237152  1
  Er  Er16  1  0.34389696  0.74999373  0.28603022  1
  Er  Er17  1  0.15610521  0.74998899  0.78606668  1
  Er  Er18  1  0.63293963  0.24999861  0.69801531  1
  Er  Er19  1  0.86696572  0.25000022  0.19802606  1
  Ni  Ni20  1  0.40971902  0.25000997  0.51628330  1
  Ni  Ni21  1  0.09025838  0.24999825  0.01637334  1
  Sb  Sb22  1  0.06405483  0.99128013  0.32718073  1
  Sb  Sb23  1  0.43595350  0.50870361  0.82716804  1
  Sb  Sb24  1  0.93126267  0.49242513  0.67302742  1
  Sb  Sb25  1  0.56875671  0.00756647  0.17305434  1
  Sb  Sb26  1  0.93125971  0.00755970  0.67301524  1
  Sb  Sb27  1  0.56874906  0.49242464  0.17305191  1
  Sb  Sb28  1  0.06405085  0.50870098  0.32717386  1
  Sb  Sb29  1  0.43595057  0.99128787  0.82717646  1
  Sb  Sb30  1  0.59484194  0.75002779  0.47362063  1
  Sb  Sb31  1  0.90522173  0.75000826  0.97368792  1
