# generated using pymatgen
data_K2FeP2H3(O4F)2
_symmetry_space_group_name_H-M   'P 1'
_cell_length_a   4.85778789
_cell_length_b   8.45455072
_cell_length_c   11.03672116
_cell_angle_alpha   90.00000000
_cell_angle_beta   93.69727788
_cell_angle_gamma   90.00000000
_symmetry_Int_Tables_number   1
_chemical_formula_structural   K2FeP2H3(O4F)2
_chemical_formula_sum   'K4 Fe2 P4 H6 O16 F4'
_cell_volume   452.33928280
_cell_formula_units_Z   2
loop_
 _symmetry_equiv_pos_site_id
 _symmetry_equiv_pos_as_xyz
  1  'x, y, z'
loop_
 _atom_site_type_symbol
 _atom_site_label
 _atom_site_symmetry_multiplicity
 _atom_site_fract_x
 _atom_site_fract_y
 _atom_site_fract_z
 _atom_site_occupancy
  K  K0  1  0.50995674  0.39747414  0.82983210  1
  K  K1  1  0.49004326  0.89747414  0.67016790  1
  K  K2  1  0.49709287  0.60531536  0.16720611  1
  K  K3  1  0.50290713  0.10531536  0.33279389  1
  Fe  Fe4  1  0.49917972  0.49815213  0.50034014  1
  Fe  Fe5  1  0.50082028  0.99815213  0.99965986  1
  P  P6  1  0.98289634  0.73730485  0.41463610  1
  P  P7  1  0.01710366  0.23730485  0.08536390  1
  P  P8  1  0.01611564  0.25663658  0.58279039  1
  P  P9  1  0.98388436  0.75663658  0.91720961  1
  H  H10  1  0.94705122  0.84342297  0.22999646  1
  H  H11  1  0.05294878  0.34342297  0.27000354  1
  H  H12  1  0.04937886  0.15739184  0.76921405  1
  H  H13  1  0.95062114  0.65739184  0.73078595  1
  H  H14  1  0.98107755  0.98664540  0.49694675  1
  H  H15  1  0.01892245  0.48664540  0.00305325  1
  O  O16  1  0.76256669  0.61008206  0.39202262  1
  O  O17  1  0.23743331  0.11008206  0.10797738  1
  O  O18  1  0.23676050  0.38571636  0.60458192  1
  O  O19  1  0.76323950  0.88571636  0.89541808  1
  O  O20  1  0.09154009  0.79142668  0.28678168  1
  O  O21  1  0.90845991  0.29142668  0.21321832  1
  O  O22  1  0.90672763  0.21060200  0.71307760  1
  O  O23  1  0.09327237  0.71060200  0.78692240  1
  O  O24  1  0.24196246  0.68986177  0.49138023  1
  O  O25  1  0.75803754  0.18986177  0.00861977  1
  O  O26  1  0.75522485  0.30961467  0.50799337  1
  O  O27  1  0.24477515  0.80961467  0.99200663  1
  O  O28  1  0.84221232  0.88555641  0.47064048  1
  O  O29  1  0.15778768  0.38555641  0.02935952  1
  O  O30  1  0.14316817  0.10697693  0.52836898  1
  O  O31  1  0.85683183  0.60697693  0.97163102  1
  F  F32  1  0.31816359  0.40881800  0.34826107  1
  F  F33  1  0.68183641  0.90881800  0.15173893  1
  F  F34  1  0.67770766  0.59290185  0.64961574  1
  F  F35  1  0.32229234  0.09290185  0.85038426  1
