# generated using pymatgen
data_K5BaNbAs4
_symmetry_space_group_name_H-M   'P 1'
_cell_length_a   8.19243964
_cell_length_b   10.52715632
_cell_length_c   10.52715632
_cell_angle_alpha   120.63015793
_cell_angle_beta   89.38831012
_cell_angle_gamma   89.38831012
_symmetry_Int_Tables_number   1
_chemical_formula_structural   K5BaNbAs4
_chemical_formula_sum   'K10 Ba2 Nb2 As8'
_cell_volume   781.03805821
_cell_formula_units_Z   2
loop_
 _symmetry_equiv_pos_site_id
 _symmetry_equiv_pos_as_xyz
  1  'x, y, z'
loop_
 _atom_site_type_symbol
 _atom_site_label
 _atom_site_symmetry_multiplicity
 _atom_site_fract_x
 _atom_site_fract_y
 _atom_site_fract_z
 _atom_site_occupancy
  K  K0  1  0.39097636  0.53400950  0.47477376  1
  K  K1  1  0.39018365  0.94093813  0.47394462  1
  K  K2  1  0.89097636  0.47477376  0.53400950  1
  K  K3  1  0.89018365  0.47394462  0.94093813  1
  K  K4  1  0.21313912  0.13509697  0.85414147  1
  K  K5  1  0.19859925  0.71226083  0.84764709  1
  K  K6  1  0.22103397  0.14646508  0.28674102  1
  K  K7  1  0.71313912  0.85414147  0.13509697  1
  K  K8  1  0.72103397  0.28674102  0.14646508  1
  K  K9  1  0.69859925  0.84764709  0.71226083  1
  Ba  Ba10  1  0.39430135  0.53364788  0.06395610  1
  Ba  Ba11  1  0.89430135  0.06395610  0.53364788  1
  Nb  Nb12  1  0.49830569  0.33153036  0.66506755  1
  Nb  Nb13  1  0.99830569  0.66506755  0.33153036  1
  As  As14  1  0.19049366  0.32489510  0.66755679  1
  As  As15  1  0.69049366  0.66755679  0.32489510  1
  As  As16  1  0.10119952  0.79908047  0.20353968  1
  As  As17  1  0.10947629  0.40482382  0.19715209  1
  As  As18  1  0.08509114  0.80544842  0.59728329  1
  As  As19  1  0.60119952  0.20353968  0.79908047  1
  As  As20  1  0.58509114  0.59728329  0.80544842  1
  As  As21  1  0.60947629  0.19715209  0.40482382  1
