# generated using pymatgen
data_NbVO4
_symmetry_space_group_name_H-M   'P 1'
_cell_length_a   4.96015830
_cell_length_b   6.27118753
_cell_length_c   4.96015830
_cell_angle_alpha   66.70458445
_cell_angle_beta   90.00000000
_cell_angle_gamma   113.29541545
_symmetry_Int_Tables_number   1
_chemical_formula_structural   NbVO4
_chemical_formula_sum   'Nb2 V2 O8'
_cell_volume   127.90385371
_cell_formula_units_Z   2
loop_
 _symmetry_equiv_pos_site_id
 _symmetry_equiv_pos_as_xyz
  1  'x, y, z'
loop_
 _atom_site_type_symbol
 _atom_site_label
 _atom_site_symmetry_multiplicity
 _atom_site_fract_x
 _atom_site_fract_y
 _atom_site_fract_z
 _atom_site_occupancy
  Nb  Nb0  1  0.87500000  0.25000000  0.37500000  1
  Nb  Nb1  1  0.12500000  0.75000000  0.62500000  1
  V  V2  1  0.62500000  0.75000000  0.12500000  1
  V  V3  1  0.37500000  0.25000000  0.87500000  1
  O  O4  1  0.05105947  0.07129420  0.22825752  1
  O  O5  1  0.27174248  0.57129420  0.97976527  1
  O  O6  1  0.79955272  0.57129420  0.44894053  1
  O  O7  1  0.47976527  0.92870580  0.29955272  1
  O  O8  1  0.52023473  0.07129420  0.70044728  1
  O  O9  1  0.20044728  0.42870580  0.55105947  1
  O  O10  1  0.72825752  0.42870580  0.02023473  1
  O  O11  1  0.94894053  0.92870580  0.77174248  1
