# generated using pymatgen
data_Cs2AsH3SeO8
_symmetry_space_group_name_H-M   'P 1'
_cell_length_a   8.22818380
_cell_length_b   8.16281125
_cell_length_c   8.19730327
_cell_angle_alpha   101.54253031
_cell_angle_beta   87.67020428
_cell_angle_gamma   90.56385129
_symmetry_Int_Tables_number   1
_chemical_formula_structural   Cs2AsH3SeO8
_chemical_formula_sum   'Cs4 As2 H6 Se2 O16'
_cell_volume   538.99152314
_cell_formula_units_Z   2
loop_
 _symmetry_equiv_pos_site_id
 _symmetry_equiv_pos_as_xyz
  1  'x, y, z'
loop_
 _atom_site_type_symbol
 _atom_site_label
 _atom_site_symmetry_multiplicity
 _atom_site_fract_x
 _atom_site_fract_y
 _atom_site_fract_z
 _atom_site_occupancy
  Cs  Cs0  1  0.16779131  0.11798092  0.23196578  1
  Cs  Cs1  1  0.33339904  0.60794256  0.72370582  1
  Cs  Cs2  1  0.83220869  0.88201908  0.76803422  1
  Cs  Cs3  1  0.66660096  0.39205744  0.27629418  1
  As  As4  1  0.17671120  0.60240801  0.25028557  1
  As  As5  1  0.82328880  0.39759199  0.74971443  1
  H  H6  1  0.00000000  0.50000000  0.00000000  1
  H  H7  1  0.50000000  0.00000000  0.50000000  1
  H  H8  1  0.95784958  0.76363482  0.37927464  1
  H  H9  1  0.60398117  0.27172436  0.87459507  1
  H  H10  1  0.04215042  0.23636518  0.62072536  1
  H  H11  1  0.39601883  0.72827564  0.12540493  1
  Se  Se12  1  0.32549696  0.11294313  0.75292498  1
  Se  Se13  1  0.67450304  0.88705687  0.24707502  1
  O  O14  1  0.30573931  0.49638011  0.34116617  1
  O  O15  1  0.19482043  0.99402762  0.83557200  1
  O  O16  1  0.69426069  0.50361989  0.65883383  1
  O  O17  1  0.80517957  0.00597238  0.16442800  1
  O  O18  1  0.07645357  0.75540175  0.40541257  1
  O  O19  1  0.41546086  0.24993245  0.90264844  1
  O  O20  1  0.92354643  0.24459825  0.59458743  1
  O  O21  1  0.58453914  0.75006755  0.09735156  1
  O  O22  1  0.02814954  0.48387993  0.14037455  1
  O  O23  1  0.47541280  0.98472255  0.64392321  1
  O  O24  1  0.97185046  0.51612007  0.85962545  1
  O  O25  1  0.52458720  0.01527745  0.35607679  1
  O  O26  1  0.27173664  0.72230319  0.11636825  1
  O  O27  1  0.24041404  0.21423560  0.62006104  1
  O  O28  1  0.72826336  0.27769681  0.88363175  1
  O  O29  1  0.75958596  0.78576440  0.37993896  1
