# generated using pymatgen
data_CeYCo17
_symmetry_space_group_name_H-M   'P 1'
_cell_length_a   6.27984418
_cell_length_b   6.27984418
_cell_length_c   6.27984406
_cell_angle_alpha   82.99030461
_cell_angle_beta   82.99030461
_cell_angle_gamma   82.99030705
_symmetry_Int_Tables_number   1
_chemical_formula_structural   CeYCo17
_chemical_formula_sum   'Ce1 Y1 Co17'
_cell_volume   242.51905922
_cell_formula_units_Z   1
loop_
 _symmetry_equiv_pos_site_id
 _symmetry_equiv_pos_as_xyz
  1  'x, y, z'
loop_
 _atom_site_type_symbol
 _atom_site_label
 _atom_site_symmetry_multiplicity
 _atom_site_fract_x
 _atom_site_fract_y
 _atom_site_fract_z
 _atom_site_occupancy
  Ce  Ce0  1  0.65318028  0.65318028  0.65318028  1
  Y  Y1  1  0.34372620  0.34372620  0.34372620  1
  Co  Co2  1  0.28822413  0.71378142  0.99944241  1
  Co  Co3  1  0.71378142  0.99944241  0.28822413  1
  Co  Co4  1  0.99944241  0.28822413  0.71378142  1
  Co  Co5  1  0.28822413  0.99944241  0.71378142  1
  Co  Co6  1  0.99944241  0.71378142  0.28822413  1
  Co  Co7  1  0.71378142  0.28822413  0.99944241  1
  Co  Co8  1  0.34730436  0.34730436  0.84907956  1
  Co  Co9  1  0.34730436  0.84907956  0.34730436  1
  Co  Co10  1  0.84907956  0.34730436  0.34730436  1
  Co  Co11  1  0.65400711  0.65400711  0.14337945  1
  Co  Co12  1  0.65400711  0.14337945  0.65400711  1
  Co  Co13  1  0.14337945  0.65400711  0.65400711  1
  Co  Co14  1  0.00327673  0.00327673  0.49899220  1
  Co  Co15  1  0.00327673  0.49899220  0.00327673  1
  Co  Co16  1  0.49899220  0.00327673  0.00327673  1
  Co  Co17  1  0.90201621  0.90201621  0.90201621  1
  Co  Co18  1  0.09755377  0.09755377  0.09755377  1
