# generated using pymatgen
data_CsMgFeF6
_symmetry_space_group_name_H-M   'P 1'
_cell_length_a   7.44035174
_cell_length_b   7.38912934
_cell_length_c   7.48424040
_cell_angle_alpha   90.00000000
_cell_angle_beta   59.80467883
_cell_angle_gamma   119.77252578
_symmetry_Int_Tables_number   1
_chemical_formula_structural   CsMgFeF6
_chemical_formula_sum   'Cs2 Mg2 Fe2 F12'
_cell_volume   291.08812054
_cell_formula_units_Z   2
loop_
 _symmetry_equiv_pos_site_id
 _symmetry_equiv_pos_as_xyz
  1  'x, y, z'
loop_
 _atom_site_type_symbol
 _atom_site_label
 _atom_site_symmetry_multiplicity
 _atom_site_fract_x
 _atom_site_fract_y
 _atom_site_fract_z
 _atom_site_occupancy
  Cs  Cs0  1  0.75834206  0.37917103  0.37082897  1
  Cs  Cs1  1  0.24165794  0.62082897  0.62917103  1
  Mg  Mg2  1  0.50000000  0.50000000  -0.00000000  1
  Mg  Mg3  1  0.50000000  -0.00000000  -0.00000000  1
  Fe  Fe4  1  -0.00000000  -0.00000000  0.50000000  1
  Fe  Fe5  1  -0.00000000  -0.00000000  -0.00000000  1
  F  F6  1  0.86545375  0.93272688  0.31727312  1
  F  F7  1  0.63273542  0.31636771  0.93363229  1
  F  F8  1  0.24472191  0.93379089  0.93336636  1
  F  F9  1  0.24472191  0.31093102  0.32191173  1
  F  F10  1  0.24472191  0.31093102  0.93336636  1
  F  F11  1  0.24472191  0.93379089  0.32191173  1
  F  F12  1  0.13454625  0.06727312  0.68272688  1
  F  F13  1  0.36726458  0.68363229  0.06636771  1
  F  F14  1  0.75527809  0.06620911  0.06663364  1
  F  F15  1  0.75527809  0.68906898  0.67808827  1
  F  F16  1  0.75527809  0.68906898  0.06663364  1
  F  F17  1  0.75527809  0.06620911  0.67808827  1
