# generated using pymatgen
data_Er2Fe6Co6P7
_symmetry_space_group_name_H-M   'P 1'
_cell_length_a   3.60730743
_cell_length_b   8.98242360
_cell_length_c   8.98247028
_cell_angle_alpha   59.99830400
_cell_angle_beta   90.00000000
_cell_angle_gamma   90.00000000
_symmetry_Int_Tables_number   1
_chemical_formula_structural   Er2Fe6Co6P7
_chemical_formula_sum   'Er2 Fe6 Co6 P7'
_cell_volume   252.05521452
_cell_formula_units_Z   1
loop_
 _symmetry_equiv_pos_site_id
 _symmetry_equiv_pos_as_xyz
  1  'x, y, z'
loop_
 _atom_site_type_symbol
 _atom_site_label
 _atom_site_symmetry_multiplicity
 _atom_site_fract_x
 _atom_site_fract_y
 _atom_site_fract_z
 _atom_site_occupancy
  Er  Er0  1  0.50000000  0.33341817  0.33330903  1
  Er  Er1  1  -0.00000000  0.66665353  0.66664073  1
  Fe  Fe2  1  0.50000000  0.12318203  0.78009695  1
  Fe  Fe3  1  0.50000000  0.09669555  0.12304952  1
  Fe  Fe4  1  0.50000000  0.78018369  0.09668349  1
  Fe  Fe5  1  0.50000000  0.94988333  0.61641662  1
  Fe  Fe6  1  0.50000000  0.43360488  0.94997414  1
  Fe  Fe7  1  0.50000000  0.61636068  0.43368658  1
  Co  Co8  1  -0.00000000  0.36968822  0.56806424  1
  Co  Co9  1  -0.00000000  0.06220279  0.36974584  1
  Co  Co10  1  -0.00000000  0.56815661  0.06215971  1
  Co  Co11  1  -0.00000000  0.88070976  0.84551726  1
  Co  Co12  1  0.00000000  0.27379949  0.88077941  1
  Co  Co13  1  -0.00000000  0.84543363  0.27384765  1
  P  P14  1  -0.00000000  -0.00000172  -0.00001726  1
  P  P15  1  0.50000000  0.70930910  0.88721825  1
  P  P16  1  0.50000000  0.40350632  0.70932181  1
  P  P17  1  0.50000000  0.88719234  0.40349776  1
  P  P18  1  -0.00000000  0.11065561  0.59144030  1
  P  P19  1  0.00000000  0.29794483  0.11068047  1
  P  P20  1  -0.00000000  0.59142115  0.29788751  1
