# generated using pymatgen
data_CoCuNiS4
_symmetry_space_group_name_H-M   'P 1'
_cell_length_a   6.71774259
_cell_length_b   6.68989070
_cell_length_c   6.75556634
_cell_angle_alpha   90.00000000
_cell_angle_beta   59.81357159
_cell_angle_gamma   119.86294522
_symmetry_Int_Tables_number   1
_chemical_formula_structural   CoCuNiS4
_chemical_formula_sum   'Co2 Cu2 Ni2 S8'
_cell_volume   214.51677365
_cell_formula_units_Z   2
loop_
 _symmetry_equiv_pos_site_id
 _symmetry_equiv_pos_as_xyz
  1  'x, y, z'
loop_
 _atom_site_type_symbol
 _atom_site_label
 _atom_site_symmetry_multiplicity
 _atom_site_fract_x
 _atom_site_fract_y
 _atom_site_fract_z
 _atom_site_occupancy
  Co  Co0  1  0.50000000  0.50000000  -0.00000000  1
  Co  Co1  1  0.50000000  0.00000000  -0.00000000  1
  Cu  Cu2  1  0.74695635  0.37347818  0.37652182  1
  Cu  Cu3  1  0.25304365  0.62652182  0.62347818  1
  Ni  Ni4  1  0.00000000  0.00000000  0.50000000  1
  Ni  Ni5  1  -0.00000000  0.00000000  -0.00000000  1
  S  S6  1  0.02893618  0.78802070  0.23553191  1
  S  S7  1  0.02893618  0.24091548  0.23553191  1
  S  S8  1  0.47935652  0.23967826  0.78811355  1
  S  S9  1  0.47935652  0.23967826  0.23252993  1
  S  S10  1  0.97106382  0.21197930  0.76446809  1
  S  S11  1  0.97106382  0.75908452  0.76446809  1
  S  S12  1  0.52064348  0.76032174  0.21188645  1
  S  S13  1  0.52064348  0.76032174  0.76747007  1
