# generated using pymatgen
data_ErFeRu
_symmetry_space_group_name_H-M   'P 1'
_cell_length_a   5.23101351
_cell_length_b   5.23101351
_cell_length_c   5.23101351
_cell_angle_alpha   89.76418664
_cell_angle_beta   58.66020303
_cell_angle_gamma   118.40961431
_symmetry_Int_Tables_number   1
_chemical_formula_structural   ErFeRu
_chemical_formula_sum   'Er2 Fe2 Ru2'
_cell_volume   101.32272838
_cell_formula_units_Z   2
loop_
 _symmetry_equiv_pos_site_id
 _symmetry_equiv_pos_as_xyz
  1  'x, y, z'
loop_
 _atom_site_type_symbol
 _atom_site_label
 _atom_site_symmetry_multiplicity
 _atom_site_fract_x
 _atom_site_fract_y
 _atom_site_fract_z
 _atom_site_occupancy
  Er  Er0  1  0.50000000  0.75042441  0.74957559  1
  Er  Er1  1  0.00000000  -0.00042441  0.00042441  1
  Fe  Fe2  1  0.75000000  0.37500000  0.87500000  1
  Fe  Fe3  1  0.25000000  0.37500000  0.37500000  1
  Ru  Ru4  1  0.25000000  0.87500000  0.37500000  1
  Ru  Ru5  1  0.75000000  0.37500000  0.37500000  1
