# generated using pymatgen
data_CaAl3Au
_symmetry_space_group_name_H-M   'P 1'
_cell_length_a   4.15496943
_cell_length_b   4.15496943
_cell_length_c   6.59687682
_cell_angle_alpha   71.64404979
_cell_angle_beta   71.64404979
_cell_angle_gamma   90.00000000
_symmetry_Int_Tables_number   1
_chemical_formula_structural   CaAl3Au
_chemical_formula_sum   'Ca1 Al3 Au1'
_cell_volume   101.96869125
_cell_formula_units_Z   1
loop_
 _symmetry_equiv_pos_site_id
 _symmetry_equiv_pos_as_xyz
  1  'x, y, z'
loop_
 _atom_site_type_symbol
 _atom_site_label
 _atom_site_symmetry_multiplicity
 _atom_site_fract_x
 _atom_site_fract_y
 _atom_site_fract_z
 _atom_site_occupancy
  Ca  Ca0  1  0.99939543  0.99939543  0.00120914  1
  Al  Al1  1  0.74843469  0.24843469  0.50313062  1
  Al  Al2  1  0.24843469  0.74843469  0.50313062  1
  Al  Al3  1  0.39375724  0.39375724  0.21248552  1
  Au  Au4  1  0.60997795  0.60997795  0.78004410  1
