# generated using pymatgen
data_Li7Nb2Fe3O16
_symmetry_space_group_name_H-M   'P 1'
_cell_length_a   5.95173484
_cell_length_b   5.86963869
_cell_length_c   9.68441199
_cell_angle_alpha   89.39736291
_cell_angle_beta   89.19046849
_cell_angle_gamma   119.16341004
_symmetry_Int_Tables_number   1
_chemical_formula_structural   Li7Nb2Fe3O16
_chemical_formula_sum   'Li7 Nb2 Fe3 O16'
_cell_volume   295.34453356
_cell_formula_units_Z   1
loop_
 _symmetry_equiv_pos_site_id
 _symmetry_equiv_pos_as_xyz
  1  'x, y, z'
loop_
 _atom_site_type_symbol
 _atom_site_label
 _atom_site_symmetry_multiplicity
 _atom_site_fract_x
 _atom_site_fract_y
 _atom_site_fract_z
 _atom_site_occupancy
  Li  Li0  1  0.16458764  0.82687711  0.20880740  1
  Li  Li1  1  0.35476519  0.68695310  0.89975550  1
  Li  Li2  1  0.99328639  0.99335707  0.99832155  1
  Li  Li3  1  0.99435157  0.99515929  0.49117458  1
  Li  Li4  1  0.16577769  0.33906187  0.20742738  1
  Li  Li5  1  0.33844439  0.16700550  0.71347583  1
  Li  Li6  1  0.67859904  0.33809392  0.39330417  1
  Nb  Nb7  1  0.28914679  0.64371072  0.48460782  1
  Nb  Nb8  1  0.66053793  0.33091023  0.00080208  1
  Fe  Fe9  1  0.64954658  0.82365793  0.21799341  1
  Fe  Fe10  1  0.82304678  0.66105728  0.71769539  1
  Fe  Fe11  1  0.83127567  0.16843125  0.71624305  1
  O  O12  1  0.15628532  0.82560746  0.59541601  1
  O  O13  1  0.03580460  0.51476142  0.35398939  1
  O  O14  1  0.36950168  0.68843641  0.11089909  1
  O  O15  1  0.95917614  0.97432224  0.30255048  1
  O  O16  1  0.97921407  0.98454877  0.80649973  1
  O  O17  1  0.14627023  0.32138168  0.59718125  1
  O  O18  1  0.50505183  0.96452628  0.34633355  1
  O  O19  1  0.50285292  0.53469225  0.34242344  1
  O  O20  1  0.33084002  0.16911984  0.07071516  1
  O  O21  1  0.67340433  0.81684345  0.60364550  1
  O  O22  1  0.54418874  0.50574963  0.83889110  1
  O  O23  1  0.55802942  0.05128940  0.84145579  1
  O  O24  1  0.69499021  0.35239108  0.61398486  1
  O  O25  1  0.81111539  0.66281234  0.09805360  1
  O  O26  1  0.97492735  0.50950684  0.83773180  1
  O  O27  1  0.81498308  0.15003665  0.09846307  1
