# generated using pymatgen
data_Cs2VH2(OF2)2
_symmetry_space_group_name_H-M   'P 1'
_cell_length_a   6.55337770
_cell_length_b   7.03942169
_cell_length_c   8.60912781
_cell_angle_alpha   91.14440765
_cell_angle_beta   67.62875253
_cell_angle_gamma   93.00798268
_symmetry_Int_Tables_number   1
_chemical_formula_structural   Cs2VH2(OF2)2
_chemical_formula_sum   'Cs4 V2 H4 O4 F8'
_cell_volume   366.75907747
_cell_formula_units_Z   2
loop_
 _symmetry_equiv_pos_site_id
 _symmetry_equiv_pos_as_xyz
  1  'x, y, z'
loop_
 _atom_site_type_symbol
 _atom_site_label
 _atom_site_symmetry_multiplicity
 _atom_site_fract_x
 _atom_site_fract_y
 _atom_site_fract_z
 _atom_site_occupancy
  Cs  Cs0  1  0.75381388  0.25000000  0.49237224  1
  Cs  Cs1  1  0.24618612  0.75000000  0.50762776  1
  Cs  Cs2  1  0.05079407  0.25000000  0.89841185  1
  Cs  Cs3  1  0.94920593  0.75000000  0.10158815  1
  V  V4  1  0.37064611  0.25000000  0.25870778  1
  V  V5  1  0.62935389  0.75000000  0.74129222  1
  H  H6  1  0.59049631  0.36092610  0.89796972  1
  H  H7  1  0.48846603  0.86092610  0.10203028  1
  H  H8  1  0.40950369  0.63907390  0.10203028  1
  H  H9  1  0.51153397  0.13907390  0.89796972  1
  O  O10  1  0.26587699  0.25000000  0.46824601  1
  O  O11  1  0.73412301  0.75000000  0.53175399  1
  O  O12  1  0.51549449  0.25000000  0.96901103  1
  O  O13  1  0.48450551  0.75000000  0.03098897  1
  F  F14  1  0.61012340  0.44134768  0.22041980  1
  F  F15  1  0.80462395  0.54759049  0.77864713  1
  F  F16  1  0.58327108  0.04759049  0.22135287  1
  F  F17  1  0.83054320  0.94134768  0.77958020  1
  F  F18  1  0.38987660  0.55865232  0.77958020  1
  F  F19  1  0.19537605  0.45240951  0.22135287  1
  F  F20  1  0.41672892  0.95240951  0.77864713  1
  F  F21  1  0.16945680  0.05865232  0.22041980  1
