# generated using pymatgen
data_Ce3GeS2
_symmetry_space_group_name_H-M   'P 1'
_cell_length_a   4.12127605
_cell_length_b   5.80883754
_cell_length_c   7.11072811
_cell_angle_alpha   114.10787740
_cell_angle_beta   106.84554757
_cell_angle_gamma   90.00000000
_symmetry_Int_Tables_number   1
_chemical_formula_structural   Ce3GeS2
_chemical_formula_sum   'Ce3 Ge1 S2'
_cell_volume   147.34290468
_cell_formula_units_Z   1
loop_
 _symmetry_equiv_pos_site_id
 _symmetry_equiv_pos_as_xyz
  1  'x, y, z'
loop_
 _atom_site_type_symbol
 _atom_site_label
 _atom_site_symmetry_multiplicity
 _atom_site_fract_x
 _atom_site_fract_y
 _atom_site_fract_z
 _atom_site_occupancy
  Ce  Ce0  1  0.32815384  0.32815384  0.65630868  1
  Ce  Ce1  1  -0.00000000  -0.00000000  -0.00000000  1
  Ce  Ce2  1  0.67184616  0.67184616  0.34369132  1
  Ge  Ge3  1  -0.00000000  0.50000000  -0.00000000  1
  S  S4  1  0.66502632  0.16502632  0.33005165  1
  S  S5  1  0.33497368  0.83497368  0.66994835  1
