# generated using pymatgen
data_CsNb4Ag(PS10)2
_symmetry_space_group_name_H-M   'P 1'
_cell_length_a   7.89662861
_cell_length_b   12.95133651
_cell_length_c   14.98143248
_cell_angle_alpha   90.00000000
_cell_angle_beta   93.77579262
_cell_angle_gamma   90.00000000
_symmetry_Int_Tables_number   1
_chemical_formula_structural   CsNb4Ag(PS10)2
_chemical_formula_sum   'Cs2 Nb8 Ag2 P4 S40'
_cell_volume   1528.85370168
_cell_formula_units_Z   2
loop_
 _symmetry_equiv_pos_site_id
 _symmetry_equiv_pos_as_xyz
  1  'x, y, z'
loop_
 _atom_site_type_symbol
 _atom_site_label
 _atom_site_symmetry_multiplicity
 _atom_site_fract_x
 _atom_site_fract_y
 _atom_site_fract_z
 _atom_site_occupancy
  Cs  Cs0  1  0.00028546  0.47738103  0.98760554  1
  Cs  Cs1  1  -0.00028546  0.97738103  0.51239446  1
  Nb  Nb2  1  0.42845666  0.46493403  0.74934101  1
  Nb  Nb3  1  0.57154334  0.96493403  0.75065899  1
  Nb  Nb4  1  0.57144798  0.53532079  0.25091051  1
  Nb  Nb5  1  0.42855202  0.03532079  0.24908949  1
  Nb  Nb6  1  0.43562936  0.17404467  0.75069163  1
  Nb  Nb7  1  0.56437064  0.67404467  0.74930837  1
  Nb  Nb8  1  0.56494009  0.82617124  0.24937547  1
  Nb  Nb9  1  0.43505991  0.32617124  0.25062453  1
  Ag  Ag10  1  0.99996943  0.49958643  0.49957702  1
  Ag  Ag11  1  0.00003057  0.99958643  0.00042298  1
  P  P12  1  0.12995410  0.31705127  0.64674617  1
  P  P13  1  0.87004590  0.81705127  0.85325383  1
  P  P14  1  0.86951383  0.68279916  0.35304468  1
  P  P15  1  0.13048617  0.18279916  0.14695532  1
  S  S16  1  0.97744446  0.31646269  0.53403031  1
  S  S17  1  0.02255554  0.81646269  0.96596969  1
  S  S18  1  0.02235363  0.68318318  0.46627287  1
  S  S19  1  0.97764637  0.18318318  0.03372713  1
  S  S20  1  0.34559705  0.02789423  0.84870988  1
  S  S21  1  0.65440295  0.52789423  0.65129012  1
  S  S22  1  0.65479401  0.97232599  0.15119909  1
  S  S23  1  0.34520599  0.47232599  0.34880091  1
  S  S24  1  0.62494694  0.32179041  0.81484312  1
  S  S25  1  0.37505306  0.82179041  0.68515688  1
  S  S26  1  0.37593098  0.67870867  0.18517776  1
  S  S27  1  0.62406902  0.17870867  0.31482224  1
  S  S28  1  0.66708006  0.11323448  0.65449637  1
  S  S29  1  0.33291994  0.61323448  0.84550363  1
  S  S30  1  0.33368144  0.88716846  0.34555889  1
  S  S31  1  0.66631856  0.38716846  0.15444111  1
  S  S32  1  0.58071724  0.08403284  0.88482690  1
  S  S33  1  0.41928276  0.58403284  0.61517310  1
  S  S34  1  0.41979197  0.91591752  0.11508479  1
  S  S35  1  0.58020803  0.41591752  0.38491521  1
  S  S36  1  0.38975829  0.31921660  0.62720141  1
  S  S37  1  0.61024171  0.81921660  0.87279859  1
  S  S38  1  0.61023375  0.68108393  0.37312518  1
  S  S39  1  0.38976625  0.18108393  0.12687482  1
  S  S40  1  0.10269302  0.44939546  0.72077417  1
  S  S41  1  0.89730698  0.94939546  0.77922583  1
  S  S42  1  0.89738945  0.55045734  0.27986784  1
  S  S43  1  0.10261055  0.05045734  0.22013216  1
  S  S44  1  0.10742391  0.18191083  0.71673024  1
  S  S45  1  0.89257609  0.68191083  0.78326976  1
  S  S46  1  0.89328825  0.81829641  0.28410024  1
  S  S47  1  0.10671175  0.31829641  0.21589976  1
  S  S48  1  0.39115277  0.31860265  0.86673430  1
  S  S49  1  0.60884723  0.81860265  0.63326570  1
  S  S50  1  0.61015605  0.68126076  0.13366701  1
  S  S51  1  0.38984395  0.18126076  0.36633299  1
  S  S52  1  0.43334887  0.05635075  0.61627366  1
  S  S53  1  0.56665113  0.55635075  0.88372634  1
  S  S54  1  0.56745913  0.94448818  0.38341981  1
  S  S55  1  0.43254087  0.44448818  0.11658019  1
