# generated using pymatgen
data_Ca6Al7O16F
_symmetry_space_group_name_H-M   'P 1'
_cell_length_a   10.45810995
_cell_length_b   10.45810995
_cell_length_c   10.45810995
_cell_angle_alpha   69.19688808
_cell_angle_beta   71.19059193
_cell_angle_gamma   108.80940807
_symmetry_Int_Tables_number   1
_chemical_formula_structural   Ca6Al7O16F
_chemical_formula_sum   'Ca12 Al14 O32 F2'
_cell_volume   880.15914924
_cell_formula_units_Z   2
loop_
 _symmetry_equiv_pos_site_id
 _symmetry_equiv_pos_as_xyz
  1  'x, y, z'
loop_
 _atom_site_type_symbol
 _atom_site_label
 _atom_site_symmetry_multiplicity
 _atom_site_fract_x
 _atom_site_fract_y
 _atom_site_fract_z
 _atom_site_occupancy
  Ca  Ca0  1  0.63378290  0.25000000  0.11621710  1
  Ca  Ca1  1  0.86621710  0.75000000  0.38378290  1
  Ca  Ca2  1  0.38793288  0.75000000  0.86206712  1
  Ca  Ca3  1  0.11206712  0.25000000  0.63793288  1
  Ca  Ca4  1  0.61206712  0.36206712  0.75000000  1
  Ca  Ca5  1  0.88793288  0.13793288  0.25000000  1
  Ca  Ca6  1  0.36621710  0.61621710  0.25000000  1
  Ca  Ca7  1  0.13378290  0.88378290  0.75000000  1
  Ca  Ca8  1  0.75000000  0.42964878  0.32035122  1
  Ca  Ca9  1  0.25000000  0.07035122  0.17964878  1
  Ca  Ca10  1  0.25000000  0.67964878  0.57035122  1
  Ca  Ca11  1  0.75000000  0.82035122  0.92964878  1
  Al  Al12  1  0.37281978  0.25000000  0.37718022  1
  Al  Al13  1  0.12718022  0.75000000  0.12281978  1
  Al  Al14  1  0.87281978  0.62281978  0.75000000  1
  Al  Al15  1  0.62718022  0.87718022  0.25000000  1
  Al  Al16  1  0.75000000  0.12500000  0.62500000  1
  Al  Al17  1  0.25000000  0.37500000  0.87500000  1
  Al  Al18  1  0.53885470  0.03837719  0.46628434  1
  Al  Al19  1  0.49533847  0.46162281  0.99952249  1
  Al  Al20  1  0.96114530  0.49486096  0.50047751  1
  Al  Al21  1  0.00466153  0.00513904  0.03371566  1
  Al  Al22  1  0.50466153  0.96628434  0.99486096  1
  Al  Al23  1  0.03885470  0.53371566  0.96162281  1
  Al  Al24  1  0.46114530  0.49952249  0.50513904  1
  Al  Al25  1  0.99533847  0.00047751  0.53837719  1
  O  O26  1  0.87059919  0.36743209  0.12644177  1
  O  O27  1  0.50612614  0.13256791  0.99683290  1
  O  O28  1  0.62940081  0.50295904  0.50316710  1
  O  O29  1  0.99387386  0.99704096  0.37355823  1
  O  O30  1  0.49387386  0.62644177  0.00295904  1
  O  O31  1  0.37059919  0.87355823  0.63256791  1
  O  O32  1  0.12940081  0.49683290  0.49704096  1
  O  O33  1  0.00612614  0.00316710  0.86743209  1
  O  O34  1  0.71004551  0.11056174  0.47883868  1
  O  O35  1  0.41059958  0.38943826  0.90051623  1
  O  O36  1  0.78995449  0.31111581  0.59948377  1
  O  O37  1  0.08940042  0.18888419  0.02116132  1
  O  O38  1  0.59469879  0.88473090  0.09301694  1
  O  O39  1  0.02225216  0.61526910  0.79003211  1
  O  O40  1  0.47774784  0.68771573  0.40698306  1
  O  O41  1  0.90530121  0.81228427  0.70996789  1
  O  O42  1  0.40530121  0.29003211  0.18771573  1
  O  O43  1  0.97774784  0.59301694  0.31228427  1
  O  O44  1  0.52225216  0.20996789  0.38473090  1
  O  O45  1  0.09469879  0.90698306  0.11526910  1
  O  O46  1  0.28995449  0.40051623  0.68888419  1
  O  O47  1  0.58940042  0.97883868  0.81111581  1
  O  O48  1  0.21004551  0.52116132  0.88943826  1
  O  O49  1  0.91059958  0.09948377  0.61056174  1
  O  O50  1  0.88411671  0.58778160  0.59509560  1
  O  O51  1  0.61588329  0.02078769  0.29633511  1
  O  O52  1  0.68287720  0.47921231  0.90490440  1
  O  O53  1  0.81712280  0.91221840  0.20366489  1
  O  O54  1  0.11588329  0.70366489  0.97921231  1
  O  O55  1  0.38411671  0.40490440  0.41221840  1
  O  O56  1  0.31712280  0.79633511  0.08778160  1
  O  O57  1  0.18287720  0.09509560  0.52078769  1
  F  F58  1  0.25000000  0.87500000  0.37500000  1
  F  F59  1  0.75000000  0.62500000  0.12500000  1
