# generated using pymatgen
data_CaThV2O8
_symmetry_space_group_name_H-M   'P 1'
_cell_length_a   6.13533719
_cell_length_b   6.13533719
_cell_length_c   6.13533719
_cell_angle_alpha   63.93368779
_cell_angle_beta   73.72222043
_cell_angle_gamma   106.27777957
_symmetry_Int_Tables_number   1
_chemical_formula_structural   CaThV2O8
_chemical_formula_sum   'Ca1 Th1 V2 O8'
_cell_volume   175.99786733
_cell_formula_units_Z   1
loop_
 _symmetry_equiv_pos_site_id
 _symmetry_equiv_pos_as_xyz
  1  'x, y, z'
loop_
 _atom_site_type_symbol
 _atom_site_label
 _atom_site_symmetry_multiplicity
 _atom_site_fract_x
 _atom_site_fract_y
 _atom_site_fract_z
 _atom_site_occupancy
  Ca  Ca0  1  0.25000000  0.37500000  0.87500000  1
  Th  Th1  1  0.75000000  0.62500000  0.12500000  1
  V  V2  1  0.75000000  0.12500000  0.62500000  1
  V  V3  1  0.25000000  0.87500000  0.37500000  1
  O  O4  1  0.92885600  0.30054717  0.27059684  1
  O  O5  1  0.06465769  0.85677568  0.20788201  1
  O  O6  1  0.43534231  0.22746029  0.20788201  1
  O  O7  1  0.57114400  0.30054717  0.62830883  1
  O  O8  1  0.06465769  0.70788201  0.72746029  1
  O  O9  1  0.92885600  0.12830883  0.80054717  1
  O  O10  1  0.57114400  0.77059684  0.80054717  1
  O  O11  1  0.43534231  0.70788201  0.35677568  1
