# generated using pymatgen
data_TaFeO4
_symmetry_space_group_name_H-M   'P 1'
_cell_length_a   6.28081873
_cell_length_b   4.94334638
_cell_length_c   6.28081873
_cell_angle_alpha   65.08777071
_cell_angle_beta   70.58378448
_cell_angle_gamma   114.91222929
_symmetry_Int_Tables_number   1
_chemical_formula_structural   TaFeO4
_chemical_formula_sum   'Ta2 Fe2 O8'
_cell_volume   125.87567937
_cell_formula_units_Z   2
loop_
 _symmetry_equiv_pos_site_id
 _symmetry_equiv_pos_as_xyz
  1  'x, y, z'
loop_
 _atom_site_type_symbol
 _atom_site_label
 _atom_site_symmetry_multiplicity
 _atom_site_fract_x
 _atom_site_fract_y
 _atom_site_fract_z
 _atom_site_occupancy
  Ta  Ta0  1  0.87168319  0.75000000  0.87168319  1
  Ta  Ta1  1  0.12831681  0.25000000  0.12831681  1
  Fe  Fe2  1  0.39419753  0.75000000  0.39419753  1
  Fe  Fe3  1  0.60580247  0.25000000  0.60580247  1
  O  O4  1  0.17771752  0.68546518  0.74071177  1
  O  O5  1  0.88773488  0.71732857  0.52374842  1
  O  O6  1  0.25928823  0.18546518  0.82228248  1
  O  O7  1  0.47625158  0.21732857  0.11226512  1
  O  O8  1  0.52374842  0.78267143  0.88773488  1
  O  O9  1  0.74071177  0.81453482  0.17771752  1
  O  O10  1  0.11226512  0.28267143  0.47625158  1
  O  O11  1  0.82228248  0.31453482  0.25928823  1
