# generated using pymatgen
data_Ca4GaSi3
_symmetry_space_group_name_H-M   'P 1'
_cell_length_a   4.01844055
_cell_length_b   4.50085072
_cell_length_c   10.83550885
_cell_angle_alpha   90.00000000
_cell_angle_beta   90.00000000
_cell_angle_gamma   90.00000000
_symmetry_Int_Tables_number   1
_chemical_formula_structural   Ca4GaSi3
_chemical_formula_sum   'Ca4 Ga1 Si3'
_cell_volume   195.97535856
_cell_formula_units_Z   1
loop_
 _symmetry_equiv_pos_site_id
 _symmetry_equiv_pos_as_xyz
  1  'x, y, z'
loop_
 _atom_site_type_symbol
 _atom_site_label
 _atom_site_symmetry_multiplicity
 _atom_site_fract_x
 _atom_site_fract_y
 _atom_site_fract_z
 _atom_site_occupancy
  Ca  Ca0  1  0.25000000  0.00000000  0.36458520  1
  Ca  Ca1  1  0.25000000  0.50000000  0.85876675  1
  Ca  Ca2  1  0.75000000  0.50000000  0.14043303  1
  Ca  Ca3  1  0.75000000  -0.00000000  0.63776260  1
  Ga  Ga4  1  0.25000000  -0.00000000  0.06973463  1
  Si  Si5  1  0.25000000  0.50000000  0.56719478  1
  Si  Si6  1  0.75000000  0.50000000  0.43321185  1
  Si  Si7  1  0.75000000  -0.00000000  0.92831116  1
