# generated using pymatgen
data_BaNaVS4
_symmetry_space_group_name_H-M   'P 1'
_cell_length_a   6.53497402
_cell_length_b   9.61574448
_cell_length_c   11.84580882
_cell_angle_alpha   90.00000000
_cell_angle_beta   102.07948368
_cell_angle_gamma   90.00000000
_symmetry_Int_Tables_number   1
_chemical_formula_structural   BaNaVS4
_chemical_formula_sum   'Ba4 Na4 V4 S16'
_cell_volume   727.89275307
_cell_formula_units_Z   4
loop_
 _symmetry_equiv_pos_site_id
 _symmetry_equiv_pos_as_xyz
  1  'x, y, z'
loop_
 _atom_site_type_symbol
 _atom_site_label
 _atom_site_symmetry_multiplicity
 _atom_site_fract_x
 _atom_site_fract_y
 _atom_site_fract_z
 _atom_site_occupancy
  Ba  Ba0  1  0.27814058  0.88500331  0.65578206  1
  Ba  Ba1  1  0.77814058  0.61499669  0.15578206  1
  Ba  Ba2  1  0.72185942  0.11499669  0.34421794  1
  Ba  Ba3  1  0.22185942  0.38500331  0.84421794  1
  Na  Na4  1  0.74418914  0.11558688  0.97505558  1
  Na  Na5  1  0.24418914  0.38441312  0.47505558  1
  Na  Na6  1  0.25581086  0.88441312  0.02494442  1
  Na  Na7  1  0.75581086  0.61558688  0.52494442  1
  V  V8  1  0.69509321  0.61904903  0.81528360  1
  V  V9  1  0.19509321  0.88095097  0.31528360  1
  V  V10  1  0.30490679  0.38095097  0.18471640  1
  V  V11  1  0.80490679  0.11904903  0.68471640  1
  S  S12  1  0.58950116  0.79022909  0.90802875  1
  S  S13  1  0.08950116  0.70977091  0.40802875  1
  S  S14  1  0.41049884  0.20977091  0.09197125  1
  S  S15  1  0.91049884  0.29022909  0.59197125  1
  S  S16  1  0.75469018  0.93676314  0.57776525  1
  S  S17  1  0.25469018  0.56323686  0.07776525  1
  S  S18  1  0.24530982  0.06323686  0.42223475  1
  S  S19  1  0.74530982  0.43676314  0.92223475  1
  S  S20  1  0.45308046  0.56973552  0.66462943  1
  S  S21  1  0.95308046  0.93026448  0.16462943  1
  S  S22  1  0.54691954  0.43026448  0.33537057  1
  S  S23  1  0.04691954  0.06973552  0.83537057  1
  S  S24  1  0.51501265  0.17054557  0.73305931  1
  S  S25  1  0.01501265  0.32945443  0.23305931  1
  S  S26  1  0.48498735  0.82945443  0.26694069  1
  S  S27  1  0.98498735  0.67054557  0.76694069  1
