# generated using pymatgen
data_Ba6Ca2Ir3RuO18
_symmetry_space_group_name_H-M   'P 1'
_cell_length_a   5.97796641
_cell_length_b   5.97830087
_cell_length_c   14.65349006
_cell_angle_alpha   89.99989596
_cell_angle_beta   89.99895710
_cell_angle_gamma   59.99824582
_symmetry_Int_Tables_number   1
_chemical_formula_structural   Ba6Ca2Ir3RuO18
_chemical_formula_sum   'Ba6 Ca2 Ir3 Ru1 O18'
_cell_volume   453.51877105
_cell_formula_units_Z   1
loop_
 _symmetry_equiv_pos_site_id
 _symmetry_equiv_pos_as_xyz
  1  'x, y, z'
loop_
 _atom_site_type_symbol
 _atom_site_label
 _atom_site_symmetry_multiplicity
 _atom_site_fract_x
 _atom_site_fract_y
 _atom_site_fract_z
 _atom_site_occupancy
  Ba  Ba0  1  0.33337091  0.33331566  0.58998132  1
  Ba  Ba1  1  0.66667620  0.66666150  0.40927761  1
  Ba  Ba2  1  0.66665726  0.66666965  0.09080833  1
  Ba  Ba3  1  0.33333321  0.33333403  0.91112274  1
  Ba  Ba4  1  0.99995135  0.00002481  0.75002108  1
  Ba  Ba5  1  0.99997765  0.00001241  0.24948085  1
  Ca  Ca6  1  0.00000585  -0.00000242  0.50031383  1
  Ca  Ca7  1  0.00001700  0.99999119  0.00056250  1
  Ir  Ir8  1  0.66671356  0.66664415  0.66295972  1
  Ir  Ir9  1  0.66671030  0.66664428  0.83696265  1
  Ir  Ir10  1  0.33329046  0.33335462  0.16494404  1
  Ru  Ru11  1  0.33331484  0.33334161  0.33745809  1
  O  O12  1  0.17918611  0.64162450  0.41007282  1
  O  O13  1  0.64163374  0.17918316  0.41006441  1
  O  O14  1  0.17918408  0.17918857  0.41007318  1
  O  O15  1  0.82137845  0.35734429  0.58764546  1
  O  O16  1  0.35728624  0.82135720  0.58770604  1
  O  O17  1  0.82138161  0.82127530  0.58764570  1
  O  O18  1  0.82135058  0.35737474  0.91183879  1
  O  O19  1  0.35731906  0.82134037  0.91181134  1
  O  O20  1  0.82134775  0.82127779  0.91183995  1
  O  O21  1  0.17890991  0.64215941  0.08928226  1
  O  O22  1  0.64215153  0.17892310  0.08929522  1
  O  O23  1  0.17891270  0.17892833  0.08928258  1
  O  O24  1  0.51052118  0.97864377  0.74996566  1
  O  O25  1  0.97879327  0.51060397  0.74995888  1
  O  O26  1  0.51052399  0.51083417  0.74996572  1
  O  O27  1  0.49033164  0.01946076  0.24988422  1
  O  O28  1  0.01943752  0.49028303  0.24989112  1
  O  O29  1  0.49033207  0.49020602  0.24988388  1
