# generated using pymatgen
data_CsMnFeF6
_symmetry_space_group_name_H-M   'P 1'
_cell_length_a   7.62851812
_cell_length_b   7.60036630
_cell_length_c   7.63155927
_cell_angle_alpha   90.00000000
_cell_angle_beta   59.98681170
_cell_angle_gamma   119.87799947
_symmetry_Int_Tables_number   1
_chemical_formula_structural   CsMnFeF6
_chemical_formula_sum   'Cs2 Mn2 Fe2 F12'
_cell_volume   313.38997835
_cell_formula_units_Z   2
loop_
 _symmetry_equiv_pos_site_id
 _symmetry_equiv_pos_as_xyz
  1  'x, y, z'
loop_
 _atom_site_type_symbol
 _atom_site_label
 _atom_site_symmetry_multiplicity
 _atom_site_fract_x
 _atom_site_fract_y
 _atom_site_fract_z
 _atom_site_occupancy
  Cs  Cs0  1  0.75951109  0.37975554  0.37024446  1
  Cs  Cs1  1  0.24048891  0.62024446  0.62975554  1
  Mn  Mn2  1  0.50000000  0.50000000  0.00000000  1
  Mn  Mn3  1  0.50000000  -0.00000000  0.00000000  1
  Fe  Fe4  1  0.00000000  -0.00000000  0.50000000  1
  Fe  Fe5  1  0.00000000  -0.00000000  0.00000000  1
  F  F6  1  0.89025301  0.94512650  0.30487350  1
  F  F7  1  0.66482908  0.33241454  0.91758546  1
  F  F8  1  0.24348145  0.93832509  0.92061396  1
  F  F9  1  0.24348145  0.30515635  0.33590459  1
  F  F10  1  0.24348145  0.30515635  0.92061396  1
  F  F11  1  0.24348145  0.93832509  0.33590459  1
  F  F12  1  0.10974699  0.05487350  0.69512650  1
  F  F13  1  0.33517092  0.66758546  0.08241454  1
  F  F14  1  0.75651855  0.06167491  0.07938604  1
  F  F15  1  0.75651855  0.69484365  0.66409541  1
  F  F16  1  0.75651855  0.69484365  0.07938604  1
  F  F17  1  0.75651855  0.06167491  0.66409541  1
