# generated using pymatgen
data_Ba4U8As2O33
_symmetry_space_group_name_H-M   'P 1'
_cell_length_a   7.11158918
_cell_length_b   14.35294176
_cell_length_c   15.69411210
_cell_angle_alpha   90.00000000
_cell_angle_beta   90.00000000
_cell_angle_gamma   90.00000000
_symmetry_Int_Tables_number   1
_chemical_formula_structural   Ba4U8As2O33
_chemical_formula_sum   'Ba8 U16 As4 O66'
_cell_volume   1601.93294649
_cell_formula_units_Z   2
loop_
 _symmetry_equiv_pos_site_id
 _symmetry_equiv_pos_as_xyz
  1  'x, y, z'
loop_
 _atom_site_type_symbol
 _atom_site_label
 _atom_site_symmetry_multiplicity
 _atom_site_fract_x
 _atom_site_fract_y
 _atom_site_fract_z
 _atom_site_occupancy
  Ba  Ba0  1  0.29838777  0.74934758  0.74969145  1
  Ba  Ba1  1  0.70161223  0.24934758  0.75030855  1
  Ba  Ba2  1  0.70161223  0.24934758  0.24969145  1
  Ba  Ba3  1  0.29838777  0.74934758  0.25030855  1
  Ba  Ba4  1  0.42303263  0.24190276  -0.00000000  1
  Ba  Ba5  1  0.57473018  0.76361846  0.00000000  1
  Ba  Ba6  1  0.42526982  0.26361846  0.50000000  1
  Ba  Ba7  1  0.57696737  0.74190276  0.50000000  1
  U  U8  1  0.50098171  0.99640270  0.86150386  1
  U  U9  1  0.49901829  0.49640270  0.63849614  1
  U  U10  1  0.50098171  0.99640270  0.13849614  1
  U  U11  1  0.49901829  0.49640270  0.36150386  1
  U  U12  1  0.99885565  0.00000336  -0.00000000  1
  U  U13  1  0.00114435  0.50000336  0.50000000  1
  U  U14  1  0.49987537  0.00038450  0.62507899  1
  U  U15  1  0.50012463  0.50038450  0.87492101  1
  U  U16  1  0.49987537  0.00038450  0.37492101  1
  U  U17  1  0.50012463  0.50038450  0.12507899  1
  U  U18  1  0.00013719  0.00007293  0.50000000  1
  U  U19  1  0.99986281  0.50007293  -0.00000000  1
  U  U20  1  0.00025760  0.00019481  0.76826990  1
  U  U21  1  0.99974240  0.50019481  0.73173010  1
  U  U22  1  0.00025760  0.00019481  0.23173010  1
  U  U23  1  0.99974240  0.50019481  0.26826990  1
  As  As24  1  0.91268961  0.24805292  0.50000000  1
  As  As25  1  0.08723512  0.75159153  0.50000000  1
  As  As26  1  0.91276488  0.25159153  -0.00000000  1
  As  As27  1  0.08731039  0.74805292  -0.00000000  1
  O  O28  1  0.46445357  0.12591376  0.86199648  1
  O  O29  1  0.53870365  0.86762030  0.85290471  1
  O  O30  1  0.46129635  0.36762030  0.64709529  1
  O  O31  1  0.53554643  0.62591376  0.63800352  1
  O  O32  1  0.53870365  0.86762030  0.14709529  1
  O  O33  1  0.46445357  0.12591376  0.13800352  1
  O  O34  1  0.53554643  0.62591376  0.36199648  1
  O  O35  1  0.46129635  0.36762030  0.35290471  1
  O  O36  1  0.17832697  0.98514379  0.90077506  1
  O  O37  1  0.82162110  0.01618068  0.89994739  1
  O  O38  1  0.17837890  0.51618068  0.60005261  1
  O  O39  1  0.82167303  0.48514379  0.59922494  1
  O  O40  1  0.82162110  0.01618068  0.10005261  1
  O  O41  1  0.17832697  0.98514379  0.09922494  1
  O  O42  1  0.82167303  0.48514379  0.40077506  1
  O  O43  1  0.17837890  0.51618068  0.39994739  1
  O  O44  1  0.77394647  0.24681103  0.58732665  1
  O  O45  1  0.22636040  0.75319343  0.58717874  1
  O  O46  1  0.77363960  0.25319343  0.91282126  1
  O  O47  1  0.22605353  0.74681103  0.91267335  1
  O  O48  1  0.22636040  0.75319343  0.41282126  1
  O  O49  1  0.77394647  0.24681103  0.41267335  1
  O  O50  1  0.22605353  0.74681103  0.08732665  1
  O  O51  1  0.77363960  0.25319343  0.08717874  1
  O  O52  1  0.44535349  0.12655607  0.62410811  1
  O  O53  1  0.55458176  0.87377989  0.62429971  1
  O  O54  1  0.44541824  0.37377989  0.87570029  1
  O  O55  1  0.55464651  0.62655607  0.87589189  1
  O  O56  1  0.55458176  0.87377989  0.37570029  1
  O  O57  1  0.44535349  0.12655607  0.37589189  1
  O  O58  1  0.55464651  0.62655607  0.12410811  1
  O  O59  1  0.44541824  0.37377989  0.12429971  1
  O  O60  1  0.06987122  0.15464193  0.50000000  1
  O  O61  1  0.93019906  0.84514122  0.50000000  1
  O  O62  1  0.06980094  0.34514122  -0.00000000  1
  O  O63  1  0.93012878  0.65464193  -0.00000000  1
  O  O64  1  0.06295709  0.34549625  0.50000000  1
  O  O65  1  0.93636775  0.65447359  0.50000000  1
  O  O66  1  0.06363225  0.15447359  0.00000000  1
  O  O67  1  0.93704291  0.84549625  -0.00000000  1
  O  O68  1  0.31709620  0.97770843  0.73768484  1
  O  O69  1  0.68259045  0.02205826  0.73753968  1
  O  O70  1  0.31740955  0.52205826  0.76246032  1
  O  O71  1  0.68290380  0.47770843  0.76231516  1
  O  O72  1  0.68259045  0.02205826  0.26246032  1
  O  O73  1  0.31709620  0.97770843  0.26231516  1
  O  O74  1  0.68290380  0.47770843  0.23768484  1
  O  O75  1  0.31740955  0.52205826  0.23753968  1
  O  O76  1  0.02133836  0.12744203  0.76796180  1
  O  O77  1  0.97910725  0.87283445  0.76816941  1
  O  O78  1  0.02089275  0.37283445  0.73183059  1
  O  O79  1  0.97866164  0.62744203  0.73203820  1
  O  O80  1  0.97910725  0.87283445  0.23183059  1
  O  O81  1  0.02133836  0.12744203  0.23203820  1
  O  O82  1  0.97866164  0.62744203  0.26796180  1
  O  O83  1  0.02089275  0.37283445  0.26816941  1
  O  O84  1  0.30295455  0.98267855  0.50000000  1
  O  O85  1  0.69724723  0.01714835  0.50000000  1
  O  O86  1  0.30275277  0.51714835  -0.00000000  1
  O  O87  1  0.69704545  0.48267855  -0.00000000  1
  O  O88  1  0.00006556  0.00002178  0.62179733  1
  O  O89  1  0.99993444  0.50002178  0.87820267  1
  O  O90  1  0.00006556  0.00002178  0.37820267  1
  O  O91  1  0.99993444  0.50002178  0.12179733  1
  O  O92  1  0.50523778  0.98229113  0.00000000  1
  O  O93  1  0.49476222  0.48229113  0.50000000  1
