# generated using pymatgen
data_CsBS2
_symmetry_space_group_name_H-M   'P 1'
_cell_length_a   4.78414523
_cell_length_b   6.27459145
_cell_length_c   9.82300393
_cell_angle_alpha   71.37441717
_cell_angle_beta   75.90576747
_cell_angle_gamma   90.00000000
_symmetry_Int_Tables_number   1
_chemical_formula_structural   CsBS2
_chemical_formula_sum   'Cs2 B2 S4'
_cell_volume   270.04486740
_cell_formula_units_Z   2
loop_
 _symmetry_equiv_pos_site_id
 _symmetry_equiv_pos_as_xyz
  1  'x, y, z'
loop_
 _atom_site_type_symbol
 _atom_site_label
 _atom_site_symmetry_multiplicity
 _atom_site_fract_x
 _atom_site_fract_y
 _atom_site_fract_z
 _atom_site_occupancy
  Cs  Cs0  1  0.14163773  0.14163773  0.71672454  1
  Cs  Cs1  1  0.85836227  0.85836227  0.28327546  1
  B  B2  1  0.56713919  0.56713919  0.86572162  1
  B  B3  1  0.43286081  0.43286081  0.13427838  1
  S  S4  1  0.66381437  0.66381437  0.67237127  1
  S  S5  1  0.33618563  0.33618563  0.32762873  1
  S  S6  1  0.50000000  0.27302397  0.00000000  1
  S  S7  1  0.50000000  0.72697603  1.00000000  1
