# generated using pymatgen
data_Cs3In3(PO4)4
_symmetry_space_group_name_H-M   'P 1'
_cell_length_a   9.78639768
_cell_length_b   9.78639768
_cell_length_c   10.10470001
_cell_angle_alpha   88.72480314
_cell_angle_beta   88.72480314
_cell_angle_gamma   62.85679522
_symmetry_Int_Tables_number   1
_chemical_formula_structural   Cs3In3(PO4)4
_chemical_formula_sum   'Cs6 In6 P8 O32'
_cell_volume   860.88964867
_cell_formula_units_Z   2
loop_
 _symmetry_equiv_pos_site_id
 _symmetry_equiv_pos_as_xyz
  1  'x, y, z'
loop_
 _atom_site_type_symbol
 _atom_site_label
 _atom_site_symmetry_multiplicity
 _atom_site_fract_x
 _atom_site_fract_y
 _atom_site_fract_z
 _atom_site_occupancy
  Cs  Cs0  1  0.66843906  0.55620490  0.81448743  1
  Cs  Cs1  1  0.44379510  0.33156094  0.68551257  1
  Cs  Cs2  1  0.33156094  0.44379510  0.18551257  1
  Cs  Cs3  1  0.55620490  0.66843906  0.31448743  1
  Cs  Cs4  1  0.00000000  0.50000000  0.50000000  1
  Cs  Cs5  1  0.50000000  -0.00000000  -0.00000000  1
  In  In6  1  0.91641151  0.08358849  0.75000000  1
  In  In7  1  0.08358849  0.91641151  0.25000000  1
  In  In8  1  0.96513575  0.32798160  0.16914200  1
  In  In9  1  0.67201840  0.03486425  0.33085800  1
  In  In10  1  0.03486425  0.67201840  0.83085800  1
  In  In11  1  0.32798160  0.96513575  0.66914200  1
  P  P12  1  0.79488881  0.22608669  0.43874895  1
  P  P13  1  0.77391331  0.20511119  0.06125105  1
  P  P14  1  0.20511119  0.77391331  0.56125105  1
  P  P15  1  0.22608669  0.79488881  0.93874895  1
  P  P16  1  0.11557771  0.28326219  0.85509864  1
  P  P17  1  0.71673781  0.88442229  0.64490136  1
  P  P18  1  0.88442229  0.71673781  0.14490136  1
  P  P19  1  0.28326219  0.11557771  0.35509864  1
  O  O20  1  0.83405918  0.33647180  0.35364197  1
  O  O21  1  0.66352820  0.16594082  0.14635803  1
  O  O22  1  0.16594082  0.66352820  0.64635803  1
  O  O23  1  0.33647180  0.83405918  0.85364197  1
  O  O24  1  0.88695602  0.05368637  0.38643488  1
  O  O25  1  0.94631363  0.11304398  0.11356512  1
  O  O26  1  0.11304398  0.94631363  0.61356512  1
  O  O27  1  0.05368637  0.88695602  0.88643488  1
  O  O28  1  0.82687274  0.24618581  0.58442228  1
  O  O29  1  0.75381419  0.17312726  0.91557772  1
  O  O30  1  0.17312726  0.75381419  0.41557772  1
  O  O31  1  0.24618581  0.82687274  0.08442228  1
  O  O32  1  0.62368198  0.25721771  0.42476546  1
  O  O33  1  0.74278229  0.37631802  0.07523454  1
  O  O34  1  0.37631802  0.74278229  0.57523454  1
  O  O35  1  0.25721771  0.62368198  0.92476546  1
  O  O36  1  0.26984558  0.15839627  0.79763546  1
  O  O37  1  0.84160373  0.73015442  0.70236454  1
  O  O38  1  0.73015442  0.84160373  0.20236454  1
  O  O39  1  0.15839627  0.26984558  0.29763546  1
  O  O40  1  0.12734327  0.28735557  0.00815981  1
  O  O41  1  0.71264443  0.87265673  0.49184019  1
  O  O42  1  0.87265673  0.71264443  0.99184019  1
  O  O43  1  0.28735557  0.12734327  0.50815981  1
  O  O44  1  0.09319170  0.43913282  0.79414724  1
  O  O45  1  0.56086718  0.90680830  0.70585276  1
  O  O46  1  0.90680830  0.56086718  0.20585276  1
  O  O47  1  0.43913282  0.09319170  0.29414724  1
  O  O48  1  0.98167551  0.25267149  0.81345103  1
  O  O49  1  0.74732851  0.01832449  0.68654897  1
  O  O50  1  0.01832449  0.74732851  0.18654897  1
  O  O51  1  0.25267149  0.98167551  0.31345103  1
