# generated using pymatgen
data_Ca3Zr2AlFeSiO12
_symmetry_space_group_name_H-M   'P 1'
_cell_length_a   10.98632829
_cell_length_b   10.98632829
_cell_length_c   10.98632829
_cell_angle_alpha   69.84780196
_cell_angle_beta   70.86819123
_cell_angle_gamma   109.13180877
_symmetry_Int_Tables_number   1
_chemical_formula_structural   Ca3Zr2AlFeSiO12
_chemical_formula_sum   'Ca12 Zr8 Al4 Fe4 Si4 O48'
_cell_volume   1020.68033956
_cell_formula_units_Z   4
loop_
 _symmetry_equiv_pos_site_id
 _symmetry_equiv_pos_as_xyz
  1  'x, y, z'
loop_
 _atom_site_type_symbol
 _atom_site_label
 _atom_site_symmetry_multiplicity
 _atom_site_fract_x
 _atom_site_fract_y
 _atom_site_fract_z
 _atom_site_occupancy
  Ca  Ca0  1  0.37485644  0.62485644  0.25000000  1
  Ca  Ca1  1  0.12514356  0.87514356  0.75000000  1
  Ca  Ca2  1  0.37600797  0.75000000  0.87399203  1
  Ca  Ca3  1  0.12399203  0.25000000  0.62600797  1
  Ca  Ca4  1  0.25000000  0.62392909  0.62607091  1
  Ca  Ca5  1  0.75000000  0.87607091  0.87392909  1
  Ca  Ca6  1  0.62399203  0.37399203  0.75000000  1
  Ca  Ca7  1  0.87600797  0.12600797  0.25000000  1
  Ca  Ca8  1  0.62514356  0.25000000  0.12485644  1
  Ca  Ca9  1  0.87485644  0.75000000  0.37514356  1
  Ca  Ca10  1  0.75000000  0.37392909  0.37607091  1
  Ca  Ca11  1  0.25000000  0.12607091  0.12392909  1
  Zr  Zr12  1  0.50173310  0.00200118  0.99770974  1
  Zr  Zr13  1  0.49971092  0.49944284  0.50229026  1
  Zr  Zr14  1  0.00028908  0.49799882  0.00026808  1
  Zr  Zr15  1  0.99826690  0.00055716  0.49973192  1
  Zr  Zr16  1  0.49826690  0.50026808  0.99944284  1
  Zr  Zr17  1  0.50028908  0.99973192  0.50200118  1
  Zr  Zr18  1  0.99971092  0.49770974  0.50055716  1
  Zr  Zr19  1  0.00173310  0.00229026  0.99799882  1
  Al  Al20  1  0.37454495  0.12454495  0.75000000  1
  Al  Al21  1  0.12545505  0.37545505  0.25000000  1
  Al  Al22  1  0.87454495  0.25000000  0.87545505  1
  Al  Al23  1  0.62545505  0.75000000  0.62454495  1
  Fe  Fe24  1  0.62579053  0.87579053  0.25000000  1
  Fe  Fe25  1  0.87420947  0.62420947  0.75000000  1
  Fe  Fe26  1  0.12579053  0.75000000  0.12420947  1
  Fe  Fe27  1  0.37420947  0.25000000  0.37579053  1
  Si  Si28  1  0.75000000  0.62500000  0.12500000  1
  Si  Si29  1  0.25000000  0.87500000  0.37500000  1
  Si  Si30  1  0.25000000  0.37500000  0.87500000  1
  Si  Si31  1  0.75000000  0.12500000  0.62500000  1
  O  O32  1  0.58677632  0.87415260  0.09370304  1
  O  O33  1  0.46785565  0.68047936  0.40629696  1
  O  O34  1  0.03214435  0.62584740  0.78737629  1
  O  O35  1  0.91322368  0.81952064  0.71262371  1
  O  O36  1  0.12740302  0.70630505  0.97111407  1
  O  O37  1  0.32258087  0.79369495  0.07890203  1
  O  O38  1  0.37259698  0.40148291  0.42109797  1
  O  O39  1  0.17741913  0.09851709  0.52888593  1
  O  O40  1  0.29484415  0.40990200  0.70275530  1
  O  O41  1  0.20515585  0.50240056  0.88494214  1
  O  O42  1  0.61265730  0.99759944  0.79724470  1
  O  O43  1  0.88734270  0.09009800  0.61505786  1
  O  O44  1  0.41343696  0.12161721  0.89749543  1
  O  O45  1  0.51911265  0.31093239  0.60250457  1
  O  O46  1  0.98088735  0.37838279  0.20818025  1
  O  O47  1  0.08656304  0.18906761  0.29181975  1
  O  O48  1  0.87876152  0.29597896  0.01613752  1
  O  O49  1  0.68788353  0.20402104  0.91721744  1
  O  O50  1  0.62123848  0.60510097  0.58278256  1
  O  O51  1  0.81211647  0.89489903  0.48386248  1
  O  O52  1  0.70187879  0.58842046  0.29893328  1
  O  O53  1  0.79812121  0.49918794  0.11345832  1
  O  O54  1  0.38735374  0.00081206  0.20106672  1
  O  O55  1  0.11264626  0.91157954  0.38654168  1
  O  O56  1  0.41322368  0.28737629  0.18047936  1
  O  O57  1  0.53214435  0.21262371  0.37415260  1
  O  O58  1  0.96785565  0.59370304  0.31952064  1
  O  O59  1  0.08677632  0.90629696  0.12584740  1
  O  O60  1  0.87259698  0.57890203  0.59851709  1
  O  O61  1  0.67741913  0.47111407  0.90148291  1
  O  O62  1  0.62740302  0.02888593  0.29369495  1
  O  O63  1  0.82258087  0.92109797  0.20630505  1
  O  O64  1  0.70515585  0.11505786  0.49759944  1
  O  O65  1  0.79484415  0.29724470  0.59009800  1
  O  O66  1  0.38734270  0.38494214  0.90990200  1
  O  O67  1  0.11265730  0.20275530  0.00240056  1
  O  O68  1  0.58656304  0.70818025  0.81093239  1
  O  O69  1  0.48088735  0.79181975  0.62161721  1
  O  O70  1  0.01911265  0.39749543  0.68906761  1
  O  O71  1  0.91343696  0.10250457  0.87838279  1
  O  O72  1  0.12123848  0.41721744  0.39489903  1
  O  O73  1  0.31211647  0.51613752  0.10510097  1
  O  O74  1  0.37876152  0.98386248  0.70402104  1
  O  O75  1  0.18788353  0.08278256  0.79597896  1
  O  O76  1  0.29812121  0.88654168  0.50081206  1
  O  O77  1  0.20187879  0.70106672  0.41157954  1
  O  O78  1  0.61264626  0.61345832  0.08842046  1
  O  O79  1  0.88735374  0.79893328  0.99918794  1
