# generated using pymatgen
data_CsFeCuF6
_symmetry_space_group_name_H-M   'P 1'
_cell_length_a   7.46943587
_cell_length_b   7.31231976
_cell_length_c   7.53423298
_cell_angle_alpha   90.00000000
_cell_angle_beta   59.71261707
_cell_angle_gamma   119.30658878
_symmetry_Int_Tables_number   1
_chemical_formula_structural   CsFeCuF6
_chemical_formula_sum   'Cs2 Fe2 Cu2 F12'
_cell_volume   292.73785776
_cell_formula_units_Z   2
loop_
 _symmetry_equiv_pos_site_id
 _symmetry_equiv_pos_as_xyz
  1  'x, y, z'
loop_
 _atom_site_type_symbol
 _atom_site_label
 _atom_site_symmetry_multiplicity
 _atom_site_fract_x
 _atom_site_fract_y
 _atom_site_fract_z
 _atom_site_occupancy
  Cs  Cs0  1  0.75495945  0.37747973  0.37252027  1
  Cs  Cs1  1  0.24504055  0.62252027  0.62747973  1
  Fe  Fe2  1  -0.00000000  -0.00000000  0.50000000  1
  Fe  Fe3  1  -0.00000000  -0.00000000  0.00000000  1
  Cu  Cu4  1  0.50000000  0.50000000  0.00000000  1
  Cu  Cu5  1  0.50000000  -0.00000000  0.00000000  1
  F  F6  1  0.86952836  0.93476418  0.31523582  1
  F  F7  1  0.63559192  0.31779596  0.93220404  1
  F  F8  1  0.24230149  0.92928689  0.92927089  1
  F  F9  1  0.24230149  0.31301460  0.32842762  1
  F  F10  1  0.24230149  0.31301460  0.92927089  1
  F  F11  1  0.24230149  0.92928689  0.32842762  1
  F  F12  1  0.13047164  0.06523582  0.68476418  1
  F  F13  1  0.36440808  0.68220404  0.06779596  1
  F  F14  1  0.75769851  0.07071311  0.07072911  1
  F  F15  1  0.75769851  0.68698540  0.67157238  1
  F  F16  1  0.75769851  0.68698540  0.07072911  1
  F  F17  1  0.75769851  0.07071311  0.67157238  1
