# generated using pymatgen
data_Ba3MgTaNbO9
_symmetry_space_group_name_H-M   'P 1'
_cell_length_a   5.85182528
_cell_length_b   5.85187925
_cell_length_c   7.19077343
_cell_angle_alpha   89.99999997
_cell_angle_beta   90.00030506
_cell_angle_gamma   120.00031087
_symmetry_Int_Tables_number   1
_chemical_formula_structural   Ba3MgTaNbO9
_chemical_formula_sum   'Ba3 Mg1 Ta1 Nb1 O9'
_cell_volume   213.25124898
_cell_formula_units_Z   1
loop_
 _symmetry_equiv_pos_site_id
 _symmetry_equiv_pos_as_xyz
  1  'x, y, z'
loop_
 _atom_site_type_symbol
 _atom_site_label
 _atom_site_symmetry_multiplicity
 _atom_site_fract_x
 _atom_site_fract_y
 _atom_site_fract_z
 _atom_site_occupancy
  Ba  Ba0  1  0.00000148  0.00000074  0.00044650  1
  Ba  Ba1  1  0.33336952  0.66668476  0.66477030  1
  Ba  Ba2  1  0.66663815  0.33331907  0.33472217  1
  Mg  Mg3  1  -0.00000095  -0.00000047  0.49853742  1
  Ta  Ta4  1  0.33333023  0.66666512  0.17653662  1
  Nb  Nb5  1  0.66666814  0.33333407  0.82223034  1
  O  O6  1  0.65683829  0.82841914  0.32442818  1
  O  O7  1  0.17158865  0.82841818  0.32442750  1
  O  O8  1  0.17158865  0.34317047  0.32442750  1
  O  O9  1  0.34193829  0.17096915  0.67542517  1
  O  O10  1  0.82902219  0.17096959  0.67542624  1
  O  O11  1  0.82902219  0.65805260  0.67542624  1
  O  O12  1  0.49886168  0.50113748  0.00106457  1
  O  O13  1  0.49886168  0.99772420  0.00106457  1
  O  O14  1  0.00227180  0.50113590  0.00106669  1
