# generated using pymatgen
data_Ba3SrMg2(TeO6)2
_symmetry_space_group_name_H-M   'P 1'
_cell_length_a   5.78419934
_cell_length_b   5.78419934
_cell_length_c   10.01362446
_cell_angle_alpha   73.21288691
_cell_angle_beta   90.00000000
_cell_angle_gamma   120.00000000
_symmetry_Int_Tables_number   1
_chemical_formula_structural   Ba3SrMg2(TeO6)2
_chemical_formula_sum   'Ba3 Sr1 Mg2 Te2 O12'
_cell_volume   273.53039168
_cell_formula_units_Z   1
loop_
 _symmetry_equiv_pos_site_id
 _symmetry_equiv_pos_as_xyz
  1  'x, y, z'
loop_
 _atom_site_type_symbol
 _atom_site_label
 _atom_site_symmetry_multiplicity
 _atom_site_fract_x
 _atom_site_fract_y
 _atom_site_fract_z
 _atom_site_occupancy
  Ba  Ba0  1  0.12498934  0.24997868  0.62503198  1
  Ba  Ba1  1  0.87526105  0.75052211  0.37421684  1
  Ba  Ba2  1  0.37474443  0.74948886  0.87576671  1
  Sr  Sr3  1  0.62501438  0.25002877  0.12495685  1
  Mg  Mg4  1  0.99975439  0.99950878  0.00073683  1
  Mg  Mg5  1  0.50024920  0.00049840  0.49925240  1
  Te  Te6  1  0.25040105  0.50080209  0.24879686  1
  Te  Te7  1  0.74959670  0.49919340  0.75120990  1
  O  O8  1  0.13035892  0.26071784  0.13006613  1
  O  O9  1  0.63037807  0.26075614  0.63064806  1
  O  O10  1  0.37155471  0.26106108  0.36738421  1
  O  O11  1  0.86774432  0.26034353  0.87191214  1
  O  O12  1  0.60921603  0.73957495  0.13006613  1
  O  O13  1  0.10859580  0.73897387  0.63064806  1
  O  O14  1  0.37155471  0.74310941  0.36738421  1
  O  O15  1  0.86774432  0.73548865  0.87191214  1
  O  O16  1  0.13035892  0.73957495  0.13006613  1
  O  O17  1  0.63037807  0.73897387  0.63064806  1
  O  O18  1  0.88950638  0.26106108  0.36738421  1
  O  O19  1  0.39259921  0.26034353  0.87191214  1
