# generated using pymatgen
data_Cs2Bi4Se7
_symmetry_space_group_name_H-M   'P 1'
_cell_length_a   4.27462995
_cell_length_b   13.45186676
_cell_length_c   15.69985784
_cell_angle_alpha   94.32951163
_cell_angle_beta   90.00000000
_cell_angle_gamma   90.00000000
_symmetry_Int_Tables_number   1
_chemical_formula_structural   Cs2Bi4Se7
_chemical_formula_sum   'Cs4 Bi8 Se14'
_cell_volume   900.19318101
_cell_formula_units_Z   2
loop_
 _symmetry_equiv_pos_site_id
 _symmetry_equiv_pos_as_xyz
  1  'x, y, z'
loop_
 _atom_site_type_symbol
 _atom_site_label
 _atom_site_symmetry_multiplicity
 _atom_site_fract_x
 _atom_site_fract_y
 _atom_site_fract_z
 _atom_site_occupancy
  Cs  Cs0  1  0.75000000  0.56956834  0.18784198  1
  Cs  Cs1  1  0.25000000  0.43043166  0.81215802  1
  Cs  Cs2  1  0.25000000  0.82317426  0.37137594  1
  Cs  Cs3  1  0.75000000  0.17682574  0.62862406  1
  Bi  Bi4  1  0.75000000  0.94682677  0.11929872  1
  Bi  Bi5  1  0.25000000  0.05317323  0.88070128  1
  Bi  Bi6  1  0.75000000  0.83184010  0.72543843  1
  Bi  Bi7  1  0.25000000  0.16815990  0.27456157  1
  Bi  Bi8  1  0.25000000  0.72904095  0.94934513  1
  Bi  Bi9  1  0.75000000  0.27095905  0.05065487  1
  Bi  Bi10  1  0.25000000  0.60891389  0.57094069  1
  Bi  Bi11  1  0.75000000  0.39108611  0.42905931  1
  Se  Se12  1  0.75000000  0.45923011  0.60683796  1
  Se  Se13  1  0.25000000  0.54076989  0.39316204  1
  Se  Se14  1  0.75000000  0.59434120  0.96270691  1
  Se  Se15  1  0.25000000  0.40565880  0.03729309  1
  Se  Se16  1  0.25000000  0.98651002  0.70519631  1
  Se  Se17  1  0.75000000  0.01348998  0.29480369  1
  Se  Se18  1  0.25000000  0.79736337  0.13487729  1
  Se  Se19  1  0.75000000  0.20263663  0.86512271  1
  Se  Se20  1  0.75000000  0.75855702  0.54725804  1
  Se  Se21  1  0.25000000  0.24144298  0.45274196  1
  Se  Se22  1  0.25000000  0.69087188  0.75992462  1
  Se  Se23  1  0.75000000  0.30912812  0.24007538  1
  Se  Se24  1  0.75000000  0.90177145  0.91713547  1
  Se  Se25  1  0.25000000  0.09822855  0.08286453  1
