# generated using pymatgen
data_Li3Ti(BO3)2
_symmetry_space_group_name_H-M   'P 1'
_cell_length_a   5.08429557
_cell_length_b   6.41213110
_cell_length_c   7.97233267
_cell_angle_alpha   74.94128629
_cell_angle_beta   90.02941285
_cell_angle_gamma   89.31586092
_symmetry_Int_Tables_number   1
_chemical_formula_structural   Li3Ti(BO3)2
_chemical_formula_sum   'Li6 Ti2 B4 O12'
_cell_volume   250.96252525
_cell_formula_units_Z   2
loop_
 _symmetry_equiv_pos_site_id
 _symmetry_equiv_pos_as_xyz
  1  'x, y, z'
loop_
 _atom_site_type_symbol
 _atom_site_label
 _atom_site_symmetry_multiplicity
 _atom_site_fract_x
 _atom_site_fract_y
 _atom_site_fract_z
 _atom_site_occupancy
  Li  Li0  1  0.17427836  0.90088132  0.92551025  1
  Li  Li1  1  0.32681390  0.02772846  0.25803565  1
  Li  Li2  1  0.33258036  0.74405791  0.60980244  1
  Li  Li3  1  0.66742064  0.25594209  0.39019756  1
  Li  Li4  1  0.67318610  0.97227154  0.74196435  1
  Li  Li5  1  0.82572164  0.09911868  0.07448975  1
  Ti  Ti6  1  0.15381443  0.54810743  0.26719130  1
  Ti  Ti7  1  0.84618557  0.45189257  0.73280870  1
  B  B8  1  0.16241770  0.16290138  0.57518457  1
  B  B9  1  0.33352466  0.32194419  0.91034034  1
  B  B10  1  0.66647534  0.67805581  0.08965966  1
  B  B11  1  0.83758230  0.83709862  0.42481543  1
  O  O12  1  0.10070125  0.77580713  0.39714678  1
  O  O13  1  0.21516400  0.48553041  0.77956400  1
  O  O14  1  0.19195375  0.17453129  0.02832533  1
  O  O15  1  0.27442699  0.26911632  0.41344489  1
  O  O16  1  0.29422963  0.00542006  0.68989430  1
  O  O17  1  0.39017500  0.68812678  0.09103850  1
  O  O18  1  0.60982500  0.31187322  0.90896150  1
  O  O19  1  0.70577037  0.99457994  0.31010570  1
  O  O20  1  0.72557301  0.73088368  0.58655511  1
  O  O21  1  0.80804625  0.82546871  0.97167467  1
  O  O22  1  0.78483600  0.51446959  0.22043600  1
  O  O23  1  0.89929875  0.22419287  0.60285322  1
