# generated using pymatgen
data_Zn4B6SeO12
_symmetry_space_group_name_H-M   'P 1'
_cell_length_a   6.71703707
_cell_length_b   6.71703707
_cell_length_c   6.71703707
_cell_angle_alpha   109.47122067
_cell_angle_beta   109.47122067
_cell_angle_gamma   109.47122060
_symmetry_Int_Tables_number   1
_chemical_formula_structural   Zn4B6SeO12
_chemical_formula_sum   'Zn4 B6 Se1 O12'
_cell_volume   233.29817648
_cell_formula_units_Z   1
loop_
 _symmetry_equiv_pos_site_id
 _symmetry_equiv_pos_as_xyz
  1  'x, y, z'
loop_
 _atom_site_type_symbol
 _atom_site_label
 _atom_site_symmetry_multiplicity
 _atom_site_fract_x
 _atom_site_fract_y
 _atom_site_fract_z
 _atom_site_occupancy
  B  B0  1  0.50000000  0.25000000  0.75000000  1
  B  B1  1  0.75000000  0.50000000  0.25000000  1
  B  B2  1  0.25000000  0.50000000  0.75000000  1
  B  B3  1  0.75000000  0.25000000  0.50000000  1
  B  B4  1  0.25000000  0.75000000  0.50000000  1
  B  B5  1  0.50000000  0.75000000  0.25000000  1
  O  O6  1  0.57357859  0.57357859  0.28814516  1
  O  O7  1  0.42642141  0.71456657  0.00000000  1
  O  O8  1  0.71456657  0.42642141  0.00000000  1
  O  O9  1  0.00000000  0.71456657  0.42642141  1
  O  O10  1  0.71185484  0.28543343  0.28543343  1
  O  O11  1  0.28543343  0.71185484  0.28543343  1
  O  O12  1  0.71456657  0.00000000  0.42642141  1
  O  O13  1  0.42642141  0.00000000  0.71456657  1
  O  O14  1  0.00000000  0.42642141  0.71456657  1
  O  O15  1  0.28814516  0.57357859  0.57357859  1
  O  O16  1  0.57357859  0.28814516  0.57357859  1
  O  O17  1  0.28543343  0.28543343  0.71185484  1
  Zn  Zn18  1  0.35477341  0.35477341  0.35477341  1
  Zn  Zn19  1  0.64522659  0.00000000  0.00000000  1
  Zn  Zn20  1  0.00000000  0.64522659  0.00000000  1
  Zn  Zn21  1  0.00000000  0.00000000  0.64522659  1
  Se  Se22  1  0.00000000  0.00000000  0.00000000  1
