# generated using pymatgen
data_Li3Cr3FeO8
_symmetry_space_group_name_H-M   'P 1'
_cell_length_a   5.14531149
_cell_length_b   7.79461911
_cell_length_c   7.75117156
_cell_angle_alpha   81.86831998
_cell_angle_beta   70.76188295
_cell_angle_gamma   84.04966541
_symmetry_Int_Tables_number   1
_chemical_formula_structural   Li3Cr3FeO8
_chemical_formula_sum   'Li6 Cr6 Fe2 O16'
_cell_volume   290.01391751
_cell_formula_units_Z   2
loop_
 _symmetry_equiv_pos_site_id
 _symmetry_equiv_pos_as_xyz
  1  'x, y, z'
loop_
 _atom_site_type_symbol
 _atom_site_label
 _atom_site_symmetry_multiplicity
 _atom_site_fract_x
 _atom_site_fract_y
 _atom_site_fract_z
 _atom_site_occupancy
  Li  Li0  1  0.00036930  0.00628877  0.00019587  1
  Li  Li1  1  0.00048300  0.62155963  0.12200936  1
  Li  Li2  1  0.99467068  0.50958834  0.50438843  1
  Li  Li3  1  0.00537732  0.24035723  0.24566382  1
  Li  Li4  1  0.99953701  0.12841314  0.62794408  1
  Li  Li5  1  0.99959777  0.74376111  0.74976158  1
  Cr  Cr6  1  0.49204788  0.81400532  0.06716620  1
  Cr  Cr7  1  0.50991650  0.43570686  0.18606849  1
  Cr  Cr8  1  0.49006034  0.31432224  0.56397305  1
  Cr  Cr9  1  0.50330248  0.18932454  0.93595187  1
  Cr  Cr10  1  0.49670198  0.56067820  0.81404111  1
  Cr  Cr11  1  0.50796642  0.93600163  0.68278742  1
  Fe  Fe12  1  0.49682586  0.05953778  0.31407494  1
  Fe  Fe13  1  0.50317249  0.69043928  0.43594428  1
  O  O14  1  0.28432738  0.03637837  0.15693963  1
  O  O15  1  0.28424927  0.40501970  0.03220131  1
  O  O16  1  0.28866743  0.64916026  0.28525813  1
  O  O17  1  0.27528307  0.26969354  0.39799839  1
  O  O18  1  0.29097027  0.90133381  0.51870444  1
  O  O19  1  0.28147778  0.54313403  0.63664148  1
  O  O20  1  0.28315695  0.14734709  0.77361907  1
  O  O21  1  0.71849638  0.20684919  0.11341038  1
  O  O22  1  0.27244427  0.78159712  0.90222195  1
  O  O23  1  0.72469524  0.48031220  0.35204003  1
  O  O24  1  0.71134063  0.10086632  0.46474232  1
  O  O25  1  0.70899842  0.84868273  0.23125973  1
  O  O26  1  0.71575994  0.34497683  0.71782366  1
  O  O27  1  0.71567792  0.71360912  0.59304086  1
  O  O28  1  0.72757887  0.96841317  0.84773337  1
  O  O29  1  0.71684815  0.60264247  0.97639475  1
