# generated using pymatgen
data_CSN2
_symmetry_space_group_name_H-M   'P 1'
_cell_length_a   3.94790007
_cell_length_b   6.54284334
_cell_length_c   10.69013701
_cell_angle_alpha   90.00000000
_cell_angle_beta   90.00000000
_cell_angle_gamma   107.30366713
_symmetry_Int_Tables_number   1
_chemical_formula_structural   CSN2
_chemical_formula_sum   'C4 S4 N8'
_cell_volume   263.63427050
_cell_formula_units_Z   4
loop_
 _symmetry_equiv_pos_site_id
 _symmetry_equiv_pos_as_xyz
  1  'x, y, z'
loop_
 _atom_site_type_symbol
 _atom_site_label
 _atom_site_symmetry_multiplicity
 _atom_site_fract_x
 _atom_site_fract_y
 _atom_site_fract_z
 _atom_site_occupancy
  C  C0  1  0.88363623  0.94596786  0.94973403  1
  C  C1  1  0.11636377  0.05403214  0.05026597  1
  C  C2  1  0.11636377  0.55403214  0.44973403  1
  C  C3  1  0.88363623  0.44596786  0.55026597  1
  S  S4  1  0.17254468  0.79905855  0.61594309  1
  S  S5  1  0.82745532  0.20094145  0.38405691  1
  S  S6  1  0.82745532  0.70094145  0.11594309  1
  S  S7  1  0.17254468  0.29905855  0.88405691  1
  N  N8  1  0.70105919  0.74126481  0.97553917  1
  N  N9  1  0.29894081  0.25873519  0.02446083  1
  N  N10  1  0.29894081  0.75873519  0.47553917  1
  N  N11  1  0.70105919  0.24126481  0.52446083  1
  N  N12  1  0.89118584  0.57019374  0.65166584  1
  N  N13  1  0.10881416  0.42980626  0.34833416  1
  N  N14  1  0.10881416  0.92980626  0.15166584  1
  N  N15  1  0.89118584  0.07019374  0.84833416  1
