# generated using pymatgen
data_Li2VBO4
_symmetry_space_group_name_H-M   'P 1'
_cell_length_a   5.88922547
_cell_length_b   10.90393708
_cell_length_c   4.71419018
_cell_angle_alpha   90.00000000
_cell_angle_beta   90.00000000
_cell_angle_gamma   90.00000000
_symmetry_Int_Tables_number   1
_chemical_formula_structural   Li2VBO4
_chemical_formula_sum   'Li8 V4 B4 O16'
_cell_volume   302.72522965
_cell_formula_units_Z   4
loop_
 _symmetry_equiv_pos_site_id
 _symmetry_equiv_pos_as_xyz
  1  'x, y, z'
loop_
 _atom_site_type_symbol
 _atom_site_label
 _atom_site_symmetry_multiplicity
 _atom_site_fract_x
 _atom_site_fract_y
 _atom_site_fract_z
 _atom_site_occupancy
  Li  Li0  1  0.99569142  0.41847679  0.19470111  1
  Li  Li1  1  0.99569142  0.91847679  0.30529889  1
  Li  Li2  1  0.50430858  0.91847679  0.30529889  1
  Li  Li3  1  0.50430858  0.41847679  0.19470111  1
  Li  Li4  1  0.49569142  0.08152321  0.69470111  1
  Li  Li5  1  0.49569142  0.58152321  0.80529889  1
  Li  Li6  1  0.00430858  0.58152321  0.80529889  1
  Li  Li7  1  0.00430858  0.08152321  0.69470111  1
  V  V8  1  0.25000000  0.17993113  0.19532661  1
  V  V9  1  0.25000000  0.67993113  0.30467339  1
  V  V10  1  0.75000000  0.32006887  0.69532661  1
  V  V11  1  0.75000000  0.82006887  0.80467339  1
  B  B12  1  0.25000000  0.33821921  0.67317277  1
  B  B13  1  0.25000000  0.83821921  0.82682723  1
  B  B14  1  0.75000000  0.66178079  0.32682723  1
  B  B15  1  0.75000000  0.16178079  0.17317277  1
  O  O16  1  0.03992146  0.40317813  0.77403427  1
  O  O17  1  0.03992146  0.90317813  0.72596573  1
  O  O18  1  0.25000000  0.33868756  0.35731155  1
  O  O19  1  0.25000000  0.70501684  0.72903661  1
  O  O20  1  0.25000000  0.83868756  0.14268845  1
  O  O21  1  0.25000000  0.20501684  0.77096339  1
  O  O22  1  0.46007854  0.90317813  0.72596573  1
  O  O23  1  0.46007854  0.40317813  0.77403427  1
  O  O24  1  0.53992146  0.09682187  0.27403427  1
  O  O25  1  0.53992146  0.59682187  0.22596573  1
  O  O26  1  0.75000000  0.66131244  0.64268845  1
  O  O27  1  0.75000000  0.16131244  0.85731155  1
  O  O28  1  0.75000000  0.29498316  0.27096339  1
  O  O29  1  0.75000000  0.79498316  0.22903661  1
  O  O30  1  0.96007854  0.59682187  0.22596573  1
  O  O31  1  0.96007854  0.09682187  0.27403427  1
