# generated using pymatgen
data_TiCuSi
_symmetry_space_group_name_H-M   'P 1'
_cell_length_a   3.72535198
_cell_length_b   6.21610703
_cell_length_c   7.17358899
_cell_angle_alpha   90.00000000
_cell_angle_beta   90.00000000
_cell_angle_gamma   90.00000000
_symmetry_Int_Tables_number   1
_chemical_formula_structural   TiCuSi
_chemical_formula_sum   'Ti4 Si4 Cu4'
_cell_volume   166.12013906
_cell_formula_units_Z   4
loop_
 _symmetry_equiv_pos_site_id
 _symmetry_equiv_pos_as_xyz
  1  'x, y, z'
loop_
 _atom_site_type_symbol
 _atom_site_label
 _atom_site_symmetry_multiplicity
 _atom_site_fract_x
 _atom_site_fract_y
 _atom_site_fract_z
 _atom_site_occupancy
  Si  Si0  1  0.25000000  0.26570645  0.87840299  1
  Si  Si1  1  0.25000000  0.76570645  0.62159701  1
  Si  Si2  1  0.75000000  0.73429355  0.12159701  1
  Si  Si3  1  0.75000000  0.23429355  0.37840299  1
  Ti  Ti4  1  0.75000000  0.47826440  0.67903054  1
  Ti  Ti5  1  0.25000000  0.02173560  0.17903054  1
  Ti  Ti6  1  0.75000000  0.97826440  0.82096946  1
  Ti  Ti7  1  0.25000000  0.52173560  0.32096946  1
  Cu  Cu8  1  0.25000000  0.65028675  0.93528447  1
  Cu  Cu9  1  0.25000000  0.15028675  0.56471553  1
  Cu  Cu10  1  0.75000000  0.84971325  0.43528447  1
  Cu  Cu11  1  0.75000000  0.34971325  0.06471553  1
