# generated using pymatgen
data_Li8Mn2O7
_symmetry_space_group_name_H-M   'P 1'
_cell_length_a   7.67150124
_cell_length_b   10.11888256
_cell_length_c   9.60093165
_cell_angle_alpha   90.00000000
_cell_angle_beta   111.40958178
_cell_angle_gamma   90.00000000
_symmetry_Int_Tables_number   1
_chemical_formula_structural   Li8Mn2O7
_chemical_formula_sum   'Li32 Mn8 O28'
_cell_volume   693.86269725
_cell_formula_units_Z   4
loop_
 _symmetry_equiv_pos_site_id
 _symmetry_equiv_pos_as_xyz
  1  'x, y, z'
loop_
 _atom_site_type_symbol
 _atom_site_label
 _atom_site_symmetry_multiplicity
 _atom_site_fract_x
 _atom_site_fract_y
 _atom_site_fract_z
 _atom_site_occupancy
  Li  Li0  1  0.09769299  0.47187089  0.92250236  1
  Li  Li1  1  0.11361526  0.48141217  0.63282644  1
  Li  Li2  1  0.09443639  0.73077507  0.54611517  1
  Li  Li3  1  0.09769299  0.02812911  0.42250236  1
  Li  Li4  1  0.27192048  0.95679312  0.69401142  1
  Li  Li5  1  0.11361526  0.01858783  0.13282644  1
  Li  Li6  1  0.28525292  0.27891572  0.58794042  1
  Li  Li7  1  0.09443639  0.76922493  0.04611517  1
  Li  Li8  1  0.42050900  0.48235885  0.86619264  1
  Li  Li9  1  0.34790388  0.50802161  0.51910401  1
  Li  Li10  1  0.27192048  0.54320688  0.19401142  1
  Li  Li11  1  0.50769723  0.23848389  0.87708546  1
  Li  Li12  1  0.28525292  0.22108428  0.08794042  1
  Li  Li13  1  0.49230277  0.73848389  0.62291454  1
  Li  Li14  1  0.42050900  0.01764115  0.36619264  1
  Li  Li15  1  0.65209612  0.00802161  0.98089599  1
  Li  Li16  1  0.34790388  0.99197839  0.01910501  1
  Li  Li17  1  0.57949100  0.98235885  0.63380736  1
  Li  Li18  1  0.50769723  0.26151611  0.37708546  1
  Li  Li19  1  0.71474608  0.77891572  0.91205958  1
  Li  Li20  1  0.49230277  0.76151611  0.12291454  1
  Li  Li21  1  0.72807952  0.45679312  0.80598858  1
  Li  Li22  1  0.65209612  0.49197839  0.48089599  1
  Li  Li23  1  0.57949100  0.51764115  0.13380736  1
  Li  Li24  1  0.90556361  0.23077507  0.95388483  1
  Li  Li25  1  0.71474608  0.72108428  0.41205958  1
  Li  Li26  1  0.88638474  0.98141217  0.86717356  1
  Li  Li27  1  0.72807952  0.04320688  0.30598858  1
  Li  Li28  1  0.90230701  0.97187089  0.57749764  1
  Li  Li29  1  0.90556361  0.26922493  0.45388483  1
  Li  Li30  1  0.88638474  0.51858783  0.36717356  1
  Li  Li31  1  0.90230701  0.52812911  0.07749764  1
  Mn  Mn32  1  0.10670628  0.20809267  0.77781297  1
  Mn  Mn33  1  0.10670628  0.29190733  0.27781297  1
  Mn  Mn34  1  0.30615175  0.72319150  0.84287565  1
  Mn  Mn35  1  0.30615175  0.77680850  0.34287565  1
  Mn  Mn36  1  0.69384825  0.22319150  0.65712435  1
  Mn  Mn37  1  0.69384825  0.27680850  0.15712435  1
  Mn  Mn38  1  0.89329372  0.70809267  0.72218703  1
  Mn  Mn39  1  0.89329372  0.79190733  0.22218703  1
  O  O40  1  0.10265376  0.09766383  0.93916300  1
  O  O41  1  0.09607803  0.82978486  0.71843210  1
  O  O42  1  0.12510106  0.11230702  0.61430296  1
  O  O43  1  0.10265376  0.40233617  0.43916300  1
  O  O44  1  0.26766102  0.34197271  0.77359508  1
  O  O45  1  0.09607803  0.67021514  0.21843210  1
  O  O46  1  0.12510106  0.38769298  0.11430296  1
  O  O47  1  0.32766937  0.61315103  0.68962222  1
  O  O48  1  0.26766102  0.15802729  0.27359508  1
  O  O49  1  0.47222277  0.86040919  0.93584283  1
  O  O50  1  0.34028555  0.89908238  0.50524314  1
  O  O51  1  0.32766937  0.88684897  0.18962222  1
  O  O52  1  0.47222277  0.63959081  0.43584283  1
  O  O53  1  0.65971445  0.39908238  0.99475686  1
  O  O54  1  0.34028555  0.60091762  0.00524314  1
  O  O55  1  0.52777723  0.36040919  0.56415717  1
  O  O56  1  0.67233063  0.11315103  0.81037778  1
  O  O57  1  0.65971445  0.10091762  0.49475686  1
  O  O58  1  0.52777723  0.13959081  0.06415717  1
  O  O59  1  0.73233898  0.84197271  0.72640492  1
  O  O60  1  0.67233063  0.38684897  0.31037778  1
  O  O61  1  0.87489894  0.61230702  0.88569704  1
  O  O62  1  0.90392197  0.32978486  0.78156790  1
  O  O63  1  0.73233898  0.65802729  0.22640492  1
  O  O64  1  0.89734624  0.59766383  0.56083700  1
  O  O65  1  0.87489894  0.88769298  0.38569704  1
  O  O66  1  0.90392197  0.17021514  0.28156790  1
  O  O67  1  0.89734624  0.90233617  0.06083700  1
