# generated using pymatgen
data_RbDy2Cl7
_symmetry_space_group_name_H-M   'P 1'
_cell_length_a   7.00373175
_cell_length_b   12.69569843
_cell_length_c   13.60149940
_cell_angle_alpha   90.00000000
_cell_angle_beta   90.00000000
_cell_angle_gamma   90.00000000
_symmetry_Int_Tables_number   1
_chemical_formula_structural   RbDy2Cl7
_chemical_formula_sum   'Rb4 Dy8 Cl28'
_cell_volume   1209.40814263
_cell_formula_units_Z   4
loop_
 _symmetry_equiv_pos_site_id
 _symmetry_equiv_pos_as_xyz
  1  'x, y, z'
loop_
 _atom_site_type_symbol
 _atom_site_label
 _atom_site_symmetry_multiplicity
 _atom_site_fract_x
 _atom_site_fract_y
 _atom_site_fract_z
 _atom_site_occupancy
  Cl  Cl0  1  0.99027795  0.46030636  0.36578344  1
  Cl  Cl1  1  0.49027795  0.53969364  0.63421656  1
  Cl  Cl2  1  0.00972205  0.96030636  0.13421656  1
  Cl  Cl3  1  0.50972205  0.03969364  0.86578344  1
  Cl  Cl4  1  0.00972205  0.53969364  0.63421656  1
  Cl  Cl5  1  0.50972205  0.46030636  0.36578344  1
  Cl  Cl6  1  0.99027795  0.03969364  0.86578344  1
  Cl  Cl7  1  0.49027795  0.96030636  0.13421656  1
  Cl  Cl8  1  0.01047686  0.42193953  0.12460327  1
  Cl  Cl9  1  0.51047686  0.57806047  0.87539673  1
  Cl  Cl10  1  0.98952314  0.92193953  0.37539673  1
  Cl  Cl11  1  0.48952314  0.07806047  0.62460327  1
  Cl  Cl12  1  0.25000000  0.68817167  0.38858111  1
  Cl  Cl13  1  0.75000000  0.31182833  0.61141889  1
  Cl  Cl14  1  0.75000000  0.18817167  0.11141889  1
  Cl  Cl15  1  0.25000000  0.81182833  0.88858111  1
  Cl  Cl16  1  0.48988289  0.69321085  0.17602931  1
  Cl  Cl17  1  0.98988289  0.30678915  0.82397069  1
  Cl  Cl18  1  0.51011711  0.19321085  0.32397069  1
  Cl  Cl19  1  0.01011711  0.80678915  0.67602931  1
  Cl  Cl20  1  0.51011711  0.30678915  0.82397069  1
  Cl  Cl21  1  0.01011711  0.69321085  0.17602931  1
  Cl  Cl22  1  0.48988289  0.80678915  0.67602931  1
  Cl  Cl23  1  0.98988289  0.19321085  0.32397069  1
  Cl  Cl24  1  0.51047686  0.92193953  0.37539673  1
  Cl  Cl25  1  0.01047686  0.07806047  0.62460327  1
  Cl  Cl26  1  0.48952314  0.42193953  0.12460327  1
  Cl  Cl27  1  0.98952314  0.57806047  0.87539673  1
  Rb  Rb28  1  0.25000000  0.19492827  0.04048718  1
  Rb  Rb29  1  0.75000000  0.80507173  0.95951282  1
  Rb  Rb30  1  0.75000000  0.69492827  0.45951282  1
  Rb  Rb31  1  0.25000000  0.30507173  0.54048718  1
  Dy  Dy32  1  0.25000000  0.65712128  0.74907335  1
  Dy  Dy33  1  0.75000000  0.34287872  0.25092665  1
  Dy  Dy34  1  0.75000000  0.15712128  0.75092665  1
  Dy  Dy35  1  0.25000000  0.84287872  0.24907335  1
  Dy  Dy36  1  0.25000000  0.53987306  0.23728906  1
  Dy  Dy37  1  0.75000000  0.46012694  0.76271094  1
  Dy  Dy38  1  0.75000000  0.03987306  0.26271094  1
  Dy  Dy39  1  0.25000000  0.96012694  0.73728906  1
