# generated using pymatgen
data_Li4Ti2Cr3Fe3O16
_symmetry_space_group_name_H-M   'P 1'
_cell_length_a   5.87707937
_cell_length_b   5.88277490
_cell_length_c   9.44894493
_cell_angle_alpha   89.98676765
_cell_angle_beta   90.03579575
_cell_angle_gamma   120.02521381
_symmetry_Int_Tables_number   1
_chemical_formula_structural   Li4Ti2Cr3Fe3O16
_chemical_formula_sum   'Li4 Ti2 Cr3 Fe3 O16'
_cell_volume   282.84418305
_cell_formula_units_Z   1
loop_
 _symmetry_equiv_pos_site_id
 _symmetry_equiv_pos_as_xyz
  1  'x, y, z'
loop_
 _atom_site_type_symbol
 _atom_site_label
 _atom_site_symmetry_multiplicity
 _atom_site_fract_x
 _atom_site_fract_y
 _atom_site_fract_z
 _atom_site_occupancy
  Li  Li0  1  0.34117096  0.67032458  0.89565482  1
  Li  Li1  1  0.99311781  0.99695374  0.99452445  1
  Li  Li2  1  0.99748359  0.99893202  0.49418487  1
  Li  Li3  1  0.66911348  0.33453541  0.39672170  1
  Ti  Ti4  1  0.32327267  0.66163586  0.48507837  1
  Ti  Ti5  1  0.66615634  0.33324270  -0.00057959  1
  Cr  Cr6  1  0.17097193  0.83072731  0.21372318  1
  Cr  Cr7  1  0.17098984  0.34024608  0.21376505  1
  Cr  Cr8  1  0.34008122  0.16996745  0.71371609  1
  Fe  Fe9  1  0.65917729  0.82952623  0.21716187  1
  Fe  Fe10  1  0.83013629  0.66038305  0.71456337  1
  Fe  Fe11  1  0.83009055  0.16967098  0.71463476  1
  O  O12  1  0.15718556  0.82839684  0.59840843  1
  O  O13  1  0.03911879  0.51951829  0.34331397  1
  O  O14  1  0.33863405  0.66934443  0.10392060  1
  O  O15  1  0.99837696  0.99910712  0.30828351  1
  O  O16  1  0.99283782  0.99629533  0.80659416  1
  O  O17  1  0.15728069  0.32894868  0.59846096  1
  O  O18  1  0.47651973  0.96103298  0.34950271  1
  O  O19  1  0.47665157  0.51563850  0.34956069  1
  O  O20  1  0.33472286  0.16746658  0.09184050  1
  O  O21  1  0.67307996  0.83658963  0.60146301  1
  O  O22  1  0.52856717  0.48567647  0.83709485  1
  O  O23  1  0.52861821  0.04264569  0.83712699  1
  O  O24  1  0.67598287  0.33798021  0.60982498  1
  O  O25  1  0.83530665  0.66195843  0.09214179  1
  O  O26  1  0.96006564  0.47994999  0.83491122  1
  O  O27  1  0.83529247  0.17360443  0.09224367  1
