# generated using pymatgen
data_LiAlCrO3
_symmetry_space_group_name_H-M   'P 1'
_cell_length_a   5.82964235
_cell_length_b   5.78893432
_cell_length_c   5.68468225
_cell_angle_alpha   61.50028019
_cell_angle_beta   119.66211778
_cell_angle_gamma   90.13335682
_symmetry_Int_Tables_number   1
_chemical_formula_structural   LiAlCrO3
_chemical_formula_sum   'Li2 Al2 Cr2 O6'
_cell_volume   139.46720620
_cell_formula_units_Z   2
loop_
 _symmetry_equiv_pos_site_id
 _symmetry_equiv_pos_as_xyz
  1  'x, y, z'
loop_
 _atom_site_type_symbol
 _atom_site_label
 _atom_site_symmetry_multiplicity
 _atom_site_fract_x
 _atom_site_fract_y
 _atom_site_fract_z
 _atom_site_occupancy
  Li  Li0  1  0.65340891  0.63049594  0.41552394  1
  Li  Li1  1  0.34659109  0.36950406  0.58447606  1
  Al  Al2  1  0.85068792  0.86310852  0.89825717  1
  Al  Al3  1  0.14931208  0.13689148  0.10174283  1
  Cr  Cr4  1  0.74955310  0.24912190  0.23833909  1
  Cr  Cr5  1  0.25044690  0.75087810  0.76166091  1
  O  O6  1  0.67119984  0.66639055  0.04611251  1
  O  O7  1  0.83309926  0.84411828  0.58713177  1
  O  O8  1  0.78146308  0.21901454  0.79211921  1
  O  O9  1  0.21853692  0.78098546  0.20788079  1
  O  O10  1  0.16690074  0.15588172  0.41286823  1
  O  O11  1  0.32880016  0.33360945  0.95388749  1
