# generated using pymatgen
data_HoNbO4
_symmetry_space_group_name_H-M   'P 1'
_cell_length_a   5.13885108
_cell_length_b   5.31909658
_cell_length_c   6.58774387
_cell_angle_alpha   112.14408441
_cell_angle_beta   111.24259340
_cell_angle_gamma   93.93628494
_symmetry_Int_Tables_number   1
_chemical_formula_structural   HoNbO4
_chemical_formula_sum   'Ho2 Nb2 O8'
_cell_volume   150.99910559
_cell_formula_units_Z   2
loop_
 _symmetry_equiv_pos_site_id
 _symmetry_equiv_pos_as_xyz
  1  'x, y, z'
loop_
 _atom_site_type_symbol
 _atom_site_label
 _atom_site_symmetry_multiplicity
 _atom_site_fract_x
 _atom_site_fract_y
 _atom_site_fract_z
 _atom_site_occupancy
  O  O0  1  0.79099813  0.95080685  0.57828863  1
  O  O1  1  0.28729050  0.62748178  0.57828863  1
  O  O2  1  0.20900187  0.04919315  0.42171137  1
  O  O3  1  0.71270950  0.37251822  0.42171137  1
  O  O4  1  0.07835088  0.28336932  0.06499518  1
  O  O5  1  0.48664431  0.78162586  0.06499518  1
  O  O6  1  0.92164912  0.71663068  0.93500482  1
  O  O7  1  0.51335569  0.21837414  0.93500482  1
  Nb  Nb8  1  0.64135964  0.89135964  0.78271928  1
  Nb  Nb9  1  0.35864036  0.10864036  0.21728072  1
  Ho  Ho10  1  0.12192755  0.37192755  0.74385511  1
  Ho  Ho11  1  0.87807245  0.62807245  0.25614489  1
