# generated using pymatgen
data_KNa2CuO2
_symmetry_space_group_name_H-M   'P 1'
_cell_length_a   4.39036796
_cell_length_b   4.39037757
_cell_length_c   6.29157896
_cell_angle_alpha   110.42596901
_cell_angle_beta   110.42055962
_cell_angle_gamma   90.00000192
_symmetry_Int_Tables_number   1
_chemical_formula_structural   KNa2CuO2
_chemical_formula_sum   'K1 Na2 Cu1 O2'
_cell_volume   105.47672156
_cell_formula_units_Z   1
loop_
 _symmetry_equiv_pos_site_id
 _symmetry_equiv_pos_as_xyz
  1  'x, y, z'
loop_
 _atom_site_type_symbol
 _atom_site_label
 _atom_site_symmetry_multiplicity
 _atom_site_fract_x
 _atom_site_fract_y
 _atom_site_fract_z
 _atom_site_occupancy
  K  K0  1  0.57252140  0.57253926  0.14504279  1
  O  O1  1  0.16151333  0.16150506  0.32302667  1
  Na  Na2  1  0.27278979  0.77279614  0.54557958  1
  O  O3  1  0.83001369  0.83000356  0.66002738  1
  Na  Na4  1  0.77279096  0.27279374  0.54558193  1
  Cu  Cu5  1  0.99531083  0.99530224  0.99062165  1
