# generated using pymatgen
data_RbGeIO6
_symmetry_space_group_name_H-M   'P 1'
_cell_length_a   5.11429060
_cell_length_b   5.11438481
_cell_length_c   6.52555225
_cell_angle_alpha   89.99949125
_cell_angle_beta   90.00102171
_cell_angle_gamma   120.00042270
_symmetry_Int_Tables_number   1
_chemical_formula_structural   RbGeIO6
_chemical_formula_sum   'Rb1 Ge1 I1 O6'
_cell_volume   147.81716080
_cell_formula_units_Z   1
loop_
 _symmetry_equiv_pos_site_id
 _symmetry_equiv_pos_as_xyz
  1  'x, y, z'
loop_
 _atom_site_type_symbol
 _atom_site_label
 _atom_site_symmetry_multiplicity
 _atom_site_fract_x
 _atom_site_fract_y
 _atom_site_fract_z
 _atom_site_occupancy
  O  O0  1  0.38573648  0.38333985  0.33256730  1
  O  O1  1  0.38578255  0.00249440  0.66739879  1
  O  O2  1  0.99747470  0.38332880  0.66734538  1
  O  O3  1  0.61664139  0.61422213  0.66738784  1
  O  O4  1  0.99747589  0.61419980  0.33258801  1
  Rb  Rb5  1  -0.00000247  0.99998960  1.00000336  1
  I  I6  1  0.66677999  0.33332314  0.50007137  1
  O  O7  1  0.61664686  0.00247991  0.33262396  1
  Ge  Ge8  1  0.33346461  0.66662236  0.50001399  1
