# generated using pymatgen
data_Rb3PbO3
_symmetry_space_group_name_H-M   'P 1'
_cell_length_a   11.80741078
_cell_length_b   7.40458221
_cell_length_c   8.08302645
_cell_angle_alpha   90.00000000
_cell_angle_beta   93.85853667
_cell_angle_gamma   90.00000000
_symmetry_Int_Tables_number   1
_chemical_formula_structural   Rb3PbO3
_chemical_formula_sum   'Rb12 Pb4 O12'
_cell_volume   705.08856634
_cell_formula_units_Z   4
loop_
 _symmetry_equiv_pos_site_id
 _symmetry_equiv_pos_as_xyz
  1  'x, y, z'
loop_
 _atom_site_type_symbol
 _atom_site_label
 _atom_site_symmetry_multiplicity
 _atom_site_fract_x
 _atom_site_fract_y
 _atom_site_fract_z
 _atom_site_occupancy
  Rb  Rb0  1  0.07653920  0.32222878  0.64038328  1
  Rb  Rb1  1  0.15389578  0.62604048  0.06292676  1
  Rb  Rb2  1  0.19122761  0.80191892  0.62869349  1
  Rb  Rb3  1  0.30877239  0.30191892  0.37130651  1
  Rb  Rb4  1  0.34610422  0.12604048  0.93707324  1
  Rb  Rb5  1  0.42346080  0.82222878  0.35961672  1
  Rb  Rb6  1  0.57653920  0.17777122  0.64038328  1
  Rb  Rb7  1  0.65389578  0.87395952  0.06292676  1
  Rb  Rb8  1  0.69122761  0.69808108  0.62869349  1
  Rb  Rb9  1  0.80877239  0.19808108  0.37130651  1
  Rb  Rb10  1  0.84610422  0.37395952  0.93707324  1
  Rb  Rb11  1  0.92346080  0.67777122  0.35961672  1
  Pb  Pb12  1  0.07054651  0.09494305  0.16446121  1
  Pb  Pb13  1  0.42945349  0.59494305  0.83553879  1
  Pb  Pb14  1  0.57054651  0.40505695  0.16446121  1
  Pb  Pb15  1  0.92945349  0.90505695  0.83553879  1
  O  O16  1  0.03740822  0.36807344  0.26232985  1
  O  O17  1  0.10041656  0.04261067  0.88971204  1
  O  O18  1  0.19423842  0.93180581  0.31343529  1
  O  O19  1  0.30576158  0.43180581  0.68656471  1
  O  O20  1  0.39958344  0.54261067  0.11028796  1
  O  O21  1  0.46259178  0.86807344  0.73767015  1
  O  O22  1  0.53740822  0.13192656  0.26232985  1
  O  O23  1  0.60041656  0.45738933  0.88971204  1
  O  O24  1  0.69423842  0.56819419  0.31343529  1
  O  O25  1  0.80576158  0.06819419  0.68656471  1
  O  O26  1  0.89958344  0.95738933  0.11028796  1
  O  O27  1  0.96259178  0.63192656  0.73767015  1
