# generated using pymatgen
data_Al2VCl8
_symmetry_space_group_name_H-M   'P 1'
_cell_length_a   8.15183859
_cell_length_b   9.76886977
_cell_length_c   10.13695294
_cell_angle_alpha   71.95705041
_cell_angle_beta   66.29140000
_cell_angle_gamma   65.33982764
_symmetry_Int_Tables_number   1
_chemical_formula_structural   Al2VCl8
_chemical_formula_sum   'Al4 V2 Cl16'
_cell_volume   661.86150749
_cell_formula_units_Z   2
loop_
 _symmetry_equiv_pos_site_id
 _symmetry_equiv_pos_as_xyz
  1  'x, y, z'
loop_
 _atom_site_type_symbol
 _atom_site_label
 _atom_site_symmetry_multiplicity
 _atom_site_fract_x
 _atom_site_fract_y
 _atom_site_fract_z
 _atom_site_occupancy
  Al  Al0  1  0.15837703  0.63823267  0.53026090  1
  Al  Al1  1  0.32687060  0.86176733  0.96973910  1
  Al  Al2  1  0.84162297  0.36176733  0.46973910  1
  Al  Al3  1  0.67312940  0.13823267  0.03026090  1
  V  V4  1  1.00210177  0.75000000  0.25000000  1
  V  V5  1  -0.00210177  0.25000000  0.75000000  1
  Cl  Cl6  1  0.30762573  0.75754127  0.55075701  1
  Cl  Cl7  1  0.69237427  0.24245873  0.44924299  1
  Cl  Cl8  1  0.17064684  0.71660137  0.98838423  1
  Cl  Cl9  1  0.15738950  0.94630926  0.17751687  1
  Cl  Cl10  1  0.82935316  0.28339863  0.01161577  1
  Cl  Cl11  1  0.28121563  0.55369074  0.32248313  1
  Cl  Cl12  1  0.38407599  0.25754127  0.05075701  1
  Cl  Cl13  1  0.84261050  0.05369074  0.82248313  1
  Cl  Cl14  1  0.30458563  0.05222552  0.78628466  1
  Cl  Cl15  1  0.12436756  0.21660137  0.48838423  1
  Cl  Cl16  1  0.69541437  0.94777448  0.21371534  1
  Cl  Cl17  1  0.71878437  0.44630926  0.67751687  1
  Cl  Cl18  1  0.87563244  0.78339863  0.51161577  1
  Cl  Cl19  1  0.14309581  0.44777448  0.71371534  1
  Cl  Cl20  1  0.61592401  0.74245873  0.94924299  1
  Cl  Cl21  1  0.85690419  0.55222552  0.28628466  1
