# generated using pymatgen
data_CsNb4Cl11
_symmetry_space_group_name_H-M   'P 1'
_cell_length_a   7.16342913
_cell_length_b   7.05454566
_cell_length_c   16.29615204
_cell_angle_alpha   90.00000000
_cell_angle_beta   90.00000000
_cell_angle_gamma   90.00000000
_symmetry_Int_Tables_number   1
_chemical_formula_structural   CsNb4Cl11
_chemical_formula_sum   'Cs2 Nb8 Cl22'
_cell_volume   823.52177179
_cell_formula_units_Z   2
loop_
 _symmetry_equiv_pos_site_id
 _symmetry_equiv_pos_as_xyz
  1  'x, y, z'
loop_
 _atom_site_type_symbol
 _atom_site_label
 _atom_site_symmetry_multiplicity
 _atom_site_fract_x
 _atom_site_fract_y
 _atom_site_fract_z
 _atom_site_occupancy
  Cs  Cs0  1  0.48166414  0.50000000  0.25000000  1
  Cs  Cs1  1  0.51833586  0.50000000  0.75000000  1
  Nb  Nb2  1  0.11786796  0.00000000  0.64093259  1
  Nb  Nb3  1  0.00000000  0.21375685  0.00000000  1
  Nb  Nb4  1  0.00000000  0.78624315  0.00000000  1
  Nb  Nb5  1  0.11786796  0.00000000  0.85906741  1
  Nb  Nb6  1  0.88213204  0.00000000  0.35906741  1
  Nb  Nb7  1  0.00000000  0.78624315  0.50000000  1
  Nb  Nb8  1  0.00000000  0.21375685  0.50000000  1
  Nb  Nb9  1  0.88213204  0.00000000  0.14093259  1
  Cl  Cl10  1  0.87027843  0.50000000  0.91727141  1
  Cl  Cl11  1  0.30284805  0.75080859  0.92294711  1
  Cl  Cl12  1  0.98756530  0.23023357  0.75000000  1
  Cl  Cl13  1  0.20134017  0.00000000  0.08584462  1
  Cl  Cl14  1  0.79865983  0.00000000  0.91415538  1
  Cl  Cl15  1  0.12972157  0.50000000  0.08272859  1
  Cl  Cl16  1  0.01243470  0.23023357  0.25000000  1
  Cl  Cl17  1  0.20134017  0.00000000  0.41415538  1
  Cl  Cl18  1  0.30284805  0.24919141  0.92294711  1
  Cl  Cl19  1  0.38973442  0.00000000  0.75000000  1
  Cl  Cl20  1  0.79865983  0.00000000  0.58584462  1
  Cl  Cl21  1  0.61026558  0.00000000  0.25000000  1
  Cl  Cl22  1  0.01243470  0.76976643  0.25000000  1
  Cl  Cl23  1  0.30284805  0.24919141  0.57705289  1
  Cl  Cl24  1  0.69715195  0.24919141  0.42294711  1
  Cl  Cl25  1  0.69715195  0.75080859  0.07705289  1
  Cl  Cl26  1  0.69715195  0.24919141  0.07705289  1
  Cl  Cl27  1  0.30284805  0.75080859  0.57705289  1
  Cl  Cl28  1  0.87027843  0.50000000  0.58272859  1
  Cl  Cl29  1  0.69715195  0.75080859  0.42294711  1
  Cl  Cl30  1  0.98756530  0.76976643  0.75000000  1
  Cl  Cl31  1  0.12972157  0.50000000  0.41727141  1
