# generated using pymatgen
data_La7P12Pd17
_symmetry_space_group_name_H-M   'P 1'
_cell_length_a   4.11933995
_cell_length_b   12.53614734
_cell_length_c   13.75560405
_cell_angle_alpha   111.95682216
_cell_angle_beta   90.00000000
_cell_angle_gamma   99.45648430
_symmetry_Int_Tables_number   1
_chemical_formula_structural   La7P12Pd17
_chemical_formula_sum   'La7 P12 Pd17'
_cell_volume   648.40410554
_cell_formula_units_Z   1
loop_
 _symmetry_equiv_pos_site_id
 _symmetry_equiv_pos_as_xyz
  1  'x, y, z'
loop_
 _atom_site_type_symbol
 _atom_site_label
 _atom_site_symmetry_multiplicity
 _atom_site_fract_x
 _atom_site_fract_y
 _atom_site_fract_z
 _atom_site_occupancy
  La  La0  1  0.58257474  0.16514948  0.26259640  1
  La  La1  1  0.76646465  0.53292930  0.31366845  1
  La  La2  1  0.36504029  0.73008059  0.99952905  1
  La  La3  1  0.41742526  0.83485052  0.73740360  1
  La  La4  1  0.50000000  -0.00000000  0.50000000  1
  La  La5  1  0.63495971  0.26991941  0.00047095  1
  La  La6  1  0.23353535  0.46707070  0.68633155  1
  P  P7  1  0.23364186  0.46728372  0.11794473  1
  P  P8  1  0.01069225  0.02138450  0.32773037  1
  P  P9  1  0.93983580  0.87967161  0.92622132  1
  P  P10  1  0.98930775  0.97861550  0.67226963  1
  P  P11  1  0.18794695  0.37589390  0.38110560  1
  P  P12  1  0.76635814  0.53271628  0.88205527  1
  P  P13  1  0.06016420  0.12032839  0.07377868  1
  P  P14  1  0.63544424  0.27088848  0.57942702  1
  P  P15  1  0.36455576  0.72911152  0.42057298  1
  P  P16  1  0.11281131  0.22562261  0.82729639  1
  P  P17  1  0.88718869  0.77437739  0.17270361  1
  P  P18  1  0.81205305  0.62410610  0.61889440  1
  Pd  Pd19  1  0.66560953  0.33121906  0.77796080  1
  Pd  Pd20  1  0.89038777  0.78077554  0.54172434  1
  Pd  Pd21  1  0.29695856  0.59391711  0.51323310  1
  Pd  Pd22  1  0.83882226  0.67764451  0.80692631  1
  Pd  Pd23  1  0.45224141  0.90448283  0.25421962  1
  Pd  Pd24  1  0.10961223  0.21922446  0.45827566  1
  Pd  Pd25  1  0.33439047  0.66878094  0.22203920  1
  Pd  Pd26  1  0.54775859  0.09551717  0.74578038  1
  Pd  Pd27  1  0.90626368  0.81252736  0.35485332  1
  Pd  Pd28  1  0.09373632  0.18747264  0.64514668  1
  Pd  Pd29  1  0.97402567  0.94805134  0.12527287  1
  Pd  Pd30  1  0.78183128  0.56366256  0.07084691  1
  Pd  Pd31  1  0.02597433  0.05194866  0.87472713  1
  Pd  Pd32  1  0.50000000  -0.00000000  -0.00000000  1
  Pd  Pd33  1  0.70304144  0.40608289  0.48676690  1
  Pd  Pd34  1  0.21816872  0.43633744  0.92915309  1
  Pd  Pd35  1  0.16117774  0.32235549  0.19307369  1
