# generated using pymatgen
data_Li2AlFeO4
_symmetry_space_group_name_H-M   'P 1'
_cell_length_a   6.29633055
_cell_length_b   5.42030653
_cell_length_c   10.91610186
_cell_angle_alpha   90.00000000
_cell_angle_beta   88.70711751
_cell_angle_gamma   90.00000000
_symmetry_Int_Tables_number   1
_chemical_formula_structural   Li2AlFeO4
_chemical_formula_sum   'Li8 Al4 Fe4 O16'
_cell_volume   372.45033560
_cell_formula_units_Z   4
loop_
 _symmetry_equiv_pos_site_id
 _symmetry_equiv_pos_as_xyz
  1  'x, y, z'
loop_
 _atom_site_type_symbol
 _atom_site_label
 _atom_site_symmetry_multiplicity
 _atom_site_fract_x
 _atom_site_fract_y
 _atom_site_fract_z
 _atom_site_occupancy
  Li  Li0  1  0.01109032  0.32707996  0.82583773  1
  Li  Li1  1  0.01109032  0.17292004  0.32583773  1
  Li  Li2  1  0.24554108  0.17026436  0.58018141  1
  Li  Li3  1  0.24554108  0.32973564  0.08018141  1
  Li  Li4  1  0.75445892  0.67026436  0.91981859  1
  Li  Li5  1  0.75445892  0.82973564  0.41981859  1
  Li  Li6  1  0.98890968  0.82707996  0.67416227  1
  Li  Li7  1  0.98890968  0.67292004  0.17416227  1
  Al  Al8  1  0.50307594  0.18420711  0.83242527  1
  Al  Al9  1  0.49692406  0.68420711  0.66757473  1
  Al  Al10  1  0.50307594  0.31579289  0.33242527  1
  Al  Al11  1  0.49692406  0.81579289  0.16757473  1
  Fe  Fe12  1  0.23509321  0.82424608  0.92043418  1
  Fe  Fe13  1  0.23509321  0.67575392  0.42043418  1
  Fe  Fe14  1  0.76490679  0.32424608  0.57956582  1
  Fe  Fe15  1  0.76490679  0.17575392  0.07956582  1
  O  O16  1  0.02577284  0.68563779  0.83535837  1
  O  O17  1  0.02577284  0.81436221  0.33535837  1
  O  O18  1  0.25648283  0.18077892  0.91628461  1
  O  O19  1  0.25648283  0.31922108  0.41628461  1
  O  O20  1  0.28957060  0.80158380  0.57997730  1
  O  O21  1  0.48757973  0.34664591  0.68947801  1
  O  O22  1  0.28957060  0.69841620  0.07997730  1
  O  O23  1  0.48757973  0.15335409  0.18947801  1
  O  O24  1  0.51242027  0.84664591  0.81052199  1
  O  O25  1  0.71042940  0.30158380  0.92002270  1
  O  O26  1  0.51242027  0.65335409  0.31052199  1
  O  O27  1  0.71042940  0.19841620  0.42002270  1
  O  O28  1  0.74351717  0.68077892  0.58371539  1
  O  O29  1  0.74351717  0.81922108  0.08371539  1
  O  O30  1  0.97422716  0.18563779  0.66464163  1
  O  O31  1  0.97422716  0.31436221  0.16464163  1
