# generated using pymatgen
data_Sr(PRh)2
_symmetry_space_group_name_H-M   'P 1'
_cell_length_a   3.97356082
_cell_length_b   3.97356083
_cell_length_c   6.56760331
_cell_angle_alpha   107.60855696
_cell_angle_beta   107.60855695
_cell_angle_gamma   90.00000002
_symmetry_Int_Tables_number   1
_chemical_formula_structural   Sr(PRh)2
_chemical_formula_sum   'Sr1 P2 Rh2'
_cell_volume   93.72822911
_cell_formula_units_Z   1
loop_
 _symmetry_equiv_pos_site_id
 _symmetry_equiv_pos_as_xyz
  1  'x, y, z'
loop_
 _atom_site_type_symbol
 _atom_site_label
 _atom_site_symmetry_multiplicity
 _atom_site_fract_x
 _atom_site_fract_y
 _atom_site_fract_z
 _atom_site_occupancy
  P  P0  1  0.64106159  0.64106159  0.28212318  1
  P  P1  1  0.35893841  0.35893841  0.71787682  1
  Sr  Sr2  1  0.00000000  0.00000000  0.00000000  1
  Rh  Rh3  1  0.75000000  0.25000000  0.50000000  1
  Rh  Rh4  1  0.25000000  0.75000000  0.50000000  1
