# generated using pymatgen
data_EuMgHg2
_symmetry_space_group_name_H-M   'P 1'
_cell_length_a   5.23923921
_cell_length_b   5.23926489
_cell_length_c   5.23925102
_cell_angle_alpha   59.99975021
_cell_angle_beta   59.99977972
_cell_angle_gamma   59.99961449
_symmetry_Int_Tables_number   1
_chemical_formula_structural   EuMgHg2
_chemical_formula_sum   'Eu1 Mg1 Hg2'
_cell_volume   101.69274830
_cell_formula_units_Z   1
loop_
 _symmetry_equiv_pos_site_id
 _symmetry_equiv_pos_as_xyz
  1  'x, y, z'
loop_
 _atom_site_type_symbol
 _atom_site_label
 _atom_site_symmetry_multiplicity
 _atom_site_fract_x
 _atom_site_fract_y
 _atom_site_fract_z
 _atom_site_occupancy
  Eu  Eu0  1  0.24999981  0.25000002  0.24999996  1
  Mg  Mg1  1  0.74999908  0.74999906  0.74999909  1
  Hg  Hg2  1  0.00000000  -0.00000043  -0.00000001  1
  Hg  Hg3  1  0.50000011  0.50000035  0.49999996  1
