# generated using pymatgen
data_Li6MnAlO6
_symmetry_space_group_name_H-M   'P 1'
_cell_length_a   5.35407192
_cell_length_b   9.12075885
_cell_length_c   9.79593100
_cell_angle_alpha   89.99463083
_cell_angle_beta   88.61917953
_cell_angle_gamma   148.41010664
_symmetry_Int_Tables_number   1
_chemical_formula_structural   Li6MnAlO6
_chemical_formula_sum   'Li12 Mn2 Al2 O12'
_cell_volume   250.31846077
_cell_formula_units_Z   2
loop_
 _symmetry_equiv_pos_site_id
 _symmetry_equiv_pos_as_xyz
  1  'x, y, z'
loop_
 _atom_site_type_symbol
 _atom_site_label
 _atom_site_symmetry_multiplicity
 _atom_site_fract_x
 _atom_site_fract_y
 _atom_site_fract_z
 _atom_site_occupancy
  Li  Li0  1  0.25442686  0.93846194  0.42173395  1
  Li  Li1  1  0.44702744  0.06656214  0.91942947  1
  Li  Li2  1  0.30991417  0.62520638  0.92700080  1
  Li  Li3  1  0.54733928  0.93047248  0.08300563  1
  Li  Li4  1  0.30845752  0.68302727  0.42679731  1
  Li  Li5  1  0.73747211  0.05561610  0.57894121  1
  Li  Li6  1  0.54773127  0.61609944  0.58282238  1
  Li  Li7  1  0.44429154  0.37741668  0.42063914  1
  Li  Li8  1  0.25540321  0.31526592  0.92191283  1
  Li  Li9  1  0.73861519  0.68108721  0.07889842  1
  Li  Li10  1  0.68728582  0.37311789  0.07403871  1
  Li  Li11  1  0.68837065  0.31312919  0.57419945  1
  Mn  Mn12  1  0.99849751  0.00124457  0.25021053  1
  Mn  Mn13  1  0.99891136  0.99618877  0.75027815  1
  Al  Al14  1  -0.00002465  0.65990125  0.75066595  1
  Al  Al15  1  0.00078782  0.33916095  0.25091874  1
  O  O16  1  0.37376364  0.04021405  0.13850427  1
  O  O17  1  0.21636518  0.93479541  0.63338063  1
  O  O18  1  0.30849635  0.62360637  0.12768865  1
  O  O19  1  0.77784572  0.06035439  0.36701693  1
  O  O20  1  0.62025873  0.95661179  0.86128821  1
  O  O21  1  0.30841922  0.68354618  0.62762188  1
  O  O22  1  0.37418802  0.33254170  0.63833833  1
  O  O23  1  0.77872719  0.71662549  0.86696523  1
  O  O24  1  0.21605179  0.28008622  0.13336027  1
  O  O25  1  0.61857954  0.66141027  0.36148956  1
  O  O26  1  0.68647429  0.31202078  0.37324379  1
  O  O27  1  0.68723125  0.37354413  0.87303158  1
