# generated using pymatgen
data_Li3V5O14
_symmetry_space_group_name_H-M   'P 1'
_cell_length_a   8.77107452
_cell_length_b   8.77050946
_cell_length_c   4.89228141
_cell_angle_alpha   90.00350037
_cell_angle_beta   89.99252187
_cell_angle_gamma   120.00078090
_symmetry_Int_Tables_number   1
_chemical_formula_structural   Li3V5O14
_chemical_formula_sum   'Li3 V5 O14'
_cell_volume   325.92394071
_cell_formula_units_Z   1
loop_
 _symmetry_equiv_pos_site_id
 _symmetry_equiv_pos_as_xyz
  1  'x, y, z'
loop_
 _atom_site_type_symbol
 _atom_site_label
 _atom_site_symmetry_multiplicity
 _atom_site_fract_x
 _atom_site_fract_y
 _atom_site_fract_z
 _atom_site_occupancy
  Li  Li0  1  0.00030351  0.61797311  0.16558853  1
  Li  Li1  1  0.38228744  0.38197807  0.16557073  1
  Li  Li2  1  0.61788780  0.99998854  0.16552807  1
  V  V3  1  0.99997794  0.22470567  0.43618963  1
  V  V4  1  0.33333019  0.66669070  0.46177756  1
  V  V5  1  0.22464012  0.99999421  0.43620933  1
  V  V6  1  0.77529414  0.77530846  0.43622569  1
  V  V7  1  0.66662878  0.33331501  0.46175453  1
  O  O8  1  0.99997360  0.82500476  0.33479615  1
  O  O9  1  0.99994299  0.22594960  0.76765393  1
  O  O10  1  0.29566961  0.83272332  0.32683457  1
  O  O11  1  0.16722530  0.46301864  0.32688839  1
  O  O12  1  0.33331589  0.66672176  0.79784386  1
  O  O13  1  0.17494255  0.17497065  0.33477479  1
  O  O14  1  0.53702386  0.70435365  0.32686266  1
  O  O15  1  0.22587682  0.99999382  0.76767714  1
  O  O16  1  0.77403673  0.77408041  0.76769808  1
  O  O17  1  0.46293716  0.16728669  0.32682377  1
  O  O18  1  0.70419438  0.53699281  0.32690431  1
  O  O19  1  0.66658595  0.33327496  0.79782015  1
  O  O20  1  0.83267846  0.29567312  0.32681185  1
  O  O21  1  0.82504579  0.00000106  0.33476528  1
