# generated using pymatgen
data_Ti3Nb2V3O16
_symmetry_space_group_name_H-M   'P 1'
_cell_length_a   6.06085102
_cell_length_b   6.00734820
_cell_length_c   9.41926149
_cell_angle_alpha   90.18301857
_cell_angle_beta   89.65348918
_cell_angle_gamma   120.45633836
_symmetry_Int_Tables_number   1
_chemical_formula_structural   Ti3Nb2V3O16
_chemical_formula_sum   'Ti3 Nb2 V3 O16'
_cell_volume   295.62454115
_cell_formula_units_Z   1
loop_
 _symmetry_equiv_pos_site_id
 _symmetry_equiv_pos_as_xyz
  1  'x, y, z'
loop_
 _atom_site_type_symbol
 _atom_site_label
 _atom_site_symmetry_multiplicity
 _atom_site_fract_x
 _atom_site_fract_y
 _atom_site_fract_z
 _atom_site_occupancy
  Ti  Ti0  1  0.17556002  0.83176065  0.21930752  1
  Ti  Ti1  1  0.17487288  0.34352150  0.21906097  1
  Ti  Ti2  1  0.34456142  0.16991495  0.72239597  1
  Nb  Nb3  1  0.34100395  0.67123064  0.49936313  1
  Nb  Nb4  1  0.67304864  0.33274852  0.99913283  1
  V  V5  1  0.66228069  0.83009768  0.20892760  1
  V  V6  1  0.83072997  0.65688497  0.71445712  1
  V  V7  1  0.83779177  0.17286475  0.70929965  1
  O  O8  1  0.17373180  0.82789301  0.59881493  1
  O  O9  1  0.04161842  0.51931920  0.33422502  1
  O  O10  1  0.31788114  0.65905085  0.10537579  1
  O  O11  1  0.00569457  0.00174725  0.30289654  1
  O  O12  1  0.00063406  0.98532198  0.80239616  1
  O  O13  1  0.17474307  0.34374214  0.60082005  1
  O  O14  1  0.46748531  0.95317788  0.33642952  1
  O  O15  1  0.46570332  0.51505658  0.33700806  1
  O  O16  1  0.34318048  0.17208526  0.09874163  1
  O  O17  1  0.66161665  0.83317005  0.59794444  1
  O  O18  1  0.52096932  0.47773805  0.83436090  1
  O  O19  1  0.51479646  0.04520005  0.83472643  1
  O  O20  1  0.66307179  0.34978702  0.60585335  1
  O  O21  1  0.82919179  0.65551357  0.09956671  1
  O  O22  1  0.94903737  0.48004853  0.83621948  1
  O  O23  1  0.83079412  0.17232393  0.09839322  1
