# generated using pymatgen
data_LiGaRh2
_symmetry_space_group_name_H-M   'P 1'
_cell_length_a   4.21890105
_cell_length_b   4.21889890
_cell_length_c   4.21888991
_cell_angle_alpha   59.99998697
_cell_angle_beta   59.99995731
_cell_angle_gamma   60.00002600
_symmetry_Int_Tables_number   1
_chemical_formula_structural   LiGaRh2
_chemical_formula_sum   'Li1 Ga1 Rh2'
_cell_volume   53.09841477
_cell_formula_units_Z   1
loop_
 _symmetry_equiv_pos_site_id
 _symmetry_equiv_pos_as_xyz
  1  'x, y, z'
loop_
 _atom_site_type_symbol
 _atom_site_label
 _atom_site_symmetry_multiplicity
 _atom_site_fract_x
 _atom_site_fract_y
 _atom_site_fract_z
 _atom_site_occupancy
  Li  Li0  1  0.74999929  0.74999893  0.74999934  1
  Ga  Ga1  1  0.24999940  0.24999970  0.25000004  1
  Rh  Rh2  1  0.00000049  0.00000022  0.99999962  1
  Rh  Rh3  1  0.49999882  0.49999915  0.49999900  1
