# generated using pymatgen
data_ScTaOs2
_symmetry_space_group_name_H-M   'P 1'
_cell_length_a   4.52081421
_cell_length_b   4.52081564
_cell_length_c   4.52082357
_cell_angle_alpha   60.00000543
_cell_angle_beta   60.00005096
_cell_angle_gamma   60.00008641
_symmetry_Int_Tables_number   1
_chemical_formula_structural   ScTaOs2
_chemical_formula_sum   'Sc1 Ta1 Os2'
_cell_volume   65.33358434
_cell_formula_units_Z   1
loop_
 _symmetry_equiv_pos_site_id
 _symmetry_equiv_pos_as_xyz
  1  'x, y, z'
loop_
 _atom_site_type_symbol
 _atom_site_label
 _atom_site_symmetry_multiplicity
 _atom_site_fract_x
 _atom_site_fract_y
 _atom_site_fract_z
 _atom_site_occupancy
  Sc  Sc0  1  0.25000267  0.25000103  0.24999968  1
  Ta  Ta1  1  0.75000045  0.75000075  0.75000133  1
  Os  Os2  1  0.99999944  0.00000006  0.00000046  1
  Os  Os3  1  0.49999943  0.50000016  0.50000053  1
