# generated using pymatgen
data_PaSnPd2
_symmetry_space_group_name_H-M   'P 1'
_cell_length_a   4.86421546
_cell_length_b   4.86421891
_cell_length_c   4.86421799
_cell_angle_alpha   60.00013782
_cell_angle_beta   60.00014195
_cell_angle_gamma   60.00019283
_symmetry_Int_Tables_number   1
_chemical_formula_structural   PaSnPd2
_chemical_formula_sum   'Pa1 Sn1 Pd2'
_cell_volume   81.38146393
_cell_formula_units_Z   1
loop_
 _symmetry_equiv_pos_site_id
 _symmetry_equiv_pos_as_xyz
  1  'x, y, z'
loop_
 _atom_site_type_symbol
 _atom_site_label
 _atom_site_symmetry_multiplicity
 _atom_site_fract_x
 _atom_site_fract_y
 _atom_site_fract_z
 _atom_site_occupancy
  Pa  Pa0  1  0.24999989  0.24999990  0.24999994  1
  Sn  Sn1  1  0.74999917  0.74999916  0.74999918  1
  Pd  Pd2  1  0.99999990  0.99999991  0.99999995  1
  Pd  Pd3  1  0.50000003  0.50000003  0.49999992  1
