# generated using pymatgen
data_Li4Cr5FeO12
_symmetry_space_group_name_H-M   'P 1'
_cell_length_a   5.13782421
_cell_length_b   5.15336228
_cell_length_c   10.13639747
_cell_angle_alpha   89.90610464
_cell_angle_beta   89.81162733
_cell_angle_gamma   60.09968485
_symmetry_Int_Tables_number   1
_chemical_formula_structural   Li4Cr5FeO12
_chemical_formula_sum   'Li4 Cr5 Fe1 O12'
_cell_volume   232.65757653
_cell_formula_units_Z   1
loop_
 _symmetry_equiv_pos_site_id
 _symmetry_equiv_pos_as_xyz
  1  'x, y, z'
loop_
 _atom_site_type_symbol
 _atom_site_label
 _atom_site_symmetry_multiplicity
 _atom_site_fract_x
 _atom_site_fract_y
 _atom_site_fract_z
 _atom_site_occupancy
  Li  Li0  1  0.14934020  0.50336819  0.75028316  1
  Li  Li1  1  0.34729160  0.50336819  0.24971684  1
  Li  Li2  1  0.65270840  0.49663181  0.75028316  1
  Li  Li3  1  0.85065980  0.49663181  0.24971684  1
  Cr  Cr4  1  0.16530878  0.66938144  0.50000000  1
  Cr  Cr5  1  0.66518401  0.66963098  0.00000000  1
  Cr  Cr6  1  0.33481599  0.33036902  1.00000000  1
  Cr  Cr7  1  0.83469122  0.33061856  0.50000000  1
  Cr  Cr8  1  0.50000000  0.00000000  0.50000000  1
  Fe  Fe9  1  0.00000000  0.00000000  0.00000000  1
  O  O10  1  0.00938458  0.65370962  0.10708574  1
  O  O11  1  0.33690580  0.65370962  0.89291426  1
  O  O12  1  0.16483909  0.34320042  0.39461910  1
  O  O13  1  0.50804050  0.65679958  0.39461910  1
  O  O14  1  0.49195950  0.34320042  0.60538090  1
  O  O15  1  0.16974822  1.00000000  0.59333426  1
  O  O16  1  0.83516091  0.65679958  0.60538090  1
  O  O17  1  0.66309420  0.34629038  0.10708574  1
  O  O18  1  0.32374712  1.00000000  0.09622908  1
  O  O19  1  0.99061542  0.34629038  0.89291426  1
  O  O20  1  0.67625288  0.00000000  0.90377092  1
  O  O21  1  0.83025178  0.00000000  0.40666574  1
