# generated using pymatgen
data_PmInAu2
_symmetry_space_group_name_H-M   'P 1'
_cell_length_a   5.04078206
_cell_length_b   5.04078238
_cell_length_c   5.04078195
_cell_angle_alpha   60.00004752
_cell_angle_beta   60.00001912
_cell_angle_gamma   60.00000687
_symmetry_Int_Tables_number   1
_chemical_formula_structural   PmInAu2
_chemical_formula_sum   'Pm1 In1 Au2'
_cell_volume   90.56888569
_cell_formula_units_Z   1
loop_
 _symmetry_equiv_pos_site_id
 _symmetry_equiv_pos_as_xyz
  1  'x, y, z'
loop_
 _atom_site_type_symbol
 _atom_site_label
 _atom_site_symmetry_multiplicity
 _atom_site_fract_x
 _atom_site_fract_y
 _atom_site_fract_z
 _atom_site_occupancy
  Pm  Pm0  1  0.74999912  0.74999908  0.74999916  1
  In  In1  1  0.24999991  0.24999996  0.24999998  1
  Au  Au2  1  0.49999900  0.49999910  0.49999883  1
  Au  Au3  1  0.99999997  0.99999986  0.00000003  1
