# generated using pymatgen
data_Mg2Mn2O5
_symmetry_space_group_name_H-M   'P 1'
_cell_length_a   5.30820688
_cell_length_b   5.20690392
_cell_length_c   8.04117660
_cell_angle_alpha   108.89077282
_cell_angle_beta   109.27266405
_cell_angle_gamma   90.00000000
_symmetry_Int_Tables_number   1
_chemical_formula_structural   Mg2Mn2O5
_chemical_formula_sum   'Mg4 Mn4 O10'
_cell_volume   197.07107624
_cell_formula_units_Z   2
loop_
 _symmetry_equiv_pos_site_id
 _symmetry_equiv_pos_as_xyz
  1  'x, y, z'
loop_
 _atom_site_type_symbol
 _atom_site_label
 _atom_site_symmetry_multiplicity
 _atom_site_fract_x
 _atom_site_fract_y
 _atom_site_fract_z
 _atom_site_occupancy
  Mg  Mg0  1  0.58634940  0.12425681  0.24299234  1
  Mg  Mg1  1  0.34335706  0.87574319  0.75700766  1
  Mg  Mg2  1  0.08634940  0.61873553  0.24299234  1
  Mg  Mg3  1  0.84335706  0.38126447  0.75700766  1
  Mn  Mn4  1  0.02420197  0.00000000  -0.00000000  1
  Mn  Mn5  1  0.52420197  0.50000000  -0.00000000  1
  Mn  Mn6  1  0.19654306  0.23033890  0.50000000  1
  Mn  Mn7  1  0.69654306  0.76966110  0.50000000  1
  O  O8  1  0.22304660  0.22103095  0.90845923  1
  O  O9  1  0.31458737  0.77896905  0.09154077  1
  O  O10  1  0.72304660  0.18742828  0.90845923  1
  O  O11  1  0.81458737  0.81257172  0.09154077  1
  O  O12  1  0.20872953  0.25871078  0.25184449  1
  O  O13  1  0.95688504  0.74128922  0.74815551  1
  O  O14  1  0.70872953  0.49313371  0.25184449  1
  O  O15  1  0.45688504  0.50686629  0.74815551  1
  O  O16  1  0.81029997  0.15249435  0.50000000  1
  O  O17  1  0.31029997  0.84750565  0.50000000  1
