# generated using pymatgen
data_Ca2Al(SiO3)4
_symmetry_space_group_name_H-M   'P 1'
_cell_length_a   4.81806392
_cell_length_b   18.54124026
_cell_length_c   5.37158208
_cell_angle_alpha   90.00000000
_cell_angle_beta   90.00000000
_cell_angle_gamma   90.00000000
_symmetry_Int_Tables_number   1
_chemical_formula_structural   Ca2Al(SiO3)4
_chemical_formula_sum   'Ca4 Al2 Si8 O24'
_cell_volume   479.85890128
_cell_formula_units_Z   2
loop_
 _symmetry_equiv_pos_site_id
 _symmetry_equiv_pos_as_xyz
  1  'x, y, z'
loop_
 _atom_site_type_symbol
 _atom_site_label
 _atom_site_symmetry_multiplicity
 _atom_site_fract_x
 _atom_site_fract_y
 _atom_site_fract_z
 _atom_site_occupancy
  Ca  Ca0  1  -0.00000000  0.59402544  0.00000000  1
  Ca  Ca1  1  -0.00000000  0.40597456  -0.00000000  1
  Ca  Ca2  1  -0.00000000  0.90597456  0.50000000  1
  Ca  Ca3  1  -0.00000000  0.09402544  0.50000000  1
  Al  Al4  1  -0.00000000  -0.00000000  0.00000000  1
  Al  Al5  1  -0.00000000  0.50000000  0.50000000  1
  Si  Si6  1  0.50000000  0.88086522  -0.00000000  1
  Si  Si7  1  0.50000000  0.11913478  0.00000000  1
  Si  Si8  1  0.50000000  0.61913478  0.50000000  1
  Si  Si9  1  0.50000000  0.38086522  0.50000000  1
  Si  Si10  1  0.80952192  0.75000000  0.75000000  1
  Si  Si11  1  0.19047808  0.25000000  0.25000000  1
  Si  Si12  1  0.19047808  0.75000000  0.25000000  1
  Si  Si13  1  0.80952192  0.25000000  0.75000000  1
  O  O14  1  0.63337818  0.82367701  0.78145322  1
  O  O15  1  0.36662182  0.17632299  0.21854678  1
  O  O16  1  0.36662182  0.67632299  0.28145322  1
  O  O17  1  0.63337818  0.67632299  0.71854678  1
  O  O18  1  0.63337818  0.32367701  0.71854678  1
  O  O19  1  0.36662182  0.32367701  0.28145322  1
  O  O20  1  0.36662182  0.82367701  0.21854678  1
  O  O21  1  0.63337818  0.17632299  0.78145322  1
  O  O22  1  0.24640098  0.92192012  0.87042861  1
  O  O23  1  0.75359902  0.07807988  0.12957139  1
  O  O24  1  0.75359902  0.57807988  0.37042861  1
  O  O25  1  0.24640098  0.57807988  0.62957139  1
  O  O26  1  0.24640098  0.42192012  0.62957139  1
  O  O27  1  0.75359902  0.42192012  0.37042861  1
  O  O28  1  0.75359902  0.92192012  0.12957139  1
  O  O29  1  0.24640098  0.07807988  0.87042861  1
  O  O30  1  0.82106986  -0.00000000  0.69640246  1
  O  O31  1  0.17893014  -0.00000000  0.30359754  1
  O  O32  1  0.17893014  0.50000000  0.19640246  1
  O  O33  1  0.82106986  0.50000000  0.80359754  1
  O  O34  1  -0.00000000  0.73373592  -0.00000000  1
  O  O35  1  -0.00000000  0.26626408  0.00000000  1
  O  O36  1  -0.00000000  0.76626408  0.50000000  1
  O  O37  1  -0.00000000  0.23373592  0.50000000  1
