# generated using pymatgen
data_Pm2CuIr
_symmetry_space_group_name_H-M   'P 1'
_cell_length_a   4.98362616
_cell_length_b   4.98363709
_cell_length_c   4.98366955
_cell_angle_alpha   59.99953511
_cell_angle_beta   59.99946935
_cell_angle_gamma   59.99910987
_symmetry_Int_Tables_number   1
_chemical_formula_structural   Pm2CuIr
_chemical_formula_sum   'Pm2 Cu1 Ir1'
_cell_volume   87.52254093
_cell_formula_units_Z   1
loop_
 _symmetry_equiv_pos_site_id
 _symmetry_equiv_pos_as_xyz
  1  'x, y, z'
loop_
 _atom_site_type_symbol
 _atom_site_label
 _atom_site_symmetry_multiplicity
 _atom_site_fract_x
 _atom_site_fract_y
 _atom_site_fract_z
 _atom_site_occupancy
  Pm  Pm0  1  0.00000063  -0.00000004  0.99999839  1
  Pm  Pm1  1  0.49999812  0.50000072  0.49999912  1
  Cu  Cu2  1  0.24999977  0.24999964  0.25000173  1
  Ir  Ir3  1  0.75000048  0.74999869  0.74999976  1
