# generated using pymatgen
data_Cr10Fe5O24
_symmetry_space_group_name_H-M   'P 1'
_cell_length_a   5.98596367
_cell_length_b   5.98933205
_cell_length_c   14.66931019
_cell_angle_alpha   90.02217694
_cell_angle_beta   90.00000000
_cell_angle_gamma   60.01860213
_symmetry_Int_Tables_number   1
_chemical_formula_structural   Cr10Fe5O24
_chemical_formula_sum   'Cr10 Fe5 O24'
_cell_volume   455.54797964
_cell_formula_units_Z   1
loop_
 _symmetry_equiv_pos_site_id
 _symmetry_equiv_pos_as_xyz
  1  'x, y, z'
loop_
 _atom_site_type_symbol
 _atom_site_label
 _atom_site_symmetry_multiplicity
 _atom_site_fract_x
 _atom_site_fract_y
 _atom_site_fract_z
 _atom_site_occupancy
  Cr  Cr0  1  0.17171662  0.65656775  0.20741481  1
  Cr  Cr1  1  0.65756121  0.17104858  0.20768226  1
  Cr  Cr2  1  0.83798708  0.83797724  0.54076787  1
  Cr  Cr3  1  0.32403568  0.83797724  0.54076787  1
  Cr  Cr4  1  0.17139021  0.17104858  0.20768226  1
  Cr  Cr5  1  0.83775389  0.32449122  0.54097263  1
  Cr  Cr6  1  0.66522901  0.66954198  0.71428587  1
  Cr  Cr7  1  0.00019880  0.99960140  0.37803274  1
  Cr  Cr8  1  0.99319916  0.50124775  0.87392558  1
  Cr  Cr9  1  0.50555309  0.50124775  0.87392558  1
  Fe  Fe10  1  0.33326685  0.33346730  0.04521067  1
  Fe  Fe11  1  0.66663496  0.66673007  0.33285807  1
  Fe  Fe12  1  0.00083521  0.99832957  0.00092779  1
  Fe  Fe13  1  0.50499498  0.99001105  0.87395994  1
  Fe  Fe14  1  0.33305809  0.33388481  0.66676598  1
  O  O15  1  0.31298957  0.84333122  0.28850878  1
  O  O16  1  0.84367921  0.84333122  0.28850878  1
  O  O17  1  0.47959866  0.47934859  0.12931611  1
  O  O18  1  0.04105276  0.47934859  0.12931611  1
  O  O19  1  0.14434716  0.71130468  0.46495418  1
  O  O20  1  0.33337916  0.33324168  0.27567755  1
  O  O21  1  0.47942939  0.04114223  0.12930242  1
  O  O22  1  0.66649642  0.66700816  0.46532616  1
  O  O23  1  0.50929828  0.98140344  0.62213812  1
  O  O24  1  0.00025778  0.99948343  0.13238050  1
  O  O25  1  0.84340704  0.31318593  0.28872419  1
  O  O26  1  0.97787237  0.51192181  0.62296053  1
  O  O27  1  0.51020582  0.51192181  0.62296053  1
  O  O28  1  0.81311066  0.81213559  0.79519953  1
  O  O29  1  0.71217267  0.14274637  0.46459512  1
  O  O30  1  0.37475374  0.81213559  0.79519953  1
  O  O31  1  0.14508096  0.14274637  0.46459512  1
  O  O32  1  0.81205529  0.37588842  0.79669456  1
  O  O33  1  0.66382615  0.67234870  0.94290495  1
  O  O34  1  0.00065390  0.99869320  0.60778946  1
  O  O35  1  0.17724522  0.64550957  0.95614715  1
  O  O36  1  0.33388584  0.33222832  0.79953080  1
  O  O37  1  0.64595074  0.17821089  0.95604194  1
  O  O38  1  0.17583937  0.17821089  0.95604194  1
