# generated using pymatgen
data_Pm2CoIr
_symmetry_space_group_name_H-M   'P 1'
_cell_length_a   4.94402748
_cell_length_b   4.94402817
_cell_length_c   4.94402800
_cell_angle_alpha   59.99999773
_cell_angle_beta   60.00002266
_cell_angle_gamma   60.00001575
_symmetry_Int_Tables_number   1
_chemical_formula_structural   Pm2CoIr
_chemical_formula_sum   'Pm2 Co1 Ir1'
_cell_volume   85.45310649
_cell_formula_units_Z   1
loop_
 _symmetry_equiv_pos_site_id
 _symmetry_equiv_pos_as_xyz
  1  'x, y, z'
loop_
 _atom_site_type_symbol
 _atom_site_label
 _atom_site_symmetry_multiplicity
 _atom_site_fract_x
 _atom_site_fract_y
 _atom_site_fract_z
 _atom_site_occupancy
  Pm  Pm0  1  0.00000009  0.00000010  0.99999992  1
  Pm  Pm1  1  0.50000073  0.50000053  0.50000075  1
  Co  Co2  1  0.25000006  0.24999994  0.24999992  1
  Ir  Ir3  1  0.74999912  0.74999943  0.74999941  1
