# generated using pymatgen
data_Pm2RuRh
_symmetry_space_group_name_H-M   'P 1'
_cell_length_a   4.96038326
_cell_length_b   4.96036303
_cell_length_c   4.96036622
_cell_angle_alpha   59.99993874
_cell_angle_beta   60.00003659
_cell_angle_gamma   59.99997487
_symmetry_Int_Tables_number   1
_chemical_formula_structural   Pm2RuRh
_chemical_formula_sum   'Pm2 Ru1 Rh1'
_cell_volume   86.30327470
_cell_formula_units_Z   1
loop_
 _symmetry_equiv_pos_site_id
 _symmetry_equiv_pos_as_xyz
  1  'x, y, z'
loop_
 _atom_site_type_symbol
 _atom_site_label
 _atom_site_symmetry_multiplicity
 _atom_site_fract_x
 _atom_site_fract_y
 _atom_site_fract_z
 _atom_site_occupancy
  Pm  Pm0  1  0.00000184  0.99999958  0.99999851  1
  Pm  Pm1  1  0.49999965  0.50000014  0.50000022  1
  Ru  Ru2  1  0.75000029  0.75000064  0.74999814  1
  Rh  Rh3  1  0.24999722  0.24999865  0.25000213  1
