# generated using pymatgen
data_Ti5Sb5O17
_symmetry_space_group_name_H-M   'P 1'
_cell_length_a   4.23215101
_cell_length_b   5.48610414
_cell_length_c   31.93735467
_cell_angle_alpha   90.00000000
_cell_angle_beta   95.78078332
_cell_angle_gamma   90.00000000
_symmetry_Int_Tables_number   1
_chemical_formula_structural   Ti5Sb5O17
_chemical_formula_sum   'Ti10 Sb10 O34'
_cell_volume   737.75120082
_cell_formula_units_Z   2
loop_
 _symmetry_equiv_pos_site_id
 _symmetry_equiv_pos_as_xyz
  1  'x, y, z'
loop_
 _atom_site_type_symbol
 _atom_site_label
 _atom_site_symmetry_multiplicity
 _atom_site_fract_x
 _atom_site_fract_y
 _atom_site_fract_z
 _atom_site_occupancy
  Ti  Ti0  1  0.08996349  0.74860159  0.61897068  1
  Ti  Ti1  1  0.17948289  0.23396020  0.70761144  1
  Ti  Ti2  1  0.26148416  0.74746855  0.79573560  1
  Ti  Ti3  1  0.45309705  0.22570283  0.88413868  1
  Ti  Ti4  1  0.53260685  0.70012187  0.96805826  1
  Ti  Ti5  1  0.08996349  0.25139841  0.11897068  1
  Ti  Ti6  1  0.17948289  0.76603980  0.20761144  1
  Ti  Ti7  1  0.26148416  0.25253145  0.29573560  1
  Ti  Ti8  1  0.45309705  0.77429717  0.38413868  1
  Ti  Ti9  1  0.53260685  0.29987813  0.46805826  1
  Sb  Sb10  1  0.13373339  0.78620749  0.51725606  1
  Sb  Sb11  1  0.13373339  0.21379251  0.01725606  1
  Sb  Sb12  1  0.58498251  0.72328191  0.69162111  1
  Sb  Sb13  1  0.68441771  0.29704716  0.78769344  1
  Sb  Sb14  1  0.47880407  0.27965468  0.56916262  1
  Sb  Sb15  1  0.01407306  0.78990298  0.89322723  1
  Sb  Sb16  1  0.58498251  0.27671809  0.19162111  1
  Sb  Sb17  1  0.68441771  0.70295284  0.28769344  1
  Sb  Sb18  1  0.47880407  0.72034532  0.06916262  1
  Sb  Sb19  1  0.01407306  0.21009702  0.39322723  1
  O  O20  1  0.94783174  0.71758531  0.96285763  1
  O  O21  1  0.32919229  0.91196092  0.84679175  1
  O  O22  1  0.38938513  0.41012282  0.83202520  1
  O  O23  1  0.39062968  0.95918630  0.92674520  1
  O  O24  1  0.40988854  0.47826872  0.92133476  1
  O  O25  1  0.94783174  0.28241469  0.46285763  1
  O  O26  1  0.13056368  0.99145186  0.57398618  1
  O  O27  1  0.10126713  0.52799997  0.56980946  1
  O  O28  1  0.23172153  0.96966235  0.66920237  1
  O  O29  1  0.23116438  0.49548320  0.66614594  1
  O  O30  1  0.34182499  0.49191611  0.75072395  1
  O  O31  1  0.31222707  0.01284820  0.75881947  1
  O  O32  1  0.32919229  0.08803908  0.34679175  1
  O  O33  1  0.38938513  0.58987718  0.33202520  1
  O  O34  1  0.39062968  0.04081370  0.42674520  1
  O  O35  1  0.40988854  0.52173128  0.42133476  1
  O  O36  1  0.48954713  0.06415974  0.51556420  1
  O  O37  1  0.50661694  0.53230106  0.51544049  1
  O  O38  1  0.66398638  0.73977366  0.62755464  1
  O  O39  1  0.76229078  0.24677454  0.71105366  1
  O  O40  1  0.83880798  0.68160972  0.79488608  1
  O  O41  1  0.88040747  0.16322212  0.88463489  1
  O  O42  1  0.10126713  0.47200003  0.06980946  1
  O  O43  1  0.13056368  0.00854814  0.07398618  1
  O  O44  1  0.23116438  0.50451680  0.16614594  1
  O  O45  1  0.23172153  0.03033765  0.16920237  1
  O  O46  1  0.31222707  0.98715180  0.25881947  1
  O  O47  1  0.34182499  0.50808389  0.25072395  1
  O  O48  1  0.50661694  0.46769894  0.01544049  1
  O  O49  1  0.48954713  0.93584026  0.01556420  1
  O  O50  1  0.66398638  0.26022634  0.12755464  1
  O  O51  1  0.76229078  0.75322546  0.21105366  1
  O  O52  1  0.83880798  0.31839028  0.29488608  1
  O  O53  1  0.88040747  0.83677788  0.38463489  1
