# generated using pymatgen
data_Li5Nb2Ni3O10
_symmetry_space_group_name_H-M   'P 1'
_cell_length_a   5.21924020
_cell_length_b   5.21076365
_cell_length_c   7.93787529
_cell_angle_alpha   109.84348799
_cell_angle_beta   101.78296573
_cell_angle_gamma   99.93293618
_symmetry_Int_Tables_number   1
_chemical_formula_structural   Li5Nb2Ni3O10
_chemical_formula_sum   'Li5 Nb2 Ni3 O10'
_cell_volume   191.80618241
_cell_formula_units_Z   1
loop_
 _symmetry_equiv_pos_site_id
 _symmetry_equiv_pos_as_xyz
  1  'x, y, z'
loop_
 _atom_site_type_symbol
 _atom_site_label
 _atom_site_symmetry_multiplicity
 _atom_site_fract_x
 _atom_site_fract_y
 _atom_site_fract_z
 _atom_site_occupancy
  Li  Li0  1  0.22350172  0.90363805  0.39741981  1
  Li  Li1  1  0.41885589  0.30755926  0.80076389  1
  Li  Li2  1  0.50000000  0.50000000  0.50000000  1
  Li  Li3  1  0.58114411  0.69244074  0.19923611  1
  Li  Li4  1  0.77649828  0.09636195  0.60258019  1
  Nb  Nb5  1  0.10107227  0.70472144  0.69190531  1
  Nb  Nb6  1  0.89892773  0.29527856  0.30809469  1
  Ni  Ni7  1  0.00000000  0.50000000  0.00000000  1
  Ni  Ni8  1  0.69889649  0.89677192  0.90031884  1
  Ni  Ni9  1  0.30110351  0.10322808  0.09968116  1
  O  O10  1  0.04753838  0.09080842  0.85076774  1
  O  O11  1  0.33834421  0.70698449  0.94355437  1
  O  O12  1  0.15137651  0.30435377  0.54925573  1
  O  O13  1  0.22647282  0.48663590  0.24645442  1
  O  O14  1  0.43270739  0.88998303  0.65434673  1
  O  O15  1  0.56729261  0.11001697  0.34565327  1
  O  O16  1  0.77352718  0.51336410  0.75354558  1
  O  O17  1  0.84862349  0.69564623  0.45074427  1
  O  O18  1  0.66165579  0.29301551  0.05644563  1
  O  O19  1  0.95246162  0.90919158  0.14923226  1
