# generated using pymatgen
data_MnSiRh2
_symmetry_space_group_name_H-M   'P 1'
_cell_length_a   4.24108198
_cell_length_b   4.24108097
_cell_length_c   4.24108341
_cell_angle_alpha   59.99984673
_cell_angle_beta   59.99991247
_cell_angle_gamma   59.99989797
_symmetry_Int_Tables_number   1
_chemical_formula_structural   MnSiRh2
_chemical_formula_sum   'Mn1 Si1 Rh2'
_cell_volume   53.94037014
_cell_formula_units_Z   1
loop_
 _symmetry_equiv_pos_site_id
 _symmetry_equiv_pos_as_xyz
  1  'x, y, z'
loop_
 _atom_site_type_symbol
 _atom_site_label
 _atom_site_symmetry_multiplicity
 _atom_site_fract_x
 _atom_site_fract_y
 _atom_site_fract_z
 _atom_site_occupancy
  Mn  Mn0  1  0.24999950  0.25000022  0.24999986  1
  Si  Si1  1  0.75000059  0.75000118  0.75000083  1
  Rh  Rh2  1  0.00000092  -0.00000003  0.99999916  1
  Rh  Rh3  1  0.49999899  0.49999863  0.50000016  1
