# generated using pymatgen
data_Li4Ti5VO12
_symmetry_space_group_name_H-M   'P 1'
_cell_length_a   5.14830704
_cell_length_b   5.18408616
_cell_length_c   10.40161998
_cell_angle_alpha   90.14956902
_cell_angle_beta   90.35356646
_cell_angle_gamma   60.13228630
_symmetry_Int_Tables_number   1
_chemical_formula_structural   Li4Ti5VO12
_chemical_formula_sum   'Li4 Ti5 V1 O12'
_cell_volume   240.73393188
_cell_formula_units_Z   1
loop_
 _symmetry_equiv_pos_site_id
 _symmetry_equiv_pos_as_xyz
  1  'x, y, z'
loop_
 _atom_site_type_symbol
 _atom_site_label
 _atom_site_symmetry_multiplicity
 _atom_site_fract_x
 _atom_site_fract_y
 _atom_site_fract_z
 _atom_site_occupancy
  Li  Li0  1  0.15351147  0.51145365  0.75010128  1
  Li  Li1  1  0.34407115  0.50685250  0.24960504  1
  Li  Li2  1  0.65946255  0.49925301  0.74920083  1
  Li  Li3  1  0.84854664  0.49605822  0.24894116  1
  Ti  Ti4  1  0.16366905  0.67665413  0.49938502  1
  Ti  Ti5  1  0.66191563  0.68119001  0.99905836  1
  Ti  Ti6  1  0.33996925  0.32472643  0.99947518  1
  Ti  Ti7  1  0.84348464  0.32132963  0.49962102  1
  Ti  Ti8  1  0.49974447  0.00192580  0.49986080  1
  V  V9  1  0.00059389  0.00280078  0.99904635  1
  O  O10  1  0.00632535  0.64002035  0.10702212  1
  O  O11  1  0.35806921  0.63970847  0.89149913  1
  O  O12  1  0.16177507  0.34679914  0.39096459  1
  O  O13  1  0.50657450  0.65585952  0.39245979  1
  O  O14  1  0.49637705  0.34453571  0.60706634  1
  O  O15  1  0.16787414  0.99704969  0.60158471  1
  O  O16  1  0.84258159  0.65269657  0.60726120  1
  O  O17  1  0.64376289  0.36554065  0.10695293  1
  O  O18  1  0.35427000  0.00314619  0.10082247  1
  O  O19  1  0.99516139  0.36595964  0.89157053  1
  O  O20  1  0.64681621  0.00240050  0.89724766  1
  O  O21  1  0.83574685  0.00132743  0.39868649  1
