# generated using pymatgen
data_Lu2NiRu
_symmetry_space_group_name_H-M   'P 1'
_cell_length_a   4.68518699
_cell_length_b   4.68519068
_cell_length_c   4.68522242
_cell_angle_alpha   60.00017409
_cell_angle_beta   60.00032027
_cell_angle_gamma   60.00060160
_symmetry_Int_Tables_number   1
_chemical_formula_structural   Lu2NiRu
_chemical_formula_sum   'Lu2 Ni1 Ru1'
_cell_volume   72.72320510
_cell_formula_units_Z   1
loop_
 _symmetry_equiv_pos_site_id
 _symmetry_equiv_pos_as_xyz
  1  'x, y, z'
loop_
 _atom_site_type_symbol
 _atom_site_label
 _atom_site_symmetry_multiplicity
 _atom_site_fract_x
 _atom_site_fract_y
 _atom_site_fract_z
 _atom_site_occupancy
  Lu  Lu0  1  0.00000111  0.99999780  0.00000029  1
  Lu  Lu1  1  0.49999570  0.50000052  0.50000002  1
  Ni  Ni2  1  0.25000119  0.25000112  0.24999950  1
  Ru  Ru3  1  0.75000100  0.74999956  0.74999919  1
