# generated using pymatgen
data_Li(FeO2)2
_symmetry_space_group_name_H-M   'P 1'
_cell_length_a   5.86523162
_cell_length_b   5.85439927
_cell_length_c   9.50295372
_cell_angle_alpha   90.25968344
_cell_angle_beta   89.87039232
_cell_angle_gamma   119.93892521
_symmetry_Int_Tables_number   1
_chemical_formula_structural   Li(FeO2)2
_chemical_formula_sum   'Li4 Fe8 O16'
_cell_volume   282.76082496
_cell_formula_units_Z   4
loop_
 _symmetry_equiv_pos_site_id
 _symmetry_equiv_pos_as_xyz
  1  'x, y, z'
loop_
 _atom_site_type_symbol
 _atom_site_label
 _atom_site_symmetry_multiplicity
 _atom_site_fract_x
 _atom_site_fract_y
 _atom_site_fract_z
 _atom_site_occupancy
  Li  Li0  1  0.33757021  0.67034656  0.89354900  1
  Li  Li1  1  0.00145904  0.99942337  0.99652832  1
  Li  Li2  1  -0.00145904  0.99796432  0.49652832  1
  Li  Li3  1  0.66242979  0.33277635  0.39354900  1
  Fe  Fe4  1  0.17029876  0.83184465  0.21408148  1
  Fe  Fe5  1  0.32337684  0.66117604  0.49038597  1
  Fe  Fe6  1  0.17060553  0.33814684  0.21339463  1
  Fe  Fe7  1  0.66194781  0.83170887  0.21525208  1
  Fe  Fe8  1  0.33805219  0.16976106  0.71525208  1
  Fe  Fe9  1  0.67662316  0.33779919  0.99038597  1
  Fe  Fe10  1  0.82970124  0.66154589  0.71408148  1
  Fe  Fe11  1  0.82939447  0.16754131  0.71339463  1
  O  O12  1  0.14571145  0.82440190  0.60131242  1
  O  O13  1  0.03323120  0.51651843  0.33096740  1
  O  O14  1  0.32314930  0.66049152  0.10692053  1
  O  O15  1  0.01070728  0.00681005  0.30938464  1
  O  O16  1  0.98929272  0.99610277  0.80938464  1
  O  O17  1  0.14494691  0.32104695  0.60102032  1
  O  O18  1  0.46485009  0.96110261  0.33945186  1
  O  O19  1  0.46556507  0.50439850  0.33879433  1
  O  O20  1  0.32889861  0.16389276  0.10287601  1
  O  O21  1  0.67110139  0.83499415  0.60287601  1
  O  O22  1  0.53514991  0.49625252  0.83945186  1
  O  O23  1  0.53443493  0.03883342  0.83879433  1
  O  O24  1  0.67685070  0.33734223  0.60692053  1
  O  O25  1  0.85428855  0.67869045  0.10131242  1
  O  O26  1  0.96676880  0.48328723  0.83096740  1
  O  O27  1  0.85505309  0.17610005  0.10102032  1
