# generated using pymatgen
data_Hf2MnIr
_symmetry_space_group_name_H-M   'P 1'
_cell_length_a   4.55912714
_cell_length_b   4.55913365
_cell_length_c   4.55915496
_cell_angle_alpha   60.00044841
_cell_angle_beta   60.00056616
_cell_angle_gamma   60.00036104
_symmetry_Int_Tables_number   1
_chemical_formula_structural   Hf2MnIr
_chemical_formula_sum   'Hf2 Mn1 Ir1'
_cell_volume   67.00973458
_cell_formula_units_Z   1
loop_
 _symmetry_equiv_pos_site_id
 _symmetry_equiv_pos_as_xyz
  1  'x, y, z'
loop_
 _atom_site_type_symbol
 _atom_site_label
 _atom_site_symmetry_multiplicity
 _atom_site_fract_x
 _atom_site_fract_y
 _atom_site_fract_z
 _atom_site_occupancy
  Hf  Hf0  1  0.00000109  0.00000070  -0.00000241  1
  Hf  Hf1  1  0.49999922  0.49999717  0.49999952  1
  Mn  Mn2  1  0.75000140  0.75000209  0.75000320  1
  Ir  Ir3  1  0.24999829  0.25000004  0.24999970  1
