# generated using pymatgen
data_NbV3O8
_symmetry_space_group_name_H-M   'P 1'
_cell_length_a   6.07009578
_cell_length_b   5.92062487
_cell_length_c   9.33194513
_cell_angle_alpha   89.95132693
_cell_angle_beta   90.02373741
_cell_angle_gamma   119.18872262
_symmetry_Int_Tables_number   1
_chemical_formula_structural   NbV3O8
_chemical_formula_sum   'Nb2 V6 O16'
_cell_volume   292.79142225
_cell_formula_units_Z   2
loop_
 _symmetry_equiv_pos_site_id
 _symmetry_equiv_pos_as_xyz
  1  'x, y, z'
loop_
 _atom_site_type_symbol
 _atom_site_label
 _atom_site_symmetry_multiplicity
 _atom_site_fract_x
 _atom_site_fract_y
 _atom_site_fract_z
 _atom_site_occupancy
  Nb  Nb0  1  0.34217732  0.66946371  0.49873968  1
  Nb  Nb1  1  0.65782268  0.32728639  0.99873968  1
  V  V2  1  0.16620145  0.82660279  0.21863980  1
  V  V3  1  0.16842942  0.34158587  0.21605101  1
  V  V4  1  0.66134127  0.83013771  0.20780267  1
  V  V5  1  0.33865873  0.16879743  0.70780267  1
  V  V6  1  0.83379855  0.66040034  0.71863980  1
  V  V7  1  0.83157058  0.17315745  0.71605101  1
  O  O8  1  0.16912885  0.82720156  0.60061257  1
  O  O9  1  0.04416680  0.52471084  0.33699363  1
  O  O10  1  0.30574414  0.64857435  0.10648962  1
  O  O11  1  0.01638703  0.01251616  0.30349811  1
  O  O12  1  0.98361297  0.99613014  0.80349811  1
  O  O13  1  0.16978916  0.34069890  0.59977688  1
  O  O14  1  0.46447982  0.95080186  0.33492505  1
  O  O15  1  0.46615066  0.51650969  0.33553164  1
  O  O16  1  0.33987770  0.16823088  0.09880134  1
  O  O17  1  0.66012230  0.82835417  0.59880134  1
  O  O18  1  0.53552018  0.48632204  0.83492505  1
  O  O19  1  0.53384934  0.05035903  0.83553164  1
  O  O20  1  0.69425586  0.34283021  0.60648962  1
  O  O21  1  0.83087115  0.65807371  0.10061257  1
  O  O22  1  0.95583320  0.48054404  0.83699263  1
  O  O23  1  0.83021084  0.17091074  0.09977688  1
