# generated using pymatgen
data_Y2TlAg
_symmetry_space_group_name_H-M   'P 1'
_cell_length_a   5.28216769
_cell_length_b   5.28216801
_cell_length_c   5.28216639
_cell_angle_alpha   60.00005823
_cell_angle_beta   60.00001962
_cell_angle_gamma   60.00003853
_symmetry_Int_Tables_number   1
_chemical_formula_structural   Y2TlAg
_chemical_formula_sum   'Y2 Tl1 Ag1'
_cell_volume   104.21299002
_cell_formula_units_Z   1
loop_
 _symmetry_equiv_pos_site_id
 _symmetry_equiv_pos_as_xyz
  1  'x, y, z'
loop_
 _atom_site_type_symbol
 _atom_site_label
 _atom_site_symmetry_multiplicity
 _atom_site_fract_x
 _atom_site_fract_y
 _atom_site_fract_z
 _atom_site_occupancy
  Y  Y0  1  0.00000010  0.00000004  0.99999991  1
  Y  Y1  1  0.49999920  0.49999934  0.49999929  1
  Tl  Tl2  1  0.75000074  0.75000075  0.75000082  1
  Ag  Ag3  1  0.25000096  0.25000088  0.25000098  1
