# generated using pymatgen
data_Li3Fe3O8
_symmetry_space_group_name_H-M   'P 1'
_cell_length_a   5.86121897
_cell_length_b   5.86143994
_cell_length_c   9.90665055
_cell_angle_alpha   90.03873913
_cell_angle_beta   89.98062831
_cell_angle_gamma   120.00124196
_symmetry_Int_Tables_number   1
_chemical_formula_structural   Li3Fe3O8
_chemical_formula_sum   'Li6 Fe6 O16'
_cell_volume   294.74347979
_cell_formula_units_Z   2
loop_
 _symmetry_equiv_pos_site_id
 _symmetry_equiv_pos_as_xyz
  1  'x, y, z'
loop_
 _atom_site_type_symbol
 _atom_site_label
 _atom_site_symmetry_multiplicity
 _atom_site_fract_x
 _atom_site_fract_y
 _atom_site_fract_z
 _atom_site_occupancy
  Li  Li0  1  0.33327690  0.66651812  0.49956492  1
  Li  Li1  1  0.33308604  0.66686375  0.88811242  1
  Li  Li2  1  0.99987968  0.99950170  0.00070674  1
  Li  Li3  1  0.00012032  0.99962102  0.50070674  1
  Li  Li4  1  0.66672310  0.33324122  0.99956492  1
  Li  Li5  1  0.66691396  0.33377771  0.38811242  1
  Fe  Fe6  1  0.16866102  0.83149818  0.21521841  1
  Fe  Fe7  1  0.16860634  0.33718363  0.21522159  1
  Fe  Fe8  1  0.66291242  0.83149828  0.21528509  1
  Fe  Fe9  1  0.33708758  0.16858586  0.71528509  1
  Fe  Fe10  1  0.83133898  0.66283715  0.71521841  1
  Fe  Fe11  1  0.83139366  0.16857729  0.71522159  1
  O  O12  1  0.15403079  0.84578417  0.61275826  1
  O  O13  1  0.03423558  0.51729907  0.32063853  1
  O  O14  1  0.33346564  0.66711610  0.10008039  1
  O  O15  1  0.99995304  0.99977160  0.31991416  1
  O  O16  1  0.00004696  0.99981856  0.81991416  1
  O  O17  1  0.15396302  0.30793269  0.61271800  1
  O  O18  1  0.48298677  0.96615497  0.32057845  1
  O  O19  1  0.48296519  0.51714900  0.32052681  1
  O  O20  1  0.30808548  0.15393319  0.11259721  1
  O  O21  1  0.69191452  0.84584771  0.61259721  1
  O  O22  1  0.51701323  0.48316821  0.82057845  1
  O  O23  1  0.51703481  0.03418382  0.82052681  1
  O  O24  1  0.66653436  0.33365046  0.60008039  1
  O  O25  1  0.84596921  0.69175338  0.11275826  1
  O  O26  1  0.96576442  0.48306349  0.82063853  1
  O  O27  1  0.84603698  0.15396967  0.11271800  1
