# generated using pymatgen
data_Li2Ti3SnO8
_symmetry_space_group_name_H-M   'P 1'
_cell_length_a   5.98905370
_cell_length_b   5.99158226
_cell_length_c   10.03415715
_cell_angle_alpha   90.01147731
_cell_angle_beta   89.99425894
_cell_angle_gamma   120.01396010
_symmetry_Int_Tables_number   1
_chemical_formula_structural   Li2Ti3SnO8
_chemical_formula_sum   'Li4 Ti6 Sn2 O16'
_cell_volume   311.78135833
_cell_formula_units_Z   2
loop_
 _symmetry_equiv_pos_site_id
 _symmetry_equiv_pos_as_xyz
  1  'x, y, z'
loop_
 _atom_site_type_symbol
 _atom_site_label
 _atom_site_symmetry_multiplicity
 _atom_site_fract_x
 _atom_site_fract_y
 _atom_site_fract_z
 _atom_site_occupancy
  Li  Li0  1  0.33339668  0.66667824  0.89631575  1
  Li  Li1  1  0.99988396  0.99993377  0.99316699  1
  Li  Li2  1  0.00011604  0.00004981  0.49316699  1
  Li  Li3  1  0.66660332  0.33328156  0.39631575  1
  Ti  Ti4  1  0.16966314  0.83028521  0.21486245  1
  Ti  Ti5  1  0.66046065  0.83015986  0.21481842  1
  Ti  Ti6  1  0.33953935  0.16969921  0.71481842  1
  Ti  Ti7  1  0.83016589  0.16972983  0.71485118  1
  Ti  Ti8  1  0.16983411  0.33956394  0.21485118  1
  Ti  Ti9  1  0.83033686  0.66062207  0.71486245  1
  Sn  Sn10  1  0.33331034  0.66672578  0.49120737  1
  Sn  Sn11  1  0.66668966  0.33341544  0.99120737  1
  O  O12  1  0.15896033  0.84124540  0.60127720  1
  O  O13  1  0.03365952  0.51682353  0.33561710  1
  O  O14  1  0.33311164  0.66663528  0.10650195  1
  O  O15  1  0.00011471  0.00007179  0.31121521  1
  O  O16  1  0.99988529  -0.00004192  0.81121521  1
  O  O17  1  0.15889353  0.31766990  0.60130147  1
  O  O18  1  0.48324402  0.96618380  0.33570345  1
  O  O19  1  0.48324609  0.51701648  0.33569006  1
  O  O20  1  0.31771299  0.15890187  0.10139140  1
  O  O21  1  0.68228701  0.84118888  0.60139140  1
  O  O22  1  0.51675598  0.48293978  0.83570345  1
  O  O23  1  0.51675391  0.03377039  0.83569006  1
  O  O24  1  0.66688836  0.33352363  0.60650195  1
  O  O25  1  0.84103967  0.68228507  0.10127720  1
  O  O26  1  0.96634048  0.48316501  0.83561710  1
  O  O27  1  0.84110647  0.15877637  0.10130147  1
