# generated using pymatgen
data_TmCdAu2
_symmetry_space_group_name_H-M   'P 1'
_cell_length_a   4.90452038
_cell_length_b   4.90451692
_cell_length_c   4.90452109
_cell_angle_alpha   60.00008151
_cell_angle_beta   59.99996671
_cell_angle_gamma   60.00003896
_symmetry_Int_Tables_number   1
_chemical_formula_structural   TmCdAu2
_chemical_formula_sum   'Tm1 Cd1 Au2'
_cell_volume   83.42086247
_cell_formula_units_Z   1
loop_
 _symmetry_equiv_pos_site_id
 _symmetry_equiv_pos_as_xyz
  1  'x, y, z'
loop_
 _atom_site_type_symbol
 _atom_site_label
 _atom_site_symmetry_multiplicity
 _atom_site_fract_x
 _atom_site_fract_y
 _atom_site_fract_z
 _atom_site_occupancy
  Tm  Tm0  1  0.74999947  0.74999920  0.74999943  1
  Cd  Cd1  1  0.25000068  0.25000069  0.25000068  1
  Au  Au2  1  0.49999984  0.50000040  0.49999934  1
  Au  Au3  1  0.00000001  0.99999971  0.00000055  1
