# generated using pymatgen
data_Gd2PdRu
_symmetry_space_group_name_H-M   'P 1'
_cell_length_a   4.93328821
_cell_length_b   4.93332024
_cell_length_c   4.93331489
_cell_angle_alpha   60.00000071
_cell_angle_beta   60.00026580
_cell_angle_gamma   59.99967791
_symmetry_Int_Tables_number   1
_chemical_formula_structural   Gd2PdRu
_chemical_formula_sum   'Gd2 Pd1 Ru1'
_cell_volume   84.89838976
_cell_formula_units_Z   1
loop_
 _symmetry_equiv_pos_site_id
 _symmetry_equiv_pos_as_xyz
  1  'x, y, z'
loop_
 _atom_site_type_symbol
 _atom_site_label
 _atom_site_symmetry_multiplicity
 _atom_site_fract_x
 _atom_site_fract_y
 _atom_site_fract_z
 _atom_site_occupancy
  Gd  Gd0  1  0.99999981  -0.00000049  -0.00000108  1
  Gd  Gd1  1  0.50000023  0.49999973  0.50000005  1
  Pd  Pd2  1  0.24999845  0.25000011  0.24999955  1
  Ru  Ru3  1  0.74999951  0.74999865  0.74999948  1
