# generated using pymatgen
data_MgSc2Cd
_symmetry_space_group_name_H-M   'P 1'
_cell_length_a   5.03634981
_cell_length_b   5.03635810
_cell_length_c   5.03635542
_cell_angle_alpha   60.00019140
_cell_angle_beta   60.00017472
_cell_angle_gamma   60.00029339
_symmetry_Int_Tables_number   1
_chemical_formula_structural   MgSc2Cd
_chemical_formula_sum   'Mg1 Sc2 Cd1'
_cell_volume   90.33083545
_cell_formula_units_Z   1
loop_
 _symmetry_equiv_pos_site_id
 _symmetry_equiv_pos_as_xyz
  1  'x, y, z'
loop_
 _atom_site_type_symbol
 _atom_site_label
 _atom_site_symmetry_multiplicity
 _atom_site_fract_x
 _atom_site_fract_y
 _atom_site_fract_z
 _atom_site_occupancy
  Mg  Mg0  1  0.74999917  0.74999925  0.74999925  1
  Sc  Sc1  1  0.00000109  0.00000007  0.00000005  1
  Sc  Sc2  1  0.49999940  0.50000069  0.50000098  1
  Cd  Cd3  1  0.25000034  0.24999999  0.24999972  1
