# generated using pymatgen
data_Li3Co4TeO8
_symmetry_space_group_name_H-M   'P 1'
_cell_length_a   10.59440719
_cell_length_b   10.59440690
_cell_length_c   14.87482205
_cell_angle_alpha   19.59917233
_cell_angle_beta   19.59917070
_cell_angle_gamma   33.88932891
_symmetry_Int_Tables_number   1
_chemical_formula_structural   Li3Co4TeO8
_chemical_formula_sum   'Li3 Co4 Te1 O8'
_cell_volume   161.60962115
_cell_formula_units_Z   1
loop_
 _symmetry_equiv_pos_site_id
 _symmetry_equiv_pos_as_xyz
  1  'x, y, z'
loop_
 _atom_site_type_symbol
 _atom_site_label
 _atom_site_symmetry_multiplicity
 _atom_site_fract_x
 _atom_site_fract_y
 _atom_site_fract_z
 _atom_site_occupancy
  Li  Li0  1  0.00000000  0.50000000  0.50000000  1
  Li  Li1  1  0.50000000  0.00000000  0.50000000  1
  Li  Li2  1  0.50000000  0.50000000  0.50000000  1
  Co  Co3  1  0.00000000  0.00000000  0.00000000  1
  Co  Co4  1  0.00000000  0.50000000  0.00000000  1
  Co  Co5  1  0.50000000  0.00000000  0.00000000  1
  Co  Co6  1  0.00000000  0.00000000  0.50000000  1
  Te  Te7  1  0.50000000  0.50000000  0.00000000  1
  O  O8  1  0.99629402  0.99629402  0.25895449  1
  O  O9  1  0.02498181  0.50472047  0.23279687  1
  O  O10  1  0.50472047  0.02498181  0.23279687  1
  O  O11  1  0.00370598  0.00370598  0.74104551  1
  O  O12  1  0.51883118  0.51883118  0.23137873  1
  O  O13  1  0.97501819  0.49527953  0.76720313  1
  O  O14  1  0.49527953  0.97501819  0.76720313  1
  O  O15  1  0.48116882  0.48116882  0.76862127  1
