# generated using pymatgen
data_HfZnCo2
_symmetry_space_group_name_H-M   'P 1'
_cell_length_a   4.25272381
_cell_length_b   4.25272392
_cell_length_c   4.25272453
_cell_angle_alpha   59.99986123
_cell_angle_beta   59.99983785
_cell_angle_gamma   59.99986728
_symmetry_Int_Tables_number   1
_chemical_formula_structural   HfZnCo2
_chemical_formula_sum   'Hf1 Zn1 Co2'
_cell_volume   54.38575973
_cell_formula_units_Z   1
loop_
 _symmetry_equiv_pos_site_id
 _symmetry_equiv_pos_as_xyz
  1  'x, y, z'
loop_
 _atom_site_type_symbol
 _atom_site_label
 _atom_site_symmetry_multiplicity
 _atom_site_fract_x
 _atom_site_fract_y
 _atom_site_fract_z
 _atom_site_occupancy
  Hf  Hf0  1  0.24999970  0.24999969  0.24999944  1
  Zn  Zn1  1  0.74999925  0.74999927  0.74999933  1
  Co  Co2  1  0.99999982  0.99999975  -0.00000008  1
  Co  Co3  1  0.49999922  0.49999929  0.49999931  1
