# generated using pymatgen
data_Li3Nb7O19
_symmetry_space_group_name_H-M   'P 1'
_cell_length_a   6.34286272
_cell_length_b   6.34293399
_cell_length_c   20.33741134
_cell_angle_alpha   89.99995792
_cell_angle_beta   89.99997197
_cell_angle_gamma   120.00005101
_symmetry_Int_Tables_number   1
_chemical_formula_structural   Li3Nb7O19
_chemical_formula_sum   'Li6 Nb14 O38'
_cell_volume   708.60071328
_cell_formula_units_Z   2
loop_
 _symmetry_equiv_pos_site_id
 _symmetry_equiv_pos_as_xyz
  1  'x, y, z'
loop_
 _atom_site_type_symbol
 _atom_site_label
 _atom_site_symmetry_multiplicity
 _atom_site_fract_x
 _atom_site_fract_y
 _atom_site_fract_z
 _atom_site_occupancy
  Li  Li0  1  0.99999709  0.49999470  0.00000137  1
  Li  Li1  1  0.99999715  0.49999891  0.49999884  1
  Li  Li2  1  0.49999633  0.49999627  0.00000029  1
  Li  Li3  1  0.50000094  0.50000031  0.49999862  1
  Li  Li4  1  0.49999563  0.00000011  0.49999958  1
  Li  Li5  1  0.49999757  0.00000153  0.00000175  1
  Nb  Nb6  1  0.30513294  0.97041724  0.65532674  1
  Nb  Nb7  1  0.30513717  0.97041659  0.84467655  1
  Nb  Nb8  1  0.02960455  0.33472472  0.65532586  1
  Nb  Nb9  1  0.02959711  0.33471963  0.84467931  1
  Nb  Nb10  1  0.99999732  0.99999568  0.00000008  1
  Nb  Nb11  1  0.00000205  0.00000362  0.50000129  1
  Nb  Nb12  1  0.33472191  0.30512192  0.15532327  1
  Nb  Nb13  1  0.33471309  0.30512633  0.34466866  1
  Nb  Nb14  1  0.66528684  0.69487439  0.65532638  1
  Nb  Nb15  1  0.66528322  0.69487021  0.84467329  1
  Nb  Nb16  1  0.97040865  0.66527960  0.15532477  1
  Nb  Nb17  1  0.97039292  0.66527524  0.34467531  1
  Nb  Nb18  1  0.69487979  0.02958732  0.15532417  1
  Nb  Nb19  1  0.69486736  0.02958466  0.34467241  1
  O  O20  1  0.24540739  0.96318525  0.55509912  1
  O  O21  1  0.24541368  0.96319073  0.94489855  1
  O  O22  1  0.29113523  0.92716784  0.74999798  1
  O  O23  1  0.08580474  0.42038821  0.15187037  1
  O  O24  1  0.08579109  0.42037564  0.34813122  1
  O  O25  1  0.07284325  0.36397795  0.74999786  1
  O  O26  1  0.33458129  0.91418806  0.15187290  1
  O  O27  1  0.33457637  0.91418252  0.34812725  1
  O  O28  1  0.03683760  0.28224006  0.55510129  1
  O  O29  1  0.03683114  0.28223646  0.94489929  1
  O  O30  1  0.00000005  0.99999666  0.16432482  1
  O  O31  1  0.99999173  0.99998698  0.33567674  1
  O  O32  1  0.00001227  0.00000867  0.66432373  1
  O  O33  1  0.00001277  0.00001470  0.83567563  1
  O  O34  1  0.33335655  0.66667423  0.63704486  1
  O  O35  1  0.33335587  0.66667945  0.86295583  1
  O  O36  1  0.28220508  0.24538961  0.05510134  1
  O  O37  1  0.28220920  0.24539124  0.44490089  1
  O  O38  1  0.36393565  0.29111844  0.25000312  1
  O  O39  1  0.42040002  0.33459273  0.65186862  1
  O  O40  1  0.42039904  0.33459236  0.84812909  1
  O  O41  1  0.57960449  0.66540744  0.34813066  1
  O  O42  1  0.57962129  0.66541199  0.15186816  1
  O  O43  1  0.63606578  0.70887905  0.74999741  1
  O  O44  1  0.71778722  0.75460104  0.55510206  1
  O  O45  1  0.71778398  0.75459456  0.94489924  1
  O  O46  1  0.66664652  0.33332374  0.36295709  1
  O  O47  1  0.66665799  0.33332026  0.13704281  1
  O  O48  1  0.96316830  0.71776854  0.05509915  1
  O  O49  1  0.96316843  0.71777205  0.44490042  1
  O  O50  1  0.66542931  0.08582265  0.65187290  1
  O  O51  1  0.66542222  0.08581670  0.84812581  1
  O  O52  1  0.92715578  0.63602114  0.25000065  1
  O  O53  1  0.91421046  0.57961885  0.65186891  1
  O  O54  1  0.91421297  0.57961999  0.84813100  1
  O  O55  1  0.70886193  0.07282636  0.25000217  1
  O  O56  1  0.75460074  0.03681325  0.05509785  1
  O  O57  1  0.75459195  0.03681158  0.44490267  1
