# generated using pymatgen
data_Ca2Al3Si3O14
_symmetry_space_group_name_H-M   'P 1'
_cell_length_a   5.90800493
_cell_length_b   8.66952121
_cell_length_c   10.38980913
_cell_angle_alpha   97.51266642
_cell_angle_beta   106.51804156
_cell_angle_gamma   90.00000000
_symmetry_Int_Tables_number   1
_chemical_formula_structural   Ca2Al3Si3O14
_chemical_formula_sum   'Ca4 Al6 Si6 O28'
_cell_volume   505.43288559
_cell_formula_units_Z   2
loop_
 _symmetry_equiv_pos_site_id
 _symmetry_equiv_pos_as_xyz
  1  'x, y, z'
loop_
 _atom_site_type_symbol
 _atom_site_label
 _atom_site_symmetry_multiplicity
 _atom_site_fract_x
 _atom_site_fract_y
 _atom_site_fract_z
 _atom_site_occupancy
  Ca  Ca0  1  0.16071953  0.25169122  0.32143906  1
  Ca  Ca1  1  0.83928047  0.74830878  0.67856094  1
  Ca  Ca2  1  0.34727919  0.33654169  0.69455837  1
  Ca  Ca3  1  0.65272081  0.66345831  0.30544163  1
  Al  Al4  1  0.26206810  0.24414526  0.01238190  1
  Al  Al5  1  0.73793190  0.75585474  0.98761810  1
  Al  Al6  1  0.24968620  0.75585474  0.98761810  1
  Al  Al7  1  0.75031380  0.24414526  0.01238190  1
  Al  Al8  1  0.50000000  0.00000000  0.50000000  1
  Al  Al9  1  -0.00000000  0.00000000  0.50000000  1
  Si  Si10  1  0.08603307  0.55768735  0.17206613  1
  Si  Si11  1  0.91396693  0.44231265  0.82793387  1
  Si  Si12  1  0.59753913  0.03354111  0.19507826  1
  Si  Si13  1  0.40246087  0.96645889  0.80492174  1
  Si  Si14  1  0.24274026  0.66778157  0.48548053  1
  Si  Si15  1  0.75725974  0.33221843  0.51451947  1
  O  O16  1  0.02351699  0.87854478  0.04703397  1
  O  O17  1  0.97648301  0.12145522  0.95296603  1
  O  O18  1  0.36406968  0.14278440  0.16812814  1
  O  O19  1  0.63593032  0.85721560  0.83187186  1
  O  O20  1  0.19594154  0.85721560  0.83187186  1
  O  O21  1  0.80405846  0.14278440  0.16812814  1
  O  O22  1  0.19623854  0.01025065  0.39247708  1
  O  O23  1  0.80376146  0.98974935  0.60752292  1
  O  O24  1  0.16877472  0.54671878  0.33754944  1
  O  O25  1  0.83122528  0.45328122  0.66245056  1
  O  O26  1  0.32538218  0.01885317  0.65076436  1
  O  O27  1  0.67461782  0.98114683  0.34923564  1
  O  O28  1  0.52614249  0.22436265  0.51604597  1
  O  O29  1  0.47385751  0.77563735  0.48395403  1
  O  O30  1  0.01009652  0.77563735  0.48395403  1
  O  O31  1  0.98990348  0.22436265  0.51604597  1
  O  O32  1  0.30145370  0.55886564  0.60290739  1
  O  O33  1  0.69854630  0.44113436  0.39709261  1
  O  O34  1  0.45850038  0.12513028  0.91700076  1
  O  O35  1  0.54149962  0.87486972  0.08299924  1
  O  O36  1  0.70531259  0.35155069  0.86434584  1
  O  O37  1  0.29468741  0.64844931  0.13565416  1
  O  O38  1  0.84096675  0.64844931  0.13565416  1
  O  O39  1  0.15903325  0.35155069  0.86434584  1
  O  O40  1  0.05358582  0.37217887  0.10717163  1
  O  O41  1  0.94641418  0.62782113  0.89282837  1
  O  O42  1  0.54513119  0.36633255  0.09026238  1
  O  O43  1  0.45486881  0.63366745  0.90973762  1
