# generated using pymatgen
data_Gd2ZnRu
_symmetry_space_group_name_H-M   'P 1'
_cell_length_a   4.96399766
_cell_length_b   4.96380999
_cell_length_c   4.96385635
_cell_angle_alpha   59.99904266
_cell_angle_beta   60.00050923
_cell_angle_gamma   59.99820751
_symmetry_Int_Tables_number   1
_chemical_formula_structural   Gd2ZnRu
_chemical_formula_sum   'Gd2 Zn1 Ru1'
_cell_volume   86.48555364
_cell_formula_units_Z   1
loop_
 _symmetry_equiv_pos_site_id
 _symmetry_equiv_pos_as_xyz
  1  'x, y, z'
loop_
 _atom_site_type_symbol
 _atom_site_label
 _atom_site_symmetry_multiplicity
 _atom_site_fract_x
 _atom_site_fract_y
 _atom_site_fract_z
 _atom_site_occupancy
  Gd  Gd0  1  0.50010310  0.50011194  0.50010182  1
  Gd  Gd1  1  0.99989705  -0.00010434  0.99989225  1
  Zn  Zn2  1  0.75000127  0.75000009  0.75000340  1
  Ru  Ru3  1  0.24999958  0.24999331  0.25000352  1
