# generated using pymatgen
data_Mg2FeO4
_symmetry_space_group_name_H-M   'P 1'
_cell_length_a   5.16292475
_cell_length_b   5.91871113
_cell_length_c   9.74853404
_cell_angle_alpha   90.00000000
_cell_angle_beta   90.06033027
_cell_angle_gamma   90.00000000
_symmetry_Int_Tables_number   1
_chemical_formula_structural   Mg2FeO4
_chemical_formula_sum   'Mg8 Fe4 O16'
_cell_volume   297.89417517
_cell_formula_units_Z   4
loop_
 _symmetry_equiv_pos_site_id
 _symmetry_equiv_pos_as_xyz
  1  'x, y, z'
loop_
 _atom_site_type_symbol
 _atom_site_label
 _atom_site_symmetry_multiplicity
 _atom_site_fract_x
 _atom_site_fract_y
 _atom_site_fract_z
 _atom_site_occupancy
  Mg  Mg0  1  0.25310512  0.12957321  0.96114453  1
  Mg  Mg1  1  0.24689488  0.62957321  0.53885547  1
  Mg  Mg2  1  0.25839934  0.61483781  0.25408052  1
  Mg  Mg3  1  0.24160066  0.11483781  0.24591948  1
  Mg  Mg4  1  0.75839934  0.88516219  0.75408052  1
  Mg  Mg5  1  0.74160066  0.38516219  0.74591948  1
  Mg  Mg6  1  0.75310512  0.37042679  0.46114453  1
  Mg  Mg7  1  0.74689488  0.87042679  0.03885547  1
  Fe  Fe8  1  0.24262603  0.63073638  0.97152143  1
  Fe  Fe9  1  0.25737397  0.13073638  0.52847857  1
  Fe  Fe10  1  0.74262603  0.86926362  0.47152143  1
  Fe  Fe11  1  0.75737397  0.36926362  0.02847857  1
  O  O12  1  0.09882350  0.87920314  0.39236535  1
  O  O13  1  0.93416960  0.13844495  0.11531656  1
  O  O14  1  0.06407747  0.39800903  0.88007953  1
  O  O15  1  0.12734959  0.35890028  0.39245046  1
  O  O16  1  0.43592253  0.89800903  0.61992047  1
  O  O17  1  0.37265041  0.85890028  0.10754954  1
  O  O18  1  0.59882350  0.62079686  0.89236535  1
  O  O19  1  0.43416960  0.36155505  0.61531656  1
  O  O20  1  0.56583040  0.63844495  0.38468344  1
  O  O21  1  0.40117650  0.37920314  0.10763465  1
  O  O22  1  0.62734959  0.14109972  0.89245046  1
  O  O23  1  0.56407747  0.10199097  0.38007953  1
  O  O24  1  0.87265041  0.64109972  0.60754954  1
  O  O25  1  0.93592253  0.60199097  0.11992047  1
  O  O26  1  0.06583040  0.86155505  0.88468344  1
  O  O27  1  0.90117650  0.12079686  0.60763465  1
