# generated using pymatgen
data_Ho2ZnRu
_symmetry_space_group_name_H-M   'P 1'
_cell_length_a   4.89991406
_cell_length_b   4.89990493
_cell_length_c   4.89992917
_cell_angle_alpha   60.00016460
_cell_angle_beta   59.99977077
_cell_angle_gamma   60.00005127
_symmetry_Int_Tables_number   1
_chemical_formula_structural   Ho2ZnRu
_chemical_formula_sum   'Ho2 Zn1 Ru1'
_cell_volume   83.18612158
_cell_formula_units_Z   1
loop_
 _symmetry_equiv_pos_site_id
 _symmetry_equiv_pos_as_xyz
  1  'x, y, z'
loop_
 _atom_site_type_symbol
 _atom_site_label
 _atom_site_symmetry_multiplicity
 _atom_site_fract_x
 _atom_site_fract_y
 _atom_site_fract_z
 _atom_site_occupancy
  Ho  Ho0  1  0.99999964  -0.00000006  0.99999944  1
  Ho  Ho1  1  0.50000075  0.49999989  0.50000038  1
  Zn  Zn2  1  0.74999964  0.75000026  0.75000021  1
  Ru  Ru3  1  0.25000096  0.25000091  0.25000097  1
