# generated using pymatgen
data_Li2TiNb3O8
_symmetry_space_group_name_H-M   'P 1'
_cell_length_a   8.66583223
_cell_length_b   8.65624921
_cell_length_c   8.66262368
_cell_angle_alpha   89.89781458
_cell_angle_beta   89.62290401
_cell_angle_gamma   89.14720254
_symmetry_Int_Tables_number   1
_chemical_formula_structural   Li2TiNb3O8
_chemical_formula_sum   'Li8 Ti4 Nb12 O32'
_cell_volume   649.72764375
_cell_formula_units_Z   4
loop_
 _symmetry_equiv_pos_site_id
 _symmetry_equiv_pos_as_xyz
  1  'x, y, z'
loop_
 _atom_site_type_symbol
 _atom_site_label
 _atom_site_symmetry_multiplicity
 _atom_site_fract_x
 _atom_site_fract_y
 _atom_site_fract_z
 _atom_site_occupancy
  Li  Li0  1  0.01526885  0.00618278  0.01010024  1
  Li  Li1  1  0.23656819  0.23575614  0.23823951  1
  Li  Li2  1  0.25222961  0.75856844  0.75214352  1
  Li  Li3  1  0.47969513  0.99155781  0.50712918  1
  Li  Li4  1  0.49910344  0.48826759  0.98678209  1
  Li  Li5  1  0.74980682  0.25211332  0.76099651  1
  Li  Li6  1  0.76160094  0.75300155  0.25102235  1
  Li  Li7  1  0.00062739  0.50737949  0.48789664  1
  Ti  Ti8  1  0.11402736  0.88357111  0.38355126  1
  Ti  Ti9  1  0.38955062  0.12443685  0.87949757  1
  Ti  Ti10  1  0.62441626  0.62342688  0.61847409  1
  Ti  Ti11  1  0.86889612  0.37500116  0.13530992  1
  Nb  Nb12  1  0.11474956  0.13403305  0.63502124  1
  Nb  Nb13  1  0.11697744  0.36630749  0.86531023  1
  Nb  Nb14  1  0.13096348  0.62826488  0.12163451  1
  Nb  Nb15  1  0.38680579  0.38462741  0.59989961  1
  Nb  Nb16  1  0.38956135  0.60099557  0.38010926  1
  Nb  Nb17  1  0.37565008  0.86653324  0.12948113  1
  Nb  Nb18  1  0.62030158  0.37396787  0.37325891  1
  Nb  Nb19  1  0.63650642  0.12973507  0.14486448  1
  Nb  Nb20  1  0.64413074  0.86519242  0.86808168  1
  Nb  Nb21  1  0.85043523  0.13817672  0.36485230  1
  Nb  Nb22  1  0.86400854  0.86475010  0.64572395  1
  Nb  Nb23  1  0.86742986  0.64539813  0.86276373  1
  O  O24  1  0.10877855  0.10885258  0.38717868  1
  O  O25  1  0.11404976  0.88676266  0.61339432  1
  O  O26  1  0.11882607  0.61946004  0.88435693  1
  O  O27  1  0.14767896  0.12712013  0.87495156  1
  O  O28  1  0.10775963  0.38576245  0.11192773  1
  O  O29  1  0.13914733  0.37732847  0.62506955  1
  O  O30  1  0.13902380  0.64155252  0.35824150  1
  O  O31  1  0.13158423  0.86934432  0.14876986  1
  O  O32  1  0.35329787  0.13511008  0.64175840  1
  O  O33  1  0.35848045  0.35329020  0.86132582  1
  O  O34  1  0.37435695  0.62259619  0.13021249  1
  O  O35  1  0.38763089  0.62200176  0.62598149  1
  O  O36  1  0.35426483  0.86153570  0.36274762  1
  O  O37  1  0.36859434  0.36115461  0.35962780  1
  O  O38  1  0.38697536  0.11174143  0.10785642  1
  O  O39  1  0.38362601  0.89201825  0.89181803  1
  O  O40  1  0.62390477  0.38607443  0.62269536  1
  O  O41  1  0.62674499  0.62475352  0.38582692  1
  O  O42  1  0.61887253  0.88396893  0.11809799  1
  O  O43  1  0.63890400  0.37147659  0.12044782  1
  O  O44  1  0.60998274  0.11469908  0.88646456  1
  O  O45  1  0.61231118  0.12188299  0.39056789  1
  O  O46  1  0.62182266  0.85844517  0.62807453  1
  O  O47  1  0.62786285  0.62495783  0.85980653  1
  O  O48  1  0.87396101  0.37871547  0.36155284  1
  O  O49  1  0.87649947  0.14198044  0.11979403  1
  O  O50  1  0.88397201  0.88824276  0.88932970  1
  O  O51  1  0.89184435  0.89121874  0.38653731  1
  O  O52  1  0.86285184  0.62549491  0.62238537  1
  O  O53  1  0.88523603  0.11911954  0.62131125  1
  O  O54  1  0.89123586  0.38575457  0.88817420  1
  O  O55  1  0.89061092  0.61047558  0.11171165  1
