# generated using pymatgen
data_Li4Fe3TeO12
_symmetry_space_group_name_H-M   'P 1'
_cell_length_a   5.03489372
_cell_length_b   4.94903027
_cell_length_c   8.34078577
_cell_angle_alpha   90.00000000
_cell_angle_beta   90.00000000
_cell_angle_gamma   88.97370242
_symmetry_Int_Tables_number   1
_chemical_formula_structural   Li4Fe3TeO12
_chemical_formula_sum   'Li4 Fe3 Te1 O12'
_cell_volume   207.80103648
_cell_formula_units_Z   1
loop_
 _symmetry_equiv_pos_site_id
 _symmetry_equiv_pos_as_xyz
  1  'x, y, z'
loop_
 _atom_site_type_symbol
 _atom_site_label
 _atom_site_symmetry_multiplicity
 _atom_site_fract_x
 _atom_site_fract_y
 _atom_site_fract_z
 _atom_site_occupancy
  Li  Li0  1  0.00000000  0.00000000  0.69957814  1
  Li  Li1  1  0.00000000  0.50000000  0.80191557  1
  Li  Li2  1  0.50000000  0.00000000  0.32688683  1
  Li  Li3  1  0.50000000  0.50000000  0.20955125  1
  Fe  Fe4  1  0.00000000  0.50000000  0.41916253  1
  Fe  Fe5  1  0.50000000  0.00000000  0.90232780  1
  Fe  Fe6  1  0.50000000  0.50000000  0.60183697  1
  Te  Te7  1  0.00000000  0.00000000  0.10436511  1
  O  O8  1  0.15972256  0.24362814  0.25920847  1
  O  O9  1  0.18168728  0.30515268  0.58965087  1
  O  O10  1  0.17524293  0.19929349  0.92472020  1
  O  O11  1  0.31422752  0.69259256  0.42892913  1
  O  O12  1  0.32381407  0.79211369  0.08592602  1
  O  O13  1  0.35143220  0.75128616  0.74929321  1
  O  O14  1  0.64856780  0.24871384  0.74929321  1
  O  O15  1  0.67618593  0.20788531  0.08592602  1
  O  O16  1  0.68577248  0.30740744  0.42892913  1
  O  O17  1  0.82475707  0.80070651  0.92472020  1
  O  O18  1  0.81831272  0.69484732  0.58965087  1
  O  O19  1  0.84027744  0.75637186  0.25920847  1
