# generated using pymatgen
data_LiCu2PO4
_symmetry_space_group_name_H-M   'P 1'
_cell_length_a   6.19853737
_cell_length_b   5.56877252
_cell_length_c   10.31721945
_cell_angle_alpha   91.18624347
_cell_angle_beta   90.26448576
_cell_angle_gamma   88.88683427
_symmetry_Int_Tables_number   1
_chemical_formula_structural   LiCu2PO4
_chemical_formula_sum   'Li4 Cu8 P4 O16'
_cell_volume   355.98561870
_cell_formula_units_Z   4
loop_
 _symmetry_equiv_pos_site_id
 _symmetry_equiv_pos_as_xyz
  1  'x, y, z'
loop_
 _atom_site_type_symbol
 _atom_site_label
 _atom_site_symmetry_multiplicity
 _atom_site_fract_x
 _atom_site_fract_y
 _atom_site_fract_z
 _atom_site_occupancy
  Li  Li0  1  0.00001508  0.14677277  0.75175056  1
  Li  Li1  1  0.00198883  0.15663432  0.24819565  1
  Li  Li2  1  0.25179115  0.32678445  0.00121593  1
  Li  Li3  1  0.25418414  0.67519183  0.24263201  1
  Cu  Cu4  1  0.26492933  0.36643982  0.51155228  1
  Cu  Cu5  1  0.27816935  0.65886768  0.73928644  1
  Cu  Cu6  1  0.51174726  0.77044248  0.98878683  1
  Cu  Cu7  1  0.49627841  0.76195052  0.49664527  1
  Cu  Cu8  1  0.71924796  0.65170348  0.73750741  1
  Cu  Cu9  1  0.71702533  0.65287410  0.22939366  1
  Cu  Cu10  1  0.73766991  0.35641731  0.50642063  1
  Cu  Cu11  1  0.74076896  0.35564637  0.00657424  1
  P  P12  1  0.01239592  0.83928202  0.00268006  1
  P  P13  1  -0.00031358  0.84738595  0.49341136  1
  P  P14  1  0.49194839  0.17590185  0.24971598  1
  P  P15  1  0.49958437  0.17648501  0.75692507  1
  O  O16  1  0.00664379  0.84719776  0.64380617  1
  O  O17  1  0.99608398  0.10576361  0.43953432  1
  O  O18  1  0.00410107  0.83996996  0.15295720  1
  O  O19  1  0.01717040  0.09746553  0.94865756  1
  O  O20  1  0.19781180  0.70311913  0.43384525  1
  O  O21  1  0.21217016  0.68212735  0.95656595  1
  O  O22  1  0.29373609  0.31764712  0.19484725  1
  O  O23  1  0.28469516  0.30034664  0.70860569  1
  O  O24  1  0.49740205  0.18050687  0.90652561  1
  O  O25  1  0.50143930  0.91679396  0.69899296  1
  O  O26  1  0.49180609  0.18015133  0.40048419  1
  O  O27  1  0.48741275  0.91055036  0.19748230  1
  O  O28  1  0.71034648  0.29712076  0.70789290  1
  O  O29  1  0.70891597  0.29463651  0.20354461  1
  O  O30  1  0.79956657  0.70424076  0.44250306  1
  O  O31  1  0.81326652  0.70358638  0.94365461  1
