# generated using pymatgen
data_Hf2MnRh
_symmetry_space_group_name_H-M   'P 1'
_cell_length_a   4.54287239
_cell_length_b   4.54286364
_cell_length_c   4.54287524
_cell_angle_alpha   60.00003985
_cell_angle_beta   60.00011400
_cell_angle_gamma   59.99997734
_symmetry_Int_Tables_number   1
_chemical_formula_structural   Hf2MnRh
_chemical_formula_sum   'Hf2 Mn1 Rh1'
_cell_volume   66.29434456
_cell_formula_units_Z   1
loop_
 _symmetry_equiv_pos_site_id
 _symmetry_equiv_pos_as_xyz
  1  'x, y, z'
loop_
 _atom_site_type_symbol
 _atom_site_label
 _atom_site_symmetry_multiplicity
 _atom_site_fract_x
 _atom_site_fract_y
 _atom_site_fract_z
 _atom_site_occupancy
  Hf  Hf0  1  -0.00000036  -0.00000035  -0.00000007  1
  Hf  Hf1  1  0.50000094  0.49999973  0.50000047  1
  Mn  Mn2  1  0.24999916  0.24999999  0.25000019  1
  Rh  Rh3  1  0.74999926  0.74999963  0.74999841  1
