# generated using pymatgen
data_Cr3SbO8
_symmetry_space_group_name_H-M   'P 1'
_cell_length_a   5.93415045
_cell_length_b   5.98303592
_cell_length_c   9.27766475
_cell_angle_alpha   91.40482477
_cell_angle_beta   89.29185427
_cell_angle_gamma   120.27288313
_symmetry_Int_Tables_number   1
_chemical_formula_structural   Cr3SbO8
_chemical_formula_sum   'Cr6 Sb2 O16'
_cell_volume   284.39249589
_cell_formula_units_Z   2
loop_
 _symmetry_equiv_pos_site_id
 _symmetry_equiv_pos_as_xyz
  1  'x, y, z'
loop_
 _atom_site_type_symbol
 _atom_site_label
 _atom_site_symmetry_multiplicity
 _atom_site_fract_x
 _atom_site_fract_y
 _atom_site_fract_z
 _atom_site_occupancy
  Cr  Cr0  1  0.17092250  0.83031818  0.21224497  1
  Cr  Cr1  1  0.16535004  0.33307444  0.20395787  1
  Cr  Cr2  1  0.65712884  0.82890548  0.21936166  1
  Cr  Cr3  1  0.34287116  0.17177664  0.71936166  1
  Cr  Cr4  1  0.82907750  0.65939568  0.71224497  1
  Cr  Cr5  1  0.83464996  0.16772440  0.70395787  1
  Sb  Sb6  1  0.32601665  0.66636078  0.49086801  1
  Sb  Sb7  1  0.67398335  0.34034513  0.99086801  1
  O  O8  1  0.16519226  0.83379787  0.59928853  1
  O  O9  1  0.04387764  0.51412268  0.33470872  1
  O  O10  1  0.34547355  0.66684739  0.10670065  1
  O  O11  1  0.98939946  0.99853722  0.29923688  1
  O  O12  1  0.01060054  0.00913776  0.79923688  1
  O  O13  1  0.16321912  0.33809851  0.60452333  1
  O  O14  1  0.48332655  0.95621833  0.34291178  1
  O  O15  1  0.47382465  0.51956203  0.33782005  1
  O  O16  1  0.33949879  0.17587061  0.10623755  1
  O  O17  1  0.66050121  0.83637182  0.60623755  1
  O  O18  1  0.51667345  0.47289178  0.84291178  1
  O  O19  1  0.52617535  0.04573738  0.83782005  1
  O  O20  1  0.65452645  0.32137385  0.60670065  1
  O  O21  1  0.83480774  0.66860561  0.09928853  1
  O  O22  1  0.95612236  0.47024504  0.83470872  1
  O  O23  1  0.83678088  0.17487939  0.10452333  1
