# generated using pymatgen
data_Sr2ReN3
_symmetry_space_group_name_H-M   'P 1'
_cell_length_a   6.31863344
_cell_length_b   11.37804816
_cell_length_c   12.57863998
_cell_angle_alpha   89.99999893
_cell_angle_beta   92.44779291
_cell_angle_gamma   154.20499303
_symmetry_Int_Tables_number   1
_chemical_formula_structural   Sr2ReN3
_chemical_formula_sum   'Sr8 Re4 N12'
_cell_volume   391.61953290
_cell_formula_units_Z   4
loop_
 _symmetry_equiv_pos_site_id
 _symmetry_equiv_pos_as_xyz
  1  'x, y, z'
loop_
 _atom_site_type_symbol
 _atom_site_label
 _atom_site_symmetry_multiplicity
 _atom_site_fract_x
 _atom_site_fract_y
 _atom_site_fract_z
 _atom_site_occupancy
  Sr  Sr0  1  0.44004665  0.02037395  0.85652736  1
  Sr  Sr1  1  0.55995335  0.58032730  0.64347264  1
  Sr  Sr2  1  0.55995335  0.97962605  0.14347264  1
  Sr  Sr3  1  0.44004665  0.41967270  0.35652736  1
  Sr  Sr4  1  0.52934235  0.87550742  0.57585436  1
  Sr  Sr5  1  0.47065765  0.34616607  0.92414564  1
  Sr  Sr6  1  0.47065765  0.12449258  0.42414564  1
  Sr  Sr7  1  0.52934235  0.65383393  0.07585436  1
  Re  Re8  1  0.57844194  0.28532336  0.67304831  1
  Re  Re9  1  0.42155806  0.70688142  0.82695169  1
  Re  Re10  1  0.42155806  0.71467664  0.32695169  1
  Re  Re11  1  0.57844194  0.29311858  0.17304831  1
  N  N12  1  1.00000000  0.62572644  0.75000000  1
  N  N13  1  0.00000000  0.37427356  0.25000000  1
  N  N14  1  0.59635890  0.13671400  0.62870116  1
  N  N15  1  0.40364110  0.54035510  0.87129884  1
  N  N16  1  0.40364110  0.86328600  0.37129884  1
  N  N17  1  0.59635890  0.45964490  0.12870116  1
  N  N18  1  0.52039390  0.17420261  0.04833209  1
  N  N19  1  0.47960610  0.65380871  0.45166791  1
  N  N20  1  0.47960610  0.82579739  0.95166791  1
  N  N21  1  0.52039390  0.34619129  0.54833209  1
  N  N22  1  0.00000000  0.99787132  0.75000000  1
  N  N23  1  0.00000000  0.00212868  0.25000000  1
