# generated using pymatgen
data_Li5Ni3(SbO5)2
_symmetry_space_group_name_H-M   'P 1'
_cell_length_a   5.23985965
_cell_length_b   5.36264409
_cell_length_c   7.92272190
_cell_angle_alpha   106.90686409
_cell_angle_beta   102.75706783
_cell_angle_gamma   101.80099009
_symmetry_Int_Tables_number   1
_chemical_formula_structural   Li5Ni3(SbO5)2
_chemical_formula_sum   'Li5 Ni3 Sb2 O10'
_cell_volume   198.94376378
_cell_formula_units_Z   1
loop_
 _symmetry_equiv_pos_site_id
 _symmetry_equiv_pos_as_xyz
  1  'x, y, z'
loop_
 _atom_site_type_symbol
 _atom_site_label
 _atom_site_symmetry_multiplicity
 _atom_site_fract_x
 _atom_site_fract_y
 _atom_site_fract_z
 _atom_site_occupancy
  Li  Li0  1  0.22730130  0.88414786  0.38450029  1
  Li  Li1  1  0.41937550  0.30042475  0.80818797  1
  Li  Li2  1  0.50000000  0.50000000  0.50000000  1
  Li  Li3  1  0.58062450  0.69957525  0.19181203  1
  Li  Li4  1  0.77269870  0.11585214  0.61549971  1
  Ni  Ni5  1  0.00000000  0.50000000  0.00000000  1
  Ni  Ni6  1  0.70509717  0.89472963  0.89779140  1
  Ni  Ni7  1  0.29490283  0.10527037  0.10220860  1
  Sb  Sb8  1  0.10707842  0.70546620  0.70234605  1
  Sb  Sb9  1  0.89292158  0.29453380  0.29765395  1
  O  O10  1  0.05277031  0.05911395  0.83536001  1
  O  O11  1  0.34782727  0.70506678  0.93863645  1
  O  O12  1  0.13321128  0.33141525  0.55290033  1
  O  O13  1  0.22778712  0.48066990  0.24573859  1
  O  O14  1  0.44102790  0.89218568  0.65623291  1
  O  O15  1  0.55897210  0.10781432  0.34376709  1
  O  O16  1  0.77221288  0.51933010  0.75426141  1
  O  O17  1  0.86678872  0.66858475  0.44709967  1
  O  O18  1  0.65217273  0.29493322  0.06136355  1
  O  O19  1  0.94722969  0.94088605  0.16463999  1
