# generated using pymatgen
data_AlCr2O4
_symmetry_space_group_name_H-M   'P 1'
_cell_length_a   5.91382589
_cell_length_b   5.91382583
_cell_length_c   5.91382567
_cell_angle_alpha   119.09796080
_cell_angle_beta   119.09796115
_cell_angle_gamma   91.56961158
_symmetry_Int_Tables_number   1
_chemical_formula_structural   AlCr2O4
_chemical_formula_sum   'Al2 Cr4 O8'
_cell_volume   148.18203743
_cell_formula_units_Z   2
loop_
 _symmetry_equiv_pos_site_id
 _symmetry_equiv_pos_as_xyz
  1  'x, y, z'
loop_
 _atom_site_type_symbol
 _atom_site_label
 _atom_site_symmetry_multiplicity
 _atom_site_fract_x
 _atom_site_fract_y
 _atom_site_fract_z
 _atom_site_occupancy
  Al  Al0  1  0.12500000  0.87500000  0.25000000  1
  Al  Al1  1  0.87500000  0.12500000  0.75000000  1
  Cr  Cr2  1  0.00000000  0.50000000  0.50000000  1
  Cr  Cr3  1  0.50000000  0.50000000  0.50000000  1
  Cr  Cr4  1  0.50000000  0.50000000  0.00000000  1
  Cr  Cr5  1  0.50000000  0.00000000  0.00000000  1
  O  O6  1  0.25300461  0.75628560  0.00328099  1
  O  O7  1  0.24371440  0.74699539  0.49671901  1
  O  O8  1  0.25300461  0.24972362  0.49671901  1
  O  O9  1  0.75027638  0.74699539  0.00328099  1
  O  O10  1  0.24972362  0.25300461  0.99671901  1
  O  O11  1  0.74699539  0.75027638  0.50328099  1
  O  O12  1  0.75628560  0.25300461  0.50328099  1
  O  O13  1  0.74699539  0.24371440  0.99671901  1
