# generated using pymatgen
data_Nd2CdGe2
_symmetry_space_group_name_H-M   'P 1'
_cell_length_a   4.35938607
_cell_length_b   7.51201996
_cell_length_c   7.51201996
_cell_angle_alpha   90.00000000
_cell_angle_beta   90.00000000
_cell_angle_gamma   90.00000000
_symmetry_Int_Tables_number   1
_chemical_formula_structural   Nd2CdGe2
_chemical_formula_sum   'Nd4 Cd2 Ge4'
_cell_volume   246.00209097
_cell_formula_units_Z   2
loop_
 _symmetry_equiv_pos_site_id
 _symmetry_equiv_pos_as_xyz
  1  'x, y, z'
loop_
 _atom_site_type_symbol
 _atom_site_label
 _atom_site_symmetry_multiplicity
 _atom_site_fract_x
 _atom_site_fract_y
 _atom_site_fract_z
 _atom_site_occupancy
  Nd  Nd0  1  0.50000000  0.17945676  0.67945676  1
  Nd  Nd1  1  0.50000000  0.82054324  0.32054324  1
  Nd  Nd2  1  0.50000000  0.32054324  0.17945676  1
  Nd  Nd3  1  0.50000000  0.67945676  0.82054324  1
  Cd  Cd4  1  -0.00000000  0.50000000  0.50000000  1
  Cd  Cd5  1  -0.00000000  -0.00000000  -0.00000000  1
  Ge  Ge6  1  0.00000000  0.62003694  0.12003694  1
  Ge  Ge7  1  -0.00000000  0.37996306  0.87996306  1
  Ge  Ge8  1  -0.00000000  0.87996306  0.62003694  1
  Ge  Ge9  1  0.00000000  0.12003694  0.37996306  1
