# generated using pymatgen
data_Li4FeCo3O8
_symmetry_space_group_name_H-M   'P 1'
_cell_length_a   5.54032358
_cell_length_b   6.40684560
_cell_length_c   5.07982214
_cell_angle_alpha   89.96772198
_cell_angle_beta   89.68268644
_cell_angle_gamma   89.72839432
_symmetry_Int_Tables_number   1
_chemical_formula_structural   Li4FeCo3O8
_chemical_formula_sum   'Li4 Fe1 Co3 O8'
_cell_volume   180.30853785
_cell_formula_units_Z   1
loop_
 _symmetry_equiv_pos_site_id
 _symmetry_equiv_pos_as_xyz
  1  'x, y, z'
loop_
 _atom_site_type_symbol
 _atom_site_label
 _atom_site_symmetry_multiplicity
 _atom_site_fract_x
 _atom_site_fract_y
 _atom_site_fract_z
 _atom_site_occupancy
  Li  Li0  1  0.08260781  0.62346644  0.99716365  1
  Li  Li1  1  0.41737087  0.12506876  0.49535571  1
  Li  Li2  1  0.58140689  0.87532420  0.99635150  1
  Li  Li3  1  0.91797550  0.37532848  0.49599109  1
  Fe  Fe4  1  0.92176118  0.87417667  0.49775751  1
  Co  Co5  1  0.08111927  0.12883070  -0.00027216  1
  Co  Co6  1  0.41847722  0.62618334  0.49428395  1
  Co  Co7  1  0.57924603  0.37472383  0.99721128  1
  O  O8  1  0.07669996  0.11858920  0.37059895  1
  O  O9  1  0.09529836  0.62937073  0.39346121  1
  O  O10  1  0.40464430  0.13699850  0.89640141  1
  O  O11  1  0.42461243  0.61300296  0.86644513  1
  O  O12  1  0.57654316  0.38586238  0.36773169  1
  O  O13  1  0.59185541  0.86130225  0.39046194  1
  O  O14  1  0.90385033  0.36356209  0.89335010  1
  O  O15  1  0.92653228  0.88821047  0.87410603  1
