# generated using pymatgen
data_U5P3Se2
_symmetry_space_group_name_H-M   'P 1'
_cell_length_a   7.88395237
_cell_length_b   19.85098791
_cell_length_c   6.84868495
_cell_angle_alpha   30.40020569
_cell_angle_beta   55.20064211
_cell_angle_gamma   60.51213056
_symmetry_Int_Tables_number   1
_chemical_formula_structural   U5P3Se2
_chemical_formula_sum   'U10 P6 Se4'
_cell_volume   445.39046907
_cell_formula_units_Z   2
loop_
 _symmetry_equiv_pos_site_id
 _symmetry_equiv_pos_as_xyz
  1  'x, y, z'
loop_
 _atom_site_type_symbol
 _atom_site_label
 _atom_site_symmetry_multiplicity
 _atom_site_fract_x
 _atom_site_fract_y
 _atom_site_fract_z
 _atom_site_occupancy
  U  U0  1  0.24325720  0.20513170  0.48738495  1
  U  U1  1  0.25027810  0.39426050  0.52634022  1
  U  U2  1  0.75674280  0.20513170  0.48695654  1
  U  U3  1  0.24972190  0.60573950  0.47365978  1
  U  U4  1  0.74972190  0.39426050  0.50235727  1
  U  U5  1  0.25674280  0.79486830  0.51261505  1
  U  U6  1  0.75027810  0.60573950  0.49764273  1
  U  U7  1  0.25000000  -0.00000000  0.50000000  1
  U  U8  1  0.74325720  0.79486830  0.51304346  1
  U  U9  1  0.75000000  -0.00000000  0.50000000  1
  P  P10  1  0.00000000  0.19946756  0.00133109  1
  P  P11  1  0.00000000  0.40296620  0.99258450  1
  P  P12  1  0.50000000  0.19672324  0.00819189  1
  P  P13  1  0.00000000  0.80327676  0.99180811  1
  P  P14  1  0.50000000  0.59703380  0.00741550  1
  P  P15  1  0.50000000  0.80053244  0.99866891  1
  Se  Se16  1  0.00000000  0.99664958  0.00837605  1
  Se  Se17  1  0.00000000  0.59688372  0.00779069  1
  Se  Se18  1  0.50000000  0.40311628  0.99220931  1
  Se  Se19  1  0.50000000  0.00335042  0.99162395  1
