# generated using pymatgen
data_TiTl5F9
_symmetry_space_group_name_H-M   'P 1'
_cell_length_a   6.87575010
_cell_length_b   8.00147979
_cell_length_c   11.14580297
_cell_angle_alpha   89.99930405
_cell_angle_beta   90.00326521
_cell_angle_gamma   90.00034292
_symmetry_Int_Tables_number   1
_chemical_formula_structural   TiTl5F9
_chemical_formula_sum   'Ti2 Tl10 F18'
_cell_volume   613.19945065
_cell_formula_units_Z   2
loop_
 _symmetry_equiv_pos_site_id
 _symmetry_equiv_pos_as_xyz
  1  'x, y, z'
loop_
 _atom_site_type_symbol
 _atom_site_label
 _atom_site_symmetry_multiplicity
 _atom_site_fract_x
 _atom_site_fract_y
 _atom_site_fract_z
 _atom_site_occupancy
  Ti  Ti0  1  0.49601814  0.99999641  0.00399716  1
  Ti  Ti1  1  0.99694426  0.00000467  0.49573776  1
  Tl  Tl2  1  0.04608366  0.73228172  0.82852594  1
  Tl  Tl3  1  0.04608864  0.26771597  0.82852736  1
  Tl  Tl4  1  0.46762728  0.49999757  0.99885008  1
  Tl  Tl5  1  0.45136011  0.27048326  0.33336682  1
  Tl  Tl6  1  0.45135922  0.72950483  0.33336947  1
  Tl  Tl7  1  0.54617306  0.26754565  0.67180539  1
  Tl  Tl8  1  0.54616534  0.73244507  0.67180456  1
  Tl  Tl9  1  0.96646266  0.50000152  0.50091438  1
  Tl  Tl10  1  0.95139832  0.27035113  0.16675801  1
  Tl  Tl11  1  0.95139380  0.72965901  0.16675553  1
  F  F12  1  0.10780914  0.00001863  0.34041028  1
  F  F13  1  0.17324239  0.17058329  0.54441274  1
  F  F14  1  0.17324448  0.82942850  0.54441418  1
  F  F15  1  0.16277687  0.50000728  0.28632830  1
  F  F16  1  0.31073884  0.49999767  0.75792304  1
  F  F17  1  0.31704727  0.83032858  0.05308330  1
  F  F18  1  0.31705926  0.16965082  0.05310770  1
  F  F19  1  0.38386734  0.00001203  0.84980629  1
  F  F20  1  0.55537608  0.49999673  0.49914788  1
  F  F21  1  0.60597185  0.99997035  0.15943516  1
  F  F22  1  0.67246898  0.82959758  0.95543032  1
  F  F23  1  0.67246532  0.17041673  0.95544049  1
  F  F24  1  0.66362285  0.49999876  0.21410377  1
  F  F25  1  0.80977369  0.49999673  0.74304543  1
  F  F26  1  0.81804808  0.16963542  0.44623929  1
  F  F27  1  0.81805348  0.83037009  0.44623667  1
  F  F28  1  0.88451809  -0.00000045  0.64985378  1
  F  F29  1  0.05584150  0.50000344  0.00117290  1
