# generated using pymatgen
data_YPaO4
_symmetry_space_group_name_H-M   'P 1'
_cell_length_a   7.64167931
_cell_length_b   10.10330559
_cell_length_c   6.60920121
_cell_angle_alpha   29.21552681
_cell_angle_beta   54.68233964
_cell_angle_gamma   40.85615250
_symmetry_Int_Tables_number   1
_chemical_formula_structural   YPaO4
_chemical_formula_sum   'Y2 Pa2 O8'
_cell_volume   157.45815791
_cell_formula_units_Z   2
loop_
 _symmetry_equiv_pos_site_id
 _symmetry_equiv_pos_as_xyz
  1  'x, y, z'
loop_
 _atom_site_type_symbol
 _atom_site_label
 _atom_site_symmetry_multiplicity
 _atom_site_fract_x
 _atom_site_fract_y
 _atom_site_fract_z
 _atom_site_occupancy
  Y  Y0  1  -0.00000000  0.00000000  -0.00000000  1
  Y  Y1  1  0.75000000  0.50000000  -0.00000000  1
  Pa  Pa2  1  0.50000000  0.00000000  -0.00000000  1
  Pa  Pa3  1  0.25000000  0.50000000  -0.00000000  1
  O  O4  1  0.13621183  0.98878817  0.26121183  1
  O  O5  1  0.61378817  0.01121183  0.23878817  1
  O  O6  1  0.37500000  0.01121183  0.73878817  1
  O  O7  1  0.37500000  0.48878817  0.26121183  1
  O  O8  1  0.13621183  0.48878817  0.76121183  1
  O  O9  1  0.87500000  0.98878817  0.76121183  1
  O  O10  1  0.87500000  0.51121183  0.23878817  1
  O  O11  1  0.61378817  0.51121183  0.73878817  1
