# generated using pymatgen
data_TmCoGe
_symmetry_space_group_name_H-M   'P 1'
_cell_length_a   4.19021087
_cell_length_b   6.77676896
_cell_length_c   7.19831122
_cell_angle_alpha   90.00000000
_cell_angle_beta   90.00000000
_cell_angle_gamma   90.00000000
_symmetry_Int_Tables_number   1
_chemical_formula_structural   TmCoGe
_chemical_formula_sum   'Tm4 Co4 Ge4'
_cell_volume   204.40390016
_cell_formula_units_Z   4
loop_
 _symmetry_equiv_pos_site_id
 _symmetry_equiv_pos_as_xyz
  1  'x, y, z'
loop_
 _atom_site_type_symbol
 _atom_site_label
 _atom_site_symmetry_multiplicity
 _atom_site_fract_x
 _atom_site_fract_y
 _atom_site_fract_z
 _atom_site_occupancy
  Tm  Tm0  1  0.75000000  0.49353211  0.69780746  1
  Tm  Tm1  1  0.75000000  0.99353211  0.80219254  1
  Tm  Tm2  1  0.25000000  0.50646789  0.30219254  1
  Tm  Tm3  1  0.25000000  0.00646789  0.19780746  1
  Co  Co4  1  0.75000000  0.65893739  0.06869758  1
  Co  Co5  1  0.75000000  0.15893739  0.43130242  1
  Co  Co6  1  0.25000000  0.34106261  0.93130242  1
  Co  Co7  1  0.25000000  0.84106261  0.56869758  1
  Ge  Ge8  1  0.75000000  0.29655386  0.10066098  1
  Ge  Ge9  1  0.75000000  0.79655386  0.39933902  1
  Ge  Ge10  1  0.25000000  0.70344614  0.89933902  1
  Ge  Ge11  1  0.25000000  0.20344614  0.60066098  1
