# generated using pymatgen
data_Ba4Pd
_symmetry_space_group_name_H-M   'P 1'
_cell_length_a   9.47855021
_cell_length_b   9.47855021
_cell_length_c   9.47855021
_cell_angle_alpha   60.00000000
_cell_angle_beta   60.00000000
_cell_angle_gamma   60.00000000
_symmetry_Int_Tables_number   1
_chemical_formula_structural   Ba4Pd
_chemical_formula_sum   'Ba8 Pd2'
_cell_volume   602.15839748
_cell_formula_units_Z   2
loop_
 _symmetry_equiv_pos_site_id
 _symmetry_equiv_pos_as_xyz
  1  'x, y, z'
loop_
 _atom_site_type_symbol
 _atom_site_label
 _atom_site_symmetry_multiplicity
 _atom_site_fract_x
 _atom_site_fract_y
 _atom_site_fract_z
 _atom_site_occupancy
  Ba  Ba0  1  0.62145687  0.62145687  0.62145687  1
  Ba  Ba1  1  0.13562939  0.62145687  0.62145687  1
  Ba  Ba2  1  0.62145687  0.13562939  0.62145687  1
  Ba  Ba3  1  0.61437061  0.12854313  0.12854313  1
  Ba  Ba4  1  0.12854313  0.12854313  0.12854313  1
  Ba  Ba5  1  0.62145687  0.62145687  0.13562939  1
  Ba  Ba6  1  0.12854313  0.61437061  0.12854313  1
  Ba  Ba7  1  0.12854313  0.12854313  0.61437061  1
  Pd  Pd8  1  0.00000000  0.00000000  0.00000000  1
  Pd  Pd9  1  0.75000000  0.75000000  0.75000000  1
