# generated using pymatgen
data_Rb2FeO4
_symmetry_space_group_name_H-M   'P 1'
_cell_length_a   8.13396622
_cell_length_b   6.13298759
_cell_length_c   10.84848486
_cell_angle_alpha   90.00000000
_cell_angle_beta   90.00000000
_cell_angle_gamma   90.00000000
_symmetry_Int_Tables_number   1
_chemical_formula_structural   Rb2FeO4
_chemical_formula_sum   'Rb8 Fe4 O16'
_cell_volume   541.18224211
_cell_formula_units_Z   4
loop_
 _symmetry_equiv_pos_site_id
 _symmetry_equiv_pos_as_xyz
  1  'x, y, z'
loop_
 _atom_site_type_symbol
 _atom_site_label
 _atom_site_symmetry_multiplicity
 _atom_site_fract_x
 _atom_site_fract_y
 _atom_site_fract_z
 _atom_site_occupancy
  Rb  Rb0  1  0.01325368  0.75000000  0.19483538  1
  Rb  Rb1  1  0.16621089  0.25000000  0.41184308  1
  Rb  Rb2  1  0.33378911  0.75000000  0.91184308  1
  Rb  Rb3  1  0.48674632  0.25000000  0.69483538  1
  Rb  Rb4  1  0.51325368  0.75000000  0.30516462  1
  Rb  Rb5  1  0.66621089  0.25000000  0.08815692  1
  Rb  Rb6  1  0.83378911  0.75000000  0.58815692  1
  Rb  Rb7  1  0.98674632  0.25000000  0.80516462  1
  Fe  Fe8  1  0.23267153  0.25000000  0.07925778  1
  Fe  Fe9  1  0.26732847  0.75000000  0.57925778  1
  Fe  Fe10  1  0.73267153  0.25000000  0.42074222  1
  Fe  Fe11  1  0.76732847  0.75000000  0.92074222  1
  O  O12  1  0.02895036  0.25000000  0.08497294  1
  O  O13  1  0.19391236  0.52826919  0.64850322  1
  O  O14  1  0.19391236  0.97173081  0.64850322  1
  O  O15  1  0.20299311  0.75000000  0.43289209  1
  O  O16  1  0.29700689  0.25000000  0.93289209  1
  O  O17  1  0.30608764  0.02826919  0.14850322  1
  O  O18  1  0.30608764  0.47173081  0.14850322  1
  O  O19  1  0.47104964  0.75000000  0.58497294  1
  O  O20  1  0.52895036  0.25000000  0.41502706  1
  O  O21  1  0.69391236  0.52826919  0.85149678  1
  O  O22  1  0.69391236  0.97173081  0.85149678  1
  O  O23  1  0.70299311  0.75000000  0.06710791  1
  O  O24  1  0.79700689  0.25000000  0.56710791  1
  O  O25  1  0.80608764  0.02826919  0.35149678  1
  O  O26  1  0.80608764  0.47173081  0.35149678  1
  O  O27  1  0.97104964  0.75000000  0.91502706  1
