# generated using pymatgen
data_NaMnPO4
_symmetry_space_group_name_H-M   'P 1'
_cell_length_a   6.40786279
_cell_length_b   10.64574134
_cell_length_c   5.06494153
_cell_angle_alpha   90.00033911
_cell_angle_beta   90.00000000
_cell_angle_gamma   90.00000000
_symmetry_Int_Tables_number   1
_chemical_formula_structural   NaMnPO4
_chemical_formula_sum   'Na4 Mn4 P4 O16'
_cell_volume   345.51232964
_cell_formula_units_Z   4
loop_
 _symmetry_equiv_pos_site_id
 _symmetry_equiv_pos_as_xyz
  1  'x, y, z'
loop_
 _atom_site_type_symbol
 _atom_site_label
 _atom_site_symmetry_multiplicity
 _atom_site_fract_x
 _atom_site_fract_y
 _atom_site_fract_z
 _atom_site_occupancy
  Na  Na0  1  0.99999456  0.00000108  0.00000744  1
  Na  Na1  1  0.99999780  0.50000068  0.49999749  1
  Na  Na2  1  0.50000544  0.00000108  0.00000744  1
  Na  Na3  1  0.50000220  0.50000068  0.49999749  1
  Mn  Mn4  1  0.25000000  0.28302539  0.98381378  1
  Mn  Mn5  1  0.25000000  0.78302805  0.51612948  1
  Mn  Mn6  1  0.75000000  0.21695359  0.48382649  1
  Mn  Mn7  1  0.75000000  0.71697064  0.01615157  1
  P  P8  1  0.25000000  0.10408973  0.42991102  1
  P  P9  1  0.25000000  0.60408475  0.07009368  1
  P  P10  1  0.75000000  0.39591129  0.92990968  1
  P  P11  1  0.75000000  0.89590715  0.57009491  1
  O  O12  1  0.05706739  0.17191365  0.30017061  1
  O  O13  1  0.05707068  0.67191080  0.19983693  1
  O  O14  1  0.25000000  0.46488682  0.16559704  1
  O  O15  1  0.25000000  0.96488926  0.33440889  1
  O  O16  1  0.25000000  0.11265400  0.73408674  1
  O  O17  1  0.25000000  0.61265254  0.76592343  1
  O  O18  1  0.44293261  0.17191365  0.30017061  1
  O  O19  1  0.44292932  0.67191080  0.19983693  1
  O  O20  1  0.55706819  0.82808972  0.69983391  1
  O  O21  1  0.55707071  0.32809191  0.80016998  1
  O  O22  1  0.75000000  0.03511422  0.66559484  1
  O  O23  1  0.75000000  0.38734998  0.23409231  1
  O  O24  1  0.75000000  0.53511844  0.83441877  1
  O  O25  1  0.75000000  0.88734846  0.26591868  1
  O  O26  1  0.94292929  0.32809191  0.80016998  1
  O  O27  1  0.94293181  0.82808972  0.69983391  1
