# generated using pymatgen
data_YbBiO3
_symmetry_space_group_name_H-M   'P 1'
_cell_length_a   6.12568540
_cell_length_b   6.12568540
_cell_length_c   6.12568552
_cell_angle_alpha   56.93501266
_cell_angle_beta   56.93501266
_cell_angle_gamma   56.93500919
_symmetry_Int_Tables_number   1
_chemical_formula_structural   YbBiO3
_chemical_formula_sum   'Yb2 Bi2 O6'
_cell_volume   151.04546647
_cell_formula_units_Z   2
loop_
 _symmetry_equiv_pos_site_id
 _symmetry_equiv_pos_as_xyz
  1  'x, y, z'
loop_
 _atom_site_type_symbol
 _atom_site_label
 _atom_site_symmetry_multiplicity
 _atom_site_fract_x
 _atom_site_fract_y
 _atom_site_fract_z
 _atom_site_occupancy
  Yb  Yb0  1  0.22643573  0.22643573  0.22643573  1
  Yb  Yb1  1  0.72643573  0.72643573  0.72643573  1
  Bi  Bi2  1  0.01200557  0.01200557  0.01200557  1
  Bi  Bi3  1  0.51200557  0.51200557  0.51200557  1
  O  O4  1  0.13822755  0.80840990  0.39333225  1
  O  O5  1  0.63822755  0.89333225  0.30840990  1
  O  O6  1  0.30840990  0.63822755  0.89333225  1
  O  O7  1  0.39333225  0.13822755  0.80840990  1
  O  O8  1  0.80840990  0.39333225  0.13822755  1
  O  O9  1  0.89333225  0.30840990  0.63822755  1
