# generated using pymatgen
data_Li2CoO3
_symmetry_space_group_name_H-M   'P 1'
_cell_length_a   9.69694829
_cell_length_b   8.20410637
_cell_length_c   3.29048104
_cell_angle_alpha   90.00000000
_cell_angle_beta   90.00000000
_cell_angle_gamma   90.00000000
_symmetry_Int_Tables_number   1
_chemical_formula_structural   Li2CoO3
_chemical_formula_sum   'Li8 Co4 O12'
_cell_volume   261.77354536
_cell_formula_units_Z   4
loop_
 _symmetry_equiv_pos_site_id
 _symmetry_equiv_pos_as_xyz
  1  'x, y, z'
loop_
 _atom_site_type_symbol
 _atom_site_label
 _atom_site_symmetry_multiplicity
 _atom_site_fract_x
 _atom_site_fract_y
 _atom_site_fract_z
 _atom_site_occupancy
  Li  Li0  1  0.11003058  0.40775934  0.50000000  1
  Li  Li1  1  0.20417240  0.14436996  0.00000000  1
  Li  Li2  1  0.29582760  0.64436996  0.50000000  1
  Li  Li3  1  0.38996942  0.90775934  0.00000000  1
  Li  Li4  1  0.61003058  0.09224066  0.00000000  1
  Li  Li5  1  0.70417240  0.35563004  0.50000000  1
  Li  Li6  1  0.79582760  0.85563004  0.00000000  1
  Li  Li7  1  0.88996942  0.59224066  0.50000000  1
  Co  Co8  1  0.09864075  0.86783971  0.50000000  1
  Co  Co9  1  0.40135925  0.36783971  0.00000000  1
  Co  Co10  1  0.59864075  0.63216029  0.00000000  1
  Co  Co11  1  0.90135925  0.13216029  0.50000000  1
  O  O12  1  0.09052760  0.09827602  0.50000000  1
  O  O13  1  0.08520427  0.65916875  0.50000000  1
  O  O14  1  0.22311125  0.38207420  0.00000000  1
  O  O15  1  0.27688875  0.88207420  0.50000000  1
  O  O16  1  0.41479573  0.15916875  0.00000000  1
  O  O17  1  0.40947240  0.59827602  0.00000000  1
  O  O18  1  0.59052760  0.40172398  0.00000000  1
  O  O19  1  0.58520427  0.84083125  0.00000000  1
  O  O20  1  0.72311125  0.11792580  0.50000000  1
  O  O21  1  0.77688875  0.61792580  0.00000000  1
  O  O22  1  0.91479573  0.34083125  0.50000000  1
  O  O23  1  0.90947240  0.90172398  0.50000000  1
