# generated using pymatgen
data_Rb4FeO4
_symmetry_space_group_name_H-M   'P 1'
_cell_length_a   11.22330752
_cell_length_b   6.86861759
_cell_length_c   10.88933374
_cell_angle_alpha   90.00000000
_cell_angle_beta   110.41508723
_cell_angle_gamma   90.00000000
_symmetry_Int_Tables_number   1
_chemical_formula_structural   Rb4FeO4
_chemical_formula_sum   'Rb16 Fe4 O16'
_cell_volume   786.71826563
_cell_formula_units_Z   4
loop_
 _symmetry_equiv_pos_site_id
 _symmetry_equiv_pos_as_xyz
  1  'x, y, z'
loop_
 _atom_site_type_symbol
 _atom_site_label
 _atom_site_symmetry_multiplicity
 _atom_site_fract_x
 _atom_site_fract_y
 _atom_site_fract_z
 _atom_site_occupancy
  Rb  Rb0  1  0.08784774  0.31305932  0.71421820  1
  Rb  Rb1  1  0.12252985  0.81963404  0.60250159  1
  Rb  Rb2  1  0.34200595  0.61708527  0.92628194  1
  Rb  Rb3  1  0.08784774  0.18694068  0.21421820  1
  Rb  Rb4  1  0.12252985  0.68036596  0.10250159  1
  Rb  Rb5  1  0.43522194  0.08382729  0.79549233  1
  Rb  Rb6  1  0.34200595  0.88291473  0.42628194  1
  Rb  Rb7  1  0.56477806  0.58382729  0.70450767  1
  Rb  Rb8  1  0.43522194  0.41617271  0.29549233  1
  Rb  Rb9  1  0.65799405  0.11708527  0.57371806  1
  Rb  Rb10  1  0.56477806  0.91617271  0.20450767  1
  Rb  Rb11  1  0.87747015  0.31963404  0.89749841  1
  Rb  Rb12  1  0.91215226  0.81305932  0.78578180  1
  Rb  Rb13  1  0.65799405  0.38291473  0.07371806  1
  Rb  Rb14  1  0.87747015  0.18036596  0.39749841  1
  Rb  Rb15  1  0.91215226  0.68694068  0.28578180  1
  Fe  Fe16  1  0.26075091  0.37588894  0.51316106  1
  Fe  Fe17  1  0.26075091  0.12411106  0.01316106  1
  Fe  Fe18  1  0.73924909  0.87588894  0.98683894  1
  Fe  Fe19  1  0.73924909  0.62411106  0.48683894  1
  O  O20  1  0.17617242  0.96159057  0.87345093  1
  O  O21  1  0.15379657  0.16257454  0.48890920  1
  O  O22  1  0.29853695  0.52778314  0.66167458  1
  O  O23  1  0.17617242  0.53840943  0.37345093  1
  O  O24  1  0.15379657  0.33742546  0.98890920  1
  O  O25  1  0.41459244  0.26206911  0.53582327  1
  O  O26  1  0.58540756  0.76206911  0.96417673  1
  O  O27  1  0.29853695  0.97221686  0.16167458  1
  O  O28  1  0.70146305  0.02778314  0.83832542  1
  O  O29  1  0.41459244  0.23793089  0.03582327  1
  O  O30  1  0.58540756  0.73793089  0.46417673  1
  O  O31  1  0.84620343  0.66257454  0.01109080  1
  O  O32  1  0.82382758  0.46159057  0.62654907  1
  O  O33  1  0.70146305  0.47221686  0.33832542  1
  O  O34  1  0.84620343  0.83742546  0.51109080  1
  O  O35  1  0.82382758  0.03840943  0.12654907  1
