# generated using pymatgen
data_Na6Te2H28RuO30
_symmetry_space_group_name_H-M   'P 1'
_cell_length_a   7.00459152
_cell_length_b   9.06482272
_cell_length_c   11.74034473
_cell_angle_alpha   72.65674171
_cell_angle_beta   80.75976516
_cell_angle_gamma   90.39173657
_symmetry_Int_Tables_number   1
_chemical_formula_structural   Na6Te2H28RuO30
_chemical_formula_sum   'Na6 Te2 H28 Ru1 O30'
_cell_volume   701.14784236
_cell_formula_units_Z   1
loop_
 _symmetry_equiv_pos_site_id
 _symmetry_equiv_pos_as_xyz
  1  'x, y, z'
loop_
 _atom_site_type_symbol
 _atom_site_label
 _atom_site_symmetry_multiplicity
 _atom_site_fract_x
 _atom_site_fract_y
 _atom_site_fract_z
 _atom_site_occupancy
  Na  Na0  1  0.31782777  0.96438638  0.22674149  1
  Na  Na1  1  0.37161478  0.36016651  0.14967795  1
  Na  Na2  1  0.36507915  0.65871375  0.38462495  1
  Na  Na3  1  0.63492085  0.34128625  0.61537505  1
  Na  Na4  1  0.62838522  0.63983349  0.85032205  1
  Na  Na5  1  0.68217223  0.03561362  0.77325851  1
  Te  Te6  1  0.15627101  0.84506874  0.79598317  1
  Te  Te7  1  0.84372899  0.15493126  0.20401683  1
  H  H8  1  0.00439868  0.47240203  0.18243094  1
  H  H9  1  0.10865770  0.62889434  0.09048741  1
  H  H10  1  0.04043734  0.23367355  0.52626224  1
  H  H11  1  0.08981331  0.16348799  0.33746176  1
  H  H12  1  0.08848991  0.65018539  0.26328063  1
  H  H13  1  0.00213742  0.19518336  0.72681589  1
  H  H14  1  0.16984421  0.09282219  0.53427329  1
  H  H15  1  0.18884063  0.32444426  0.98592445  1
  H  H16  1  0.34286359  0.89174466  0.50582864  1
  H  H17  1  0.26386116  0.49347402  0.90234730  1
  H  H18  1  0.32508130  0.16700049  0.80275161  1
  H  H19  1  0.52692973  0.94726890  0.40086496  1
  H  H20  1  0.58856304  0.71349882  0.14267420  1
  H  H21  1  0.61518006  0.12282379  0.06886418  1
  H  H22  1  0.38481994  0.87717621  0.93113582  1
  H  H23  1  0.41143696  0.28650118  0.85732580  1
  H  H24  1  0.47307027  0.05273110  0.59913504  1
  H  H25  1  0.67491870  0.83299951  0.19724839  1
  H  H26  1  0.73613884  0.50652598  0.09765270  1
  H  H27  1  0.65713641  0.10825534  0.49417136  1
  H  H28  1  0.81115937  0.67555574  0.01407555  1
  H  H29  1  0.83015579  0.90717781  0.46572671  1
  H  H30  1  0.99786258  0.80481664  0.27318411  1
  H  H31  1  0.91151009  0.34981461  0.73671937  1
  H  H32  1  0.91018669  0.83651201  0.66253824  1
  H  H33  1  0.95956266  0.76632645  0.47373776  1
  H  H34  1  0.89134230  0.37110566  0.90951259  1
  H  H35  1  0.99560132  0.52759797  0.81756906  1
  Ru  Ru36  1  -0.00000000  0.00000000  -0.00000000  1
  O  O37  1  0.10811374  0.16180781  0.25101583  1
  O  O38  1  0.12260542  0.54669182  0.16621524  1
  O  O39  1  0.08149344  0.72301187  0.31408908  1
  O  O40  1  0.12623368  0.18528461  0.47518131  1
  O  O41  1  0.23650272  0.98724241  0.03446428  1
  O  O42  1  0.02262109  0.78821770  0.97020431  1
  O  O43  1  0.11372037  0.05593304  0.81989871  1
  O  O44  1  0.36165900  0.53646927  0.60117107  1
  O  O45  1  0.18938317  0.63570848  0.80476886  1
  O  O46  1  0.27277360  0.94167894  0.63404452  1
  O  O47  1  0.52569682  0.40122614  0.35276424  1
  O  O48  1  0.40033228  0.88304805  0.42463483  1
  O  O49  1  0.31077081  0.39351259  0.95384880  1
  O  O50  1  0.58457423  0.15063732  0.14467378  1
  O  O51  1  0.55381121  0.77035328  0.20310644  1
  O  O52  1  0.44618879  0.22964672  0.79689356  1
  O  O53  1  0.41542577  0.84936268  0.85532622  1
  O  O54  1  0.68922919  0.60648741  0.04615120  1
  O  O55  1  0.59966772  0.11695195  0.57536517  1
  O  O56  1  0.47430318  0.59877386  0.64723576  1
  O  O57  1  0.72722640  0.05832106  0.36595548  1
  O  O58  1  0.81061683  0.36429152  0.19523114  1
  O  O59  1  0.63834100  0.46353073  0.39882893  1
  O  O60  1  0.88627963  0.94406696  0.18010129  1
  O  O61  1  0.97737891  0.21178230  0.02979569  1
  O  O62  1  0.76349728  0.01275759  0.96553572  1
  O  O63  1  0.87376632  0.81471539  0.52481869  1
  O  O64  1  0.91850656  0.27698813  0.68591092  1
  O  O65  1  0.87739458  0.45330818  0.83378476  1
  O  O66  1  0.89188626  0.83819219  0.74898417  1
