# generated using pymatgen
data_Sr9(NiO3)7
_symmetry_space_group_name_H-M   'P 1'
_cell_length_a   9.53091375
_cell_length_b   13.23519197
_cell_length_c   9.53091374
_cell_angle_alpha   111.10385278
_cell_angle_beta   59.99999995
_cell_angle_gamma   111.10385145
_symmetry_Int_Tables_number   1
_chemical_formula_structural   Sr9(NiO3)7
_chemical_formula_sum   'Sr18 Ni14 O42'
_cell_volume   946.93509751
_cell_formula_units_Z   2
loop_
 _symmetry_equiv_pos_site_id
 _symmetry_equiv_pos_as_xyz
  1  'x, y, z'
loop_
 _atom_site_type_symbol
 _atom_site_label
 _atom_site_symmetry_multiplicity
 _atom_site_fract_x
 _atom_site_fract_y
 _atom_site_fract_z
 _atom_site_occupancy
  Sr  Sr0  1  0.00518731  0.08641479  0.36409443  1
  Sr  Sr1  1  0.25000000  0.75000000  0.58123450  1
  Sr  Sr2  1  0.13590557  0.41358521  0.49481269  1
  Sr  Sr3  1  0.50518731  0.58641479  0.21713305  1
  Sr  Sr4  1  0.63590557  0.91358521  0.28286695  1
  Sr  Sr5  1  0.08123450  0.25000000  0.75000000  1
  Sr  Sr6  1  0.28286695  0.91358521  0.99481269  1
  Sr  Sr7  1  0.41876550  0.25000000  0.08123450  1
  Sr  Sr8  1  0.21713305  0.58641479  0.86409443  1
  Sr  Sr9  1  0.78286695  0.41358521  0.13590557  1
  Sr  Sr10  1  0.58123450  0.75000000  0.91876550  1
  Sr  Sr11  1  0.71713305  0.08641479  0.00518731  1
  Sr  Sr12  1  0.91876550  0.75000000  0.25000000  1
  Sr  Sr13  1  0.49481269  0.41358521  0.78286695  1
  Sr  Sr14  1  0.36409443  0.08641479  0.71713305  1
  Sr  Sr15  1  0.86409443  0.58641479  0.50518731  1
  Sr  Sr16  1  0.75000000  0.25000000  0.41876550  1
  Sr  Sr17  1  0.99481269  0.91358521  0.63590557  1
  Ni  Ni18  1  0.00000000  -0.00000000  -0.00000000  1
  Ni  Ni19  1  0.06843787  0.20531460  0.06843787  1
  Ni  Ni20  1  0.21536922  0.64610766  0.21536922  1
  Ni  Ni21  1  0.28463078  0.85389234  0.28463078  1
  Ni  Ni22  1  0.14300803  0.42902310  0.14300803  1
  Ni  Ni23  1  0.35699197  0.07097690  0.35699197  1
  Ni  Ni24  1  0.43156213  0.29468540  0.43156213  1
  Ni  Ni25  1  0.56843787  0.70531460  0.56843787  1
  Ni  Ni26  1  0.64300803  0.92902310  0.64300803  1
  Ni  Ni27  1  0.50000000  0.50000000  0.50000000  1
  Ni  Ni28  1  0.78463078  0.35389234  0.78463078  1
  Ni  Ni29  1  0.85699197  0.57097690  0.85699197  1
  Ni  Ni30  1  0.93156213  0.79468540  0.93156213  1
  Ni  Ni31  1  0.71536922  0.14610766  0.71536922  1
  O  O32  1  0.15350205  0.94649350  0.32223217  1
  O  O33  1  0.02924072  0.55350650  0.17776783  1
  O  O34  1  0.09997081  0.75000000  0.40002919  1
  O  O35  1  0.25000000  0.75000000  0.09997081  1
  O  O36  1  0.47075928  0.94649350  0.15350205  1
  O  O37  1  0.17776783  0.55350650  0.34649795  1
  O  O38  1  0.09047503  0.29391896  0.25648381  1
  O  O39  1  0.12670837  0.90291000  0.81983592  1
  O  O40  1  0.34649795  0.55350650  0.02924072  1
  O  O41  1  0.32223217  0.94649350  0.47075928  1
  O  O42  1  0.05303989  0.70608104  0.90952497  1
  O  O43  1  0.18016408  0.09709000  0.04363529  1
  O  O44  1  0.40002919  0.75000000  0.25000000  1
  O  O45  1  0.37329163  0.59709000  0.54363529  1
  O  O46  1  0.24351619  0.20608104  0.40952497  1
  O  O47  1  0.45636471  0.40291000  0.31983592  1
  O  O48  1  0.59047503  0.79391896  0.44696011  1
  O  O49  1  0.74351619  0.70608104  0.05303989  1
  O  O50  1  0.44696011  0.79391896  0.75648381  1
  O  O51  1  0.04363529  0.09709000  0.87329163  1
  O  O52  1  0.31983592  0.40291000  0.62670837  1
  O  O53  1  0.68016408  0.59709000  0.37329163  1
  O  O54  1  0.95636471  0.90291000  0.12670837  1
  O  O55  1  0.55303989  0.20608104  0.24351619  1
  O  O56  1  0.25648381  0.29391896  0.94696011  1
  O  O57  1  0.40952497  0.20608104  0.55303989  1
  O  O58  1  0.54363529  0.59709000  0.68016408  1
  O  O59  1  0.75648381  0.79391896  0.59047503  1
  O  O60  1  0.62670837  0.40291000  0.45636471  1
  O  O61  1  0.59997081  0.25000000  0.75000000  1
  O  O62  1  0.81983592  0.90291000  0.95636471  1
  O  O63  1  0.94696011  0.29391896  0.09047503  1
  O  O64  1  0.65350205  0.44649350  0.97075928  1
  O  O65  1  0.67776783  0.05350650  0.52924072  1
  O  O66  1  0.87329163  0.09709000  0.18016408  1
  O  O67  1  0.90952497  0.70608104  0.74351619  1
  O  O68  1  0.82223217  0.44649350  0.65350205  1
  O  O69  1  0.52924072  0.05350650  0.84649795  1
  O  O70  1  0.90002919  0.25000000  0.59997081  1
  O  O71  1  0.75000000  0.25000000  0.90002919  1
  O  O72  1  0.84649795  0.05350650  0.67776783  1
  O  O73  1  0.97075928  0.44649350  0.82223217  1
