# generated using pymatgen
data_GdAlNi
_symmetry_space_group_name_H-M   'P 1'
_cell_length_a   3.83951080
_cell_length_b   7.09607051
_cell_length_c   7.09501807
_cell_angle_alpha   120.00491356
_cell_angle_beta   90.00000000
_cell_angle_gamma   90.00000000
_symmetry_Int_Tables_number   1
_chemical_formula_structural   GdAlNi
_chemical_formula_sum   'Gd3 Al3 Ni3'
_cell_volume   167.40038333
_cell_formula_units_Z   3
loop_
 _symmetry_equiv_pos_site_id
 _symmetry_equiv_pos_as_xyz
  1  'x, y, z'
loop_
 _atom_site_type_symbol
 _atom_site_label
 _atom_site_symmetry_multiplicity
 _atom_site_fract_x
 _atom_site_fract_y
 _atom_site_fract_z
 _atom_site_occupancy
  Gd  Gd0  1  0.50000000  0.58056343  0.00000000  1
  Gd  Gd1  1  0.50000000  0.41928369  0.41902534  1
  Gd  Gd2  1  0.50000000  0.00025836  0.58097466  1
  Al  Al3  1  0.00000000  0.23228473  1.00000000  1
  Al  Al4  1  0.00000000  0.76743571  0.76733457  1
  Al  Al5  1  0.00000000  0.00010115  0.23266543  1
  Ni  Ni6  1  0.50000000  0.00069285  0.00000000  1
  Ni  Ni7  1  0.00000000  0.33208994  0.66489979  1
  Ni  Ni8  1  0.00000000  0.66719015  0.33510021  1
