# generated using pymatgen
data_Ti2S3
_symmetry_space_group_name_H-M   'P 1'
_cell_length_a   6.05528318
_cell_length_b   18.16847333
_cell_length_c   11.60470818
_cell_angle_alpha   16.43774147
_cell_angle_beta   28.94904892
_cell_angle_gamma   32.91162443
_symmetry_Int_Tables_number   1
_chemical_formula_structural   Ti2S3
_chemical_formula_sum   'Ti4 S6'
_cell_volume   174.86616126
_cell_formula_units_Z   2
loop_
 _symmetry_equiv_pos_site_id
 _symmetry_equiv_pos_as_xyz
  1  'x, y, z'
loop_
 _atom_site_type_symbol
 _atom_site_label
 _atom_site_symmetry_multiplicity
 _atom_site_fract_x
 _atom_site_fract_y
 _atom_site_fract_z
 _atom_site_occupancy
  Ti  Ti0  1  0.00228385  0.01227653  0.98053963  1
  Ti  Ti1  1  0.99771596  0.32105664  0.01945774  1
  Ti  Ti2  1  0.99999381  0.66665100  0.00002786  1
  Ti  Ti3  1  0.50000236  0.66669383  0.49995905  1
  S  S4  1  0.24596270  0.00357323  0.24313668  1
  S  S5  1  0.24463139  0.33049315  0.25304817  1
  S  S6  1  0.25604277  0.66684599  0.24824347  1
  S  S7  1  0.75402216  0.32975228  0.75687131  1
  S  S8  1  0.74397485  0.66648455  0.75175321  1
  S  S9  1  0.75537014  0.00283981  0.74696288  1
