# generated using pymatgen
data_BaErCuSe3
_symmetry_space_group_name_H-M   'P 1'
_cell_length_a   4.15413467
_cell_length_b   7.33970398
_cell_length_c   10.57862355
_cell_angle_alpha   90.00000000
_cell_angle_beta   90.00000000
_cell_angle_gamma   106.43877524
_symmetry_Int_Tables_number   1
_chemical_formula_structural   BaErCuSe3
_chemical_formula_sum   'Ba2 Er2 Cu2 Se6'
_cell_volume   309.35877457
_cell_formula_units_Z   2
loop_
 _symmetry_equiv_pos_site_id
 _symmetry_equiv_pos_as_xyz
  1  'x, y, z'
loop_
 _atom_site_type_symbol
 _atom_site_label
 _atom_site_symmetry_multiplicity
 _atom_site_fract_x
 _atom_site_fract_y
 _atom_site_fract_z
 _atom_site_occupancy
  Ba  Ba0  1  0.74742567  0.49485134  0.25000000  1
  Ba  Ba1  1  0.25257433  0.50514866  0.75000000  1
  Er  Er2  1  -0.00000000  0.00000000  0.50000000  1
  Er  Er3  1  -0.00000000  -0.00000000  0.00000000  1
  Cu  Cu4  1  0.46669378  0.93338756  0.25000000  1
  Cu  Cu5  1  0.53330622  0.06661244  0.75000000  1
  Se  Se6  1  0.36646686  0.73293372  0.44104701  1
  Se  Se7  1  0.63353314  0.26706628  0.55895299  1
  Se  Se8  1  0.36646686  0.73293372  0.05895299  1
  Se  Se9  1  0.63353314  0.26706628  0.94104701  1
  Se  Se10  1  0.06829569  0.13659138  0.25000000  1
  Se  Se11  1  0.93170431  0.86340862  0.75000000  1
