# generated using pymatgen
data_Li4FeO3F
_symmetry_space_group_name_H-M   'P 1'
_cell_length_a   5.64112906
_cell_length_b   6.25795684
_cell_length_c   5.63412245
_cell_angle_alpha   90.58380907
_cell_angle_beta   88.67569362
_cell_angle_gamma   90.42294181
_symmetry_Int_Tables_number   1
_chemical_formula_structural   Li4FeO3F
_chemical_formula_sum   'Li8 Fe2 O6 F2'
_cell_volume   198.82693632
_cell_formula_units_Z   2
loop_
 _symmetry_equiv_pos_site_id
 _symmetry_equiv_pos_as_xyz
  1  'x, y, z'
loop_
 _atom_site_type_symbol
 _atom_site_label
 _atom_site_symmetry_multiplicity
 _atom_site_fract_x
 _atom_site_fract_y
 _atom_site_fract_z
 _atom_site_occupancy
  Li  Li0  1  0.96852325  0.30482490  0.87926528  1
  Li  Li1  1  0.17216456  0.49935637  0.19904844  1
  Li  Li2  1  0.17556875  -0.00027509  0.19495877  1
  Li  Li3  1  0.35600966  0.21642700  0.70084474  1
  Li  Li4  1  0.60660790  0.48583465  0.88032369  1
  Li  Li5  1  0.67877960  0.71433367  0.38147886  1
  Li  Li6  1  0.85526309  0.98569845  0.63285240  1
  Li  Li7  1  0.85737843  0.80204267  0.99334623  1
  Fe  Fe8  1  0.31743356  0.75056606  0.72340726  1
  Fe  Fe9  1  0.70045781  0.24807507  0.34093834  1
  O  O10  1  0.14016967  0.98584313  0.83542852  1
  O  O11  1  0.25128773  0.48501263  0.85765826  1
  O  O12  1  0.64639838  0.76139869  0.73186960  1
  O  O13  1  0.70600451  0.26153595  0.66996990  1
  O  O14  1  0.83557877  0.98243513  0.27705218  1
  O  O15  1  0.81244722  0.48374551  0.16400047  1
  F  F16  1  0.33520364  0.24370729  0.33056031  1
  F  F17  1  0.30922847  0.74381892  0.35776677  1
