# generated using pymatgen
data_YFeCo3B
_symmetry_space_group_name_H-M   'P 1'
_cell_length_a   5.03102672
_cell_length_b   5.03469151
_cell_length_c   6.82510701
_cell_angle_alpha   90.00000000
_cell_angle_beta   90.00000000
_cell_angle_gamma   119.97591861
_symmetry_Int_Tables_number   1
_chemical_formula_structural   YFeCo3B
_chemical_formula_sum   'Y2 Fe2 Co6 B2'
_cell_volume   149.75278939
_cell_formula_units_Z   2
loop_
 _symmetry_equiv_pos_site_id
 _symmetry_equiv_pos_as_xyz
  1  'x, y, z'
loop_
 _atom_site_type_symbol
 _atom_site_label
 _atom_site_symmetry_multiplicity
 _atom_site_fract_x
 _atom_site_fract_y
 _atom_site_fract_z
 _atom_site_occupancy
  Y  Y0  1  -0.00001308  0.00000000  -0.00000000  1
  Y  Y1  1  0.99999501  0.00000000  0.50000000  1
  Fe  Fe2  1  0.33306637  0.66622528  -0.00000000  1
  Fe  Fe3  1  0.66684109  0.33377472  -0.00000000  1
  Co  Co4  1  0.49998966  0.00000000  0.28604235  1
  Co  Co5  1  0.49999728  0.50000588  0.28620211  1
  Co  Co6  1  0.99999140  0.49999412  0.28620211  1
  Co  Co7  1  0.49998966  0.00000000  0.71395765  1
  Co  Co8  1  0.49999728  0.50000588  0.71379789  1
  Co  Co9  1  0.99999140  0.49999412  0.71379789  1
  B  B10  1  0.33343540  0.66691688  0.50000000  1
  B  B11  1  0.66651852  0.33308312  0.50000000  1
