# generated using pymatgen
data_BaYCuSe3
_symmetry_space_group_name_H-M   'P 1'
_cell_length_a   4.19160156
_cell_length_b   7.37658703
_cell_length_c   10.70069285
_cell_angle_alpha   90.00000000
_cell_angle_beta   90.00000000
_cell_angle_gamma   106.50596937
_symmetry_Int_Tables_number   1
_chemical_formula_structural   BaYCuSe3
_chemical_formula_sum   'Ba2 Y2 Cu2 Se6'
_cell_volume   317.22756778
_cell_formula_units_Z   2
loop_
 _symmetry_equiv_pos_site_id
 _symmetry_equiv_pos_as_xyz
  1  'x, y, z'
loop_
 _atom_site_type_symbol
 _atom_site_label
 _atom_site_symmetry_multiplicity
 _atom_site_fract_x
 _atom_site_fract_y
 _atom_site_fract_z
 _atom_site_occupancy
  Ba  Ba0  1  0.74746429  0.49492858  0.25000000  1
  Ba  Ba1  1  0.25253571  0.50507142  0.75000000  1
  Y  Y2  1  0.00000000  0.00000000  0.50000000  1
  Y  Y3  1  0.00000000  -0.00000000  -0.00000000  1
  Cu  Cu4  1  0.46700771  0.93401542  0.25000000  1
  Cu  Cu5  1  0.53299229  0.06598458  0.75000000  1
  Se  Se6  1  0.36604660  0.73209320  0.43948263  1
  Se  Se7  1  0.63395340  0.26790680  0.56051737  1
  Se  Se8  1  0.36604660  0.73209320  0.06051737  1
  Se  Se9  1  0.63395340  0.26790680  0.93948263  1
  Se  Se10  1  0.06858105  0.13716210  0.25000000  1
  Se  Se11  1  0.93141895  0.86283790  0.75000000  1
