# generated using pymatgen
data_CaGa3Co2
_symmetry_space_group_name_H-M   'P 1'
_cell_length_a   5.28477963
_cell_length_b   6.24559277
_cell_length_c   6.24559277
_cell_angle_alpha   104.41194145
_cell_angle_beta   90.00000000
_cell_angle_gamma   90.00000000
_symmetry_Int_Tables_number   1
_chemical_formula_structural   CaGa3Co2
_chemical_formula_sum   'Ca2 Ga6 Co4'
_cell_volume   199.65853181
_cell_formula_units_Z   2
loop_
 _symmetry_equiv_pos_site_id
 _symmetry_equiv_pos_as_xyz
  1  'x, y, z'
loop_
 _atom_site_type_symbol
 _atom_site_label
 _atom_site_symmetry_multiplicity
 _atom_site_fract_x
 _atom_site_fract_y
 _atom_site_fract_z
 _atom_site_occupancy
  Ca  Ca0  1  0.25000000  0.66146298  0.66146298  1
  Ca  Ca1  1  0.75000000  0.33853702  0.33853702  1
  Ga  Ga2  1  0.25000000  0.05434313  0.05434313  1
  Ga  Ga3  1  0.75000000  0.94565687  0.94565687  1
  Ga  Ga4  1  0.25000000  0.47497400  0.08584380  1
  Ga  Ga5  1  0.75000000  0.91415620  0.52502600  1
  Ga  Ga6  1  0.75000000  0.52502600  0.91415620  1
  Ga  Ga7  1  0.25000000  0.08584380  0.47497400  1
  Co  Co8  1  0.50000000  0.79881202  0.20118798  1
  Co  Co9  1  -0.00000000  0.79881202  0.20118798  1
  Co  Co10  1  0.50000000  0.20118798  0.79881202  1
  Co  Co11  1  0.00000000  0.20118798  0.79881202  1
