# generated using pymatgen
data_Nb10Pb14O39
_symmetry_space_group_name_H-M   'P 1'
_cell_length_a   7.62211813
_cell_length_b   16.93651397
_cell_length_c   7.64924731
_cell_angle_alpha   90.00532581
_cell_angle_beta   90.00000000
_cell_angle_gamma   103.00406862
_symmetry_Int_Tables_number   1
_chemical_formula_structural   Nb10Pb14O39
_chemical_formula_sum   'Nb10 Pb14 O39'
_cell_volume   962.13322514
_cell_formula_units_Z   1
loop_
 _symmetry_equiv_pos_site_id
 _symmetry_equiv_pos_as_xyz
  1  'x, y, z'
loop_
 _atom_site_type_symbol
 _atom_site_label
 _atom_site_symmetry_multiplicity
 _atom_site_fract_x
 _atom_site_fract_y
 _atom_site_fract_z
 _atom_site_occupancy
  Nb  Nb0  1  0.16689049  0.83463707  0.75459926  1
  Nb  Nb1  1  0.00045163  0.00090227  0.50353362  1
  Nb  Nb2  1  0.33491397  0.66982795  0.00902829  1
  Nb  Nb3  1  0.33479838  0.66959676  0.50214277  1
  Nb  Nb4  1  0.33516795  0.16583628  0.25503115  1
  Nb  Nb5  1  0.66774758  0.83463707  0.75459926  1
  Nb  Nb6  1  0.66527713  0.33055526  0.00174791  1
  Nb  Nb7  1  0.66510492  0.33020884  0.50907927  1
  Nb  Nb8  1  0.00031095  0.00062091  0.00507014  1
  Nb  Nb9  1  0.83066932  0.16583628  0.25503115  1
  Pb  Pb10  1  0.00458159  0.50986196  0.75457073  1
  Pb  Pb11  1  0.16306407  0.83167672  0.24974656  1
  Pb  Pb12  1  0.16966943  0.33933885  0.51225158  1
  Pb  Pb13  1  0.17032096  0.34064292  0.98981343  1
  Pb  Pb14  1  0.49810423  0.99620745  0.50750113  1
  Pb  Pb15  1  0.66861265  0.83167672  0.24974656  1
  Pb  Pb16  1  0.49583345  0.48945589  0.25442293  1
  Pb  Pb17  1  0.50528038  0.50986196  0.75457073  1
  Pb  Pb18  1  0.33375934  0.16619622  0.75176916  1
  Pb  Pb19  1  0.49859364  0.99718728  0.00099537  1
  Pb  Pb20  1  0.82960730  0.65921559  0.49050582  1
  Pb  Pb21  1  0.83048647  0.66097195  0.01189262  1
  Pb  Pb22  1  0.83243789  0.16619622  0.75176916  1
  Pb  Pb23  1  0.99362244  0.48945589  0.25442293  1
  O  O24  1  0.14792521  0.91888789  0.57103133  1
  O  O25  1  0.15107120  0.91973234  0.94724915  1
  O  O26  1  0.18801142  0.75919020  0.56443925  1
  O  O27  1  0.18757876  0.76029732  0.95375559  1
  O  O28  1  0.10798974  0.59572180  0.45888926  1
  O  O29  1  0.10821018  0.59655979  0.05597104  1
  O  O30  1  0.13070349  0.26140598  0.75162188  1
  O  O31  1  0.02106848  0.04213795  0.75772383  1
  O  O32  1  0.09926463  0.19852926  0.25987908  1
  O  O33  1  0.32013184  0.64026367  0.75726230  1
  O  O34  1  0.22161207  0.44322413  0.75383436  1
  O  O35  1  0.44065583  0.88131065  0.75646681  1
  O  O36  1  0.36055565  0.72111030  0.25808850  1
  O  O37  1  0.22952330  0.07910192  0.06972748  1
  O  O38  1  0.48834961  0.59655979  0.05597104  1
  O  O39  1  0.48773206  0.59572180  0.45888926  1
  O  O40  1  0.57271856  0.76029732  0.95375559  1
  O  O41  1  0.57117878  0.75919020  0.56443925  1
  O  O42  1  0.23141402  0.07801813  0.44729912  1
  O  O43  1  0.76866114  0.91973234  0.94724915  1
  O  O44  1  0.43079188  0.24114719  0.06741316  1
  O  O45  1  0.42995237  0.24009643  0.44918849  1
  O  O46  1  0.51339849  0.40523517  0.95917452  1
  O  O47  1  0.51266098  0.40429930  0.55534216  1
  O  O48  1  0.77096268  0.91888789  0.57103133  1
  O  O49  1  0.53426265  0.06852530  0.75317771  1
  O  O50  1  0.55924624  0.11849248  0.25635023  1
  O  O51  1  0.68082134  0.36164369  0.25709088  1
  O  O52  1  0.63966060  0.27932019  0.75798832  1
  O  O53  1  0.87435237  0.74870474  0.25200060  1
  O  O54  1  0.89940360  0.79880819  0.75981693  1
  O  O55  1  0.97696565  0.95393031  0.25782892  1
  O  O56  1  0.78009195  0.56018390  0.25396298  1
  O  O57  1  0.89163932  0.40429930  0.55534216  1
  O  O58  1  0.89183668  0.40523517  0.95917452  1
  O  O59  1  0.81014406  0.24009643  0.44918849  1
  O  O60  1  0.81035530  0.24114719  0.06741316  1
  O  O61  1  0.84660411  0.07801813  0.44729912  1
  O  O62  1  0.84957863  0.07910192  0.06972748  1
