# generated using pymatgen
data_CrNiP
_symmetry_space_group_name_H-M   'P 1'
_cell_length_a   3.52654962
_cell_length_b   5.83280354
_cell_length_c   6.82620215
_cell_angle_alpha   90.00000000
_cell_angle_beta   90.00000000
_cell_angle_gamma   90.00000000
_symmetry_Int_Tables_number   1
_chemical_formula_structural   CrNiP
_chemical_formula_sum   'Cr4 Ni4 P4'
_cell_volume   140.41273314
_cell_formula_units_Z   4
loop_
 _symmetry_equiv_pos_site_id
 _symmetry_equiv_pos_as_xyz
  1  'x, y, z'
loop_
 _atom_site_type_symbol
 _atom_site_label
 _atom_site_symmetry_multiplicity
 _atom_site_fract_x
 _atom_site_fract_y
 _atom_site_fract_z
 _atom_site_occupancy
  Cr  Cr0  1  0.75000000  0.46722116  0.17146997  1
  Cr  Cr1  1  0.75000000  0.96722116  0.32853003  1
  Cr  Cr2  1  0.25000000  0.53277884  0.82853003  1
  Cr  Cr3  1  0.25000000  0.03277884  0.67146997  1
  Ni  Ni4  1  0.75000000  0.35931937  0.56110361  1
  Ni  Ni5  1  0.75000000  0.85931937  0.93889639  1
  Ni  Ni6  1  0.25000000  0.64068063  0.43889639  1
  Ni  Ni7  1  0.25000000  0.14068063  0.06110361  1
  P  P8  1  0.75000000  0.24523831  0.87310663  1
  P  P9  1  0.75000000  0.74523831  0.62689337  1
  P  P10  1  0.25000000  0.75476169  0.12689337  1
  P  P11  1  0.25000000  0.25476169  0.37310663  1
