# generated using pymatgen
data_EuInRh
_symmetry_space_group_name_H-M   'P 1'
_cell_length_a   4.40051362
_cell_length_b   7.47164290
_cell_length_c   8.54717761
_cell_angle_alpha   90.00000000
_cell_angle_beta   90.00000000
_cell_angle_gamma   90.00000000
_symmetry_Int_Tables_number   1
_chemical_formula_structural   EuInRh
_chemical_formula_sum   'Eu4 In4 Rh4'
_cell_volume   281.02321970
_cell_formula_units_Z   4
loop_
 _symmetry_equiv_pos_site_id
 _symmetry_equiv_pos_as_xyz
  1  'x, y, z'
loop_
 _atom_site_type_symbol
 _atom_site_label
 _atom_site_symmetry_multiplicity
 _atom_site_fract_x
 _atom_site_fract_y
 _atom_site_fract_z
 _atom_site_occupancy
  Eu  Eu0  1  0.75000000  0.47206227  0.17705338  1
  Eu  Eu1  1  0.75000000  0.97206227  0.32294662  1
  Eu  Eu2  1  0.25000000  0.52793773  0.82294662  1
  Eu  Eu3  1  0.25000000  0.02793773  0.67705338  1
  In  In4  1  0.75000000  0.35314659  0.56407131  1
  In  In5  1  0.75000000  0.85314659  0.93592869  1
  In  In6  1  0.25000000  0.64685341  0.43592869  1
  In  In7  1  0.25000000  0.14685341  0.06407131  1
  Rh  Rh8  1  0.75000000  0.22519014  0.87242030  1
  Rh  Rh9  1  0.75000000  0.72519014  0.62757970  1
  Rh  Rh10  1  0.25000000  0.77480986  0.12757970  1
  Rh  Rh11  1  0.25000000  0.27480986  0.37242030  1
