# generated using pymatgen
data_TbAsS
_symmetry_space_group_name_H-M   'P 1'
_cell_length_a   3.84398936
_cell_length_b   3.86696982
_cell_length_c   17.11700069
_cell_angle_alpha   90.00000000
_cell_angle_beta   90.00000000
_cell_angle_gamma   89.97856485
_symmetry_Int_Tables_number   1
_chemical_formula_structural   TbAsS
_chemical_formula_sum   'Tb4 As4 S4'
_cell_volume   254.43719397
_cell_formula_units_Z   4
loop_
 _symmetry_equiv_pos_site_id
 _symmetry_equiv_pos_as_xyz
  1  'x, y, z'
loop_
 _atom_site_type_symbol
 _atom_site_label
 _atom_site_symmetry_multiplicity
 _atom_site_fract_x
 _atom_site_fract_y
 _atom_site_fract_z
 _atom_site_occupancy
  Tb  Tb0  1  0.74967199  0.77151717  0.14561844  1
  Tb  Tb1  1  0.75032801  0.72848283  0.64561844  1
  Tb  Tb2  1  0.25032801  0.22848283  0.85438156  1
  Tb  Tb3  1  0.24967199  0.27151717  0.35438156  1
  As  As4  1  0.24813214  0.78167988  0.49825391  1
  As  As5  1  0.25186786  0.71832012  0.99825391  1
  As  As6  1  0.75186786  0.21832012  0.50174609  1
  As  As7  1  0.74813214  0.28167988  0.00174609  1
  S  S8  1  0.74940846  0.76995775  0.31333348  1
  S  S9  1  0.75059154  0.73004225  0.81333348  1
  S  S10  1  0.25059154  0.23004225  0.68666652  1
  S  S11  1  0.24940846  0.26995775  0.18666652  1
