# generated using pymatgen
data_EuGaGe
_symmetry_space_group_name_H-M   'P 1'
_cell_length_a   4.30059126
_cell_length_b   4.30059126
_cell_length_c   17.86793227
_cell_angle_alpha   90.00000000
_cell_angle_beta   90.00000000
_cell_angle_gamma   120.07293323
_symmetry_Int_Tables_number   1
_chemical_formula_structural   EuGaGe
_chemical_formula_sum   'Eu4 Ga4 Ge4'
_cell_volume   285.98392509
_cell_formula_units_Z   4
loop_
 _symmetry_equiv_pos_site_id
 _symmetry_equiv_pos_as_xyz
  1  'x, y, z'
loop_
 _atom_site_type_symbol
 _atom_site_label
 _atom_site_symmetry_multiplicity
 _atom_site_fract_x
 _atom_site_fract_y
 _atom_site_fract_z
 _atom_site_occupancy
  Eu  Eu0  1  0.00000000  -0.00000000  0.50000000  1
  Eu  Eu1  1  0.00000000  -0.00000000  -0.00000000  1
  Eu  Eu2  1  0.00003272  -0.00003272  0.75000000  1
  Eu  Eu3  1  -0.00003272  0.00003272  0.25000000  1
  Ga  Ga4  1  0.33338984  0.66661016  0.64770504  1
  Ga  Ga5  1  0.66661016  0.33338984  0.35229496  1
  Ga  Ga6  1  0.66661016  0.33338984  0.14770504  1
  Ga  Ga7  1  0.33338984  0.66661016  0.85229496  1
  Ge  Ge8  1  0.66665909  0.33334091  0.61247804  1
  Ge  Ge9  1  0.33334091  0.66665909  0.38752196  1
  Ge  Ge10  1  0.33334091  0.66665909  0.11247804  1
  Ge  Ge11  1  0.66665909  0.33334091  0.88752196  1
