# generated using pymatgen
data_YGaPd
_symmetry_space_group_name_H-M   'P 1'
_cell_length_a   4.47013779
_cell_length_b   7.00684250
_cell_length_c   7.68122730
_cell_angle_alpha   90.00000000
_cell_angle_beta   90.00000000
_cell_angle_gamma   90.00000000
_symmetry_Int_Tables_number   1
_chemical_formula_structural   YGaPd
_chemical_formula_sum   'Y4 Ga4 Pd4'
_cell_volume   240.58795606
_cell_formula_units_Z   4
loop_
 _symmetry_equiv_pos_site_id
 _symmetry_equiv_pos_as_xyz
  1  'x, y, z'
loop_
 _atom_site_type_symbol
 _atom_site_label
 _atom_site_symmetry_multiplicity
 _atom_site_fract_x
 _atom_site_fract_y
 _atom_site_fract_z
 _atom_site_occupancy
  Y  Y0  1  0.75000000  0.51418232  0.19830411  1
  Y  Y1  1  0.75000000  0.01418232  0.30169589  1
  Y  Y2  1  0.25000000  0.48581768  0.80169589  1
  Y  Y3  1  0.25000000  0.98581768  0.69830411  1
  Ga  Ga4  1  0.75000000  0.17293252  0.92649191  1
  Ga  Ga5  1  0.75000000  0.67293252  0.57350809  1
  Ga  Ga6  1  0.25000000  0.82706748  0.07350809  1
  Ga  Ga7  1  0.25000000  0.32706748  0.42649191  1
  Pd  Pd8  1  0.75000000  0.27635128  0.59926287  1
  Pd  Pd9  1  0.75000000  0.77635128  0.90073713  1
  Pd  Pd10  1  0.25000000  0.72364872  0.40073713  1
  Pd  Pd11  1  0.25000000  0.22364872  0.09926287  1
