# generated using pymatgen
data_SmNiGe
_symmetry_space_group_name_H-M   'P 1'
_cell_length_a   4.32244225
_cell_length_b   7.12863503
_cell_length_c   7.24372053
_cell_angle_alpha   90.00000000
_cell_angle_beta   90.00000000
_cell_angle_gamma   90.00000000
_symmetry_Int_Tables_number   1
_chemical_formula_structural   SmNiGe
_chemical_formula_sum   'Sm4 Ni4 Ge4'
_cell_volume   223.20158096
_cell_formula_units_Z   4
loop_
 _symmetry_equiv_pos_site_id
 _symmetry_equiv_pos_as_xyz
  1  'x, y, z'
loop_
 _atom_site_type_symbol
 _atom_site_label
 _atom_site_symmetry_multiplicity
 _atom_site_fract_x
 _atom_site_fract_y
 _atom_site_fract_z
 _atom_site_occupancy
  Sm  Sm0  1  0.75000000  0.01482137  0.29934953  1
  Sm  Sm1  1  0.75000000  0.51482137  0.20065047  1
  Sm  Sm2  1  0.25000000  0.98517863  0.70065047  1
  Sm  Sm3  1  0.25000000  0.48517863  0.79934953  1
  Ni  Ni4  1  0.75000000  0.32185044  0.57910450  1
  Ni  Ni5  1  0.75000000  0.82185044  0.92089550  1
  Ni  Ni6  1  0.25000000  0.67814956  0.42089550  1
  Ni  Ni7  1  0.25000000  0.17814956  0.07910450  1
  Ge  Ge8  1  0.75000000  0.19302043  0.90666589  1
  Ge  Ge9  1  0.75000000  0.69302043  0.59333411  1
  Ge  Ge10  1  0.25000000  0.80697957  0.09333411  1
  Ge  Ge11  1  0.25000000  0.30697957  0.40666589  1
