# generated using pymatgen
data_CeSbIr
_symmetry_space_group_name_H-M   'P 1'
_cell_length_a   4.57862640
_cell_length_b   7.27510023
_cell_length_c   7.98195433
_cell_angle_alpha   90.00000000
_cell_angle_beta   90.00000000
_cell_angle_gamma   90.00000000
_symmetry_Int_Tables_number   1
_chemical_formula_structural   CeSbIr
_chemical_formula_sum   'Ce4 Sb4 Ir4'
_cell_volume   265.87862715
_cell_formula_units_Z   4
loop_
 _symmetry_equiv_pos_site_id
 _symmetry_equiv_pos_as_xyz
  1  'x, y, z'
loop_
 _atom_site_type_symbol
 _atom_site_label
 _atom_site_symmetry_multiplicity
 _atom_site_fract_x
 _atom_site_fract_y
 _atom_site_fract_z
 _atom_site_occupancy
  Ce  Ce0  1  0.75000000  0.48872290  0.19254421  1
  Ce  Ce1  1  0.75000000  0.98872290  0.30745579  1
  Ce  Ce2  1  0.25000000  0.51127710  0.80745579  1
  Ce  Ce3  1  0.25000000  0.01127710  0.69254421  1
  Sb  Sb4  1  0.75000000  0.32241984  0.58809780  1
  Sb  Sb5  1  0.75000000  0.82241984  0.91190220  1
  Sb  Sb6  1  0.25000000  0.67758016  0.41190220  1
  Sb  Sb7  1  0.25000000  0.17758016  0.08809780  1
  Ir  Ir8  1  0.75000000  0.21962233  0.91498176  1
  Ir  Ir9  1  0.75000000  0.71962233  0.58501824  1
  Ir  Ir10  1  0.25000000  0.78037767  0.08501824  1
  Ir  Ir11  1  0.25000000  0.28037767  0.41498176  1
