# generated using pymatgen
data_Ti12Fe5O32
_symmetry_space_group_name_H-M   'P 1'
_cell_length_a   8.44218545
_cell_length_b   8.44202041
_cell_length_c   8.44242816
_cell_angle_alpha   90.09125284
_cell_angle_beta   90.08886156
_cell_angle_gamma   90.08731731
_symmetry_Int_Tables_number   1
_chemical_formula_structural   Ti12Fe5O32
_chemical_formula_sum   'Ti12 Fe5 O32'
_cell_volume   601.68208516
_cell_formula_units_Z   1
loop_
 _symmetry_equiv_pos_site_id
 _symmetry_equiv_pos_as_xyz
  1  'x, y, z'
loop_
 _atom_site_type_symbol
 _atom_site_label
 _atom_site_symmetry_multiplicity
 _atom_site_fract_x
 _atom_site_fract_y
 _atom_site_fract_z
 _atom_site_occupancy
  Ti  Ti0  1  0.11561995  0.61898770  0.14980006  1
  Ti  Ti1  1  0.13654828  0.36547277  0.87796439  1
  Ti  Ti2  1  0.14979206  0.11562247  0.61900869  1
  Ti  Ti3  1  0.36547271  0.87798797  0.13653188  1
  Ti  Ti4  1  0.36824983  0.64451368  0.38471345  1
  Ti  Ti5  1  0.38471534  0.36824129  0.64451534  1
  Ti  Ti6  1  0.60974468  0.87016804  0.85467513  1
  Ti  Ti7  1  0.61902434  0.14979330  0.11563080  1
  Ti  Ti8  1  0.64449524  0.38471202  0.36825002  1
  Ti  Ti9  1  0.85468817  0.60974483  0.87016673  1
  Ti  Ti10  1  0.87015539  0.85468989  0.60974722  1
  Ti  Ti11  1  0.87798201  0.13653055  0.36547331  1
  Fe  Fe12  1  0.24356933  0.73984281  0.75530818  1
  Fe  Fe13  1  0.25905484  0.25906414  0.25906500  1
  Fe  Fe14  1  0.73983916  0.75529123  0.24355468  1
  Fe  Fe15  1  0.75528517  0.24356490  0.73986672  1
  Fe  Fe16  1  0.99500857  0.99500664  0.99497206  1
  O  O17  1  0.11373224  0.14092432  0.38765933  1
  O  O18  1  0.11164580  0.60627297  0.88768088  1
  O  O19  1  0.11221462  0.89035977  0.64825011  1
  O  O20  1  0.14093251  0.38764580  0.11372994  1
  O  O21  1  0.10714205  0.13976890  0.86541440  1
  O  O22  1  0.14199395  0.61885452  0.35858621  1
  O  O23  1  0.14500528  0.34953459  0.64830174  1
  O  O24  1  0.13977017  0.86544088  0.10711923  1
  O  O25  1  0.35857466  0.14198747  0.61887416  1
  O  O26  1  0.34951224  0.64828288  0.14501392  1
  O  O27  1  0.35634049  0.38067928  0.85805792  1
  O  O28  1  0.38065924  0.85806783  0.35630968  1
  O  O29  1  0.35655804  0.60880315  0.61173833  1
  O  O30  1  0.38765895  0.11374867  0.14092863  1
  O  O31  1  0.38938272  0.38938007  0.38938898  1
  O  O32  1  0.38679808  0.85831955  0.88541356  1
  O  O33  1  0.61175166  0.35655808  0.60878579  1
  O  O34  1  0.60625685  0.88768599  0.11166214  1
  O  O35  1  0.60878744  0.61174591  0.35654471  1
  O  O36  1  0.64827007  0.11220729  0.89038293  1
  O  O37  1  0.61885163  0.35858048  0.14200786  1
  O  O38  1  0.65022086  0.88091676  0.64624085  1
  O  O39  1  0.64829321  0.14499095  0.34952041  1
  O  O40  1  0.64623450  0.65023065  0.88091278  1
  O  O41  1  0.85804950  0.35631748  0.38065494  1
  O  O42  1  0.86558823  0.86561106  0.86558988  1
  O  O43  1  0.86543891  0.10712507  0.13975659  1
  O  O44  1  0.88091530  0.64623280  0.65024200  1
  O  O45  1  0.85830743  0.88539586  0.38680303  1
  O  O46  1  0.88541129  0.38679532  0.85831446  1
  O  O47  1  0.88767911  0.11165691  0.60626057  1
  O  O48  1  0.89036791  0.64825251  0.11221938  1
