# generated using pymatgen
data_FeAsSe
_symmetry_space_group_name_H-M   'P 1'
_cell_length_a   5.86664580
_cell_length_b   5.94387683
_cell_length_c   5.98338905
_cell_angle_alpha   113.18267109
_cell_angle_beta   90.00000000
_cell_angle_gamma   90.00000000
_symmetry_Int_Tables_number   1
_chemical_formula_structural   FeAsSe
_chemical_formula_sum   'Fe4 As4 Se4'
_cell_volume   191.79737107
_cell_formula_units_Z   4
loop_
 _symmetry_equiv_pos_site_id
 _symmetry_equiv_pos_as_xyz
  1  'x, y, z'
loop_
 _atom_site_type_symbol
 _atom_site_label
 _atom_site_symmetry_multiplicity
 _atom_site_fract_x
 _atom_site_fract_y
 _atom_site_fract_z
 _atom_site_occupancy
  Fe  Fe0  1  0.49916134  0.72370062  0.20937591  1
  Fe  Fe1  1  0.99916134  0.27629938  0.29062409  1
  Fe  Fe2  1  0.50083866  0.27629938  0.79062409  1
  Fe  Fe3  1  0.00083866  0.72370062  0.70937591  1
  As  As4  1  0.13660649  0.85752783  0.12386583  1
  As  As5  1  0.63660649  0.14247217  0.37613417  1
  As  As6  1  0.86339351  0.14247217  0.87613417  1
  As  As7  1  0.36339351  0.85752783  0.62386583  1
  Se  Se8  1  0.86585272  0.65591385  0.32309705  1
  Se  Se9  1  0.36585272  0.34408615  0.17690295  1
  Se  Se10  1  0.13414728  0.34408615  0.67690295  1
  Se  Se11  1  0.63414728  0.65591385  0.82309705  1
