# generated using pymatgen
data_PrAlAu
_symmetry_space_group_name_H-M   'P 1'
_cell_length_a   4.65030057
_cell_length_b   7.60172869
_cell_length_c   7.78655263
_cell_angle_alpha   90.00000000
_cell_angle_beta   90.00000000
_cell_angle_gamma   90.00000000
_symmetry_Int_Tables_number   1
_chemical_formula_structural   PrAlAu
_chemical_formula_sum   'Pr4 Al4 Au4'
_cell_volume   275.25715255
_cell_formula_units_Z   4
loop_
 _symmetry_equiv_pos_site_id
 _symmetry_equiv_pos_as_xyz
  1  'x, y, z'
loop_
 _atom_site_type_symbol
 _atom_site_label
 _atom_site_symmetry_multiplicity
 _atom_site_fract_x
 _atom_site_fract_y
 _atom_site_fract_z
 _atom_site_occupancy
  Pr  Pr0  1  0.75000000  0.48813719  0.19464976  1
  Pr  Pr1  1  0.75000000  0.98813719  0.30535024  1
  Pr  Pr2  1  0.25000000  0.51186281  0.80535024  1
  Pr  Pr3  1  0.25000000  0.01186281  0.69464976  1
  Al  Al4  1  0.75000000  0.32471610  0.58355550  1
  Al  Al5  1  0.75000000  0.82471610  0.91644450  1
  Al  Al6  1  0.25000000  0.67528390  0.41644450  1
  Al  Al7  1  0.25000000  0.17528390  0.08355550  1
  Au  Au8  1  0.75000000  0.19643031  0.91002991  1
  Au  Au9  1  0.75000000  0.69643031  0.58997009  1
  Au  Au10  1  0.25000000  0.80356969  0.08997009  1
  Au  Au11  1  0.25000000  0.30356969  0.41002991  1
