# generated using pymatgen
data_HfSiNi
_symmetry_space_group_name_H-M   'P 1'
_cell_length_a   3.79004478
_cell_length_b   6.42717730
_cell_length_c   7.22327361
_cell_angle_alpha   90.00000000
_cell_angle_beta   90.00000000
_cell_angle_gamma   90.00000000
_symmetry_Int_Tables_number   1
_chemical_formula_structural   HfSiNi
_chemical_formula_sum   'Hf4 Si4 Ni4'
_cell_volume   175.95381500
_cell_formula_units_Z   4
loop_
 _symmetry_equiv_pos_site_id
 _symmetry_equiv_pos_as_xyz
  1  'x, y, z'
loop_
 _atom_site_type_symbol
 _atom_site_label
 _atom_site_symmetry_multiplicity
 _atom_site_fract_x
 _atom_site_fract_y
 _atom_site_fract_z
 _atom_site_occupancy
  Hf  Hf0  1  0.75000000  0.48311158  0.18507788  1
  Hf  Hf1  1  0.75000000  0.98311158  0.31492212  1
  Hf  Hf2  1  0.25000000  0.51688842  0.81492212  1
  Hf  Hf3  1  0.25000000  0.01688842  0.68507788  1
  Si  Si4  1  0.75000000  0.22784950  0.88512181  1
  Si  Si5  1  0.75000000  0.72784950  0.61487819  1
  Si  Si6  1  0.25000000  0.77215050  0.11487819  1
  Si  Si7  1  0.25000000  0.27215050  0.38512181  1
  Ni  Ni8  1  0.75000000  0.35997102  0.56143311  1
  Ni  Ni9  1  0.75000000  0.85997102  0.93856689  1
  Ni  Ni10  1  0.25000000  0.64002898  0.43856689  1
  Ni  Ni11  1  0.25000000  0.14002898  0.06143311  1
