# generated using pymatgen
data_YbNi4B
_symmetry_space_group_name_H-M   'P 1'
_cell_length_a   4.94991025
_cell_length_b   4.94932611
_cell_length_c   6.85658342
_cell_angle_alpha   90.00000000
_cell_angle_beta   90.00000000
_cell_angle_gamma   120.00389371
_symmetry_Int_Tables_number   1
_chemical_formula_structural   YbNi4B
_chemical_formula_sum   'Yb2 Ni8 B2'
_cell_volume   145.46708953
_cell_formula_units_Z   2
loop_
 _symmetry_equiv_pos_site_id
 _symmetry_equiv_pos_as_xyz
  1  'x, y, z'
loop_
 _atom_site_type_symbol
 _atom_site_label
 _atom_site_symmetry_multiplicity
 _atom_site_fract_x
 _atom_site_fract_y
 _atom_site_fract_z
 _atom_site_occupancy
  Yb  Yb0  1  0.99999143  0.00000000  0.00000000  1
  Yb  Yb1  1  0.99998960  0.00000000  0.50000000  1
  Ni  Ni2  1  0.33330441  0.66668461  0.50000000  1
  Ni  Ni3  1  0.66661981  0.33331539  0.50000000  1
  Ni  Ni4  1  0.50000039  0.00000000  0.20613361  1
  Ni  Ni5  1  0.49999181  0.50000159  0.20612286  1
  Ni  Ni6  1  0.99999022  0.49999841  0.20612286  1
  Ni  Ni7  1  0.50000039  0.00000000  0.79386639  1
  Ni  Ni8  1  0.49999181  0.50000159  0.79387714  1
  Ni  Ni9  1  0.99999022  0.49999841  0.79387714  1
  B  B10  1  0.33330020  0.66667052  0.00000000  1
  B  B11  1  0.66662969  0.33332948  0.00000000  1
