# generated using pymatgen
data_Ce2NCl3
_symmetry_space_group_name_H-M   'P 1'
_cell_length_a   6.08873557
_cell_length_b   6.87327095
_cell_length_c   8.28246206
_cell_angle_alpha   114.51485888
_cell_angle_beta   111.56570166
_cell_angle_gamma   90.00000000
_symmetry_Int_Tables_number   1
_chemical_formula_structural   Ce2NCl3
_chemical_formula_sum   'Ce4 N2 Cl6'
_cell_volume   288.49033841
_cell_formula_units_Z   2
loop_
 _symmetry_equiv_pos_site_id
 _symmetry_equiv_pos_as_xyz
  1  'x, y, z'
loop_
 _atom_site_type_symbol
 _atom_site_label
 _atom_site_symmetry_multiplicity
 _atom_site_fract_x
 _atom_site_fract_y
 _atom_site_fract_z
 _atom_site_occupancy
  Ce  Ce0  1  0.59352604  0.91888000  0.18705208  1
  Ce  Ce1  1  0.40647396  0.08112000  0.81294792  1
  Ce  Ce2  1  0.90647396  0.73182793  0.81294792  1
  Ce  Ce3  1  0.09352604  0.26817207  0.18705208  1
  N  N4  1  0.25000000  0.00000000  -0.00000000  1
  N  N5  1  0.75000000  0.00000000  -0.00000000  1
  Cl  Cl6  1  0.25000000  0.50000000  -0.00000000  1
  Cl  Cl7  1  0.75000000  0.50000000  -0.00000000  1
  Cl  Cl8  1  0.80115607  0.98494399  0.60231213  1
  Cl  Cl9  1  0.19884393  0.01505601  0.39768787  1
  Cl  Cl10  1  0.69884393  0.38263186  0.39768787  1
  Cl  Cl11  1  0.30115607  0.61736814  0.60231213  1
