# generated using pymatgen
data_SrLiAs
_symmetry_space_group_name_H-M   'P 1'
_cell_length_a   4.54196378
_cell_length_b   7.66281783
_cell_length_c   8.08299811
_cell_angle_alpha   90.00000000
_cell_angle_beta   90.00000000
_cell_angle_gamma   90.00000000
_symmetry_Int_Tables_number   1
_chemical_formula_structural   SrLiAs
_chemical_formula_sum   'Sr4 Li4 As4'
_cell_volume   281.32261452
_cell_formula_units_Z   4
loop_
 _symmetry_equiv_pos_site_id
 _symmetry_equiv_pos_as_xyz
  1  'x, y, z'
loop_
 _atom_site_type_symbol
 _atom_site_label
 _atom_site_symmetry_multiplicity
 _atom_site_fract_x
 _atom_site_fract_y
 _atom_site_fract_z
 _atom_site_occupancy
  Sr  Sr0  1  0.75000000  0.49249671  0.20534785  1
  Sr  Sr1  1  0.75000000  0.99249671  0.29465215  1
  Sr  Sr2  1  0.25000000  0.50750329  0.79465215  1
  Sr  Sr3  1  0.25000000  0.00750329  0.70534785  1
  Li  Li4  1  0.75000000  0.34252026  0.57286937  1
  Li  Li5  1  0.75000000  0.84252026  0.92713063  1
  Li  Li6  1  0.25000000  0.65747974  0.42713063  1
  Li  Li7  1  0.25000000  0.15747974  0.07286937  1
  As  As8  1  0.75000000  0.22417102  0.90599514  1
  As  As9  1  0.75000000  0.72417102  0.59400486  1
  As  As10  1  0.25000000  0.77582898  0.09400486  1
  As  As11  1  0.25000000  0.27582898  0.40599514  1
