# generated using pymatgen
data_HoTc2
_symmetry_space_group_name_H-M   'P 1'
_cell_length_a   5.35940867
_cell_length_b   5.35940867
_cell_length_c   8.87920175
_cell_angle_alpha   90.00000000
_cell_angle_beta   90.00000000
_cell_angle_gamma   120.01697391
_symmetry_Int_Tables_number   1
_chemical_formula_structural   HoTc2
_chemical_formula_sum   'Ho4 Tc8'
_cell_volume   220.83301284
_cell_formula_units_Z   4
loop_
 _symmetry_equiv_pos_site_id
 _symmetry_equiv_pos_as_xyz
  1  'x, y, z'
loop_
 _atom_site_type_symbol
 _atom_site_label
 _atom_site_symmetry_multiplicity
 _atom_site_fract_x
 _atom_site_fract_y
 _atom_site_fract_z
 _atom_site_occupancy
  Ho  Ho0  1  0.66667488  0.33332512  0.56357274  1
  Ho  Ho1  1  0.33332512  0.66667488  0.43642726  1
  Ho  Ho2  1  0.33332512  0.66667488  0.06357274  1
  Ho  Ho3  1  0.66667488  0.33332512  0.93642726  1
  Tc  Tc4  1  -0.00000000  -0.00000000  0.50000000  1
  Tc  Tc5  1  -0.00000000  -0.00000000  0.00000000  1
  Tc  Tc6  1  0.17189952  0.34376168  0.75000000  1
  Tc  Tc7  1  0.17185048  0.82814952  0.75000000  1
  Tc  Tc8  1  0.65623832  0.82810048  0.75000000  1
  Tc  Tc9  1  0.82810048  0.65623832  0.25000000  1
  Tc  Tc10  1  0.82814952  0.17185048  0.25000000  1
  Tc  Tc11  1  0.34376168  0.17189952  0.25000000  1
