# generated using pymatgen
data_Li4CoNi5(PO4)6
_symmetry_space_group_name_H-M   'P 1'
_cell_length_a   8.28485209
_cell_length_b   8.74393584
_cell_length_c   8.73135039
_cell_angle_alpha   60.00906623
_cell_angle_beta   58.81056362
_cell_angle_gamma   58.63399644
_symmetry_Int_Tables_number   1
_chemical_formula_structural   Li4CoNi5(PO4)6
_chemical_formula_sum   'Li4 Co1 Ni5 P6 O24'
_cell_volume   438.45141821
_cell_formula_units_Z   1
loop_
 _symmetry_equiv_pos_site_id
 _symmetry_equiv_pos_as_xyz
  1  'x, y, z'
loop_
 _atom_site_type_symbol
 _atom_site_label
 _atom_site_symmetry_multiplicity
 _atom_site_fract_x
 _atom_site_fract_y
 _atom_site_fract_z
 _atom_site_occupancy
  Li  Li0  1  0.24972041  0.85506444  0.64340919  1
  Li  Li1  1  0.75903458  0.14516237  0.35467413  1
  Li  Li2  1  0.75849801  0.74152199  0.14382663  1
  Li  Li3  1  0.75919910  0.35584393  0.74103875  1
  Co  Co4  1  0.57003077  0.14498222  0.14265298  1
  Ni  Ni5  1  0.00750827  0.99806894  0.00272649  1
  Ni  Ni6  1  0.07184059  0.64186286  0.64377546  1
  Ni  Ni7  1  0.49609544  0.49721692  0.50021512  1
  Ni  Ni8  1  0.42897064  0.85600056  0.85649180  1
  Ni  Ni9  1  0.93996682  0.35359133  0.35159602  1
  P  P10  1  0.25245196  0.25277842  0.54747669  1
  P  P11  1  0.24942183  0.95178535  0.24739287  1
  P  P12  1  0.25001250  0.54858725  0.95152845  1
  P  P13  1  0.74624091  0.45427312  0.04676410  1
  P  P14  1  0.75305243  0.04638472  0.75169188  1
  P  P15  1  0.73891979  0.75343383  0.45495162  1
  O  O16  1  0.05263377  0.10543103  0.31591473  1
  O  O17  1  0.05316834  0.52375406  0.10364625  1
  O  O18  1  0.05320120  0.32161607  0.52202692  1
  O  O19  1  0.22496224  0.08814456  0.73919044  1
  O  O20  1  0.44307054  0.18546853  0.38574397  1
  O  O21  1  0.28184696  0.40177119  0.56597525  1
  O  O22  1  0.22590125  0.92993870  0.09586278  1
  O  O23  1  0.28210664  0.76096235  0.41021281  1
  O  O24  1  0.55666763  0.61016834  0.01250141  1
  O  O25  1  0.28504127  0.56850997  0.74971688  1
  O  O26  1  0.76895198  0.25037713  0.07005816  1
  O  O27  1  0.57563496  0.99882301  0.81210844  1
  O  O28  1  0.44268678  0.99108867  0.17797349  1
  O  O29  1  0.22078187  0.75026605  0.92813804  1
  O  O30  1  0.72133054  0.43081375  0.24736043  1
  O  O31  1  0.44307163  0.38772954  0.98753956  1
  O  O32  1  0.72438521  0.24655481  0.59860576  1
  O  O33  1  0.76816372  0.07346523  0.91262698  1
  O  O34  1  0.72338860  0.59856495  0.42640584  1
  O  O35  1  0.53980388  0.81658782  0.60643582  1
  O  O36  1  0.76614534  0.91270926  0.25145686  1
  O  O37  1  0.92209664  0.69491682  0.49450233  1
  O  O38  1  0.93756257  0.48268139  0.89207514  1
  O  O39  1  0.95643239  0.89609850  0.69071153  1
