# generated using pymatgen
data_Li10Ti2Fe3Ni3O16
_symmetry_space_group_name_H-M   'P 1'
_cell_length_a   5.98296119
_cell_length_b   5.99460125
_cell_length_c   9.83701579
_cell_angle_alpha   90.19366478
_cell_angle_beta   89.87598010
_cell_angle_gamma   59.67896098
_symmetry_Int_Tables_number   1
_chemical_formula_structural   Li10Ti2Fe3Ni3O16
_chemical_formula_sum   'Li10 Ti2 Fe3 Ni3 O16'
_cell_volume   304.54367549
_cell_formula_units_Z   1
loop_
 _symmetry_equiv_pos_site_id
 _symmetry_equiv_pos_as_xyz
  1  'x, y, z'
loop_
 _atom_site_type_symbol
 _atom_site_label
 _atom_site_symmetry_multiplicity
 _atom_site_fract_x
 _atom_site_fract_y
 _atom_site_fract_z
 _atom_site_occupancy
  Li  Li0  1  0.80832541  0.80479165  0.95888815  1
  Li  Li1  1  0.39095848  0.80695126  0.95977307  1
  Li  Li2  1  0.66711832  0.66933962  0.74678977  1
  Li  Li3  1  0.80470154  0.39583703  0.96224111  1
  Li  Li4  1  0.18939298  0.61746066  0.45933604  1
  Li  Li5  1  0.00021912  0.00007701  0.02606493  1
  Li  Li6  1  0.33395097  0.33970565  0.24782445  1
  Li  Li7  1  0.60560639  0.20060270  0.46682936  1
  Li  Li8  1  0.99609469  0.00685014  0.52828670  1
  Li  Li9  1  0.19709186  0.20496393  0.46489153  1
  Ti  Ti10  1  0.66177114  0.65878006  0.48584414  1
  Ti  Ti11  1  0.33284480  0.32299446  0.98515615  1
  Fe  Fe12  1  0.82806173  0.82991379  0.22895699  1
  Fe  Fe13  1  0.33429432  0.83351651  0.22797769  1
  Fe  Fe14  1  0.16910542  0.65738106  0.72860671  1
  Ni  Ni15  1  0.82944520  0.33954749  0.22682050  1
  Ni  Ni16  1  0.66301479  0.16780614  0.72797466  1
  Ni  Ni17  1  0.16982104  0.16886765  0.72652501  1
  O  O18  1  0.83806028  0.82288562  0.60002782  1
  O  O19  1  0.51956728  0.98270276  0.35896723  1
  O  O20  1  0.00636390  0.99022255  0.83469362  1
  O  O21  1  0.97957379  0.51511471  0.35317933  1
  O  O22  1  0.34282232  0.82745797  0.59629945  1
  O  O23  1  0.66640869  0.67390661  0.10956752  1
  O  O24  1  0.99386896  0.99631916  0.33519185  1
  O  O25  1  0.51684011  0.50687886  0.36240396  1
  O  O26  1  0.48500266  0.49421287  0.85558589  1
  O  O27  1  0.82972221  0.35003836  0.59478725  1
  O  O28  1  0.15672964  0.65670475  0.09660828  1
  O  O29  1  0.02085736  0.49340175  0.85352622  1
  O  O30  1  0.33071004  0.34203268  0.60996385  1
  O  O31  1  0.65440428  0.16857474  0.09879486  1
  O  O32  1  0.48921893  0.02327508  0.85840885  1
  O  O33  1  0.16258436  0.18267474  0.08943108  1
