# generated using pymatgen
data_DyAsS
_symmetry_space_group_name_H-M   'P 1'
_cell_length_a   3.83366760
_cell_length_b   3.85172578
_cell_length_c   17.03214119
_cell_angle_alpha   90.00000000
_cell_angle_beta   90.00000000
_cell_angle_gamma   89.99674748
_symmetry_Int_Tables_number   1
_chemical_formula_structural   DyAsS
_chemical_formula_sum   'Dy4 As4 S4'
_cell_volume   251.50062178
_cell_formula_units_Z   4
loop_
 _symmetry_equiv_pos_site_id
 _symmetry_equiv_pos_as_xyz
  1  'x, y, z'
loop_
 _atom_site_type_symbol
 _atom_site_label
 _atom_site_symmetry_multiplicity
 _atom_site_fract_x
 _atom_site_fract_y
 _atom_site_fract_z
 _atom_site_occupancy
  Dy  Dy0  1  0.74961235  0.77120925  0.14567257  1
  Dy  Dy1  1  0.75038765  0.72879075  0.64567257  1
  Dy  Dy2  1  0.25038765  0.22879075  0.85432743  1
  Dy  Dy3  1  0.24961235  0.27120925  0.35432743  1
  As  As4  1  0.24902311  0.78078999  0.49827461  1
  As  As5  1  0.25097689  0.71921001  0.99827461  1
  As  As6  1  0.75097689  0.21921001  0.50172539  1
  As  As7  1  0.74902311  0.28078999  0.00172539  1
  S  S8  1  0.74944893  0.76969404  0.31314133  1
  S  S9  1  0.75055107  0.73030596  0.81314133  1
  S  S10  1  0.25055107  0.23030596  0.68685867  1
  S  S11  1  0.24944893  0.26969404  0.18685867  1
