# generated using pymatgen
data_CsUTe3Au
_symmetry_space_group_name_H-M   'P 1'
_cell_length_a   4.41383748
_cell_length_b   9.02363199
_cell_length_c   11.33252664
_cell_angle_alpha   90.00000000
_cell_angle_beta   90.00000000
_cell_angle_gamma   104.15648043
_symmetry_Int_Tables_number   1
_chemical_formula_structural   CsUTe3Au
_chemical_formula_sum   'Cs2 U2 Te6 Au2'
_cell_volume   437.65423070
_cell_formula_units_Z   2
loop_
 _symmetry_equiv_pos_site_id
 _symmetry_equiv_pos_as_xyz
  1  'x, y, z'
loop_
 _atom_site_type_symbol
 _atom_site_label
 _atom_site_symmetry_multiplicity
 _atom_site_fract_x
 _atom_site_fract_y
 _atom_site_fract_z
 _atom_site_occupancy
  Cs  Cs0  1  0.75070311  0.50140622  0.25000000  1
  Cs  Cs1  1  0.24929689  0.49859378  0.75000000  1
  U  U2  1  0.00000000  0.00000000  0.50000000  1
  U  U3  1  0.00000000  0.00000000  -0.00000000  1
  Te  Te4  1  0.06534479  0.13068958  0.25000000  1
  Te  Te5  1  0.93465521  0.86931042  0.75000000  1
  Te  Te6  1  0.37941839  0.75883679  0.45508119  1
  Te  Te7  1  0.62058161  0.24116321  0.54491881  1
  Te  Te8  1  0.37941839  0.75883679  0.04491881  1
  Te  Te9  1  0.62058161  0.24116321  0.95508119  1
  Au  Au10  1  0.46328882  0.92657764  0.25000000  1
  Au  Au11  1  0.53671118  0.07342236  0.75000000  1
