# generated using pymatgen
data_Zr2GaFe3
_symmetry_space_group_name_H-M   'P 1'
_cell_length_a   5.03209220
_cell_length_b   5.03209220
_cell_length_c   8.21093877
_cell_angle_alpha   90.00000000
_cell_angle_beta   90.00000000
_cell_angle_gamma   119.99994665
_symmetry_Int_Tables_number   1
_chemical_formula_structural   Zr2GaFe3
_chemical_formula_sum   'Zr4 Ga2 Fe6'
_cell_volume   180.06149795
_cell_formula_units_Z   2
loop_
 _symmetry_equiv_pos_site_id
 _symmetry_equiv_pos_as_xyz
  1  'x, y, z'
loop_
 _atom_site_type_symbol
 _atom_site_label
 _atom_site_symmetry_multiplicity
 _atom_site_fract_x
 _atom_site_fract_y
 _atom_site_fract_z
 _atom_site_occupancy
  Zr  Zr0  1  0.66668708  0.33331292  0.56553607  1
  Zr  Zr1  1  0.33331292  0.66668708  0.43446393  1
  Zr  Zr2  1  0.33331292  0.66668708  0.06553607  1
  Zr  Zr3  1  0.66668708  0.33331292  0.93446393  1
  Ga  Ga4  1  0.00000000  0.00000000  0.50000000  1
  Ga  Ga5  1  0.00000000  0.00000000  0.00000000  1
  Fe  Fe6  1  0.17230443  0.34462433  0.75000000  1
  Fe  Fe7  1  0.17233662  0.82766338  0.75000000  1
  Fe  Fe8  1  0.65537567  0.82769557  0.75000000  1
  Fe  Fe9  1  0.82769557  0.65537567  0.25000000  1
  Fe  Fe10  1  0.82766338  0.17233662  0.25000000  1
  Fe  Fe11  1  0.34462433  0.17230443  0.25000000  1
