# generated using pymatgen
data_TaBe3
_symmetry_space_group_name_H-M   'P 1'
_cell_length_a   4.56491948
_cell_length_b   4.56491948
_cell_length_c   7.46210444
_cell_angle_alpha   72.18927619
_cell_angle_beta   72.18927619
_cell_angle_gamma   60.00001041
_symmetry_Int_Tables_number   1
_chemical_formula_structural   TaBe3
_chemical_formula_sum   'Ta3 Be9'
_cell_volume   125.98695805
_cell_formula_units_Z   3
loop_
 _symmetry_equiv_pos_site_id
 _symmetry_equiv_pos_as_xyz
  1  'x, y, z'
loop_
 _atom_site_type_symbol
 _atom_site_label
 _atom_site_symmetry_multiplicity
 _atom_site_fract_x
 _atom_site_fract_y
 _atom_site_fract_z
 _atom_site_occupancy
  Ta  Ta0  1  0.13990766  0.13990766  0.58027701  1
  Ta  Ta1  1  0.86009234  0.86009234  0.41972299  1
  Ta  Ta2  1  -0.00000000  -0.00000000  0.00000000  1
  Be  Be3  1  0.07524348  0.58437289  0.75601074  1
  Be  Be4  1  0.58437289  0.58437289  0.75601074  1
  Be  Be5  1  0.58437289  0.07524348  0.75601074  1
  Be  Be6  1  0.92475652  0.41562711  0.24398926  1
  Be  Be7  1  0.41562711  0.41562711  0.24398926  1
  Be  Be8  1  0.41562711  0.92475652  0.24398926  1
  Be  Be9  1  0.33460041  0.33460041  0.99619876  1
  Be  Be10  1  0.66539959  0.66539959  0.00380124  1
  Be  Be11  1  0.50000000  0.50000000  0.50000000  1
