# generated using pymatgen
data_CaSnPt
_symmetry_space_group_name_H-M   'P 1'
_cell_length_a   4.66782873
_cell_length_b   7.42234466
_cell_length_c   7.97448095
_cell_angle_alpha   90.00000000
_cell_angle_beta   90.00000000
_cell_angle_gamma   90.00000000
_symmetry_Int_Tables_number   1
_chemical_formula_structural   CaSnPt
_chemical_formula_sum   'Ca4 Sn4 Pt4'
_cell_volume   276.28573021
_cell_formula_units_Z   4
loop_
 _symmetry_equiv_pos_site_id
 _symmetry_equiv_pos_as_xyz
  1  'x, y, z'
loop_
 _atom_site_type_symbol
 _atom_site_label
 _atom_site_symmetry_multiplicity
 _atom_site_fract_x
 _atom_site_fract_y
 _atom_site_fract_z
 _atom_site_occupancy
  Ca  Ca0  1  0.75000000  0.51430400  0.19097692  1
  Ca  Ca1  1  0.75000000  0.01430400  0.30902308  1
  Ca  Ca2  1  0.25000000  0.48569600  0.80902308  1
  Ca  Ca3  1  0.25000000  0.98569600  0.69097692  1
  Sn  Sn4  1  0.75000000  0.17410728  0.92052860  1
  Sn  Sn5  1  0.75000000  0.67410728  0.57947140  1
  Sn  Sn6  1  0.25000000  0.82589272  0.07947140  1
  Sn  Sn7  1  0.25000000  0.32589272  0.42052860  1
  Pt  Pt8  1  0.75000000  0.29360697  0.59734751  1
  Pt  Pt9  1  0.75000000  0.79360697  0.90265249  1
  Pt  Pt10  1  0.25000000  0.70639303  0.40265249  1
  Pt  Pt11  1  0.25000000  0.20639303  0.09734751  1
