# generated using pymatgen
data_CeGaPd
_symmetry_space_group_name_H-M   'P 1'
_cell_length_a   4.50043776
_cell_length_b   7.08143997
_cell_length_c   7.83904665
_cell_angle_alpha   90.00000000
_cell_angle_beta   90.00000000
_cell_angle_gamma   90.00000000
_symmetry_Int_Tables_number   1
_chemical_formula_structural   CeGaPd
_chemical_formula_sum   'Ce4 Ga4 Pd4'
_cell_volume   249.82712305
_cell_formula_units_Z   4
loop_
 _symmetry_equiv_pos_site_id
 _symmetry_equiv_pos_as_xyz
  1  'x, y, z'
loop_
 _atom_site_type_symbol
 _atom_site_label
 _atom_site_symmetry_multiplicity
 _atom_site_fract_x
 _atom_site_fract_y
 _atom_site_fract_z
 _atom_site_occupancy
  Ce  Ce0  1  0.75000000  0.51836761  0.20277141  1
  Ce  Ce1  1  0.75000000  0.01836761  0.29722859  1
  Ce  Ce2  1  0.25000000  0.48163239  0.79722859  1
  Ce  Ce3  1  0.25000000  0.98163239  0.70277141  1
  Ga  Ga4  1  0.75000000  0.17629739  0.92129960  1
  Ga  Ga5  1  0.75000000  0.67629739  0.57870040  1
  Ga  Ga6  1  0.25000000  0.82370261  0.07870040  1
  Ga  Ga7  1  0.25000000  0.32370261  0.42129960  1
  Pd  Pd8  1  0.75000000  0.28000400  0.59349948  1
  Pd  Pd9  1  0.75000000  0.78000400  0.90650052  1
  Pd  Pd10  1  0.25000000  0.71999600  0.40650052  1
  Pd  Pd11  1  0.25000000  0.21999600  0.09349948  1
