# generated using pymatgen
data_LuCoSn
_symmetry_space_group_name_H-M   'P 1'
_cell_length_a   4.45035800
_cell_length_b   6.92237104
_cell_length_c   7.56071744
_cell_angle_alpha   90.00000000
_cell_angle_beta   90.00000000
_cell_angle_gamma   90.00000000
_symmetry_Int_Tables_number   1
_chemical_formula_structural   LuCoSn
_chemical_formula_sum   'Lu4 Co4 Sn4'
_cell_volume   232.92324398
_cell_formula_units_Z   4
loop_
 _symmetry_equiv_pos_site_id
 _symmetry_equiv_pos_as_xyz
  1  'x, y, z'
loop_
 _atom_site_type_symbol
 _atom_site_label
 _atom_site_symmetry_multiplicity
 _atom_site_fract_x
 _atom_site_fract_y
 _atom_site_fract_z
 _atom_site_occupancy
  Lu  Lu0  1  0.75000000  0.51315243  0.20219503  1
  Lu  Lu1  1  0.75000000  0.01315243  0.29780497  1
  Lu  Lu2  1  0.25000000  0.48684757  0.79780497  1
  Lu  Lu3  1  0.25000000  0.98684757  0.70219503  1
  Co  Co4  1  0.75000000  0.30375241  0.58352984  1
  Co  Co5  1  0.75000000  0.80375241  0.91647016  1
  Co  Co6  1  0.25000000  0.69624759  0.41647016  1
  Co  Co7  1  0.25000000  0.19624759  0.08352984  1
  Sn  Sn8  1  0.75000000  0.19367464  0.91217368  1
  Sn  Sn9  1  0.75000000  0.69367464  0.58782632  1
  Sn  Sn10  1  0.25000000  0.80632536  0.08782632  1
  Sn  Sn11  1  0.25000000  0.30632536  0.41217368  1
