# generated using pymatgen
data_TiNiAs
_symmetry_space_group_name_H-M   'P 1'
_cell_length_a   3.75051561
_cell_length_b   6.25430186
_cell_length_c   7.13502893
_cell_angle_alpha   90.00000000
_cell_angle_beta   90.00000000
_cell_angle_gamma   90.00000000
_symmetry_Int_Tables_number   1
_chemical_formula_structural   TiNiAs
_chemical_formula_sum   'Ti4 Ni4 As4'
_cell_volume   167.36535156
_cell_formula_units_Z   4
loop_
 _symmetry_equiv_pos_site_id
 _symmetry_equiv_pos_as_xyz
  1  'x, y, z'
loop_
 _atom_site_type_symbol
 _atom_site_label
 _atom_site_symmetry_multiplicity
 _atom_site_fract_x
 _atom_site_fract_y
 _atom_site_fract_z
 _atom_site_occupancy
  Ti  Ti0  1  0.75000000  0.47367764  0.17910007  1
  Ti  Ti1  1  0.75000000  0.97367764  0.32089993  1
  Ti  Ti2  1  0.25000000  0.52632236  0.82089993  1
  Ti  Ti3  1  0.25000000  0.02632236  0.67910007  1
  Ni  Ni4  1  0.75000000  0.35367536  0.56196185  1
  Ni  Ni5  1  0.75000000  0.85367536  0.93803815  1
  Ni  Ni6  1  0.25000000  0.64632464  0.43803815  1
  Ni  Ni7  1  0.25000000  0.14632464  0.06196185  1
  As  As8  1  0.75000000  0.23539393  0.87807499  1
  As  As9  1  0.75000000  0.73539393  0.62192501  1
  As  As10  1  0.25000000  0.76460607  0.12192501  1
  As  As11  1  0.25000000  0.26460607  0.37807499  1
