# generated using pymatgen
data_ScCoSn
_symmetry_space_group_name_H-M   'P 1'
_cell_length_a   4.44246385
_cell_length_b   6.89019963
_cell_length_c   7.15529695
_cell_angle_alpha   90.00000000
_cell_angle_beta   90.00000000
_cell_angle_gamma   90.00000000
_symmetry_Int_Tables_number   1
_chemical_formula_structural   ScCoSn
_chemical_formula_sum   'Sc4 Co4 Sn4'
_cell_volume   219.01979564
_cell_formula_units_Z   4
loop_
 _symmetry_equiv_pos_site_id
 _symmetry_equiv_pos_as_xyz
  1  'x, y, z'
loop_
 _atom_site_type_symbol
 _atom_site_label
 _atom_site_symmetry_multiplicity
 _atom_site_fract_x
 _atom_site_fract_y
 _atom_site_fract_z
 _atom_site_occupancy
  Sc  Sc0  1  0.75000000  0.52006534  0.71080212  1
  Sc  Sc1  1  0.75000000  0.02006534  0.78919788  1
  Sc  Sc2  1  0.25000000  0.47993466  0.28919788  1
  Sc  Sc3  1  0.25000000  0.97993466  0.21080212  1
  Co  Co4  1  0.75000000  0.35098682  0.04949275  1
  Co  Co5  1  0.75000000  0.85098682  0.45050725  1
  Co  Co6  1  0.25000000  0.64901318  0.95050725  1
  Co  Co7  1  0.25000000  0.14901318  0.54949275  1
  Sn  Sn8  1  0.75000000  0.71673893  0.11299788  1
  Sn  Sn9  1  0.75000000  0.21673893  0.38700212  1
  Sn  Sn10  1  0.25000000  0.28326107  0.88700212  1
  Sn  Sn11  1  0.25000000  0.78326107  0.61299788  1
