# generated using pymatgen
data_EuMgPd
_symmetry_space_group_name_H-M   'P 1'
_cell_length_a   4.39391529
_cell_length_b   7.52855863
_cell_length_c   8.64282355
_cell_angle_alpha   90.00000000
_cell_angle_beta   90.00000000
_cell_angle_gamma   90.00000000
_symmetry_Int_Tables_number   1
_chemical_formula_structural   EuMgPd
_chemical_formula_sum   'Eu4 Mg4 Pd4'
_cell_volume   285.90329690
_cell_formula_units_Z   4
loop_
 _symmetry_equiv_pos_site_id
 _symmetry_equiv_pos_as_xyz
  1  'x, y, z'
loop_
 _atom_site_type_symbol
 _atom_site_label
 _atom_site_symmetry_multiplicity
 _atom_site_fract_x
 _atom_site_fract_y
 _atom_site_fract_z
 _atom_site_occupancy
  Eu  Eu0  1  0.75000000  0.46997805  0.17696811  1
  Eu  Eu1  1  0.75000000  0.96997805  0.32303189  1
  Eu  Eu2  1  0.25000000  0.53002195  0.82303189  1
  Eu  Eu3  1  0.25000000  0.03002195  0.67696811  1
  Mg  Mg4  1  0.75000000  0.36280831  0.56231773  1
  Mg  Mg5  1  0.75000000  0.86280831  0.93768227  1
  Mg  Mg6  1  0.25000000  0.63719169  0.43768227  1
  Mg  Mg7  1  0.25000000  0.13719169  0.06231773  1
  Pd  Pd8  1  0.75000000  0.22592633  0.87787811  1
  Pd  Pd9  1  0.75000000  0.72592633  0.62212189  1
  Pd  Pd10  1  0.25000000  0.77407367  0.12212189  1
  Pd  Pd11  1  0.25000000  0.27407367  0.37787811  1
