# generated using pymatgen
data_TmH2ClO2
_symmetry_space_group_name_H-M   'P 1'
_cell_length_a   3.54844960
_cell_length_b   6.18774218
_cell_length_c   6.63499173
_cell_angle_alpha   105.38280374
_cell_angle_beta   90.00000000
_cell_angle_gamma   90.00000000
_symmetry_Int_Tables_number   1
_chemical_formula_structural   TmH2ClO2
_chemical_formula_sum   'Tm2 H4 Cl2 O4'
_cell_volume   140.46467931
_cell_formula_units_Z   2
loop_
 _symmetry_equiv_pos_site_id
 _symmetry_equiv_pos_as_xyz
  1  'x, y, z'
loop_
 _atom_site_type_symbol
 _atom_site_label
 _atom_site_symmetry_multiplicity
 _atom_site_fract_x
 _atom_site_fract_y
 _atom_site_fract_z
 _atom_site_occupancy
  Tm  Tm0  1  0.75000000  0.71832565  0.89095873  1
  Tm  Tm1  1  0.25000000  0.28167435  0.10904127  1
  H  H2  1  0.25000000  0.87338826  0.23117910  1
  H  H3  1  0.75000000  0.12661174  0.76882090  1
  H  H4  1  0.25000000  0.35703270  0.69823411  1
  H  H5  1  0.75000000  0.64296730  0.30176589  1
  Cl  Cl6  1  0.25000000  0.77044219  0.57797037  1
  Cl  Cl7  1  0.75000000  0.22955781  0.42202963  1
  O  O8  1  0.25000000  0.89410507  0.09037530  1
  O  O9  1  0.75000000  0.10589493  0.90962470  1
  O  O10  1  0.25000000  0.45271835  0.84119244  1
  O  O11  1  0.75000000  0.54728165  0.15880756  1
