# generated using pymatgen
data_Na2YbCdSb2
_symmetry_space_group_name_H-M   'P 1'
_cell_length_a   4.71419582
_cell_length_b   7.86102585
_cell_length_c   9.18646407
_cell_angle_alpha   90.00000000
_cell_angle_beta   90.00000000
_cell_angle_gamma   90.00000000
_symmetry_Int_Tables_number   1
_chemical_formula_structural   Na2YbCdSb2
_chemical_formula_sum   'Na4 Yb2 Cd2 Sb4'
_cell_volume   340.43579975
_cell_formula_units_Z   2
loop_
 _symmetry_equiv_pos_site_id
 _symmetry_equiv_pos_as_xyz
  1  'x, y, z'
loop_
 _atom_site_type_symbol
 _atom_site_label
 _atom_site_symmetry_multiplicity
 _atom_site_fract_x
 _atom_site_fract_y
 _atom_site_fract_z
 _atom_site_occupancy
  Na  Na0  1  0.50000000  0.44941341  0.42017794  1
  Na  Na1  1  0.50000000  0.94941341  0.57982206  1
  Na  Na2  1  0.00000000  0.13160055  0.33130085  1
  Na  Na3  1  0.00000000  0.63160055  0.66869915  1
  Yb  Yb4  1  -0.00000000  0.50031412  0.05546492  1
  Yb  Yb5  1  -0.00000000  0.00031412  0.94453508  1
  Cd  Cd6  1  0.50000000  0.83979919  0.18520784  1
  Cd  Cd7  1  0.50000000  0.33979919  0.81479216  1
  Sb  Sb8  1  0.50000000  0.21609702  0.11996293  1
  Sb  Sb9  1  0.50000000  0.71609702  0.88003707  1
  Sb  Sb10  1  0.00000000  0.23030571  0.65817607  1
  Sb  Sb11  1  0.00000000  0.73030571  0.34182393  1
