# generated using pymatgen
data_NaAlF4
_symmetry_space_group_name_H-M   'P 1'
_cell_length_a   3.66878012
_cell_length_b   5.32193441
_cell_length_c   7.76482041
_cell_angle_alpha   90.00000000
_cell_angle_beta   103.66494252
_cell_angle_gamma   90.00000000
_symmetry_Int_Tables_number   1
_chemical_formula_structural   NaAlF4
_chemical_formula_sum   'Na2 Al2 F8'
_cell_volume   147.31673063
_cell_formula_units_Z   2
loop_
 _symmetry_equiv_pos_site_id
 _symmetry_equiv_pos_as_xyz
  1  'x, y, z'
loop_
 _atom_site_type_symbol
 _atom_site_label
 _atom_site_symmetry_multiplicity
 _atom_site_fract_x
 _atom_site_fract_y
 _atom_site_fract_z
 _atom_site_occupancy
  Na  Na0  1  0.69371475  0.75000000  0.38742950  1
  Na  Na1  1  0.30628525  0.25000000  0.61257050  1
  Al  Al2  1  0.91456863  0.75000000  0.82913725  1
  Al  Al3  1  0.08543137  0.25000000  0.17086275  1
  F  F4  1  0.82953156  0.98751060  0.65906311  1
  F  F5  1  0.17046844  0.01248940  0.34093689  1
  F  F6  1  0.82953156  0.51248940  0.65906311  1
  F  F7  1  0.17046844  0.48751060  0.34093689  1
  F  F8  1  -0.00000000  0.50000000  0.00000000  1
  F  F9  1  -0.00000000  -0.00000000  0.00000000  1
  F  F10  1  0.41830816  0.75000000  0.83661631  1
  F  F11  1  0.58169184  0.25000000  0.16338369  1
