# generated using pymatgen
data_ErAlAu
_symmetry_space_group_name_H-M   'P 1'
_cell_length_a   4.40107254
_cell_length_b   7.16491119
_cell_length_c   7.84053217
_cell_angle_alpha   90.00000000
_cell_angle_beta   90.00000000
_cell_angle_gamma   90.00000000
_symmetry_Int_Tables_number   1
_chemical_formula_structural   ErAlAu
_chemical_formula_sum   'Er4 Al4 Au4'
_cell_volume   247.23780517
_cell_formula_units_Z   4
loop_
 _symmetry_equiv_pos_site_id
 _symmetry_equiv_pos_as_xyz
  1  'x, y, z'
loop_
 _atom_site_type_symbol
 _atom_site_label
 _atom_site_symmetry_multiplicity
 _atom_site_fract_x
 _atom_site_fract_y
 _atom_site_fract_z
 _atom_site_occupancy
  Er  Er0  1  0.75000000  0.48827951  0.18966294  1
  Er  Er1  1  0.75000000  0.98827951  0.31033706  1
  Er  Er2  1  0.25000000  0.51172049  0.81033706  1
  Er  Er3  1  0.25000000  0.01172049  0.68966294  1
  Al  Al4  1  0.75000000  0.33491541  0.57275161  1
  Al  Al5  1  0.75000000  0.83491541  0.92724839  1
  Al  Al6  1  0.25000000  0.66508459  0.42724839  1
  Al  Al7  1  0.25000000  0.16508459  0.07275161  1
  Au  Au8  1  0.75000000  0.21430886  0.89493571  1
  Au  Au9  1  0.75000000  0.71430886  0.60506429  1
  Au  Au10  1  0.25000000  0.78569114  0.10506429  1
  Au  Au11  1  0.25000000  0.28569114  0.39493571  1
