# generated using pymatgen
data_TmNiSn
_symmetry_space_group_name_H-M   'P 1'
_cell_length_a   4.40768446
_cell_length_b   7.02195016
_cell_length_c   7.63703212
_cell_angle_alpha   90.00000000
_cell_angle_beta   90.00000000
_cell_angle_gamma   90.00000000
_symmetry_Int_Tables_number   1
_chemical_formula_structural   TmNiSn
_chemical_formula_sum   'Tm4 Ni4 Sn4'
_cell_volume   236.37027269
_cell_formula_units_Z   4
loop_
 _symmetry_equiv_pos_site_id
 _symmetry_equiv_pos_as_xyz
  1  'x, y, z'
loop_
 _atom_site_type_symbol
 _atom_site_label
 _atom_site_symmetry_multiplicity
 _atom_site_fract_x
 _atom_site_fract_y
 _atom_site_fract_z
 _atom_site_occupancy
  Tm  Tm0  1  0.75000000  0.51260109  0.20330498  1
  Tm  Tm1  1  0.75000000  0.01260109  0.29669502  1
  Tm  Tm2  1  0.25000000  0.48739891  0.79669502  1
  Tm  Tm3  1  0.25000000  0.98739891  0.70330498  1
  Ni  Ni4  1  0.75000000  0.30359981  0.58741016  1
  Ni  Ni5  1  0.75000000  0.80359981  0.91258984  1
  Ni  Ni6  1  0.25000000  0.69640019  0.41258984  1
  Ni  Ni7  1  0.25000000  0.19640019  0.08741016  1
  Sn  Sn8  1  0.75000000  0.19283349  0.91366301  1
  Sn  Sn9  1  0.75000000  0.69283349  0.58633699  1
  Sn  Sn10  1  0.25000000  0.80716651  0.08633699  1
  Sn  Sn11  1  0.25000000  0.30716651  0.41366301  1
