# generated using pymatgen
data_LiCuBO3
_symmetry_space_group_name_H-M   'P 1'
_cell_length_a   16.81835182
_cell_length_b   5.16818660
_cell_length_c   5.24498885
_cell_angle_alpha   90.00067161
_cell_angle_beta   89.99955381
_cell_angle_gamma   89.99891126
_symmetry_Int_Tables_number   1
_chemical_formula_structural   LiCuBO3
_chemical_formula_sum   'Li8 Cu8 B8 O24'
_cell_volume   455.89642655
_cell_formula_units_Z   8
loop_
 _symmetry_equiv_pos_site_id
 _symmetry_equiv_pos_as_xyz
  1  'x, y, z'
loop_
 _atom_site_type_symbol
 _atom_site_label
 _atom_site_symmetry_multiplicity
 _atom_site_fract_x
 _atom_site_fract_y
 _atom_site_fract_z
 _atom_site_occupancy
  Li  Li0  1  0.26420409  0.25104437  0.50626806  1
  Li  Li1  1  0.26421292  0.24893185  0.00622154  1
  Li  Li2  1  0.23576013  0.75102761  0.50625642  1
  Li  Li3  1  0.23576164  0.74895246  0.00624477  1
  Li  Li4  1  0.76417692  0.25106650  0.99372712  1
  Li  Li5  1  0.76417438  0.24896712  0.49373723  1
  Li  Li6  1  0.73577017  0.75102295  0.99373879  1
  Li  Li7  1  0.73576985  0.74895805  0.49373688  1
  Cu  Cu8  1  0.06859526  0.99527231  0.31101385  1
  Cu  Cu9  1  0.06854311  0.50476624  0.81099838  1
  Cu  Cu10  1  0.43167175  0.00480217  0.81071555  1
  Cu  Cu11  1  0.43128960  0.49538436  0.31090632  1
  Cu  Cu12  1  0.56858895  0.99523573  0.18911954  1
  Cu  Cu13  1  0.56874155  0.50468299  0.68896441  1
  Cu  Cu14  1  0.93148653  0.49528488  0.18924385  1
  Cu  Cu15  1  0.93133457  0.00461817  0.68918774  1
  B  B16  1  0.12544624  0.48716644  0.29644766  1
  B  B17  1  0.12543497  0.01284988  0.79646107  1
  B  B18  1  0.37454971  0.98720749  0.29645804  1
  B  B19  1  0.37453907  0.51285458  0.79650064  1
  B  B20  1  0.62547559  0.48715898  0.20351771  1
  B  B21  1  0.62546198  0.01282112  0.70357314  1
  B  B22  1  0.87456219  0.98712173  0.20352266  1
  B  B23  1  0.87455272  0.51285120  0.70354001  1
  O  O24  1  0.10202637  0.66571319  0.48604568  1
  O  O25  1  0.10202650  0.83458365  0.98633847  1
  O  O26  1  0.06499266  0.14758624  0.66285150  1
  O  O27  1  0.06499274  0.35210279  0.16312134  1
  O  O28  1  0.29544324  0.95423189  0.25179052  1
  O  O29  1  0.29543412  0.54568013  0.75179398  1
  O  O30  1  0.20452054  0.45426037  0.25181590  1
  O  O31  1  0.20452132  0.04571089  0.75180938  1
  O  O32  1  0.43498056  0.64724236  0.66266083  1
  O  O33  1  0.43501031  0.85194746  0.16349068  1
  O  O34  1  0.39788393  0.16598293  0.48575059  1
  O  O35  1  0.39788277  0.33481938  0.98658572  1
  O  O36  1  0.60203602  0.66551365  0.01380019  1
  O  O37  1  0.60204068  0.83441507  0.51387521  1
  O  O38  1  0.56503945  0.14779554  0.83704431  1
  O  O39  1  0.56505460  0.35224799  0.33709366  1
  O  O40  1  0.79546803  0.95432077  0.24815112  1
  O  O41  1  0.79547032  0.54567835  0.74814476  1
  O  O42  1  0.70455629  0.45432153  0.24813507  1
  O  O43  1  0.70455028  0.04571052  0.74814634  1
  O  O44  1  0.93502148  0.64805091  0.83682749  1
  O  O45  1  0.93503858  0.85245279  0.33722866  1
  O  O46  1  0.89795458  0.16549435  0.01346804  1
  O  O47  1  0.89795074  0.33408809  0.51393121  1
