# generated using pymatgen
data_EuGaSn
_symmetry_space_group_name_H-M   'P 1'
_cell_length_a   4.58028545
_cell_length_b   4.58028545
_cell_length_c   17.92956370
_cell_angle_alpha   90.00000000
_cell_angle_beta   90.00000000
_cell_angle_gamma   119.99947693
_symmetry_Int_Tables_number   1
_chemical_formula_structural   EuGaSn
_chemical_formula_sum   'Eu4 Ga4 Sn4'
_cell_volume   325.75248031
_cell_formula_units_Z   4
loop_
 _symmetry_equiv_pos_site_id
 _symmetry_equiv_pos_as_xyz
  1  'x, y, z'
loop_
 _atom_site_type_symbol
 _atom_site_label
 _atom_site_symmetry_multiplicity
 _atom_site_fract_x
 _atom_site_fract_y
 _atom_site_fract_z
 _atom_site_occupancy
  Eu  Eu0  1  0.00000000  -0.00000000  0.50000000  1
  Eu  Eu1  1  0.00000000  -0.00000000  -0.00000000  1
  Eu  Eu2  1  0.99999455  0.00000545  0.75000000  1
  Eu  Eu3  1  0.00000545  0.99999455  0.25000000  1
  Ga  Ga4  1  0.33332819  0.66667181  0.66263128  1
  Ga  Ga5  1  0.66667181  0.33332819  0.33736872  1
  Ga  Ga6  1  0.66667181  0.33332819  0.16263128  1
  Ga  Ga7  1  0.33332819  0.66667181  0.83736872  1
  Sn  Sn8  1  0.66670983  0.33329017  0.61628477  1
  Sn  Sn9  1  0.33329017  0.66670983  0.38371523  1
  Sn  Sn10  1  0.33329017  0.66670983  0.11628477  1
  Sn  Sn11  1  0.66670983  0.33329017  0.88371523  1
