# generated using pymatgen
data_EuMgSn
_symmetry_space_group_name_H-M   'P 1'
_cell_length_a   4.89142953
_cell_length_b   8.04437837
_cell_length_c   8.79053532
_cell_angle_alpha   90.00000000
_cell_angle_beta   90.00000000
_cell_angle_gamma   90.00000000
_symmetry_Int_Tables_number   1
_chemical_formula_structural   EuMgSn
_chemical_formula_sum   'Eu4 Mg4 Sn4'
_cell_volume   345.89446615
_cell_formula_units_Z   4
loop_
 _symmetry_equiv_pos_site_id
 _symmetry_equiv_pos_as_xyz
  1  'x, y, z'
loop_
 _atom_site_type_symbol
 _atom_site_label
 _atom_site_symmetry_multiplicity
 _atom_site_fract_x
 _atom_site_fract_y
 _atom_site_fract_z
 _atom_site_occupancy
  Eu  Eu0  1  0.75000000  0.48943405  0.19181469  1
  Eu  Eu1  1  0.75000000  0.98943405  0.30818531  1
  Eu  Eu2  1  0.25000000  0.51056595  0.80818531  1
  Eu  Eu3  1  0.25000000  0.01056595  0.69181469  1
  Mg  Mg4  1  0.75000000  0.34713869  0.56985691  1
  Mg  Mg5  1  0.75000000  0.84713869  0.93014309  1
  Mg  Mg6  1  0.25000000  0.65286131  0.43014309  1
  Mg  Mg7  1  0.25000000  0.15286131  0.06985691  1
  Sn  Sn8  1  0.75000000  0.22415839  0.89355035  1
  Sn  Sn9  1  0.75000000  0.72415839  0.60644965  1
  Sn  Sn10  1  0.25000000  0.77584161  0.10644965  1
  Sn  Sn11  1  0.25000000  0.27584161  0.39355035  1
