# generated using pymatgen
data_GdRe2
_symmetry_space_group_name_H-M   'P 1'
_cell_length_a   5.45469711
_cell_length_b   5.45469711
_cell_length_c   8.87314339
_cell_angle_alpha   90.00000000
_cell_angle_beta   90.00000000
_cell_angle_gamma   120.00334689
_symmetry_Int_Tables_number   1
_chemical_formula_structural   GdRe2
_chemical_formula_sum   'Gd4 Re8'
_cell_volume   228.63081422
_cell_formula_units_Z   4
loop_
 _symmetry_equiv_pos_site_id
 _symmetry_equiv_pos_as_xyz
  1  'x, y, z'
loop_
 _atom_site_type_symbol
 _atom_site_label
 _atom_site_symmetry_multiplicity
 _atom_site_fract_x
 _atom_site_fract_y
 _atom_site_fract_z
 _atom_site_occupancy
  Gd  Gd0  1  0.66665750  0.33334250  0.56270625  1
  Gd  Gd1  1  0.33334250  0.66665750  0.43729375  1
  Gd  Gd2  1  0.33334250  0.66665750  0.06270625  1
  Gd  Gd3  1  0.66665750  0.33334250  0.93729375  1
  Re  Re4  1  0.00000000  -0.00000000  0.50000000  1
  Re  Re5  1  0.00000000  -0.00000000  -0.00000000  1
  Re  Re6  1  0.17086940  0.34174714  0.75000000  1
  Re  Re7  1  0.17090061  0.82909939  0.75000000  1
  Re  Re8  1  0.65825286  0.82913060  0.75000000  1
  Re  Re9  1  0.82913060  0.65825286  0.25000000  1
  Re  Re10  1  0.82909939  0.17090061  0.25000000  1
  Re  Re11  1  0.34174714  0.17086940  0.25000000  1
