# generated using pymatgen
data_TiCoP
_symmetry_space_group_name_H-M   'P 1'
_cell_length_a   3.54815848
_cell_length_b   6.03801462
_cell_length_c   6.84222383
_cell_angle_alpha   90.00000000
_cell_angle_beta   90.00000000
_cell_angle_gamma   90.00000000
_symmetry_Int_Tables_number   1
_chemical_formula_structural   TiCoP
_chemical_formula_sum   'Ti4 Co4 P4'
_cell_volume   146.58665915
_cell_formula_units_Z   4
loop_
 _symmetry_equiv_pos_site_id
 _symmetry_equiv_pos_as_xyz
  1  'x, y, z'
loop_
 _atom_site_type_symbol
 _atom_site_label
 _atom_site_symmetry_multiplicity
 _atom_site_fract_x
 _atom_site_fract_y
 _atom_site_fract_z
 _atom_site_occupancy
  Ti  Ti0  1  0.75000000  0.52448729  0.17771403  1
  Ti  Ti1  1  0.75000000  0.02448729  0.32228597  1
  Ti  Ti2  1  0.25000000  0.47551271  0.82228597  1
  Ti  Ti3  1  0.25000000  0.97551271  0.67771403  1
  Co  Co4  1  0.75000000  0.64033327  0.56153620  1
  Co  Co5  1  0.75000000  0.14033327  0.93846380  1
  Co  Co6  1  0.25000000  0.35966673  0.43846380  1
  Co  Co7  1  0.25000000  0.85966673  0.06153620  1
  P  P8  1  0.75000000  0.26774893  0.62247476  1
  P  P9  1  0.75000000  0.76774893  0.87752524  1
  P  P10  1  0.25000000  0.73225107  0.37752524  1
  P  P11  1  0.25000000  0.23225107  0.12247476  1
