# generated using pymatgen
data_Tm2Pt
_symmetry_space_group_name_H-M   'P 1'
_cell_length_a   4.72316075
_cell_length_b   7.06877489
_cell_length_c   8.65922013
_cell_angle_alpha   90.00000000
_cell_angle_beta   90.00000000
_cell_angle_gamma   90.00000000
_symmetry_Int_Tables_number   1
_chemical_formula_structural   Tm2Pt
_chemical_formula_sum   'Tm8 Pt4'
_cell_volume   289.10503707
_cell_formula_units_Z   4
loop_
 _symmetry_equiv_pos_site_id
 _symmetry_equiv_pos_as_xyz
  1  'x, y, z'
loop_
 _atom_site_type_symbol
 _atom_site_label
 _atom_site_symmetry_multiplicity
 _atom_site_fract_x
 _atom_site_fract_y
 _atom_site_fract_z
 _atom_site_occupancy
  Tm  Tm0  1  0.75000000  0.64466329  0.57730510  1
  Tm  Tm1  1  0.75000000  0.14466329  0.92269490  1
  Tm  Tm2  1  0.25000000  0.35533671  0.42269490  1
  Tm  Tm3  1  0.25000000  0.85533671  0.07730510  1
  Tm  Tm4  1  0.75000000  0.51237586  0.16920783  1
  Tm  Tm5  1  0.75000000  0.01237586  0.33079217  1
  Tm  Tm6  1  0.25000000  0.48762414  0.83079217  1
  Tm  Tm7  1  0.25000000  0.98762414  0.66920783  1
  Pt  Pt8  1  0.75000000  0.24128172  0.59535722  1
  Pt  Pt9  1  0.75000000  0.74128172  0.90464278  1
  Pt  Pt10  1  0.25000000  0.75871828  0.40464278  1
  Pt  Pt11  1  0.25000000  0.25871828  0.09535722  1
