# generated using pymatgen
data_BaCaPb
_symmetry_space_group_name_H-M   'P 1'
_cell_length_a   5.39473276
_cell_length_b   8.95617477
_cell_length_c   9.83708047
_cell_angle_alpha   90.00000000
_cell_angle_beta   90.00000000
_cell_angle_gamma   90.00000000
_symmetry_Int_Tables_number   1
_chemical_formula_structural   BaCaPb
_chemical_formula_sum   'Ba4 Ca4 Pb4'
_cell_volume   475.29004674
_cell_formula_units_Z   4
loop_
 _symmetry_equiv_pos_site_id
 _symmetry_equiv_pos_as_xyz
  1  'x, y, z'
loop_
 _atom_site_type_symbol
 _atom_site_label
 _atom_site_symmetry_multiplicity
 _atom_site_fract_x
 _atom_site_fract_y
 _atom_site_fract_z
 _atom_site_occupancy
  Ba  Ba0  1  0.75000000  0.97868637  0.18236300  1
  Ba  Ba1  1  0.75000000  0.47868637  0.31763700  1
  Ba  Ba2  1  0.25000000  0.02131363  0.81763700  1
  Ba  Ba3  1  0.25000000  0.52131363  0.68236300  1
  Ca  Ca4  1  0.75000000  0.85525636  0.57031248  1
  Ca  Ca5  1  0.75000000  0.35525636  0.92968752  1
  Ca  Ca6  1  0.25000000  0.14474364  0.42968752  1
  Ca  Ca7  1  0.25000000  0.64474364  0.07031248  1
  Pb  Pb8  1  0.75000000  0.22560293  0.60802256  1
  Pb  Pb9  1  0.75000000  0.72560293  0.89197744  1
  Pb  Pb10  1  0.25000000  0.77439707  0.39197744  1
  Pb  Pb11  1  0.25000000  0.27439707  0.10802256  1
