# generated using pymatgen
data_YbGaPd
_symmetry_space_group_name_H-M   'P 1'
_cell_length_a   4.30875980
_cell_length_b   7.14410896
_cell_length_c   7.78500039
_cell_angle_alpha   90.00000000
_cell_angle_beta   90.00000000
_cell_angle_gamma   90.00000000
_symmetry_Int_Tables_number   1
_chemical_formula_structural   YbGaPd
_chemical_formula_sum   'Yb4 Ga4 Pd4'
_cell_volume   239.63982431
_cell_formula_units_Z   4
loop_
 _symmetry_equiv_pos_site_id
 _symmetry_equiv_pos_as_xyz
  1  'x, y, z'
loop_
 _atom_site_type_symbol
 _atom_site_label
 _atom_site_symmetry_multiplicity
 _atom_site_fract_x
 _atom_site_fract_y
 _atom_site_fract_z
 _atom_site_occupancy
  Yb  Yb0  1  0.75000000  0.51892262  0.18785649  1
  Yb  Yb1  1  0.75000000  0.01892262  0.31214351  1
  Yb  Yb2  1  0.25000000  0.48107738  0.81214351  1
  Yb  Yb3  1  0.25000000  0.98107738  0.68785649  1
  Ga  Ga4  1  0.75000000  0.16179361  0.92743448  1
  Ga  Ga5  1  0.75000000  0.66179361  0.57256552  1
  Ga  Ga6  1  0.25000000  0.83820639  0.07256552  1
  Ga  Ga7  1  0.25000000  0.33820639  0.42743448  1
  Pd  Pd8  1  0.75000000  0.28754093  0.60886902  1
  Pd  Pd9  1  0.75000000  0.78754093  0.89113098  1
  Pd  Pd10  1  0.25000000  0.71245907  0.39113098  1
  Pd  Pd11  1  0.25000000  0.21245907  0.10886902  1
