# generated using pymatgen
data_YSiIr
_symmetry_space_group_name_H-M   'P 1'
_cell_length_a   4.23854561
_cell_length_b   6.86641424
_cell_length_c   7.50518078
_cell_angle_alpha   90.00000000
_cell_angle_beta   90.00000000
_cell_angle_gamma   90.00000000
_symmetry_Int_Tables_number   1
_chemical_formula_structural   YSiIr
_chemical_formula_sum   'Y4 Si4 Ir4'
_cell_volume   218.42785390
_cell_formula_units_Z   4
loop_
 _symmetry_equiv_pos_site_id
 _symmetry_equiv_pos_as_xyz
  1  'x, y, z'
loop_
 _atom_site_type_symbol
 _atom_site_label
 _atom_site_symmetry_multiplicity
 _atom_site_fract_x
 _atom_site_fract_y
 _atom_site_fract_z
 _atom_site_occupancy
  Y  Y0  1  0.75000000  0.49615476  0.18732109  1
  Y  Y1  1  0.75000000  0.99615476  0.31267891  1
  Y  Y2  1  0.25000000  0.50384524  0.81267891  1
  Y  Y3  1  0.25000000  0.00384524  0.68732109  1
  Si  Si4  1  0.75000000  0.20222017  0.89122260  1
  Si  Si5  1  0.75000000  0.70222017  0.60877740  1
  Si  Si6  1  0.25000000  0.79777983  0.10877740  1
  Si  Si7  1  0.25000000  0.29777983  0.39122260  1
  Ir  Ir8  1  0.75000000  0.34285177  0.56633905  1
  Ir  Ir9  1  0.75000000  0.84285177  0.93366095  1
  Ir  Ir10  1  0.25000000  0.65714823  0.43366095  1
  Ir  Ir11  1  0.25000000  0.15714823  0.06633905  1
