# generated using pymatgen
data_Yb2Ga
_symmetry_space_group_name_H-M   'P 1'
_cell_length_a   5.07411177
_cell_length_b   6.95053890
_cell_length_c   9.45971147
_cell_angle_alpha   90.00000000
_cell_angle_beta   90.00000000
_cell_angle_gamma   90.00000000
_symmetry_Int_Tables_number   1
_chemical_formula_structural   Yb2Ga
_chemical_formula_sum   'Yb8 Ga4'
_cell_volume   333.62331851
_cell_formula_units_Z   4
loop_
 _symmetry_equiv_pos_site_id
 _symmetry_equiv_pos_as_xyz
  1  'x, y, z'
loop_
 _atom_site_type_symbol
 _atom_site_label
 _atom_site_symmetry_multiplicity
 _atom_site_fract_x
 _atom_site_fract_y
 _atom_site_fract_z
 _atom_site_occupancy
  Yb  Yb0  1  0.75000000  0.66991685  0.57003856  1
  Yb  Yb1  1  0.75000000  0.16991685  0.92996144  1
  Yb  Yb2  1  0.25000000  0.33008315  0.42996144  1
  Yb  Yb3  1  0.25000000  0.83008315  0.07003856  1
  Yb  Yb4  1  0.75000000  0.52416010  0.19501979  1
  Yb  Yb5  1  0.75000000  0.02416010  0.30498021  1
  Yb  Yb6  1  0.25000000  0.47583990  0.80498021  1
  Yb  Yb7  1  0.25000000  0.97583990  0.69501979  1
  Ga  Ga8  1  0.75000000  0.23106567  0.60650462  1
  Ga  Ga9  1  0.75000000  0.73106567  0.89349538  1
  Ga  Ga10  1  0.25000000  0.76893433  0.39349538  1
  Ga  Ga11  1  0.25000000  0.26893433  0.10650462  1
