# generated using pymatgen
data_Li4Nb3Cu3(TeO8)2
_symmetry_space_group_name_H-M   'P 1'
_cell_length_a   6.24021248
_cell_length_b   6.09617519
_cell_length_c   10.58476404
_cell_angle_alpha   89.99989350
_cell_angle_beta   89.33624865
_cell_angle_gamma   119.24060061
_symmetry_Int_Tables_number   1
_chemical_formula_structural   Li4Nb3Cu3(TeO8)2
_chemical_formula_sum   'Li4 Nb3 Cu3 Te2 O16'
_cell_volume   351.32014653
_cell_formula_units_Z   1
loop_
 _symmetry_equiv_pos_site_id
 _symmetry_equiv_pos_as_xyz
  1  'x, y, z'
loop_
 _atom_site_type_symbol
 _atom_site_label
 _atom_site_symmetry_multiplicity
 _atom_site_fract_x
 _atom_site_fract_y
 _atom_site_fract_z
 _atom_site_occupancy
  Li  Li0  1  0.33180540  0.66591989  0.90490491  1
  Li  Li1  1  0.00123344  0.00062740  0.00052493  1
  Li  Li2  1  0.01531300  0.00766322  0.47799330  1
  Li  Li3  1  0.68408891  0.34206767  0.40087702  1
  Nb  Nb4  1  0.63873128  0.81938825  0.23615245  1
  Nb  Nb5  1  0.81560117  0.65710153  0.71885637  1
  Nb  Nb6  1  0.81560367  0.15849464  0.71885804  1
  Cu  Cu7  1  0.16558125  0.82796855  0.21150223  1
  Cu  Cu8  1  0.16556311  0.33760291  0.21148309  1
  Cu  Cu9  1  0.33415056  0.16708344  0.72033058  1
  Te  Te10  1  0.27734273  0.63868235  0.49243104  1
  Te  Te11  1  0.65101149  0.32551693  0.01689300  1
  O  O12  1  0.12809126  0.81198118  0.58499223  1
  O  O13  1  0.04446310  0.52226858  0.35565631  1
  O  O14  1  0.33891800  0.66949318  0.11969812  1
  O  O15  1  0.99753873  0.99874496  0.28996617  1
  O  O16  1  0.00212087  0.00106627  0.81122316  1
  O  O17  1  0.12808463  0.31611732  0.58497991  1
  O  O18  1  0.53121775  0.99460947  0.34094705  1
  O  O19  1  0.53122362  0.53665640  0.34095044  1
  O  O20  1  0.32720687  0.16359638  0.09508214  1
  O  O21  1  0.72064734  0.86033895  0.60797485  1
  O  O22  1  0.53546421  0.52710551  0.82245496  1
  O  O23  1  0.53546304  0.00839971  0.82245038  1
  O  O24  1  0.68738777  0.34371117  0.61000097  1
  O  O25  1  0.80693982  0.65543376  0.09785207  1
  O  O26  1  0.98228318  0.49114257  0.81495701  1
  O  O27  1  0.80692379  0.15151981  0.09784524  1
