# generated using pymatgen
data_SbPdS
_symmetry_space_group_name_H-M   'P 1'
_cell_length_a   6.27498645
_cell_length_b   6.27498645
_cell_length_c   6.27498645
_cell_angle_alpha   90.00000000
_cell_angle_beta   90.00000000
_cell_angle_gamma   90.00000000
_symmetry_Int_Tables_number   1
_chemical_formula_structural   SbPdS
_chemical_formula_sum   'Sb4 Pd4 S4'
_cell_volume   247.08044626
_cell_formula_units_Z   4
loop_
 _symmetry_equiv_pos_site_id
 _symmetry_equiv_pos_as_xyz
  1  'x, y, z'
loop_
 _atom_site_type_symbol
 _atom_site_label
 _atom_site_symmetry_multiplicity
 _atom_site_fract_x
 _atom_site_fract_y
 _atom_site_fract_z
 _atom_site_occupancy
  Sb  Sb0  1  0.12042870  0.62042870  0.87957130  1
  Sb  Sb1  1  0.62042870  0.87957130  0.12042870  1
  Sb  Sb2  1  0.87957130  0.12042870  0.62042870  1
  Sb  Sb3  1  0.37957130  0.37957130  0.37957130  1
  Pd  Pd4  1  0.48981137  0.98981137  0.51018863  1
  Pd  Pd5  1  0.98981137  0.51018863  0.48981137  1
  Pd  Pd6  1  0.51018863  0.48981137  0.98981137  1
  Pd  Pd7  1  0.01018863  0.01018863  0.01018863  1
  S  S8  1  0.88968985  0.38968985  0.11031015  1
  S  S9  1  0.38968985  0.11031015  0.88968985  1
  S  S10  1  0.11031015  0.88968985  0.38968985  1
  S  S11  1  0.61031015  0.61031015  0.61031015  1
