# generated using pymatgen
data_USiRu
_symmetry_space_group_name_H-M   'P 1'
_cell_length_a   4.15275233
_cell_length_b   7.46483567
_cell_length_c   6.62327435
_cell_angle_alpha   90.00000000
_cell_angle_beta   90.00000000
_cell_angle_gamma   90.00000000
_symmetry_Int_Tables_number   1
_chemical_formula_structural   USiRu
_chemical_formula_sum   'U4 Si4 Ru4'
_cell_volume   205.31894642
_cell_formula_units_Z   4
loop_
 _symmetry_equiv_pos_site_id
 _symmetry_equiv_pos_as_xyz
  1  'x, y, z'
loop_
 _atom_site_type_symbol
 _atom_site_label
 _atom_site_symmetry_multiplicity
 _atom_site_fract_x
 _atom_site_fract_y
 _atom_site_fract_z
 _atom_site_occupancy
  U  U0  1  0.75000000  0.50647634  0.64758789  1
  U  U1  1  0.75000000  0.00647634  0.85241211  1
  U  U2  1  0.25000000  0.49352366  0.35241211  1
  U  U3  1  0.25000000  0.99352366  0.14758789  1
  Si  Si4  1  0.75000000  0.69736626  0.11578170  1
  Si  Si5  1  0.75000000  0.19736626  0.38421830  1
  Si  Si6  1  0.25000000  0.30263374  0.88421830  1
  Si  Si7  1  0.25000000  0.80263374  0.61578170  1
  Ru  Ru8  1  0.75000000  0.36980986  0.06720291  1
  Ru  Ru9  1  0.75000000  0.86980986  0.43279709  1
  Ru  Ru10  1  0.25000000  0.63019014  0.93279709  1
  Ru  Ru11  1  0.25000000  0.13019014  0.56720291  1
