# generated using pymatgen
data_Cs2GeSe3
_symmetry_space_group_name_H-M   'P 1'
_cell_length_a   7.58779141
_cell_length_b   8.28820786
_cell_length_c   9.56970430
_cell_angle_alpha   73.01034210
_cell_angle_beta   66.64365209
_cell_angle_gamma   62.75823195
_symmetry_Int_Tables_number   1
_chemical_formula_structural   Cs2GeSe3
_chemical_formula_sum   'Cs4 Ge2 Se6'
_cell_volume   486.69079578
_cell_formula_units_Z   2
loop_
 _symmetry_equiv_pos_site_id
 _symmetry_equiv_pos_as_xyz
  1  'x, y, z'
loop_
 _atom_site_type_symbol
 _atom_site_label
 _atom_site_symmetry_multiplicity
 _atom_site_fract_x
 _atom_site_fract_y
 _atom_site_fract_z
 _atom_site_occupancy
  Cs  Cs0  1  0.58443135  0.69570366  0.13543364  1
  Cs  Cs1  1  0.41556865  0.30429634  0.86456636  1
  Cs  Cs2  1  0.80443692  0.07156277  0.31956339  1
  Cs  Cs3  1  0.19556308  0.92843723  0.68043661  1
  Ge  Ge4  1  0.11618271  0.44909987  0.31853471  1
  Ge  Ge5  1  0.88381729  0.55090013  0.68146529  1
  Se  Se6  1  0.10944148  0.67568683  0.10543020  1
  Se  Se7  1  0.89055852  0.32431317  0.89456980  1
  Se  Se8  1  0.29155477  0.14340427  0.27348619  1
  Se  Se9  1  0.70844523  0.85659573  0.72651381  1
  Se  Se10  1  0.23842087  0.50000000  0.50000000  1
  Se  Se11  1  0.76157913  0.50000000  0.50000000  1
