# generated using pymatgen
data_SmRu2
_symmetry_space_group_name_H-M   'P 1'
_cell_length_a   5.30648214
_cell_length_b   5.30648214
_cell_length_c   9.12070588
_cell_angle_alpha   90.00000000
_cell_angle_beta   90.00000000
_cell_angle_gamma   120.00573137
_symmetry_Int_Tables_number   1
_chemical_formula_structural   SmRu2
_chemical_formula_sum   'Sm4 Ru8'
_cell_volume   222.40646767
_cell_formula_units_Z   4
loop_
 _symmetry_equiv_pos_site_id
 _symmetry_equiv_pos_as_xyz
  1  'x, y, z'
loop_
 _atom_site_type_symbol
 _atom_site_label
 _atom_site_symmetry_multiplicity
 _atom_site_fract_x
 _atom_site_fract_y
 _atom_site_fract_z
 _atom_site_occupancy
  Sm  Sm0  1  0.66673679  0.33326321  0.56767929  1
  Sm  Sm1  1  0.33326321  0.66673679  0.43232071  1
  Sm  Sm2  1  0.33326321  0.66673679  0.06767929  1
  Sm  Sm3  1  0.66673679  0.33326321  0.93232071  1
  Ru  Ru4  1  0.00000000  0.00000000  0.50000000  1
  Ru  Ru5  1  0.00000000  0.00000000  0.00000000  1
  Ru  Ru6  1  0.17111746  0.34186165  0.75000000  1
  Ru  Ru7  1  0.17071399  0.82928601  0.75000000  1
  Ru  Ru8  1  0.65813835  0.82888254  0.75000000  1
  Ru  Ru9  1  0.82888254  0.65813835  0.25000000  1
  Ru  Ru10  1  0.82928601  0.17071399  0.25000000  1
  Ru  Ru11  1  0.34186165  0.17111746  0.25000000  1
