# generated using pymatgen
data_GdGeIr
_symmetry_space_group_name_H-M   'P 1'
_cell_length_a   4.36384083
_cell_length_b   6.98140965
_cell_length_c   7.61977465
_cell_angle_alpha   90.00000000
_cell_angle_beta   90.00000000
_cell_angle_gamma   90.00000000
_symmetry_Int_Tables_number   1
_chemical_formula_structural   GdGeIr
_chemical_formula_sum   'Gd4 Ge4 Ir4'
_cell_volume   232.14222941
_cell_formula_units_Z   4
loop_
 _symmetry_equiv_pos_site_id
 _symmetry_equiv_pos_as_xyz
  1  'x, y, z'
loop_
 _atom_site_type_symbol
 _atom_site_label
 _atom_site_symmetry_multiplicity
 _atom_site_fract_x
 _atom_site_fract_y
 _atom_site_fract_z
 _atom_site_occupancy
  Gd  Gd0  1  0.75000000  0.49940577  0.19306234  1
  Gd  Gd1  1  0.75000000  0.99940577  0.30693766  1
  Gd  Gd2  1  0.25000000  0.50059423  0.80693766  1
  Gd  Gd3  1  0.25000000  0.00059423  0.69306234  1
  Ge  Ge4  1  0.75000000  0.20555420  0.89463572  1
  Ge  Ge5  1  0.75000000  0.70555420  0.60536428  1
  Ge  Ge6  1  0.25000000  0.79444580  0.10536428  1
  Ge  Ge7  1  0.25000000  0.29444580  0.39463572  1
  Ir  Ir8  1  0.75000000  0.33874758  0.56966553  1
  Ir  Ir9  1  0.75000000  0.83874758  0.93033447  1
  Ir  Ir10  1  0.25000000  0.66125242  0.43033447  1
  Ir  Ir11  1  0.25000000  0.16125242  0.06966553  1
