# generated using pymatgen
data_CeAlAu
_symmetry_space_group_name_H-M   'P 1'
_cell_length_a   4.57098865
_cell_length_b   7.47812694
_cell_length_c   7.80792367
_cell_angle_alpha   90.00000000
_cell_angle_beta   90.00000000
_cell_angle_gamma   90.00000000
_symmetry_Int_Tables_number   1
_chemical_formula_structural   CeAlAu
_chemical_formula_sum   'Ce4 Al4 Au4'
_cell_volume   266.89383058
_cell_formula_units_Z   4
loop_
 _symmetry_equiv_pos_site_id
 _symmetry_equiv_pos_as_xyz
  1  'x, y, z'
loop_
 _atom_site_type_symbol
 _atom_site_label
 _atom_site_symmetry_multiplicity
 _atom_site_fract_x
 _atom_site_fract_y
 _atom_site_fract_z
 _atom_site_occupancy
  Ce  Ce0  1  0.75000000  0.48989100  0.19579010  1
  Ce  Ce1  1  0.75000000  0.98989100  0.30420990  1
  Ce  Ce2  1  0.25000000  0.51010900  0.80420990  1
  Ce  Ce3  1  0.25000000  0.01010900  0.69579010  1
  Al  Al4  1  0.75000000  0.32410329  0.57822255  1
  Al  Al5  1  0.75000000  0.82410329  0.92177745  1
  Al  Al6  1  0.25000000  0.67589671  0.42177745  1
  Al  Al7  1  0.25000000  0.17589671  0.07822255  1
  Au  Au8  1  0.75000000  0.20319597  0.90354847  1
  Au  Au9  1  0.75000000  0.70319597  0.59645153  1
  Au  Au10  1  0.25000000  0.79680403  0.09645153  1
  Au  Au11  1  0.25000000  0.29680403  0.40354847  1
