# generated using pymatgen
data_PrNi3
_symmetry_space_group_name_H-M   'P 1'
_cell_length_a   5.02389348
_cell_length_b   5.02389348
_cell_length_c   8.81135828
_cell_angle_alpha   73.43633897
_cell_angle_beta   73.43633897
_cell_angle_gamma   59.99999264
_symmetry_Int_Tables_number   1
_chemical_formula_structural   PrNi3
_chemical_formula_sum   'Pr3 Ni9'
_cell_volume   181.86485788
_cell_formula_units_Z   3
loop_
 _symmetry_equiv_pos_site_id
 _symmetry_equiv_pos_as_xyz
  1  'x, y, z'
loop_
 _atom_site_type_symbol
 _atom_site_label
 _atom_site_symmetry_multiplicity
 _atom_site_fract_x
 _atom_site_fract_y
 _atom_site_fract_z
 _atom_site_occupancy
  Pr  Pr0  1  0.00000000  0.00000000  -0.00000000  1
  Pr  Pr1  1  0.13877228  0.13877228  0.58368316  1
  Pr  Pr2  1  0.86122772  0.86122772  0.41631684  1
  Ni  Ni3  1  0.50000000  0.50000000  0.50000000  1
  Ni  Ni4  1  0.33215596  0.33215596  0.00353211  1
  Ni  Ni5  1  0.66784404  0.66784404  0.99646789  1
  Ni  Ni6  1  0.08184901  0.58002288  0.75810522  1
  Ni  Ni7  1  0.58002288  0.58002288  0.75810522  1
  Ni  Ni8  1  0.58002288  0.08184901  0.75810522  1
  Ni  Ni9  1  0.91815099  0.41997712  0.24189478  1
  Ni  Ni10  1  0.41997712  0.41997712  0.24189478  1
  Ni  Ni11  1  0.41997712  0.91815099  0.24189478  1
