# generated using pymatgen
data_PuSb2
_symmetry_space_group_name_H-M   'P 1'
_cell_length_a   4.40595031
_cell_length_b   4.40595031
_cell_length_c   17.15059014
_cell_angle_alpha   90.00000000
_cell_angle_beta   90.00000000
_cell_angle_gamma   89.92960871
_symmetry_Int_Tables_number   1
_chemical_formula_structural   PuSb2
_chemical_formula_sum   'Pu4 Sb8'
_cell_volume   332.93383299
_cell_formula_units_Z   4
loop_
 _symmetry_equiv_pos_site_id
 _symmetry_equiv_pos_as_xyz
  1  'x, y, z'
loop_
 _atom_site_type_symbol
 _atom_site_label
 _atom_site_symmetry_multiplicity
 _atom_site_fract_x
 _atom_site_fract_y
 _atom_site_fract_z
 _atom_site_occupancy
  Pu  Pu0  1  0.35875252  0.35875252  0.89308748  1
  Pu  Pu1  1  0.64124748  0.64124748  0.10691252  1
  Pu  Pu2  1  0.14124748  0.14124748  0.39308748  1
  Pu  Pu3  1  0.85875252  0.85875252  0.60691252  1
  Sb  Sb4  1  0.35920547  0.35920547  0.57003966  1
  Sb  Sb5  1  0.64079453  0.64079453  0.42996034  1
  Sb  Sb6  1  0.14079453  0.14079453  0.07003966  1
  Sb  Sb7  1  0.85920547  0.85920547  0.92996034  1
  Sb  Sb8  1  0.87355853  0.37355853  0.75000000  1
  Sb  Sb9  1  0.62644147  0.12644147  0.25000000  1
  Sb  Sb10  1  0.12644147  0.62644147  0.25000000  1
  Sb  Sb11  1  0.37355853  0.87355853  0.75000000  1
