# generated using pymatgen
data_YGaRh
_symmetry_space_group_name_H-M   'P 1'
_cell_length_a   4.36436941
_cell_length_b   6.81179094
_cell_length_c   7.75335517
_cell_angle_alpha   90.00000000
_cell_angle_beta   90.00000000
_cell_angle_gamma   90.00000000
_symmetry_Int_Tables_number   1
_chemical_formula_structural   YGaRh
_chemical_formula_sum   'Y4 Ga4 Rh4'
_cell_volume   230.50082947
_cell_formula_units_Z   4
loop_
 _symmetry_equiv_pos_site_id
 _symmetry_equiv_pos_as_xyz
  1  'x, y, z'
loop_
 _atom_site_type_symbol
 _atom_site_label
 _atom_site_symmetry_multiplicity
 _atom_site_fract_x
 _atom_site_fract_y
 _atom_site_fract_z
 _atom_site_occupancy
  Y  Y0  1  0.75000000  0.51853515  0.19508275  1
  Y  Y1  1  0.75000000  0.01853515  0.30491725  1
  Y  Y2  1  0.25000000  0.48146485  0.80491725  1
  Y  Y3  1  0.25000000  0.98146485  0.69508275  1
  Ga  Ga4  1  0.75000000  0.16626877  0.92563681  1
  Ga  Ga5  1  0.75000000  0.66626877  0.57436319  1
  Ga  Ga6  1  0.25000000  0.83373123  0.07436319  1
  Ga  Ga7  1  0.25000000  0.33373123  0.42563681  1
  Rh  Rh8  1  0.75000000  0.27431271  0.60121177  1
  Rh  Rh9  1  0.75000000  0.77431271  0.89878823  1
  Rh  Rh10  1  0.25000000  0.72568729  0.39878823  1
  Rh  Rh11  1  0.25000000  0.22568729  0.10121177  1
