# generated using pymatgen
data_SmGaPt
_symmetry_space_group_name_H-M   'P 1'
_cell_length_a   4.47324791
_cell_length_b   7.04342989
_cell_length_c   7.81161886
_cell_angle_alpha   90.00000000
_cell_angle_beta   90.00000000
_cell_angle_gamma   90.00000000
_symmetry_Int_Tables_number   1
_chemical_formula_structural   SmGaPt
_chemical_formula_sum   'Sm4 Ga4 Pt4'
_cell_volume   246.12073819
_cell_formula_units_Z   4
loop_
 _symmetry_equiv_pos_site_id
 _symmetry_equiv_pos_as_xyz
  1  'x, y, z'
loop_
 _atom_site_type_symbol
 _atom_site_label
 _atom_site_symmetry_multiplicity
 _atom_site_fract_x
 _atom_site_fract_y
 _atom_site_fract_z
 _atom_site_occupancy
  Sm  Sm0  1  0.75000000  0.51535091  0.19856421  1
  Sm  Sm1  1  0.75000000  0.01535091  0.30143579  1
  Sm  Sm2  1  0.25000000  0.48464909  0.80143579  1
  Sm  Sm3  1  0.25000000  0.98464909  0.69856421  1
  Ga  Ga4  1  0.75000000  0.17165609  0.92653309  1
  Ga  Ga5  1  0.75000000  0.67165609  0.57346691  1
  Ga  Ga6  1  0.25000000  0.82834391  0.07346691  1
  Ga  Ga7  1  0.25000000  0.32834391  0.42653309  1
  Pt  Pt8  1  0.75000000  0.27730110  0.59841139  1
  Pt  Pt9  1  0.75000000  0.77730110  0.90158861  1
  Pt  Pt10  1  0.25000000  0.72269890  0.40158861  1
  Pt  Pt11  1  0.25000000  0.22269890  0.09841139  1
