# generated using pymatgen
data_ErAlPt
_symmetry_space_group_name_H-M   'P 1'
_cell_length_a   4.42661114
_cell_length_b   6.83369256
_cell_length_c   7.69986297
_cell_angle_alpha   90.00000000
_cell_angle_beta   90.00000000
_cell_angle_gamma   90.00000000
_symmetry_Int_Tables_number   1
_chemical_formula_structural   ErAlPt
_chemical_formula_sum   'Er4 Al4 Pt4'
_cell_volume   232.92162185
_cell_formula_units_Z   4
loop_
 _symmetry_equiv_pos_site_id
 _symmetry_equiv_pos_as_xyz
  1  'x, y, z'
loop_
 _atom_site_type_symbol
 _atom_site_label
 _atom_site_symmetry_multiplicity
 _atom_site_fract_x
 _atom_site_fract_y
 _atom_site_fract_z
 _atom_site_occupancy
  Er  Er0  1  0.75000000  0.02621956  0.31600340  1
  Er  Er1  1  0.25000000  0.97378044  0.68399660  1
  Er  Er2  1  0.25000000  0.47378044  0.81600340  1
  Er  Er3  1  0.75000000  0.52621956  0.18399660  1
  Al  Al4  1  0.75000000  0.65099752  0.56450415  1
  Al  Al5  1  0.25000000  0.34900248  0.43549585  1
  Al  Al6  1  0.25000000  0.84900248  0.06450415  1
  Al  Al7  1  0.75000000  0.15099752  0.93549585  1
  Pt  Pt8  1  0.75000000  0.77259631  0.88761385  1
  Pt  Pt9  1  0.25000000  0.22740369  0.11238615  1
  Pt  Pt10  1  0.25000000  0.72740369  0.38761385  1
  Pt  Pt11  1  0.75000000  0.27259631  0.61238615  1
