# generated using pymatgen
data_NaMnO2
_symmetry_space_group_name_H-M   'P 1'
_cell_length_a   4.47521586
_cell_length_b   4.45493647
_cell_length_c   5.41371952
_cell_angle_alpha   65.78333062
_cell_angle_beta   114.44503141
_cell_angle_gamma   90.00866315
_symmetry_Int_Tables_number   1
_chemical_formula_structural   NaMnO2
_chemical_formula_sum   'Na2 Mn2 O4'
_cell_volume   87.72109121
_cell_formula_units_Z   2
loop_
 _symmetry_equiv_pos_site_id
 _symmetry_equiv_pos_as_xyz
  1  'x, y, z'
loop_
 _atom_site_type_symbol
 _atom_site_label
 _atom_site_symmetry_multiplicity
 _atom_site_fract_x
 _atom_site_fract_y
 _atom_site_fract_z
 _atom_site_occupancy
  Na  Na0  1  0.37180677  0.37458164  0.75119595  1
  Na  Na1  1  0.62207459  0.62812028  0.24562864  1
  Mn  Mn2  1  0.87079392  0.87578481  0.74867884  1
  Mn  Mn3  1  0.12092897  0.12410275  0.24932986  1
  O  O4  1  0.34589754  0.90687013  0.68693201  1
  O  O5  1  0.09298969  0.66128470  0.18700313  1
  O  O6  1  0.90222135  0.34718446  0.81105050  1
  O  O7  1  0.65868216  0.09559123  0.31118406  1
