# generated using pymatgen
data_Li4Pr3Ge4
_symmetry_space_group_name_H-M   'P 1'
_cell_length_a   4.46831730
_cell_length_b   6.89944596
_cell_length_c   8.49238374
_cell_angle_alpha   113.96720888
_cell_angle_beta   105.25277373
_cell_angle_gamma   90.00000000
_symmetry_Int_Tables_number   1
_chemical_formula_structural   Li4Pr3Ge4
_chemical_formula_sum   'Li4 Pr3 Ge4'
_cell_volume   229.10784308
_cell_formula_units_Z   1
loop_
 _symmetry_equiv_pos_site_id
 _symmetry_equiv_pos_as_xyz
  1  'x, y, z'
loop_
 _atom_site_type_symbol
 _atom_site_label
 _atom_site_symmetry_multiplicity
 _atom_site_fract_x
 _atom_site_fract_y
 _atom_site_fract_z
 _atom_site_occupancy
  Li  Li0  1  0.67083561  0.98056523  0.34167121  1
  Li  Li1  1  0.32916439  0.01943477  0.65832879  1
  Li  Li2  1  0.32916439  0.63889402  0.65832879  1
  Li  Li3  1  0.67083561  0.36110598  0.34167121  1
  Pr  Pr4  1  0.00000000  0.00000000  0.00000000  1
  Pr  Pr5  1  0.13128398  0.63128398  0.26256796  1
  Pr  Pr6  1  0.86871602  0.36871602  0.73743204  1
  Ge  Ge7  1  0.50000000  0.68403603  0.00000000  1
  Ge  Ge8  1  0.50000000  0.31596397  0.00000000  1
  Ge  Ge9  1  0.78688562  0.78688562  0.57377124  1
  Ge  Ge10  1  0.21311438  0.21311438  0.42622876  1
