# generated using pymatgen
data_SmPO4
_symmetry_space_group_name_H-M   'P 1'
_cell_length_a   5.90243536
_cell_length_b   5.90243536
_cell_length_c   5.90243536
_cell_angle_alpha   105.78487395
_cell_angle_beta   105.78487395
_cell_angle_gamma   117.12591946
_symmetry_Int_Tables_number   1
_chemical_formula_structural   SmPO4
_chemical_formula_sum   'Sm2 P2 O8'
_cell_volume   156.15102313
_cell_formula_units_Z   2
loop_
 _symmetry_equiv_pos_site_id
 _symmetry_equiv_pos_as_xyz
  1  'x, y, z'
loop_
 _atom_site_type_symbol
 _atom_site_label
 _atom_site_symmetry_multiplicity
 _atom_site_fract_x
 _atom_site_fract_y
 _atom_site_fract_z
 _atom_site_occupancy
  Sm  Sm0  1  0.87500000  0.12500000  0.25000000  1
  Sm  Sm1  1  0.12500000  0.87500000  0.75000000  1
  P  P2  1  0.62500000  0.37500000  0.75000000  1
  P  P3  1  0.37500000  0.62500000  0.25000000  1
  O  O4  1  0.63903350  0.21804488  0.92098862  1
  O  O5  1  0.21804488  0.63903350  0.42098862  1
  O  O6  1  0.21804488  0.29705627  0.07901138  1
  O  O7  1  0.29705627  0.21804488  0.57901138  1
  O  O8  1  0.36096650  0.78195512  0.07901138  1
  O  O9  1  0.78195512  0.36096650  0.57901138  1
  O  O10  1  0.78195512  0.70294373  0.92098862  1
  O  O11  1  0.70294373  0.78195512  0.42098862  1
