# generated using pymatgen
data_NbVP
_symmetry_space_group_name_H-M   'P 1'
_cell_length_a   3.41967201
_cell_length_b   6.42573089
_cell_length_c   7.72094367
_cell_angle_alpha   90.00000000
_cell_angle_beta   90.00000000
_cell_angle_gamma   90.00000000
_symmetry_Int_Tables_number   1
_chemical_formula_structural   NbVP
_chemical_formula_sum   'Nb4 V4 P4'
_cell_volume   169.65918287
_cell_formula_units_Z   4
loop_
 _symmetry_equiv_pos_site_id
 _symmetry_equiv_pos_as_xyz
  1  'x, y, z'
loop_
 _atom_site_type_symbol
 _atom_site_label
 _atom_site_symmetry_multiplicity
 _atom_site_fract_x
 _atom_site_fract_y
 _atom_site_fract_z
 _atom_site_occupancy
  Nb  Nb0  1  0.75000000  0.46225491  0.66866497  1
  Nb  Nb1  1  0.75000000  0.96225491  0.83133503  1
  Nb  Nb2  1  0.25000000  0.53774509  0.33133503  1
  Nb  Nb3  1  0.25000000  0.03774509  0.16866497  1
  V  V4  1  0.75000000  0.36426197  0.05789292  1
  V  V5  1  0.75000000  0.86426197  0.44210708  1
  V  V6  1  0.25000000  0.63573803  0.94210708  1
  V  V7  1  0.25000000  0.13573803  0.55789292  1
  P  P8  1  0.75000000  0.73904756  0.13851082  1
  P  P9  1  0.75000000  0.23904756  0.36148918  1
  P  P10  1  0.25000000  0.26095244  0.86148918  1
  P  P11  1  0.25000000  0.76095244  0.63851082  1
