# generated using pymatgen
data_CoPW
_symmetry_space_group_name_H-M   'P 1'
_cell_length_a   3.75231400
_cell_length_b   5.78797459
_cell_length_c   6.72936843
_cell_angle_alpha   90.00000000
_cell_angle_beta   90.00000000
_cell_angle_gamma   90.00000000
_symmetry_Int_Tables_number   1
_chemical_formula_structural   CoPW
_chemical_formula_sum   'Co4 P4 W4'
_cell_volume   146.15042949
_cell_formula_units_Z   4
loop_
 _symmetry_equiv_pos_site_id
 _symmetry_equiv_pos_as_xyz
  1  'x, y, z'
loop_
 _atom_site_type_symbol
 _atom_site_label
 _atom_site_symmetry_multiplicity
 _atom_site_fract_x
 _atom_site_fract_y
 _atom_site_fract_z
 _atom_site_occupancy
  Co  Co0  1  0.75000000  0.64019568  0.56916987  1
  Co  Co1  1  0.75000000  0.14019568  0.93083013  1
  Co  Co2  1  0.25000000  0.35980432  0.43083013  1
  Co  Co3  1  0.25000000  0.85980432  0.06916987  1
  P  P4  1  0.75000000  0.26726258  0.62115241  1
  P  P5  1  0.75000000  0.76726258  0.87884759  1
  P  P6  1  0.25000000  0.73273742  0.37884759  1
  P  P7  1  0.25000000  0.23273742  0.12115241  1
  W  W8  1  0.75000000  0.53256741  0.16854801  1
  W  W9  1  0.75000000  0.03256741  0.33145199  1
  W  W10  1  0.25000000  0.46743259  0.83145199  1
  W  W11  1  0.25000000  0.96743259  0.66854801  1
