# generated using pymatgen
data_YGaNi
_symmetry_space_group_name_H-M   'P 1'
_cell_length_a   4.31473303
_cell_length_b   6.91841887
_cell_length_c   7.33874293
_cell_angle_alpha   90.00000000
_cell_angle_beta   90.00000000
_cell_angle_gamma   90.00000000
_symmetry_Int_Tables_number   1
_chemical_formula_structural   YGaNi
_chemical_formula_sum   'Y4 Ga4 Ni4'
_cell_volume   219.06977228
_cell_formula_units_Z   4
loop_
 _symmetry_equiv_pos_site_id
 _symmetry_equiv_pos_as_xyz
  1  'x, y, z'
loop_
 _atom_site_type_symbol
 _atom_site_label
 _atom_site_symmetry_multiplicity
 _atom_site_fract_x
 _atom_site_fract_y
 _atom_site_fract_z
 _atom_site_occupancy
  Y  Y0  1  0.75000000  0.48358566  0.69922206  1
  Y  Y1  1  0.75000000  0.98358566  0.80077794  1
  Y  Y2  1  0.25000000  0.51641434  0.30077794  1
  Y  Y3  1  0.25000000  0.01641434  0.19922206  1
  Ga  Ga4  1  0.75000000  0.31794505  0.08053413  1
  Ga  Ga5  1  0.75000000  0.81794505  0.41946587  1
  Ga  Ga6  1  0.25000000  0.68205495  0.91946587  1
  Ga  Ga7  1  0.25000000  0.18205495  0.58053413  1
  Ni  Ni8  1  0.75000000  0.70703088  0.09066392  1
  Ni  Ni9  1  0.75000000  0.20703088  0.40933608  1
  Ni  Ni10  1  0.25000000  0.29296912  0.90933608  1
  Ni  Ni11  1  0.25000000  0.79296912  0.59066392  1
