# generated using pymatgen
data_Nd3(AgSn)4
_symmetry_space_group_name_H-M   'P 1'
_cell_length_a   4.70399413
_cell_length_b   7.41171834
_cell_length_c   8.96660404
_cell_angle_alpha   114.41203372
_cell_angle_beta   105.20695613
_cell_angle_gamma   90.00000000
_symmetry_Int_Tables_number   1
_chemical_formula_structural   Nd3(AgSn)4
_chemical_formula_sum   'Nd3 Ag4 Sn4'
_cell_volume   272.60235318
_cell_formula_units_Z   1
loop_
 _symmetry_equiv_pos_site_id
 _symmetry_equiv_pos_as_xyz
  1  'x, y, z'
loop_
 _atom_site_type_symbol
 _atom_site_label
 _atom_site_symmetry_multiplicity
 _atom_site_fract_x
 _atom_site_fract_y
 _atom_site_fract_z
 _atom_site_occupancy
  Nd  Nd0  1  0.00000000  0.50000000  -0.00000000  1
  Nd  Nd1  1  0.87038038  0.87038038  0.74076077  1
  Nd  Nd2  1  0.12961962  0.12961962  0.25923923  1
  Ag  Ag3  1  0.66997857  0.47461931  0.33995714  1
  Ag  Ag4  1  0.66997857  0.86533784  0.33995714  1
  Ag  Ag5  1  0.33002143  0.13466216  0.66004286  1
  Ag  Ag6  1  0.33002143  0.52538069  0.66004286  1
  Sn  Sn7  1  0.78498578  0.28498578  0.56997156  1
  Sn  Sn8  1  0.21501422  0.71501422  0.43002844  1
  Sn  Sn9  1  0.50000000  0.80583713  0.00000000  1
  Sn  Sn10  1  0.50000000  0.19416287  1.00000000  1
