# generated using pymatgen
data_HfTl2Se3
_symmetry_space_group_name_H-M   'P 1'
_cell_length_a   3.94337964
_cell_length_b   8.26290387
_cell_length_c   10.82424794
_cell_angle_alpha   97.35968194
_cell_angle_beta   90.00000000
_cell_angle_gamma   90.00000000
_symmetry_Int_Tables_number   1
_chemical_formula_structural   HfTl2Se3
_chemical_formula_sum   'Hf2 Tl4 Se6'
_cell_volume   349.78911276
_cell_formula_units_Z   2
loop_
 _symmetry_equiv_pos_site_id
 _symmetry_equiv_pos_as_xyz
  1  'x, y, z'
loop_
 _atom_site_type_symbol
 _atom_site_label
 _atom_site_symmetry_multiplicity
 _atom_site_fract_x
 _atom_site_fract_y
 _atom_site_fract_z
 _atom_site_occupancy
  Hf  Hf0  1  0.75000000  0.59114608  0.66530362  1
  Hf  Hf1  1  0.25000000  0.40885392  0.33469638  1
  Tl  Tl2  1  0.75000000  0.93648793  0.34176287  1
  Tl  Tl3  1  0.25000000  0.06351207  0.65823713  1
  Tl  Tl4  1  0.75000000  0.25126933  0.99957116  1
  Tl  Tl5  1  0.25000000  0.74873067  0.00042884  1
  Se  Se6  1  0.75000000  0.86665205  0.80757356  1
  Se  Se7  1  0.25000000  0.13334795  0.19242644  1
  Se  Se8  1  0.75000000  0.54600743  0.21369051  1
  Se  Se9  1  0.25000000  0.45399257  0.78630949  1
  Se  Se10  1  0.75000000  0.31209437  0.48509973  1
  Se  Se11  1  0.25000000  0.68790563  0.51490027  1
