# generated using pymatgen
data_TaCoSi
_symmetry_space_group_name_H-M   'P 1'
_cell_length_a   3.65427061
_cell_length_b   6.21574152
_cell_length_c   7.03058794
_cell_angle_alpha   90.00000000
_cell_angle_beta   90.00000000
_cell_angle_gamma   90.00000000
_symmetry_Int_Tables_number   1
_chemical_formula_structural   TaCoSi
_chemical_formula_sum   'Ta4 Co4 Si4'
_cell_volume   159.69278541
_cell_formula_units_Z   4
loop_
 _symmetry_equiv_pos_site_id
 _symmetry_equiv_pos_as_xyz
  1  'x, y, z'
loop_
 _atom_site_type_symbol
 _atom_site_label
 _atom_site_symmetry_multiplicity
 _atom_site_fract_x
 _atom_site_fract_y
 _atom_site_fract_z
 _atom_site_occupancy
  Ta  Ta0  1  0.75000000  0.47978393  0.67997871  1
  Ta  Ta1  1  0.75000000  0.97978393  0.82002129  1
  Ta  Ta2  1  0.25000000  0.52021607  0.32002129  1
  Ta  Ta3  1  0.25000000  0.02021607  0.17997871  1
  Co  Co4  1  0.75000000  0.35797954  0.06408780  1
  Co  Co5  1  0.75000000  0.85797954  0.43591220  1
  Co  Co6  1  0.25000000  0.64202046  0.93591220  1
  Co  Co7  1  0.25000000  0.14202046  0.56408780  1
  Si  Si8  1  0.75000000  0.72490961  0.11693463  1
  Si  Si9  1  0.75000000  0.22490961  0.38306537  1
  Si  Si10  1  0.25000000  0.27509039  0.88306537  1
  Si  Si11  1  0.25000000  0.77509039  0.61693463  1
