# generated using pymatgen
data_Li4FeOF5
_symmetry_space_group_name_H-M   'P 1'
_cell_length_a   5.15439749
_cell_length_b   5.15436288
_cell_length_c   14.43377782
_cell_angle_alpha   90.00142534
_cell_angle_beta   90.00030425
_cell_angle_gamma   59.99821298
_symmetry_Int_Tables_number   1
_chemical_formula_structural   Li4FeOF5
_chemical_formula_sum   'Li12 Fe3 O3 F15'
_cell_volume   332.08994386
_cell_formula_units_Z   3
loop_
 _symmetry_equiv_pos_site_id
 _symmetry_equiv_pos_as_xyz
  1  'x, y, z'
loop_
 _atom_site_type_symbol
 _atom_site_label
 _atom_site_symmetry_multiplicity
 _atom_site_fract_x
 _atom_site_fract_y
 _atom_site_fract_z
 _atom_site_occupancy
  Li  Li0  1  0.21885236  0.23681045  0.50203815  1
  Li  Li1  1  0.23679126  0.54436085  0.16868991  1
  Li  Li2  1  0.22398408  0.88028225  0.82653794  1
  Li  Li3  1  0.54432173  0.21887040  0.83537307  1
  Li  Li4  1  0.55273491  0.57429428  0.99903677  1
  Li  Li5  1  0.58371291  0.51392039  0.49196462  1
  Li  Li6  1  0.51387085  0.90240669  0.15862113  1
  Li  Li7  1  0.57427862  0.87294655  0.66570885  1
  Li  Li8  1  0.89576985  0.22397171  0.15985230  1
  Li  Li9  1  0.87300330  0.55275636  0.33236822  1
  Li  Li10  1  0.90238885  0.58371731  0.82530231  1
  Li  Li11  1  0.88029247  0.89581373  0.49317525  1
  Fe  Fe12  1  0.19636191  0.91694720  0.33979225  1
  Fe  Fe13  1  0.88666955  0.19622450  0.67318435  1
  Fe  Fe14  1  0.91688039  0.88671654  0.00644244  1
  O  O15  1  0.20632236  0.86428393  0.08111804  1
  O  O16  1  0.92950179  0.20623549  0.41441506  1
  O  O17  1  0.86429745  0.92951957  0.74774379  1
  F  F18  1  0.19572216  0.21711320  0.24304584  1
  F  F19  1  0.21062816  0.20878196  0.75565525  1
  F  F20  1  0.20882055  0.58057216  0.42231087  1
  F  F21  1  0.21709162  0.58718563  0.90972338  1
  F  F22  1  0.58718200  0.19571048  0.57638201  1
  F  F23  1  0.58053994  0.21064332  0.08898610  1
  F  F24  1  0.21833642  0.92848613  0.58679301  1
  F  F25  1  0.53334553  0.60532383  0.25117422  1
  F  F26  1  0.58884733  0.55566986  0.75110355  1
  F  F27  1  0.85314246  0.21832521  0.92013589  1
  F  F28  1  0.55572139  0.85547586  0.41776427  1
  F  F29  1  0.60528921  0.86135531  0.91785510  1
  F  F30  1  0.85547974  0.58881480  0.08443592  1
  F  F31  1  0.86135040  0.53329708  0.58452502  1
  F  F32  1  0.92848943  0.85318297  0.25345014  1
