# generated using pymatgen
data_TmCoSi
_symmetry_space_group_name_H-M   'P 1'
_cell_length_a   4.13156285
_cell_length_b   6.78767502
_cell_length_c   6.94452491
_cell_angle_alpha   90.00000000
_cell_angle_beta   90.00000000
_cell_angle_gamma   90.00000000
_symmetry_Int_Tables_number   1
_chemical_formula_structural   TmCoSi
_chemical_formula_sum   'Tm4 Co4 Si4'
_cell_volume   194.75021454
_cell_formula_units_Z   4
loop_
 _symmetry_equiv_pos_site_id
 _symmetry_equiv_pos_as_xyz
  1  'x, y, z'
loop_
 _atom_site_type_symbol
 _atom_site_label
 _atom_site_symmetry_multiplicity
 _atom_site_fract_x
 _atom_site_fract_y
 _atom_site_fract_z
 _atom_site_occupancy
  Tm  Tm0  1  0.75000000  0.51514519  0.80766744  1
  Tm  Tm1  1  0.75000000  0.01514519  0.69233256  1
  Tm  Tm2  1  0.25000000  0.48485481  0.19233256  1
  Tm  Tm3  1  0.25000000  0.98485481  0.30766744  1
  Co  Co4  1  0.75000000  0.35220046  0.43818971  1
  Co  Co5  1  0.75000000  0.85220046  0.06181029  1
  Co  Co6  1  0.25000000  0.64779954  0.56181029  1
  Co  Co7  1  0.25000000  0.14779954  0.93818971  1
  Si  Si8  1  0.75000000  0.19764333  0.10524139  1
  Si  Si9  1  0.75000000  0.69764333  0.39475861  1
  Si  Si10  1  0.25000000  0.80235667  0.89475861  1
  Si  Si11  1  0.25000000  0.30235667  0.60524139  1
