# generated using pymatgen
data_MnNiP
_symmetry_space_group_name_H-M   'P 1'
_cell_length_a   3.43671136
_cell_length_b   5.84318309
_cell_length_c   6.75156883
_cell_angle_alpha   90.00000000
_cell_angle_beta   90.00000000
_cell_angle_gamma   90.00000000
_symmetry_Int_Tables_number   1
_chemical_formula_structural   MnNiP
_chemical_formula_sum   'Mn4 Ni4 P4'
_cell_volume   135.58050670
_cell_formula_units_Z   4
loop_
 _symmetry_equiv_pos_site_id
 _symmetry_equiv_pos_as_xyz
  1  'x, y, z'
loop_
 _atom_site_type_symbol
 _atom_site_label
 _atom_site_symmetry_multiplicity
 _atom_site_fract_x
 _atom_site_fract_y
 _atom_site_fract_z
 _atom_site_occupancy
  Mn  Mn0  1  0.75000000  0.46862926  0.34123605  1
  Mn  Mn1  1  0.75000000  0.96862926  0.15876395  1
  Mn  Mn2  1  0.25000000  0.53137074  0.65876395  1
  Mn  Mn3  1  0.25000000  0.03137074  0.84123605  1
  Ni  Ni4  1  0.75000000  0.36071512  0.93547536  1
  Ni  Ni5  1  0.75000000  0.86071512  0.56452464  1
  Ni  Ni6  1  0.25000000  0.63928488  0.06452464  1
  Ni  Ni7  1  0.25000000  0.13928488  0.43547536  1
  P  P8  1  0.75000000  0.74099503  0.87046774  1
  P  P9  1  0.75000000  0.24099503  0.62953226  1
  P  P10  1  0.25000000  0.25900497  0.12953226  1
  P  P11  1  0.25000000  0.75900497  0.37046774  1
