# generated using pymatgen
data_TmGeIr
_symmetry_space_group_name_H-M   'P 1'
_cell_length_a   4.28350113
_cell_length_b   6.77027185
_cell_length_c   7.62508374
_cell_angle_alpha   90.00000000
_cell_angle_beta   90.00000000
_cell_angle_gamma   90.00000000
_symmetry_Int_Tables_number   1
_chemical_formula_structural   TmGeIr
_chemical_formula_sum   'Tm4 Ge4 Ir4'
_cell_volume   221.13099029
_cell_formula_units_Z   4
loop_
 _symmetry_equiv_pos_site_id
 _symmetry_equiv_pos_as_xyz
  1  'x, y, z'
loop_
 _atom_site_type_symbol
 _atom_site_label
 _atom_site_symmetry_multiplicity
 _atom_site_fract_x
 _atom_site_fract_y
 _atom_site_fract_z
 _atom_site_occupancy
  Tm  Tm0  1  0.75000000  0.99357877  0.80566167  1
  Tm  Tm1  1  0.75000000  0.49357877  0.69433833  1
  Tm  Tm2  1  0.25000000  0.00642123  0.19433833  1
  Tm  Tm3  1  0.25000000  0.50642123  0.30566167  1
  Ge  Ge4  1  0.75000000  0.71231679  0.11142815  1
  Ge  Ge5  1  0.75000000  0.21231679  0.38857185  1
  Ge  Ge6  1  0.25000000  0.28768321  0.88857185  1
  Ge  Ge7  1  0.25000000  0.78768321  0.61142815  1
  Ir  Ir8  1  0.75000000  0.33860058  0.06366534  1
  Ir  Ir9  1  0.75000000  0.83860058  0.43633466  1
  Ir  Ir10  1  0.25000000  0.66139942  0.93633466  1
  Ir  Ir11  1  0.25000000  0.16139942  0.56366534  1
