# generated using pymatgen
data_Ce3(SiRh)4
_symmetry_space_group_name_H-M   'P 1'
_cell_length_a   4.00605233
_cell_length_b   4.16835739
_cell_length_c   12.64947999
_cell_angle_alpha   99.48352401
_cell_angle_beta   99.11104798
_cell_angle_gamma   90.00000000
_symmetry_Int_Tables_number   1
_chemical_formula_structural   Ce3(SiRh)4
_chemical_formula_sum   'Ce3 Si4 Rh4'
_cell_volume   205.64004321
_cell_formula_units_Z   1
loop_
 _symmetry_equiv_pos_site_id
 _symmetry_equiv_pos_as_xyz
  1  'x, y, z'
loop_
 _atom_site_type_symbol
 _atom_site_label
 _atom_site_symmetry_multiplicity
 _atom_site_fract_x
 _atom_site_fract_y
 _atom_site_fract_z
 _atom_site_occupancy
  Ce  Ce0  1  0.00000000  0.00000000  0.00000000  1
  Ce  Ce1  1  0.14487638  0.64487638  0.28975277  1
  Ce  Ce2  1  0.85512362  0.35512362  0.71024723  1
  Si  Si3  1  0.30249745  0.80249745  0.60499489  1
  Si  Si4  1  0.69750255  0.19750255  0.39500511  1
  Si  Si5  1  0.54782778  0.54782778  0.09565556  1
  Si  Si6  1  0.45217222  0.45217222  0.90434444  1
  Rh  Rh7  1  0.40086395  0.90086395  0.80172789  1
  Rh  Rh8  1  0.59913605  0.09913605  0.19827211  1
  Rh  Rh9  1  0.74995095  0.74995095  0.49990189  1
  Rh  Rh10  1  0.25004905  0.25004905  0.50009811  1
