# generated using pymatgen
data_ErGaPt
_symmetry_space_group_name_H-M   'P 1'
_cell_length_a   4.43911038
_cell_length_b   6.83777541
_cell_length_c   7.66371553
_cell_angle_alpha   90.00000000
_cell_angle_beta   90.00000000
_cell_angle_gamma   90.00000000
_symmetry_Int_Tables_number   1
_chemical_formula_structural   ErGaPt
_chemical_formula_sum   'Er4 Ga4 Pt4'
_cell_volume   232.62166072
_cell_formula_units_Z   4
loop_
 _symmetry_equiv_pos_site_id
 _symmetry_equiv_pos_as_xyz
  1  'x, y, z'
loop_
 _atom_site_type_symbol
 _atom_site_label
 _atom_site_symmetry_multiplicity
 _atom_site_fract_x
 _atom_site_fract_y
 _atom_site_fract_z
 _atom_site_occupancy
  Er  Er0  1  0.75000000  0.51517755  0.19734759  1
  Er  Er1  1  0.75000000  0.01517755  0.30265241  1
  Er  Er2  1  0.25000000  0.48482245  0.80265241  1
  Er  Er3  1  0.25000000  0.98482245  0.69734759  1
  Ga  Ga4  1  0.75000000  0.17556182  0.92779036  1
  Ga  Ga5  1  0.75000000  0.67556182  0.57220964  1
  Ga  Ga6  1  0.25000000  0.82443818  0.07220964  1
  Ga  Ga7  1  0.25000000  0.32443818  0.42779036  1
  Pt  Pt8  1  0.75000000  0.27890249  0.60102737  1
  Pt  Pt9  1  0.75000000  0.77890249  0.89897263  1
  Pt  Pt10  1  0.25000000  0.72109751  0.39897263  1
  Pt  Pt11  1  0.25000000  0.22109751  0.10102737  1
