# generated using pymatgen
data_TmNi3
_symmetry_space_group_name_H-M   'P 1'
_cell_length_a   4.93461678
_cell_length_b   4.93461678
_cell_length_c   8.55835170
_cell_angle_alpha   73.24424525
_cell_angle_beta   73.24424525
_cell_angle_gamma   60.00000135
_symmetry_Int_Tables_number   1
_chemical_formula_structural   TmNi3
_chemical_formula_sum   'Tm3 Ni9'
_cell_volume   170.18578220
_cell_formula_units_Z   3
loop_
 _symmetry_equiv_pos_site_id
 _symmetry_equiv_pos_as_xyz
  1  'x, y, z'
loop_
 _atom_site_type_symbol
 _atom_site_label
 _atom_site_symmetry_multiplicity
 _atom_site_fract_x
 _atom_site_fract_y
 _atom_site_fract_z
 _atom_site_occupancy
  Tm  Tm0  1  0.13936568  0.13936568  0.58190297  1
  Tm  Tm1  1  0.86063432  0.86063432  0.41809703  1
  Tm  Tm2  1  0.00000000  -0.00000000  -0.00000000  1
  Ni  Ni3  1  0.08144017  0.58284989  0.75286005  1
  Ni  Ni4  1  0.58284989  0.58284989  0.75286005  1
  Ni  Ni5  1  0.58284989  0.08144017  0.75286005  1
  Ni  Ni6  1  0.91855983  0.41715011  0.24713995  1
  Ni  Ni7  1  0.41715011  0.41715011  0.24713995  1
  Ni  Ni8  1  0.41715011  0.91855983  0.24713995  1
  Ni  Ni9  1  0.33339811  0.33339811  -0.00019434  1
  Ni  Ni10  1  0.66660189  0.66660189  0.00019434  1
  Ni  Ni11  1  0.50000000  0.50000000  0.50000000  1
