# generated using pymatgen
data_Mn3Nb2Fe3O16
_symmetry_space_group_name_H-M   'P 1'
_cell_length_a   5.94140885
_cell_length_b   5.90774336
_cell_length_c   9.34218179
_cell_angle_alpha   89.83083718
_cell_angle_beta   88.98470849
_cell_angle_gamma   119.70164937
_symmetry_Int_Tables_number   1
_chemical_formula_structural   Mn3Nb2Fe3O16
_chemical_formula_sum   'Mn3 Nb2 Fe3 O16'
_cell_volume   284.76067011
_cell_formula_units_Z   1
loop_
 _symmetry_equiv_pos_site_id
 _symmetry_equiv_pos_as_xyz
  1  'x, y, z'
loop_
 _atom_site_type_symbol
 _atom_site_label
 _atom_site_symmetry_multiplicity
 _atom_site_fract_x
 _atom_site_fract_y
 _atom_site_fract_z
 _atom_site_occupancy
  Mn  Mn0  1  0.65721949  0.82966514  0.21383461  1
  Mn  Mn1  1  0.82810591  0.66091217  0.71263903  1
  Mn  Mn2  1  0.82904070  0.16745419  0.71218166  1
  Nb  Nb3  1  0.33728907  0.66850417  0.49629347  1
  Nb  Nb4  1  0.66617328  0.33228949  0.99907343  1
  Fe  Fe5  1  0.16213915  0.82905543  0.21219456  1
  Fe  Fe6  1  0.16186422  0.33441410  0.21440435  1
  Fe  Fe7  1  0.33252899  0.16591462  0.71341004  1
  O  O8  1  0.16579431  0.82899532  0.59919337  1
  O  O9  1  0.04508105  0.52355494  0.34329755  1
  O  O10  1  0.34455983  0.67146966  0.10731478  1
  O  O11  1  0.98424466  0.99215718  0.30858395  1
  O  O12  1  0.98725694  0.99298002  0.80898058  1
  O  O13  1  0.16412093  0.33549075  0.59770437  1
  O  O14  1  0.49241600  0.95980931  0.33725436  1
  O  O15  1  0.48916095  0.53088786  0.33617076  1
  O  O16  1  0.33462930  0.16721034  0.09454709  1
  O  O17  1  0.66610585  0.83369588  0.60442473  1
  O  O18  1  0.53273420  0.48782521  0.83502248  1
  O  O19  1  0.53366437  0.04475932  0.83560199  1
  O  O20  1  0.67792932  0.33993878  0.60853873  1
  O  O21  1  0.82346248  0.66132326  0.09831851  1
  O  O22  1  0.95765457  0.47756442  0.82772622  1
  O  O23  1  0.82682443  0.16433143  0.09901037  1
