# generated using pymatgen
data_CrCoP
_symmetry_space_group_name_H-M   'P 1'
_cell_length_a   3.52446780
_cell_length_b   5.73011162
_cell_length_c   6.68162700
_cell_angle_alpha   90.00000000
_cell_angle_beta   90.00000000
_cell_angle_gamma   90.00000000
_symmetry_Int_Tables_number   1
_chemical_formula_structural   CrCoP
_chemical_formula_sum   'Cr4 Co4 P4'
_cell_volume   134.93942545
_cell_formula_units_Z   4
loop_
 _symmetry_equiv_pos_site_id
 _symmetry_equiv_pos_as_xyz
  1  'x, y, z'
loop_
 _atom_site_type_symbol
 _atom_site_label
 _atom_site_symmetry_multiplicity
 _atom_site_fract_x
 _atom_site_fract_y
 _atom_site_fract_z
 _atom_site_occupancy
  Cr  Cr0  1  0.75000000  0.52725330  0.17345559  1
  Cr  Cr1  1  0.75000000  0.02725330  0.32654441  1
  Cr  Cr2  1  0.25000000  0.47274670  0.82654441  1
  Cr  Cr3  1  0.25000000  0.97274670  0.67345559  1
  Co  Co4  1  0.75000000  0.64333583  0.56355222  1
  Co  Co5  1  0.75000000  0.14333583  0.93644778  1
  Co  Co6  1  0.25000000  0.35666417  0.43644778  1
  Co  Co7  1  0.25000000  0.85666417  0.06355222  1
  P  P8  1  0.75000000  0.26110050  0.62318704  1
  P  P9  1  0.75000000  0.76110050  0.87681296  1
  P  P10  1  0.25000000  0.73889950  0.37681296  1
  P  P11  1  0.25000000  0.23889950  0.12318704  1
