# generated using pymatgen
data_Gd(Ge2Rh3)2
_symmetry_space_group_name_H-M   'P 1'
_cell_length_a   3.86389720
_cell_length_b   7.22646319
_cell_length_c   7.22646320
_cell_angle_alpha   120.00000262
_cell_angle_beta   90.00000000
_cell_angle_gamma   90.00000000
_symmetry_Int_Tables_number   1
_chemical_formula_structural   Gd(Ge2Rh3)2
_chemical_formula_sum   'Gd1 Ge4 Rh6'
_cell_volume   174.74621350
_cell_formula_units_Z   1
loop_
 _symmetry_equiv_pos_site_id
 _symmetry_equiv_pos_as_xyz
  1  'x, y, z'
loop_
 _atom_site_type_symbol
 _atom_site_label
 _atom_site_symmetry_multiplicity
 _atom_site_fract_x
 _atom_site_fract_y
 _atom_site_fract_z
 _atom_site_occupancy
  Gd  Gd0  1  0.00000000  0.00000000  0.00000000  1
  Ge  Ge1  1  0.00000000  0.66666700  0.33333300  1
  Ge  Ge2  1  0.50000000  0.19703733  0.80296137  1
  Ge  Ge3  1  0.50000000  0.60592404  0.80296267  1
  Ge  Ge4  1  0.50000000  0.19703863  0.39407596  1
  Rh  Rh5  1  0.00000000  0.46664396  0.53336832  1
  Rh  Rh6  1  0.00000000  0.06672436  0.53335604  1
  Rh  Rh7  1  0.00000000  0.46663168  0.93327564  1
  Rh  Rh8  1  0.50000000  0.80045178  0.19953509  1
  Rh  Rh9  1  0.50000000  0.39908331  0.19954822  1
  Rh  Rh10  1  0.50000000  0.80046491  0.60091669  1
