# generated using pymatgen
data_SbOsS
_symmetry_space_group_name_H-M   'P 1'
_cell_length_a   6.19453956
_cell_length_b   6.28403220
_cell_length_c   6.28727048
_cell_angle_alpha   111.59262653
_cell_angle_beta   90.00000000
_cell_angle_gamma   90.00000000
_symmetry_Int_Tables_number   1
_chemical_formula_structural   SbOsS
_chemical_formula_sum   'Sb4 Os4 S4'
_cell_volume   227.56751105
_cell_formula_units_Z   4
loop_
 _symmetry_equiv_pos_site_id
 _symmetry_equiv_pos_as_xyz
  1  'x, y, z'
loop_
 _atom_site_type_symbol
 _atom_site_label
 _atom_site_symmetry_multiplicity
 _atom_site_fract_x
 _atom_site_fract_y
 _atom_site_fract_z
 _atom_site_occupancy
  Sb  Sb0  1  0.12986112  0.85123788  0.12836570  1
  Sb  Sb1  1  0.62986112  0.14876212  0.37163430  1
  Sb  Sb2  1  0.87013888  0.14876212  0.87163430  1
  Sb  Sb3  1  0.37013888  0.85123788  0.62836570  1
  Os  Os4  1  0.51373812  0.70381382  0.19796896  1
  Os  Os5  1  0.01373812  0.29618618  0.30203104  1
  Os  Os6  1  0.48626188  0.29618618  0.80203104  1
  Os  Os7  1  0.98626188  0.70381382  0.69796896  1
  S  S8  1  0.86632775  0.64623500  0.32022257  1
  S  S9  1  0.36632775  0.35376500  0.17977743  1
  S  S10  1  0.13367225  0.35376500  0.67977743  1
  S  S11  1  0.63367225  0.64623500  0.82022257  1
