# generated using pymatgen
data_ErZnPt
_symmetry_space_group_name_H-M   'P 1'
_cell_length_a   4.12574966
_cell_length_b   6.92659987
_cell_length_c   8.17435480
_cell_angle_alpha   90.00000000
_cell_angle_beta   90.00000000
_cell_angle_gamma   90.00000000
_symmetry_Int_Tables_number   1
_chemical_formula_structural   ErZnPt
_chemical_formula_sum   'Er4 Zn4 Pt4'
_cell_volume   233.60194630
_cell_formula_units_Z   4
loop_
 _symmetry_equiv_pos_site_id
 _symmetry_equiv_pos_as_xyz
  1  'x, y, z'
loop_
 _atom_site_type_symbol
 _atom_site_label
 _atom_site_symmetry_multiplicity
 _atom_site_fract_x
 _atom_site_fract_y
 _atom_site_fract_z
 _atom_site_occupancy
  Er  Er0  1  0.75000000  0.45736110  0.18411791  1
  Er  Er1  1  0.75000000  0.95736110  0.31588209  1
  Er  Er2  1  0.25000000  0.54263890  0.81588209  1
  Er  Er3  1  0.25000000  0.04263890  0.68411791  1
  Zn  Zn4  1  0.75000000  0.86337180  0.93712685  1
  Zn  Zn5  1  0.75000000  0.36337180  0.56287315  1
  Zn  Zn6  1  0.25000000  0.13662820  0.06287315  1
  Zn  Zn7  1  0.25000000  0.63662820  0.43712685  1
  Pt  Pt8  1  0.75000000  0.24881867  0.87727885  1
  Pt  Pt9  1  0.75000000  0.74881867  0.62272115  1
  Pt  Pt10  1  0.25000000  0.75118133  0.12272115  1
  Pt  Pt11  1  0.25000000  0.25118133  0.37727885  1
