# generated using pymatgen
data_HfGeRh
_symmetry_space_group_name_H-M   'P 1'
_cell_length_a   4.01022511
_cell_length_b   6.55223746
_cell_length_c   7.58919299
_cell_angle_alpha   90.00000000
_cell_angle_beta   90.00000000
_cell_angle_gamma   90.00000000
_symmetry_Int_Tables_number   1
_chemical_formula_structural   HfGeRh
_chemical_formula_sum   'Hf4 Ge4 Rh4'
_cell_volume   199.41323421
_cell_formula_units_Z   4
loop_
 _symmetry_equiv_pos_site_id
 _symmetry_equiv_pos_as_xyz
  1  'x, y, z'
loop_
 _atom_site_type_symbol
 _atom_site_label
 _atom_site_symmetry_multiplicity
 _atom_site_fract_x
 _atom_site_fract_y
 _atom_site_fract_z
 _atom_site_occupancy
  Hf  Hf0  1  0.75000000  0.47830303  0.18656016  1
  Hf  Hf1  1  0.75000000  0.97830303  0.31343984  1
  Hf  Hf2  1  0.25000000  0.52169697  0.81343984  1
  Hf  Hf3  1  0.25000000  0.02169697  0.68656016  1
  Ge  Ge4  1  0.75000000  0.23221770  0.88115664  1
  Ge  Ge5  1  0.75000000  0.73221770  0.61884336  1
  Ge  Ge6  1  0.25000000  0.76778230  0.11884336  1
  Ge  Ge7  1  0.25000000  0.26778230  0.38115664  1
  Rh  Rh8  1  0.75000000  0.34831391  0.56434030  1
  Rh  Rh9  1  0.75000000  0.84831391  0.93565970  1
  Rh  Rh10  1  0.25000000  0.65168609  0.43565970  1
  Rh  Rh11  1  0.25000000  0.15168609  0.06434030  1
