# generated using pymatgen
data_Li4Cr3Cu2Sb3O16
_symmetry_space_group_name_H-M   'P 1'
_cell_length_a   6.06943960
_cell_length_b   6.11288490
_cell_length_c   9.92030381
_cell_angle_alpha   90.01802995
_cell_angle_beta   89.59105394
_cell_angle_gamma   120.23705670
_symmetry_Int_Tables_number   1
_chemical_formula_structural   Li4Cr3Cu2Sb3O16
_chemical_formula_sum   'Li4 Cr3 Cu2 Sb3 O16'
_cell_volume   317.97563607
_cell_formula_units_Z   1
loop_
 _symmetry_equiv_pos_site_id
 _symmetry_equiv_pos_as_xyz
  1  'x, y, z'
loop_
 _atom_site_type_symbol
 _atom_site_label
 _atom_site_symmetry_multiplicity
 _atom_site_fract_x
 _atom_site_fract_y
 _atom_site_fract_z
 _atom_site_occupancy
  Li  Li0  1  0.33821513  0.66919663  0.89862854  1
  Li  Li1  1  0.02243745  0.01110194  0.00297212  1
  Li  Li2  1  0.01955204  0.00974792  0.49241604  1
  Li  Li3  1  0.67385530  0.33700209  0.37667171  1
  Cr  Cr4  1  0.17364547  0.83377888  0.21518587  1
  Cr  Cr5  1  0.17346530  0.33992188  0.21526980  1
  Cr  Cr6  1  0.33126499  0.16568373  0.71539892  1
  Cu  Cu7  1  0.30921892  0.65460916  0.47755731  1
  Cu  Cu8  1  0.65458864  0.32738487  0.02767014  1
  Sb  Sb9  1  0.66530890  0.83255388  0.21558240  1
  Sb  Sb10  1  0.82437332  0.65952102  0.71580064  1
  Sb  Sb11  1  0.82439774  0.16498821  0.71580210  1
  O  O12  1  0.14262397  0.83636040  0.60623618  1
  O  O13  1  0.04012823  0.51998891  0.32837198  1
  O  O14  1  0.34063206  0.67030224  0.10594216  1
  O  O15  1  0.00176603  0.00090958  0.31314249  1
  O  O16  1  0.99373097  0.99699262  0.81976154  1
  O  O17  1  0.14268307  0.30641511  0.60620645  1
  O  O18  1  0.49018850  0.97019409  0.33164636  1
  O  O19  1  0.49041815  0.51990623  0.33143258  1
  O  O20  1  0.31898851  0.15942239  0.10759962  1
  O  O21  1  0.68548324  0.84275599  0.60204760  1
  O  O22  1  0.51055148  0.48666836  0.82410707  1
  O  O23  1  0.51059714  0.02418942  0.82418623  1
  O  O24  1  0.66286134  0.33141621  0.60296550  1
  O  O25  1  0.84477219  0.69166110  0.10312316  1
  O  O26  1  0.96949882  0.48485496  0.82900132  1
  O  O27  1  0.84475510  0.15277219  0.10311313  1
