# generated using pymatgen
data_YbNiGe
_symmetry_space_group_name_H-M   'P 1'
_cell_length_a   4.27223703
_cell_length_b   6.92045828
_cell_length_c   7.00346833
_cell_angle_alpha   90.00000000
_cell_angle_beta   90.00000000
_cell_angle_gamma   90.00000000
_symmetry_Int_Tables_number   1
_chemical_formula_structural   YbNiGe
_chemical_formula_sum   'Yb4 Ni4 Ge4'
_cell_volume   207.06341098
_cell_formula_units_Z   4
loop_
 _symmetry_equiv_pos_site_id
 _symmetry_equiv_pos_as_xyz
  1  'x, y, z'
loop_
 _atom_site_type_symbol
 _atom_site_label
 _atom_site_symmetry_multiplicity
 _atom_site_fract_x
 _atom_site_fract_y
 _atom_site_fract_z
 _atom_site_occupancy
  Yb  Yb0  1  0.75000000  0.48237775  0.69564138  1
  Yb  Yb1  1  0.75000000  0.98237775  0.80435862  1
  Yb  Yb2  1  0.25000000  0.51762225  0.30435862  1
  Yb  Yb3  1  0.25000000  0.01762225  0.19564138  1
  Ni  Ni4  1  0.75000000  0.68862868  0.09044853  1
  Ni  Ni5  1  0.75000000  0.18862868  0.40955147  1
  Ni  Ni6  1  0.25000000  0.31137132  0.90955147  1
  Ni  Ni7  1  0.25000000  0.81137132  0.59044853  1
  Ge  Ge8  1  0.75000000  0.31597746  0.08494139  1
  Ge  Ge9  1  0.75000000  0.81597746  0.41505861  1
  Ge  Ge10  1  0.25000000  0.68402254  0.91505861  1
  Ge  Ge11  1  0.25000000  0.18402254  0.58494139  1
