# generated using pymatgen
data_Pr2Ni5B4
_symmetry_space_group_name_H-M   'P 1'
_cell_length_a   5.13121848
_cell_length_b   5.54788683
_cell_length_c   6.18013552
_cell_angle_alpha   70.81059944
_cell_angle_beta   65.47198676
_cell_angle_gamma   62.45480834
_symmetry_Int_Tables_number   1
_chemical_formula_structural   Pr2Ni5B4
_chemical_formula_sum   'Pr2 Ni5 B4'
_cell_volume   139.86005731
_cell_formula_units_Z   1
loop_
 _symmetry_equiv_pos_site_id
 _symmetry_equiv_pos_as_xyz
  1  'x, y, z'
loop_
 _atom_site_type_symbol
 _atom_site_label
 _atom_site_symmetry_multiplicity
 _atom_site_fract_x
 _atom_site_fract_y
 _atom_site_fract_z
 _atom_site_occupancy
  Pr  Pr0  1  0.27417401  0.80263680  0.64901518  1
  Pr  Pr1  1  0.72582599  0.19736320  0.35098482  1
  Ni  Ni2  1  0.17643928  0.27886091  0.87224336  1
  Ni  Ni3  1  0.67245646  0.27886091  0.87224336  1
  Ni  Ni4  1  0.82356072  0.72113909  0.12775664  1
  Ni  Ni5  1  0.32754354  0.72113909  0.12775664  1
  Ni  Ni6  1  -0.00000000  0.50000000  0.50000000  1
  B  B7  1  0.77903257  0.60151206  0.84042280  1
  B  B8  1  0.22096743  0.39848794  0.15957720  1
  B  B9  1  0.40087275  0.05958062  0.13867387  1
  B  B10  1  0.59912725  0.94041938  0.86132613  1
