# generated using pymatgen
data_TmTc2
_symmetry_space_group_name_H-M   'P 1'
_cell_length_a   5.33927787
_cell_length_b   5.33927787
_cell_length_c   8.83066094
_cell_angle_alpha   90.00000000
_cell_angle_beta   90.00000000
_cell_angle_gamma   120.00632620
_symmetry_Int_Tables_number   1
_chemical_formula_structural   TmTc2
_chemical_formula_sum   'Tm4 Tc8'
_cell_volume   218.00236254
_cell_formula_units_Z   4
loop_
 _symmetry_equiv_pos_site_id
 _symmetry_equiv_pos_as_xyz
  1  'x, y, z'
loop_
 _atom_site_type_symbol
 _atom_site_label
 _atom_site_symmetry_multiplicity
 _atom_site_fract_x
 _atom_site_fract_y
 _atom_site_fract_z
 _atom_site_occupancy
  Tm  Tm0  1  0.66667185  0.33332815  0.56376370  1
  Tm  Tm1  1  0.33332815  0.66667185  0.43623630  1
  Tm  Tm2  1  0.33332815  0.66667185  0.06376370  1
  Tm  Tm3  1  0.66667185  0.33332815  0.93623630  1
  Tc  Tc4  1  -0.00000000  -0.00000000  0.50000000  1
  Tc  Tc5  1  -0.00000000  -0.00000000  0.00000000  1
  Tc  Tc6  1  0.17228025  0.34455831  0.75000000  1
  Tc  Tc7  1  0.17227330  0.82772670  0.75000000  1
  Tc  Tc8  1  0.65544169  0.82771975  0.75000000  1
  Tc  Tc9  1  0.82771975  0.65544169  0.25000000  1
  Tc  Tc10  1  0.82772670  0.17227330  0.25000000  1
  Tc  Tc11  1  0.34455831  0.17228025  0.25000000  1
