# generated using pymatgen
data_BaErAgSe3
_symmetry_space_group_name_H-M   'P 1'
_cell_length_a   4.29840327
_cell_length_b   7.50155308
_cell_length_c   10.75484095
_cell_angle_alpha   90.00000000
_cell_angle_beta   90.00000000
_cell_angle_gamma   106.64858488
_symmetry_Int_Tables_number   1
_chemical_formula_structural   BaErAgSe3
_chemical_formula_sum   'Ba2 Er2 Ag2 Se6'
_cell_volume   332.24931930
_cell_formula_units_Z   2
loop_
 _symmetry_equiv_pos_site_id
 _symmetry_equiv_pos_as_xyz
  1  'x, y, z'
loop_
 _atom_site_type_symbol
 _atom_site_label
 _atom_site_symmetry_multiplicity
 _atom_site_fract_x
 _atom_site_fract_y
 _atom_site_fract_z
 _atom_site_occupancy
  Ba  Ba0  1  0.74856708  0.49713416  0.25000000  1
  Ba  Ba1  1  0.25143292  0.50286584  0.75000000  1
  Er  Er2  1  -0.00000000  -0.00000000  0.50000000  1
  Er  Er3  1  -0.00000000  -0.00000000  0.00000000  1
  Ag  Ag4  1  0.46659589  0.93319178  0.25000000  1
  Ag  Ag5  1  0.53340411  0.06680822  0.75000000  1
  Se  Se6  1  0.36507402  0.73014804  0.45300358  1
  Se  Se7  1  0.63492598  0.26985196  0.54699642  1
  Se  Se8  1  0.36507402  0.73014804  0.04699642  1
  Se  Se9  1  0.63492598  0.26985196  0.95300358  1
  Se  Se10  1  0.07729750  0.15459501  0.25000000  1
  Se  Se11  1  0.92270250  0.84540499  0.75000000  1
