# generated using pymatgen
data_EuGaPt
_symmetry_space_group_name_H-M   'P 1'
_cell_length_a   4.55430419
_cell_length_b   7.34973740
_cell_length_c   7.64588583
_cell_angle_alpha   90.00000000
_cell_angle_beta   90.00000000
_cell_angle_gamma   90.00000000
_symmetry_Int_Tables_number   1
_chemical_formula_structural   EuGaPt
_chemical_formula_sum   'Eu4 Ga4 Pt4'
_cell_volume   255.93027638
_cell_formula_units_Z   4
loop_
 _symmetry_equiv_pos_site_id
 _symmetry_equiv_pos_as_xyz
  1  'x, y, z'
loop_
 _atom_site_type_symbol
 _atom_site_label
 _atom_site_symmetry_multiplicity
 _atom_site_fract_x
 _atom_site_fract_y
 _atom_site_fract_z
 _atom_site_occupancy
  Eu  Eu0  1  0.75000000  0.50909693  0.19133568  1
  Eu  Eu1  1  0.75000000  0.00909693  0.30866432  1
  Eu  Eu2  1  0.25000000  0.49090307  0.80866432  1
  Eu  Eu3  1  0.25000000  0.99090307  0.69133568  1
  Ga  Ga4  1  0.75000000  0.17956305  0.90940225  1
  Ga  Ga5  1  0.75000000  0.67956305  0.59059775  1
  Ga  Ga6  1  0.25000000  0.82043695  0.09059775  1
  Ga  Ga7  1  0.25000000  0.32043695  0.40940225  1
  Pt  Pt8  1  0.75000000  0.31281468  0.58799925  1
  Pt  Pt9  1  0.75000000  0.81281468  0.91200075  1
  Pt  Pt10  1  0.25000000  0.68718532  0.41200075  1
  Pt  Pt11  1  0.25000000  0.18718532  0.08799925  1
