# generated using pymatgen
data_TmZnPd
_symmetry_space_group_name_H-M   'P 1'
_cell_length_a   4.03158856
_cell_length_b   7.03633869
_cell_length_c   8.21039046
_cell_angle_alpha   90.00000000
_cell_angle_beta   90.00000000
_cell_angle_gamma   90.00000000
_symmetry_Int_Tables_number   1
_chemical_formula_structural   TmZnPd
_chemical_formula_sum   'Tm4 Zn4 Pd4'
_cell_volume   232.90925770
_cell_formula_units_Z   4
loop_
 _symmetry_equiv_pos_site_id
 _symmetry_equiv_pos_as_xyz
  1  'x, y, z'
loop_
 _atom_site_type_symbol
 _atom_site_label
 _atom_site_symmetry_multiplicity
 _atom_site_fract_x
 _atom_site_fract_y
 _atom_site_fract_z
 _atom_site_occupancy
  Tm  Tm0  1  0.75000000  0.44949152  0.18742489  1
  Tm  Tm1  1  0.75000000  0.94949152  0.31257511  1
  Tm  Tm2  1  0.25000000  0.55050848  0.81257511  1
  Tm  Tm3  1  0.25000000  0.05050848  0.68742489  1
  Zn  Zn4  1  0.75000000  0.86992714  0.93642696  1
  Zn  Zn5  1  0.75000000  0.36992714  0.56357304  1
  Zn  Zn6  1  0.25000000  0.13007286  0.06357304  1
  Zn  Zn7  1  0.25000000  0.63007286  0.43642696  1
  Pd  Pd8  1  0.75000000  0.25518624  0.87698795  1
  Pd  Pd9  1  0.75000000  0.75518624  0.62301205  1
  Pd  Pd10  1  0.25000000  0.74481376  0.12301205  1
  Pd  Pd11  1  0.25000000  0.24481376  0.37698795  1
