# generated using pymatgen
data_AlCdCl4
_symmetry_space_group_name_H-M   'P 1'
_cell_length_a   6.75431707
_cell_length_b   6.76281506
_cell_length_c   9.74531537
_cell_angle_alpha   83.42204224
_cell_angle_beta   76.09942180
_cell_angle_gamma   60.33624065
_symmetry_Int_Tables_number   1
_chemical_formula_structural   AlCdCl4
_chemical_formula_sum   'Al2 Cd2 Cl8'
_cell_volume   375.47633762
_cell_formula_units_Z   2
loop_
 _symmetry_equiv_pos_site_id
 _symmetry_equiv_pos_as_xyz
  1  'x, y, z'
loop_
 _atom_site_type_symbol
 _atom_site_label
 _atom_site_symmetry_multiplicity
 _atom_site_fract_x
 _atom_site_fract_y
 _atom_site_fract_z
 _atom_site_occupancy
  Al  Al0  1  0.58409224  0.16699370  0.73744542  1
  Al  Al1  1  0.41590776  0.83300630  0.26255458  1
  Cd  Cd2  1  0.04541153  0.50705456  0.35918501  1
  Cd  Cd3  1  0.95458847  0.49294544  0.64081499  1
  Cl  Cl4  1  0.40566875  0.15161144  0.18323170  1
  Cl  Cl5  1  0.59433125  0.84838856  0.81676830  1
  Cl  Cl6  1  0.16721728  0.79164661  0.17779586  1
  Cl  Cl7  1  0.83278272  0.20835339  0.82220414  1
  Cl  Cl8  1  0.66391300  0.16832425  0.51410742  1
  Cl  Cl9  1  0.33608700  0.83167575  0.48589258  1
  Cl  Cl10  1  0.76276698  0.55484097  0.18105371  1
  Cl  Cl11  1  0.23723302  0.44515903  0.81894629  1
