# generated using pymatgen
data_CeSb2
_symmetry_space_group_name_H-M   'P 1'
_cell_length_a   4.42375373
_cell_length_b   4.42375373
_cell_length_c   17.78795731
_cell_angle_alpha   90.00000000
_cell_angle_beta   90.00000000
_cell_angle_gamma   90.89621850
_symmetry_Int_Tables_number   1
_chemical_formula_structural   CeSb2
_chemical_formula_sum   'Ce4 Sb8'
_cell_volume   348.06057199
_cell_formula_units_Z   4
loop_
 _symmetry_equiv_pos_site_id
 _symmetry_equiv_pos_as_xyz
  1  'x, y, z'
loop_
 _atom_site_type_symbol
 _atom_site_label
 _atom_site_symmetry_multiplicity
 _atom_site_fract_x
 _atom_site_fract_y
 _atom_site_fract_z
 _atom_site_occupancy
  Ce  Ce0  1  0.36289053  0.36289053  0.88863909  1
  Ce  Ce1  1  0.63710947  0.63710947  0.11136091  1
  Ce  Ce2  1  0.13710947  0.13710947  0.38863909  1
  Ce  Ce3  1  0.86289053  0.86289053  0.61136091  1
  Sb  Sb4  1  0.36183580  0.36183580  0.56777516  1
  Sb  Sb5  1  0.63816420  0.63816420  0.43222484  1
  Sb  Sb6  1  0.13816420  0.13816420  0.06777516  1
  Sb  Sb7  1  0.86183580  0.86183580  0.93222484  1
  Sb  Sb8  1  0.87226304  0.37226304  0.75000000  1
  Sb  Sb9  1  0.62773696  0.12773696  0.25000000  1
  Sb  Sb10  1  0.12773696  0.62773696  0.25000000  1
  Sb  Sb11  1  0.37226304  0.87226304  0.75000000  1
