# generated using pymatgen
data_NbFeP
_symmetry_space_group_name_H-M   'P 1'
_cell_length_a   3.59733911
_cell_length_b   6.15331026
_cell_length_c   6.97595029
_cell_angle_alpha   90.00000000
_cell_angle_beta   90.00000000
_cell_angle_gamma   90.00000000
_symmetry_Int_Tables_number   1
_chemical_formula_structural   NbFeP
_chemical_formula_sum   'Nb4 Fe4 P4'
_cell_volume   154.41645217
_cell_formula_units_Z   4
loop_
 _symmetry_equiv_pos_site_id
 _symmetry_equiv_pos_as_xyz
  1  'x, y, z'
loop_
 _atom_site_type_symbol
 _atom_site_label
 _atom_site_symmetry_multiplicity
 _atom_site_fract_x
 _atom_site_fract_y
 _atom_site_fract_z
 _atom_site_occupancy
  Nb  Nb0  1  0.75000000  0.97742543  0.32348983  1
  Nb  Nb1  1  0.25000000  0.02257457  0.67651017  1
  Nb  Nb2  1  0.25000000  0.52257457  0.82348983  1
  Nb  Nb3  1  0.75000000  0.47742543  0.17651017  1
  Fe  Fe4  1  0.75000000  0.85889842  0.93797136  1
  Fe  Fe5  1  0.25000000  0.14110158  0.06202864  1
  Fe  Fe6  1  0.25000000  0.64110158  0.43797136  1
  Fe  Fe7  1  0.75000000  0.35889842  0.56202864  1
  P  P8  1  0.75000000  0.72220686  0.61862690  1
  P  P9  1  0.25000000  0.27779314  0.38137310  1
  P  P10  1  0.25000000  0.77779314  0.11862690  1
  P  P11  1  0.75000000  0.22220686  0.88137310  1
