# generated using pymatgen
data_DyAsSe
_symmetry_space_group_name_H-M   'P 1'
_cell_length_a   3.91451150
_cell_length_b   3.93998710
_cell_length_c   17.58991961
_cell_angle_alpha   90.00000000
_cell_angle_beta   90.00000000
_cell_angle_gamma   90.03208162
_symmetry_Int_Tables_number   1
_chemical_formula_structural   DyAsSe
_chemical_formula_sum   'Dy4 As4 Se4'
_cell_volume   271.29148316
_cell_formula_units_Z   4
loop_
 _symmetry_equiv_pos_site_id
 _symmetry_equiv_pos_as_xyz
  1  'x, y, z'
loop_
 _atom_site_type_symbol
 _atom_site_label
 _atom_site_symmetry_multiplicity
 _atom_site_fract_x
 _atom_site_fract_y
 _atom_site_fract_z
 _atom_site_occupancy
  Dy  Dy0  1  0.24962263  0.72959546  0.63927775  1
  Dy  Dy1  1  0.75037737  0.27040454  0.36072225  1
  Dy  Dy2  1  0.25037737  0.77040454  0.13927775  1
  Dy  Dy3  1  0.74962263  0.22959546  0.86072225  1
  As  As4  1  0.75065921  0.71407718  0.99785538  1
  As  As5  1  0.24934079  0.28592282  0.00214462  1
  As  As6  1  0.74934079  0.78592282  0.49785538  1
  As  As7  1  0.25065921  0.21407718  0.50214462  1
  Se  Se8  1  0.24968273  0.73126921  0.81228934  1
  Se  Se9  1  0.75031727  0.26873079  0.18771066  1
  Se  Se10  1  0.25031727  0.76873079  0.31228934  1
  Se  Se11  1  0.74968273  0.23126921  0.68771066  1
