# generated using pymatgen
data_TmCoSn
_symmetry_space_group_name_H-M   'P 1'
_cell_length_a   4.48971370
_cell_length_b   7.10765181
_cell_length_c   7.43511953
_cell_angle_alpha   90.00000000
_cell_angle_beta   90.00000000
_cell_angle_gamma   90.00000000
_symmetry_Int_Tables_number   1
_chemical_formula_structural   TmCoSn
_chemical_formula_sum   'Tm4 Co4 Sn4'
_cell_volume   237.26449125
_cell_formula_units_Z   4
loop_
 _symmetry_equiv_pos_site_id
 _symmetry_equiv_pos_as_xyz
  1  'x, y, z'
loop_
 _atom_site_type_symbol
 _atom_site_label
 _atom_site_symmetry_multiplicity
 _atom_site_fract_x
 _atom_site_fract_y
 _atom_site_fract_z
 _atom_site_occupancy
  Tm  Tm0  1  0.75000000  0.51415422  0.70812325  1
  Tm  Tm1  1  0.75000000  0.01415422  0.79187675  1
  Tm  Tm2  1  0.25000000  0.48584578  0.29187675  1
  Tm  Tm3  1  0.25000000  0.98584578  0.20812325  1
  Co  Co4  1  0.75000000  0.34417211  0.06300726  1
  Co  Co5  1  0.75000000  0.84417211  0.43699274  1
  Co  Co6  1  0.25000000  0.65582789  0.93699274  1
  Co  Co7  1  0.25000000  0.15582789  0.56300726  1
  Sn  Sn8  1  0.75000000  0.71057919  0.10357457  1
  Sn  Sn9  1  0.75000000  0.21057919  0.39642543  1
  Sn  Sn10  1  0.25000000  0.28942081  0.89642543  1
  Sn  Sn11  1  0.25000000  0.78942081  0.60357457  1
