# generated using pymatgen
data_TmGaPd
_symmetry_space_group_name_H-M   'P 1'
_cell_length_a   4.43952934
_cell_length_b   6.82182655
_cell_length_c   7.64732664
_cell_angle_alpha   90.00000000
_cell_angle_beta   90.00000000
_cell_angle_gamma   90.00000000
_symmetry_Int_Tables_number   1
_chemical_formula_structural   TmGaPd
_chemical_formula_sum   'Tm4 Ga4 Pd4'
_cell_volume   231.60463370
_cell_formula_units_Z   4
loop_
 _symmetry_equiv_pos_site_id
 _symmetry_equiv_pos_as_xyz
  1  'x, y, z'
loop_
 _atom_site_type_symbol
 _atom_site_label
 _atom_site_symmetry_multiplicity
 _atom_site_fract_x
 _atom_site_fract_y
 _atom_site_fract_z
 _atom_site_occupancy
  Tm  Tm0  1  0.75000000  0.51597713  0.19740604  1
  Tm  Tm1  1  0.75000000  0.01597713  0.30259396  1
  Tm  Tm2  1  0.25000000  0.48402287  0.80259396  1
  Tm  Tm3  1  0.25000000  0.98402287  0.69740604  1
  Ga  Ga4  1  0.75000000  0.17389782  0.92685344  1
  Ga  Ga5  1  0.75000000  0.67389782  0.57314656  1
  Ga  Ga6  1  0.25000000  0.82610218  0.07314656  1
  Ga  Ga7  1  0.25000000  0.32610218  0.42685344  1
  Pd  Pd8  1  0.75000000  0.27559043  0.59934538  1
  Pd  Pd9  1  0.75000000  0.77559043  0.90065462  1
  Pd  Pd10  1  0.25000000  0.72440957  0.40065462  1
  Pd  Pd11  1  0.25000000  0.22440957  0.09934538  1
