# generated using pymatgen
data_Li4Fe3Co2Sn3O16
_symmetry_space_group_name_H-M   'P 1'
_cell_length_a   6.10419166
_cell_length_b   6.11122699
_cell_length_c   9.48551757
_cell_angle_alpha   90.01830653
_cell_angle_beta   90.03847239
_cell_angle_gamma   120.01633498
_symmetry_Int_Tables_number   1
_chemical_formula_structural   Li4Fe3Co2Sn3O16
_chemical_formula_sum   'Li4 Fe3 Co2 Sn3 O16'
_cell_volume   306.39135648
_cell_formula_units_Z   1
loop_
 _symmetry_equiv_pos_site_id
 _symmetry_equiv_pos_as_xyz
  1  'x, y, z'
loop_
 _atom_site_type_symbol
 _atom_site_label
 _atom_site_symmetry_multiplicity
 _atom_site_fract_x
 _atom_site_fract_y
 _atom_site_fract_z
 _atom_site_occupancy
  Li  Li0  1  0.34022198  0.67008198  0.88818288  1
  Li  Li1  1  0.96982558  0.98489001  0.98838895  1
  Li  Li2  1  0.97580731  0.98789652  0.50081932  1
  Li  Li3  1  0.67030236  0.33515315  0.39804272  1
  Fe  Fe4  1  0.66473132  0.83246930  0.21245379  1
  Fe  Fe5  1  0.83026326  0.65510134  0.71424263  1
  Fe  Fe6  1  0.83069203  0.17561603  0.71420582  1
  Co  Co7  1  0.33988950  0.67004215  0.48920024  1
  Co  Co8  1  0.67543773  0.33772237  0.97750490  1
  Sn  Sn9  1  0.17053339  0.83111768  0.21067133  1
  Sn  Sn10  1  0.17044190  0.33936927  0.21061171  1
  Sn  Sn11  1  0.34503082  0.17253237  0.71127396  1
  O  O12  1  0.17044029  0.82770928  0.59390821  1
  O  O13  1  0.04840317  0.52421749  0.35157954  1
  O  O14  1  0.34465700  0.67225004  0.09711309  1
  O  O15  1  0.99562829  0.99793138  0.31351484  1
  O  O16  1  0.99470857  0.99733594  0.80039279  1
  O  O17  1  0.17041100  0.34243672  0.59405698  1
  O  O18  1  0.48043582  0.95068226  0.35142629  1
  O  O19  1  0.48024992  0.52993615  0.35134815  1
  O  O20  1  0.33069856  0.16529383  0.09367168  1
  O  O21  1  0.64819848  0.82396282  0.59883909  1
  O  O22  1  0.53117163  0.48092134  0.85050555  1
  O  O23  1  0.53126654  0.05026649  0.85041908  1
  O  O24  1  0.67825787  0.33909582  0.59920733  1
  O  O25  1  0.82919043  0.66404530  0.09931352  1
  O  O26  1  0.95394849  0.47705248  0.84763515  1
  O  O27  1  0.82915577  0.16517349  0.09930945  1
