# generated using pymatgen
data_TmGaPt
_symmetry_space_group_name_H-M   'P 1'
_cell_length_a   4.42371874
_cell_length_b   6.81299251
_cell_length_c   7.66793466
_cell_angle_alpha   90.00000000
_cell_angle_beta   90.00000000
_cell_angle_gamma   90.00000000
_symmetry_Int_Tables_number   1
_chemical_formula_structural   TmGaPt
_chemical_formula_sum   'Tm4 Ga4 Pt4'
_cell_volume   231.10206267
_cell_formula_units_Z   4
loop_
 _symmetry_equiv_pos_site_id
 _symmetry_equiv_pos_as_xyz
  1  'x, y, z'
loop_
 _atom_site_type_symbol
 _atom_site_label
 _atom_site_symmetry_multiplicity
 _atom_site_fract_x
 _atom_site_fract_y
 _atom_site_fract_z
 _atom_site_occupancy
  Tm  Tm0  1  0.75000000  0.51425148  0.19777680  1
  Tm  Tm1  1  0.75000000  0.01425148  0.30222320  1
  Tm  Tm2  1  0.25000000  0.48574852  0.80222320  1
  Tm  Tm3  1  0.25000000  0.98574852  0.69777680  1
  Ga  Ga4  1  0.75000000  0.17298018  0.92637475  1
  Ga  Ga5  1  0.75000000  0.67298018  0.57362525  1
  Ga  Ga6  1  0.25000000  0.82701982  0.07362525  1
  Ga  Ga7  1  0.25000000  0.32701982  0.42637475  1
  Pt  Pt8  1  0.75000000  0.27416855  0.59944254  1
  Pt  Pt9  1  0.75000000  0.77416855  0.90055746  1
  Pt  Pt10  1  0.25000000  0.72583145  0.40055746  1
  Pt  Pt11  1  0.25000000  0.22583145  0.09944254  1
