# generated using pymatgen
data_LaSi2Rh3
_symmetry_space_group_name_H-M   'P 1'
_cell_length_a   5.66152377
_cell_length_b   6.72951274
_cell_length_c   6.72951274
_cell_angle_alpha   64.68835800
_cell_angle_beta   65.12443592
_cell_angle_gamma   65.12443592
_symmetry_Int_Tables_number   1
_chemical_formula_structural   LaSi2Rh3
_chemical_formula_sum   'La2 Si4 Rh6'
_cell_volume   201.00368732
_cell_formula_units_Z   2
loop_
 _symmetry_equiv_pos_site_id
 _symmetry_equiv_pos_as_xyz
  1  'x, y, z'
loop_
 _atom_site_type_symbol
 _atom_site_label
 _atom_site_symmetry_multiplicity
 _atom_site_fract_x
 _atom_site_fract_y
 _atom_site_fract_z
 _atom_site_occupancy
  La  La0  1  0.95923301  0.75000000  0.75000000  1
  La  La1  1  0.04076699  0.25000000  0.25000000  1
  Si  Si2  1  0.61817883  0.57831436  0.57831436  1
  Si  Si3  1  0.38182117  0.42168564  0.42168564  1
  Si  Si4  1  0.72519245  0.07831436  0.07831436  1
  Si  Si5  1  0.27480755  0.92168564  0.92168564  1
  Rh  Rh6  1  0.50000000  0.78466674  0.21533326  1
  Rh  Rh7  1  -0.00000000  0.28466674  0.71533326  1
  Rh  Rh8  1  0.50000000  0.21533326  0.78466674  1
  Rh  Rh9  1  -0.00000000  0.71533326  0.28466674  1
  Rh  Rh10  1  0.50000000  0.00000000  0.50000000  1
  Rh  Rh11  1  0.50000000  0.50000000  0.00000000  1
