# generated using pymatgen
data_LaTeCl
_symmetry_space_group_name_H-M   'P 1'
_cell_length_a   4.53333708
_cell_length_b   8.00574412
_cell_length_c   9.45472536
_cell_angle_alpha   90.00000000
_cell_angle_beta   90.00000000
_cell_angle_gamma   90.00000000
_symmetry_Int_Tables_number   1
_chemical_formula_structural   LaTeCl
_chemical_formula_sum   'La4 Te4 Cl4'
_cell_volume   343.13785780
_cell_formula_units_Z   4
loop_
 _symmetry_equiv_pos_site_id
 _symmetry_equiv_pos_as_xyz
  1  'x, y, z'
loop_
 _atom_site_type_symbol
 _atom_site_label
 _atom_site_symmetry_multiplicity
 _atom_site_fract_x
 _atom_site_fract_y
 _atom_site_fract_z
 _atom_site_occupancy
  La  La0  1  0.75000000  0.26160466  0.86842413  1
  La  La1  1  0.75000000  0.76160466  0.63157587  1
  La  La2  1  0.25000000  0.73839534  0.13157587  1
  La  La3  1  0.25000000  0.23839534  0.36842413  1
  Te  Te4  1  0.75000000  0.03829464  0.16818091  1
  Te  Te5  1  0.75000000  0.53829464  0.33181909  1
  Te  Te6  1  0.25000000  0.96170536  0.83181909  1
  Te  Te7  1  0.25000000  0.46170536  0.66818091  1
  Cl  Cl8  1  0.75000000  0.63498304  0.93963849  1
  Cl  Cl9  1  0.75000000  0.13498304  0.56036151  1
  Cl  Cl10  1  0.25000000  0.36501696  0.06036151  1
  Cl  Cl11  1  0.25000000  0.86501696  0.43963849  1
