# generated using pymatgen
data_Li4Mn2Nb3Co3O16
_symmetry_space_group_name_H-M   'P 1'
_cell_length_a   5.97673548
_cell_length_b   6.01879254
_cell_length_c   9.84991454
_cell_angle_alpha   90.01518888
_cell_angle_beta   88.30916490
_cell_angle_gamma   120.24335696
_symmetry_Int_Tables_number   1
_chemical_formula_structural   Li4Mn2Nb3Co3O16
_chemical_formula_sum   'Li4 Mn2 Nb3 Co3 O16'
_cell_volume   305.92508737
_cell_formula_units_Z   1
loop_
 _symmetry_equiv_pos_site_id
 _symmetry_equiv_pos_as_xyz
  1  'x, y, z'
loop_
 _atom_site_type_symbol
 _atom_site_label
 _atom_site_symmetry_multiplicity
 _atom_site_fract_x
 _atom_site_fract_y
 _atom_site_fract_z
 _atom_site_occupancy
  Li  Li0  1  0.32117531  0.66064909  0.90197638  1
  Li  Li1  1  0.03778497  0.01882838  0.00178210  1
  Li  Li2  1  0.06554922  0.03280806  0.48857496  1
  Li  Li3  1  0.65705951  0.32855606  0.37943144  1
  Mn  Mn4  1  0.30294860  0.65149161  0.47753658  1
  Mn  Mn5  1  0.66142622  0.33067950  0.00925255  1
  Nb  Nb6  1  0.65061324  0.82531582  0.20866465  1
  Nb  Nb7  1  0.82200791  0.65961932  0.71224542  1
  Nb  Nb8  1  0.82231930  0.16274580  0.71234317  1
  Co  Co9  1  0.16215451  0.82939355  0.21908479  1
  Co  Co10  1  0.16210718  0.33268138  0.21908101  1
  Co  Co11  1  0.34535695  0.17259317  0.71286997  1
  O  O12  1  0.16515710  0.83112752  0.59840900  1
  O  O13  1  0.01948432  0.50980137  0.32229198  1
  O  O14  1  0.32441028  0.66216847  0.10739566  1
  O  O15  1  0.99538322  0.99770600  0.31265507  1
  O  O16  1  0.98788483  0.99397331  0.81565385  1
  O  O17  1  0.16522100  0.33408320  0.59845214  1
  O  O18  1  0.45936027  0.94875678  0.34274264  1
  O  O19  1  0.45934405  0.51066433  0.34278189  1
  O  O20  1  0.31548719  0.15767439  0.11915124  1
  O  O21  1  0.69088281  0.84548285  0.59831627  1
  O  O22  1  0.52322021  0.49688814  0.83558305  1
  O  O23  1  0.52329493  0.02642509  0.83560083  1
  O  O24  1  0.69636076  0.34815812  0.59277348  1
  O  O25  1  0.84678278  0.69039163  0.10876080  1
  O  O26  1  0.97044009  0.48533501  0.82570791  1
  O  O27  1  0.84678422  0.15630203  0.10872117  1
