# generated using pymatgen
data_TbS2
_symmetry_space_group_name_H-M   'P 1'
_cell_length_a   3.92305960
_cell_length_b   7.85910570
_cell_length_c   7.95020207
_cell_angle_alpha   89.87061456
_cell_angle_beta   90.00000000
_cell_angle_gamma   90.00000000
_symmetry_Int_Tables_number   1
_chemical_formula_structural   TbS2
_chemical_formula_sum   'Tb4 S8'
_cell_volume   245.11793883
_cell_formula_units_Z   4
loop_
 _symmetry_equiv_pos_site_id
 _symmetry_equiv_pos_as_xyz
  1  'x, y, z'
loop_
 _atom_site_type_symbol
 _atom_site_label
 _atom_site_symmetry_multiplicity
 _atom_site_fract_x
 _atom_site_fract_y
 _atom_site_fract_z
 _atom_site_occupancy
  Tb  Tb0  1  0.28458970  0.37114792  0.27489962  1
  Tb  Tb1  1  0.78458970  0.12885208  0.72510038  1
  Tb  Tb2  1  0.71541030  0.62885208  0.72510038  1
  Tb  Tb3  1  0.21541030  0.87114792  0.27489962  1
  S  S4  1  0.25986989  0.37479386  0.63146700  1
  S  S5  1  0.75986989  0.12520614  0.36853300  1
  S  S6  1  0.74013011  0.62520614  0.36853300  1
  S  S7  1  0.24013011  0.87479386  0.63146700  1
  S  S8  1  0.83637037  0.38903566  0.00283426  1
  S  S9  1  0.33637037  0.11096434  0.99716574  1
  S  S10  1  0.16362963  0.61096434  0.99716574  1
  S  S11  1  0.66362963  0.88903566  0.00283426  1
