# generated using pymatgen
data_EuAlAu
_symmetry_space_group_name_H-M   'P 1'
_cell_length_a   4.71859060
_cell_length_b   7.53940079
_cell_length_c   7.96197473
_cell_angle_alpha   90.00000000
_cell_angle_beta   90.00000000
_cell_angle_gamma   90.00000000
_symmetry_Int_Tables_number   1
_chemical_formula_structural   EuAlAu
_chemical_formula_sum   'Eu4 Al4 Au4'
_cell_volume   283.25000345
_cell_formula_units_Z   4
loop_
 _symmetry_equiv_pos_site_id
 _symmetry_equiv_pos_as_xyz
  1  'x, y, z'
loop_
 _atom_site_type_symbol
 _atom_site_label
 _atom_site_symmetry_multiplicity
 _atom_site_fract_x
 _atom_site_fract_y
 _atom_site_fract_z
 _atom_site_occupancy
  Eu  Eu0  1  0.75000000  0.48488240  0.18726950  1
  Eu  Eu1  1  0.75000000  0.98488240  0.31273050  1
  Eu  Eu2  1  0.25000000  0.51511760  0.81273050  1
  Eu  Eu3  1  0.25000000  0.01511760  0.68726950  1
  Al  Al4  1  0.75000000  0.33962330  0.57081413  1
  Al  Al5  1  0.75000000  0.83962330  0.92918587  1
  Al  Al6  1  0.25000000  0.66037670  0.42918587  1
  Al  Al7  1  0.25000000  0.16037670  0.07081413  1
  Au  Au8  1  0.75000000  0.20516823  0.89316979  1
  Au  Au9  1  0.75000000  0.70516823  0.60683021  1
  Au  Au10  1  0.25000000  0.79483177  0.10683021  1
  Au  Au11  1  0.25000000  0.29483177  0.39316979  1
