# generated using pymatgen
data_TaRh2
_symmetry_space_group_name_H-M   'P 1'
_cell_length_a   4.14981665
_cell_length_b   5.47840857
_cell_length_c   8.17773843
_cell_angle_alpha   90.00000000
_cell_angle_beta   90.00000000
_cell_angle_gamma   90.00000000
_symmetry_Int_Tables_number   1
_chemical_formula_structural   TaRh2
_chemical_formula_sum   'Ta4 Rh8'
_cell_volume   185.91590378
_cell_formula_units_Z   4
loop_
 _symmetry_equiv_pos_site_id
 _symmetry_equiv_pos_as_xyz
  1  'x, y, z'
loop_
 _atom_site_type_symbol
 _atom_site_label
 _atom_site_symmetry_multiplicity
 _atom_site_fract_x
 _atom_site_fract_y
 _atom_site_fract_z
 _atom_site_occupancy
  Ta  Ta0  1  0.75000000  0.17228876  0.60514108  1
  Ta  Ta1  1  0.75000000  0.67228876  0.89485892  1
  Ta  Ta2  1  0.25000000  0.82771124  0.39485892  1
  Ta  Ta3  1  0.25000000  0.32771124  0.10514108  1
  Rh  Rh4  1  0.75000000  0.15491472  0.93102996  1
  Rh  Rh5  1  0.75000000  0.65491472  0.56897004  1
  Rh  Rh6  1  0.25000000  0.84508528  0.06897004  1
  Rh  Rh7  1  0.25000000  0.34508528  0.43102996  1
  Rh  Rh8  1  0.75000000  0.07161548  0.27619663  1
  Rh  Rh9  1  0.75000000  0.57161548  0.22380337  1
  Rh  Rh10  1  0.25000000  0.92838452  0.72380337  1
  Rh  Rh11  1  0.25000000  0.42838452  0.77619663  1
