# generated using pymatgen
data_CaCdPd
_symmetry_space_group_name_H-M   'P 1'
_cell_length_a   4.48045242
_cell_length_b   7.19599879
_cell_length_c   8.58319590
_cell_angle_alpha   90.00000000
_cell_angle_beta   90.00000000
_cell_angle_gamma   90.00000000
_symmetry_Int_Tables_number   1
_chemical_formula_structural   CaCdPd
_chemical_formula_sum   'Ca4 Cd4 Pd4'
_cell_volume   276.73365312
_cell_formula_units_Z   4
loop_
 _symmetry_equiv_pos_site_id
 _symmetry_equiv_pos_as_xyz
  1  'x, y, z'
loop_
 _atom_site_type_symbol
 _atom_site_label
 _atom_site_symmetry_multiplicity
 _atom_site_fract_x
 _atom_site_fract_y
 _atom_site_fract_z
 _atom_site_occupancy
  Ca  Ca0  1  0.75000000  0.46443423  0.17919783  1
  Ca  Ca1  1  0.75000000  0.96443423  0.32080217  1
  Ca  Ca2  1  0.25000000  0.53556577  0.82080217  1
  Ca  Ca3  1  0.25000000  0.03556577  0.67919783  1
  Cd  Cd4  1  0.75000000  0.35384064  0.56039328  1
  Cd  Cd5  1  0.75000000  0.85384064  0.93960672  1
  Cd  Cd6  1  0.25000000  0.64615936  0.43960672  1
  Cd  Cd7  1  0.25000000  0.14615936  0.06039328  1
  Pd  Pd8  1  0.75000000  0.24124713  0.87090318  1
  Pd  Pd9  1  0.75000000  0.74124713  0.62909682  1
  Pd  Pd10  1  0.25000000  0.75875287  0.12909682  1
  Pd  Pd11  1  0.25000000  0.25875287  0.37090318  1
