# generated using pymatgen
data_Na4Mg(SiSe3)2
_symmetry_space_group_name_H-M   'P 1'
_cell_length_a   7.10434825
_cell_length_b   7.11881634
_cell_length_c   7.11881634
_cell_angle_alpha   114.05981963
_cell_angle_beta   98.99837845
_cell_angle_gamma   98.99837845
_symmetry_Int_Tables_number   1
_chemical_formula_structural   Na4Mg(SiSe3)2
_chemical_formula_sum   'Na4 Mg1 Si2 Se6'
_cell_volume   314.88118213
_cell_formula_units_Z   1
loop_
 _symmetry_equiv_pos_site_id
 _symmetry_equiv_pos_as_xyz
  1  'x, y, z'
loop_
 _atom_site_type_symbol
 _atom_site_label
 _atom_site_symmetry_multiplicity
 _atom_site_fract_x
 _atom_site_fract_y
 _atom_site_fract_z
 _atom_site_occupancy
  Na  Na0  1  0.50000000  0.51187752  0.48812248  1
  Na  Na1  1  0.00000000  0.35831904  0.64168096  1
  Na  Na2  1  -0.00000000  0.68235539  0.31764461  1
  Na  Na3  1  -0.00000000  0.04638736  0.95361264  1
  Mg  Mg4  1  0.50000000  0.87223838  0.12776162  1
  Si  Si5  1  0.55433317  0.35479654  0.96046162  1
  Si  Si6  1  0.44566683  0.03953838  0.64520346  1
  Se  Se7  1  0.73061341  0.26069847  0.19754074  1
  Se  Se8  1  0.26938659  0.80245926  0.73930153  1
  Se  Se9  1  0.28499924  0.47177006  0.05830639  1
  Se  Se10  1  0.71500076  0.94169361  0.52822994  1
  Se  Se11  1  0.74533779  0.61955451  0.91852850  1
  Se  Se12  1  0.25466221  0.08147150  0.38044549  1
