# generated using pymatgen
data_Be2Ru
_symmetry_space_group_name_H-M   'P 1'
_cell_length_a   4.36282012
_cell_length_b   4.36282012
_cell_length_c   7.05768256
_cell_angle_alpha   90.00000000
_cell_angle_beta   90.00000000
_cell_angle_gamma   120.00404886
_symmetry_Int_Tables_number   1
_chemical_formula_structural   Be2Ru
_chemical_formula_sum   'Be8 Ru4'
_cell_volume   116.33479986
_cell_formula_units_Z   4
loop_
 _symmetry_equiv_pos_site_id
 _symmetry_equiv_pos_as_xyz
  1  'x, y, z'
loop_
 _atom_site_type_symbol
 _atom_site_label
 _atom_site_symmetry_multiplicity
 _atom_site_fract_x
 _atom_site_fract_y
 _atom_site_fract_z
 _atom_site_occupancy
  Be  Be0  1  0.00000000  0.00000000  0.50000000  1
  Be  Be1  1  0.00000000  0.00000000  0.00000000  1
  Be  Be2  1  0.16913331  0.33819044  0.75000000  1
  Be  Be3  1  0.16908233  0.83091767  0.75000000  1
  Be  Be4  1  0.66180956  0.83086669  0.75000000  1
  Be  Be5  1  0.83086669  0.66180956  0.25000000  1
  Be  Be6  1  0.83091767  0.16908233  0.25000000  1
  Be  Be7  1  0.33819044  0.16913331  0.25000000  1
  Ru  Ru8  1  0.66666122  0.33333878  0.55991217  1
  Ru  Ru9  1  0.33333878  0.66666122  0.44008783  1
  Ru  Ru10  1  0.33333878  0.66666122  0.05991217  1
  Ru  Ru11  1  0.66666122  0.33333878  0.94008783  1
