# generated using pymatgen
data_KSn2
_symmetry_space_group_name_H-M   'P 1'
_cell_length_a   6.68165201
_cell_length_b   6.68165201
_cell_length_c   9.89046224
_cell_angle_alpha   90.00000000
_cell_angle_beta   90.00000000
_cell_angle_gamma   119.82109815
_symmetry_Int_Tables_number   1
_chemical_formula_structural   KSn2
_chemical_formula_sum   'K4 Sn8'
_cell_volume   383.08489264
_cell_formula_units_Z   4
loop_
 _symmetry_equiv_pos_site_id
 _symmetry_equiv_pos_as_xyz
  1  'x, y, z'
loop_
 _atom_site_type_symbol
 _atom_site_label
 _atom_site_symmetry_multiplicity
 _atom_site_fract_x
 _atom_site_fract_y
 _atom_site_fract_z
 _atom_site_occupancy
  K  K0  1  0.66672109  0.33327891  0.56652755  1
  K  K1  1  0.33327891  0.66672109  0.43347245  1
  K  K2  1  0.33327891  0.66672109  0.06652755  1
  K  K3  1  0.66672109  0.33327891  0.93347245  1
  Sn  Sn4  1  -0.00000000  -0.00000000  0.50000000  1
  Sn  Sn5  1  -0.00000000  -0.00000000  -0.00000000  1
  Sn  Sn6  1  0.16982560  0.34000892  0.75000000  1
  Sn  Sn7  1  0.17025756  0.82974244  0.75000000  1
  Sn  Sn8  1  0.65999108  0.83017440  0.75000000  1
  Sn  Sn9  1  0.83017440  0.65999108  0.25000000  1
  Sn  Sn10  1  0.82974244  0.17025756  0.25000000  1
  Sn  Sn11  1  0.34000892  0.16982560  0.25000000  1
