# generated using pymatgen
data_DyAlPt
_symmetry_space_group_name_H-M   'P 1'
_cell_length_a   4.43667208
_cell_length_b   6.89088776
_cell_length_c   7.74176015
_cell_angle_alpha   90.00000000
_cell_angle_beta   90.00000000
_cell_angle_gamma   90.00000000
_symmetry_Int_Tables_number   1
_chemical_formula_structural   DyAlPt
_chemical_formula_sum   'Dy4 Al4 Pt4'
_cell_volume   236.68580860
_cell_formula_units_Z   4
loop_
 _symmetry_equiv_pos_site_id
 _symmetry_equiv_pos_as_xyz
  1  'x, y, z'
loop_
 _atom_site_type_symbol
 _atom_site_label
 _atom_site_symmetry_multiplicity
 _atom_site_fract_x
 _atom_site_fract_y
 _atom_site_fract_z
 _atom_site_occupancy
  Dy  Dy0  1  0.75000000  0.03141583  0.31897249  1
  Dy  Dy1  1  0.25000000  0.96858417  0.68102751  1
  Dy  Dy2  1  0.25000000  0.46858417  0.81897249  1
  Dy  Dy3  1  0.75000000  0.53141583  0.18102751  1
  Al  Al4  1  0.75000000  0.64801615  0.56315639  1
  Al  Al5  1  0.25000000  0.35198385  0.43684361  1
  Al  Al6  1  0.25000000  0.85198385  0.06315639  1
  Al  Al7  1  0.75000000  0.14801615  0.93684361  1
  Pt  Pt8  1  0.75000000  0.77625467  0.88303577  1
  Pt  Pt9  1  0.25000000  0.22374533  0.11696423  1
  Pt  Pt10  1  0.25000000  0.72374533  0.38303577  1
  Pt  Pt11  1  0.75000000  0.27625467  0.61696423  1
