# generated using pymatgen
data_CaPtPb
_symmetry_space_group_name_H-M   'P 1'
_cell_length_a   4.77254379
_cell_length_b   7.36206450
_cell_length_c   8.33334522
_cell_angle_alpha   90.00000000
_cell_angle_beta   90.00000000
_cell_angle_gamma   90.00000000
_symmetry_Int_Tables_number   1
_chemical_formula_structural   CaPtPb
_chemical_formula_sum   'Ca4 Pt4 Pb4'
_cell_volume   292.79854441
_cell_formula_units_Z   4
loop_
 _symmetry_equiv_pos_site_id
 _symmetry_equiv_pos_as_xyz
  1  'x, y, z'
loop_
 _atom_site_type_symbol
 _atom_site_label
 _atom_site_symmetry_multiplicity
 _atom_site_fract_x
 _atom_site_fract_y
 _atom_site_fract_z
 _atom_site_occupancy
  Ca  Ca0  1  0.75000000  0.51973938  0.19246786  1
  Ca  Ca1  1  0.75000000  0.01973938  0.30753214  1
  Ca  Ca2  1  0.25000000  0.48026062  0.80753214  1
  Ca  Ca3  1  0.25000000  0.98026062  0.69246786  1
  Pt  Pt4  1  0.75000000  0.27321995  0.59864525  1
  Pt  Pt5  1  0.75000000  0.77321995  0.90135475  1
  Pt  Pt6  1  0.25000000  0.72678005  0.40135475  1
  Pt  Pt7  1  0.25000000  0.22678005  0.09864525  1
  Pb  Pb8  1  0.75000000  0.17119422  0.92337944  1
  Pb  Pb9  1  0.75000000  0.67119422  0.57662056  1
  Pb  Pb10  1  0.25000000  0.82880578  0.07662056  1
  Pb  Pb11  1  0.25000000  0.32880578  0.42337944  1
