# generated using pymatgen
data_TiSiIr
_symmetry_space_group_name_H-M   'P 1'
_cell_length_a   3.88203143
_cell_length_b   6.27649064
_cell_length_c   7.24388254
_cell_angle_alpha   90.00000000
_cell_angle_beta   90.00000000
_cell_angle_gamma   90.00000000
_symmetry_Int_Tables_number   1
_chemical_formula_structural   TiSiIr
_chemical_formula_sum   'Ti4 Si4 Ir4'
_cell_volume   176.50106585
_cell_formula_units_Z   4
loop_
 _symmetry_equiv_pos_site_id
 _symmetry_equiv_pos_as_xyz
  1  'x, y, z'
loop_
 _atom_site_type_symbol
 _atom_site_label
 _atom_site_symmetry_multiplicity
 _atom_site_fract_x
 _atom_site_fract_y
 _atom_site_fract_z
 _atom_site_occupancy
  Ti  Ti0  1  0.75000000  0.47652155  0.68128354  1
  Ti  Ti1  1  0.75000000  0.97652155  0.81871646  1
  Ti  Ti2  1  0.25000000  0.52347845  0.31871646  1
  Ti  Ti3  1  0.25000000  0.02347845  0.18128354  1
  Si  Si4  1  0.75000000  0.72928200  0.12289885  1
  Si  Si5  1  0.75000000  0.22928200  0.37710115  1
  Si  Si6  1  0.25000000  0.27071800  0.87710115  1
  Si  Si7  1  0.25000000  0.77071800  0.62289885  1
  Ir  Ir8  1  0.75000000  0.34344365  0.06206003  1
  Ir  Ir9  1  0.75000000  0.84344365  0.43793997  1
  Ir  Ir10  1  0.25000000  0.65655635  0.93793997  1
  Ir  Ir11  1  0.25000000  0.15655635  0.56206003  1
