# generated using pymatgen
data_Li4V2CrTeO12
_symmetry_space_group_name_H-M   'P 1'
_cell_length_a   5.32189035
_cell_length_b   10.60824949
_cell_length_c   9.34571387
_cell_angle_alpha   28.50373284
_cell_angle_beta   51.48801486
_cell_angle_gamma   56.77556596
_symmetry_Int_Tables_number   1
_chemical_formula_structural   Li4V2CrTeO12
_chemical_formula_sum   'Li4 V2 Cr1 Te1 O12'
_cell_volume   197.01914237
_cell_formula_units_Z   1
loop_
 _symmetry_equiv_pos_site_id
 _symmetry_equiv_pos_as_xyz
  1  'x, y, z'
loop_
 _atom_site_type_symbol
 _atom_site_label
 _atom_site_symmetry_multiplicity
 _atom_site_fract_x
 _atom_site_fract_y
 _atom_site_fract_z
 _atom_site_occupancy
  Li  Li0  1  0.31747132  0.00153697  0.27643306  1
  Li  Li1  1  0.27494321  0.49647791  0.30787052  1
  Li  Li2  1  0.77124167  0.99681556  0.80049198  1
  Li  Li3  1  0.78709713  0.50832828  0.75626800  1
  V  V4  1  0.50859037  0.99549559  0.50758667  1
  V  V5  1  0.51990371  0.50217757  0.49935266  1
  Cr  Cr6  1  0.01707372  0.00439431  0.00096391  1
  Te  Te7  1  0.00149755  0.49921418  0.00105287  1
  O  O8  1  0.37541381  0.30507313  0.11608772  1
  O  O9  1  0.25917369  0.11077625  0.62082836  1
  O  O10  1  0.12792208  0.31065637  0.73679396  1
  O  O11  1  0.87358073  0.19015645  0.23533074  1
  O  O12  1  0.35230241  0.79310447  0.14697703  1
  O  O13  1  0.72955959  0.37116426  0.37528309  1
  O  O14  1  0.22502283  0.62465332  0.62407530  1
  O  O15  1  0.62827661  0.20162943  0.84323685  1
  O  O16  1  0.11438519  0.82057431  0.73710259  1
  O  O17  1  0.84396316  0.69835541  0.24228694  1
  O  O18  1  0.72591226  0.89034293  0.36599444  1
  O  O19  1  0.61786795  0.67907233  0.87718331  1
