# generated using pymatgen
data_RbV2Fe(AgO4)2
_symmetry_space_group_name_H-M   'P 1'
_cell_length_a   5.55860076
_cell_length_b   5.55882888
_cell_length_c   7.53099309
_cell_angle_alpha   90.00653127
_cell_angle_beta   90.00086862
_cell_angle_gamma   120.00312375
_symmetry_Int_Tables_number   1
_chemical_formula_structural   RbV2Fe(AgO4)2
_chemical_formula_sum   'Rb1 V2 Fe1 Ag2 O8'
_cell_volume   201.51992491
_cell_formula_units_Z   1
loop_
 _symmetry_equiv_pos_site_id
 _symmetry_equiv_pos_as_xyz
  1  'x, y, z'
loop_
 _atom_site_type_symbol
 _atom_site_label
 _atom_site_symmetry_multiplicity
 _atom_site_fract_x
 _atom_site_fract_y
 _atom_site_fract_z
 _atom_site_occupancy
  Rb  Rb0  1  0.00000000  0.00000000  0.00000000  1
  V  V1  1  0.33331782  0.66674088  0.73127650  1
  V  V2  1  0.66668218  0.33325912  0.26872350  1
  Fe  Fe3  1  0.00000000  0.00000000  0.50000000  1
  Ag  Ag4  1  0.33334024  0.66664852  0.27768028  1
  Ag  Ag5  1  0.66665976  0.33335148  0.72231972  1
  O  O6  1  0.24880184  0.91881194  0.65678399  1
  O  O7  1  0.08125871  0.33014182  0.65669747  1
  O  O8  1  0.66988227  0.75120885  0.65672974  1
  O  O9  1  0.75119816  0.08118806  0.34321601  1
  O  O10  1  0.91874129  0.66985818  0.34330253  1
  O  O11  1  0.33011773  0.24879115  0.34327026  1
  O  O12  1  0.33336799  0.66665133  0.95479914  1
  O  O13  1  0.66663201  0.33334867  0.04520086  1
