# generated using pymatgen
data_Li4Cr3Ni2Sn3O16
_symmetry_space_group_name_H-M   'P 1'
_cell_length_a   6.05430277
_cell_length_b   6.05196491
_cell_length_c   9.72231478
_cell_angle_alpha   89.99713456
_cell_angle_beta   89.21862170
_cell_angle_gamma   119.99268436
_symmetry_Int_Tables_number   1
_chemical_formula_structural   Li4Cr3Ni2Sn3O16
_chemical_formula_sum   'Li4 Cr3 Ni2 Sn3 O16'
_cell_volume   308.48838380
_cell_formula_units_Z   1
loop_
 _symmetry_equiv_pos_site_id
 _symmetry_equiv_pos_as_xyz
  1  'x, y, z'
loop_
 _atom_site_type_symbol
 _atom_site_label
 _atom_site_symmetry_multiplicity
 _atom_site_fract_x
 _atom_site_fract_y
 _atom_site_fract_z
 _atom_site_occupancy
  Li  Li0  1  0.34456249  0.67228578  0.88777609  1
  Li  Li1  1  0.97767819  0.98884987  0.99479895  1
  Li  Li2  1  0.97863897  0.98929531  0.50153159  1
  Li  Li3  1  0.67310720  0.33656864  0.39503367  1
  Cr  Cr4  1  0.66586024  0.83291477  0.21266541  1
  Cr  Cr5  1  0.83550648  0.66452150  0.71356854  1
  Cr  Cr6  1  0.83542899  0.17085181  0.71349996  1
  Ni  Ni7  1  0.33598728  0.66802118  0.48961499  1
  Ni  Ni8  1  0.66532232  0.33268533  0.98563640  1
  Sn  Sn9  1  0.17305528  0.83317324  0.21581748  1
  Sn  Sn10  1  0.17300378  0.33987708  0.21581792  1
  Sn  Sn11  1  0.34289376  0.17148392  0.71511942  1
  O  O12  1  0.14430727  0.82880155  0.60284234  1
  O  O13  1  0.03474913  0.51736273  0.34295171  1
  O  O14  1  0.34740619  0.67373568  0.09715787  1
  O  O15  1  0.98563029  0.99278640  0.31865109  1
  O  O16  1  0.99014072  0.99508202  0.81284518  1
  O  O17  1  0.14432831  0.31560824  0.60286502  1
  O  O18  1  0.49907343  0.96503385  0.33462521  1
  O  O19  1  0.49901908  0.53402684  0.33464393  1
  O  O20  1  0.31357440  0.15683043  0.09279856  1
  O  O21  1  0.68018870  0.84014372  0.61726713  1
  O  O22  1  0.53570718  0.49615645  0.83477103  1
  O  O23  1  0.53568532  0.03959874  0.83477880  1
  O  O24  1  0.68195709  0.34099223  0.60250302  1
  O  O25  1  0.82361885  0.67939696  0.10722726  1
  O  O26  1  0.95992293  0.47999652  0.82382917  1
  O  O27  1  0.82364513  0.14422021  0.10720625  1
