# generated using pymatgen
data_TiBe3
_symmetry_space_group_name_H-M   'P 1'
_cell_length_a   4.48391298
_cell_length_b   4.48391298
_cell_length_c   7.53260589
_cell_angle_alpha   72.68447315
_cell_angle_beta   72.68447315
_cell_angle_gamma   59.99999552
_symmetry_Int_Tables_number   1
_chemical_formula_structural   TiBe3
_chemical_formula_sum   'Ti3 Be9'
_cell_volume   123.16756344
_cell_formula_units_Z   3
loop_
 _symmetry_equiv_pos_site_id
 _symmetry_equiv_pos_as_xyz
  1  'x, y, z'
loop_
 _atom_site_type_symbol
 _atom_site_label
 _atom_site_symmetry_multiplicity
 _atom_site_fract_x
 _atom_site_fract_y
 _atom_site_fract_z
 _atom_site_occupancy
  Ti  Ti0  1  0.14230624  0.14230624  0.57308129  1
  Ti  Ti1  1  0.85769376  0.85769376  0.42691871  1
  Ti  Ti2  1  0.00000000  -0.00000000  -0.00000000  1
  Be  Be3  1  0.07861724  0.58235005  0.75668266  1
  Be  Be4  1  0.58235005  0.58235005  0.75668266  1
  Be  Be5  1  0.58235005  0.07861724  0.75668266  1
  Be  Be6  1  0.92138276  0.41764995  0.24331734  1
  Be  Be7  1  0.41764995  0.41764995  0.24331734  1
  Be  Be8  1  0.41764995  0.92138276  0.24331734  1
  Be  Be9  1  0.33392462  0.33392462  0.99822615  1
  Be  Be10  1  0.66607538  0.66607538  0.00177385  1
  Be  Be11  1  0.50000000  0.50000000  0.50000000  1
