# generated using pymatgen
data_Nd2P2AuO
_symmetry_space_group_name_H-M   'P 1'
_cell_length_a   4.24544767
_cell_length_b   7.91898424
_cell_length_c   7.91434496
_cell_angle_alpha   78.13302555
_cell_angle_beta   74.44208690
_cell_angle_gamma   74.45143200
_symmetry_Int_Tables_number   1
_chemical_formula_structural   Nd2P2AuO
_chemical_formula_sum   'Nd4 P4 Au2 O2'
_cell_volume   244.37002143
_cell_formula_units_Z   2
loop_
 _symmetry_equiv_pos_site_id
 _symmetry_equiv_pos_as_xyz
  1  'x, y, z'
loop_
 _atom_site_type_symbol
 _atom_site_label
 _atom_site_symmetry_multiplicity
 _atom_site_fract_x
 _atom_site_fract_y
 _atom_site_fract_z
 _atom_site_occupancy
  Nd  Nd0  1  0.13269262  0.04757163  0.68704314  1
  Nd  Nd1  1  0.86730738  0.95242837  0.31295686  1
  Nd  Nd2  1  0.17360395  0.38301264  0.26977946  1
  Nd  Nd3  1  0.82639605  0.61698736  0.73022054  1
  P  P4  1  0.54947201  0.35507801  0.54597798  1
  P  P5  1  0.45052799  0.64492199  0.45402202  1
  P  P6  1  0.14804330  0.73321430  0.97069911  1
  P  P7  1  0.85195670  0.26678570  0.02930089  1
  Au  Au8  1  0.41150047  0.30316801  0.87383104  1
  Au  Au9  1  0.58849953  0.69683199  0.12616896  1
  O  O10  1  0.27922356  0.07194388  0.36960899  1
  O  O11  1  0.72077644  0.92805612  0.63039101  1
