# generated using pymatgen
data_Ti3NbO8
_symmetry_space_group_name_H-M   'P 1'
_cell_length_a   5.97450170
_cell_length_b   5.97439837
_cell_length_c   9.40140448
_cell_angle_alpha   89.99984899
_cell_angle_beta   90.00007439
_cell_angle_gamma   119.99942837
_symmetry_Int_Tables_number   1
_chemical_formula_structural   Ti3NbO8
_chemical_formula_sum   'Ti6 Nb2 O16'
_cell_volume   290.61748366
_cell_formula_units_Z   2
loop_
 _symmetry_equiv_pos_site_id
 _symmetry_equiv_pos_as_xyz
  1  'x, y, z'
loop_
 _atom_site_type_symbol
 _atom_site_label
 _atom_site_symmetry_multiplicity
 _atom_site_fract_x
 _atom_site_fract_y
 _atom_site_fract_z
 _atom_site_occupancy
  Ti  Ti0  1  0.66263408  0.83129973  0.21408939  1
  Ti  Ti1  1  0.33736592  0.16866565  0.71408939  1
  Ti  Ti2  1  0.83126527  0.16867818  0.71404022  1
  Ti  Ti3  1  0.16868204  0.83127177  0.21409756  1
  Ti  Ti4  1  0.16873573  0.33741291  0.21404022  1
  Ti  Ti5  1  0.83131796  0.66258974  0.71409756  1
  Nb  Nb6  1  0.33333818  0.66667622  0.49053530  1
  Nb  Nb7  1  0.66666182  0.33333804  0.99053530  1
  O  O8  1  0.16924443  0.83073422  0.60048034  1
  O  O9  1  0.04276815  0.52135458  0.33613191  1
  O  O10  1  0.33335425  0.66676750  0.10597731  1
  O  O11  1  0.99998014  0.00008541  0.30937966  1
  O  O12  1  0.00001986  0.00010526  0.80937966  1
  O  O13  1  0.16933006  0.33857297  0.60044199  1
  O  O14  1  0.47863068  0.95723648  0.33613214  1
  O  O15  1  0.47857994  0.52133869  0.33610353  1
  O  O16  1  0.33854978  0.16926125  0.10045065  1
  O  O17  1  0.66145022  0.83071147  0.60045065  1
  O  O18  1  0.52136932  0.47860580  0.83613214  1
  O  O19  1  0.52142006  0.04275775  0.83610353  1
  O  O20  1  0.66664575  0.33341326  0.60597731  1
  O  O21  1  0.83075557  0.66148979  0.10048034  1
  O  O22  1  0.95723185  0.47858743  0.83613191  1
  O  O23  1  0.83066994  0.16924291  0.10044199  1
