# generated using pymatgen
data_Tb3Ga8Ag3
_symmetry_space_group_name_H-M   'P 1'
_cell_length_a   4.40635227
_cell_length_b   8.35661699
_cell_length_c   8.35661699
_cell_angle_alpha   69.88583036
_cell_angle_beta   74.71357300
_cell_angle_gamma   74.71357300
_symmetry_Int_Tables_number   1
_chemical_formula_structural   Tb3Ga8Ag3
_chemical_formula_sum   'Tb3 Ga8 Ag3'
_cell_volume   273.58917063
_cell_formula_units_Z   1
loop_
 _symmetry_equiv_pos_site_id
 _symmetry_equiv_pos_as_xyz
  1  'x, y, z'
loop_
 _atom_site_type_symbol
 _atom_site_label
 _atom_site_symmetry_multiplicity
 _atom_site_fract_x
 _atom_site_fract_y
 _atom_site_fract_z
 _atom_site_occupancy
  Tb  Tb0  1  0.50000000  0.50000000  0.50000000  1
  Tb  Tb1  1  0.20475534  0.79524466  0.79524466  1
  Tb  Tb2  1  0.79524466  0.20475534  0.20475534  1
  Ga  Ga3  1  0.35766048  0.36177882  0.92290022  1
  Ga  Ga4  1  0.64233952  0.63822118  0.07709978  1
  Ga  Ga5  1  0.35766048  0.92290022  0.36177882  1
  Ga  Ga6  1  0.64233952  0.07709978  0.63822118  1
  Ga  Ga7  1  0.15768318  0.47386759  0.21076606  1
  Ga  Ga8  1  0.84231682  0.52613241  0.78923394  1
  Ga  Ga9  1  0.15768318  0.21076606  0.47386759  1
  Ga  Ga10  1  0.84231682  0.78923394  0.52613241  1
  Ag  Ag11  1  0.50000000  -0.00000000  0.00000000  1
  Ag  Ag12  1  -0.00000000  0.81077831  0.18922169  1
  Ag  Ag13  1  0.00000000  0.18922169  0.81077831  1
