# generated using pymatgen
data_HoGaCo
_symmetry_space_group_name_H-M   'P 1'
_cell_length_a   4.40941660
_cell_length_b   6.97092804
_cell_length_c   6.87394603
_cell_angle_alpha   90.00000000
_cell_angle_beta   90.00000000
_cell_angle_gamma   90.00000000
_symmetry_Int_Tables_number   1
_chemical_formula_structural   HoGaCo
_chemical_formula_sum   'Ho4 Ga4 Co4'
_cell_volume   211.28946835
_cell_formula_units_Z   4
loop_
 _symmetry_equiv_pos_site_id
 _symmetry_equiv_pos_as_xyz
  1  'x, y, z'
loop_
 _atom_site_type_symbol
 _atom_site_label
 _atom_site_symmetry_multiplicity
 _atom_site_fract_x
 _atom_site_fract_y
 _atom_site_fract_z
 _atom_site_occupancy
  Ho  Ho0  1  0.75000000  0.47931335  0.69586984  1
  Ho  Ho1  1  0.75000000  0.97931335  0.80413016  1
  Ho  Ho2  1  0.25000000  0.52068665  0.30413016  1
  Ho  Ho3  1  0.25000000  0.02068665  0.19586984  1
  Ga  Ga4  1  0.75000000  0.30494458  0.10491843  1
  Ga  Ga5  1  0.75000000  0.80494458  0.39508157  1
  Ga  Ga6  1  0.25000000  0.69505542  0.89508157  1
  Ga  Ga7  1  0.25000000  0.19505542  0.60491843  1
  Co  Co8  1  0.75000000  0.65813297  0.06260858  1
  Co  Co9  1  0.75000000  0.15813297  0.43739142  1
  Co  Co10  1  0.25000000  0.34186703  0.93739142  1
  Co  Co11  1  0.25000000  0.84186703  0.56260858  1
