# generated using pymatgen
data_NdGeIr
_symmetry_space_group_name_H-M   'P 1'
_cell_length_a   4.47480758
_cell_length_b   7.17251422
_cell_length_c   7.65955269
_cell_angle_alpha   90.00000000
_cell_angle_beta   90.00000000
_cell_angle_gamma   90.00000000
_symmetry_Int_Tables_number   1
_chemical_formula_structural   NdGeIr
_chemical_formula_sum   'Nd4 Ge4 Ir4'
_cell_volume   245.83810016
_cell_formula_units_Z   4
loop_
 _symmetry_equiv_pos_site_id
 _symmetry_equiv_pos_as_xyz
  1  'x, y, z'
loop_
 _atom_site_type_symbol
 _atom_site_label
 _atom_site_symmetry_multiplicity
 _atom_site_fract_x
 _atom_site_fract_y
 _atom_site_fract_z
 _atom_site_occupancy
  Nd  Nd0  1  0.75000000  0.51453988  0.69922949  1
  Nd  Nd1  1  0.75000000  0.01453988  0.80077051  1
  Nd  Nd2  1  0.25000000  0.48546012  0.30077051  1
  Nd  Nd3  1  0.25000000  0.98546012  0.19922949  1
  Ge  Ge4  1  0.75000000  0.68229791  0.08587257  1
  Ge  Ge5  1  0.75000000  0.18229791  0.41412743  1
  Ge  Ge6  1  0.25000000  0.31770209  0.91412743  1
  Ge  Ge7  1  0.25000000  0.81770209  0.58587257  1
  Ir  Ir8  1  0.75000000  0.30309702  0.08658555  1
  Ir  Ir9  1  0.75000000  0.80309702  0.41341445  1
  Ir  Ir10  1  0.25000000  0.69690298  0.91341445  1
  Ir  Ir11  1  0.25000000  0.19690298  0.58658555  1
