# generated using pymatgen
data_EuBPt4
_symmetry_space_group_name_H-M   'P 1'
_cell_length_a   5.58045001
_cell_length_b   5.58093853
_cell_length_c   7.64834126
_cell_angle_alpha   90.00000000
_cell_angle_beta   90.00000000
_cell_angle_gamma   119.99711244
_symmetry_Int_Tables_number   1
_chemical_formula_structural   EuBPt4
_chemical_formula_sum   'Eu2 B2 Pt8'
_cell_volume   206.29418501
_cell_formula_units_Z   2
loop_
 _symmetry_equiv_pos_site_id
 _symmetry_equiv_pos_as_xyz
  1  'x, y, z'
loop_
 _atom_site_type_symbol
 _atom_site_label
 _atom_site_symmetry_multiplicity
 _atom_site_fract_x
 _atom_site_fract_y
 _atom_site_fract_z
 _atom_site_occupancy
  Eu  Eu0  1  0.99999221  0.00000000  0.50000000  1
  Eu  Eu1  1  0.99998396  0.00000000  0.00000000  1
  B  B2  1  0.33331012  0.66666905  0.50000000  1
  B  B3  1  0.66664108  0.33333095  0.50000000  1
  Pt  Pt4  1  0.49999112  0.00000000  0.30303858  1
  Pt  Pt5  1  0.49998870  0.50000260  0.30301198  1
  Pt  Pt6  1  0.99998610  0.49999740  0.30301198  1
  Pt  Pt7  1  0.49999112  0.00000000  0.69696142  1
  Pt  Pt8  1  0.49998870  0.50000260  0.69698802  1
  Pt  Pt9  1  0.99998610  0.49999740  0.69698802  1
  Pt  Pt10  1  0.33333326  0.66672574  0.00000000  1
  Pt  Pt11  1  0.66660752  0.33327426  0.00000000  1
