# generated using pymatgen
data_NdSbSe
_symmetry_space_group_name_H-M   'P 1'
_cell_length_a   4.24387975
_cell_length_b   4.22942014
_cell_length_c   18.36252193
_cell_angle_alpha   90.00000000
_cell_angle_beta   90.00000000
_cell_angle_gamma   90.10055791
_symmetry_Int_Tables_number   1
_chemical_formula_structural   NdSbSe
_chemical_formula_sum   'Nd4 Sb4 Se4'
_cell_volume   329.59116203
_cell_formula_units_Z   4
loop_
 _symmetry_equiv_pos_site_id
 _symmetry_equiv_pos_as_xyz
  1  'x, y, z'
loop_
 _atom_site_type_symbol
 _atom_site_label
 _atom_site_symmetry_multiplicity
 _atom_site_fract_x
 _atom_site_fract_y
 _atom_site_fract_z
 _atom_site_occupancy
  Nd  Nd0  1  0.76767112  0.24535350  0.14767383  1
  Nd  Nd1  1  0.73232888  0.25464650  0.64767383  1
  Nd  Nd2  1  0.23232888  0.75464650  0.85232617  1
  Nd  Nd3  1  0.26767112  0.74535350  0.35232617  1
  Sb  Sb4  1  0.76024006  0.74882050  0.49893218  1
  Sb  Sb5  1  0.73975994  0.75117950  0.99893218  1
  Sb  Sb6  1  0.23975994  0.25117950  0.50106782  1
  Sb  Sb7  1  0.26024006  0.24882050  0.00106782  1
  Se  Se8  1  0.76634970  0.24361592  0.31365262  1
  Se  Se9  1  0.73365030  0.25638408  0.81365262  1
  Se  Se10  1  0.23365030  0.75638408  0.68634738  1
  Se  Se11  1  0.26634970  0.74361592  0.18634738  1
