# generated using pymatgen
data_Rb3Er(PO4)2
_symmetry_space_group_name_H-M   'P 1'
_cell_length_a   5.70991903
_cell_length_b   5.70995961
_cell_length_c   8.33556439
_cell_angle_alpha   90.00000002
_cell_angle_beta   89.99773421
_cell_angle_gamma   120.00023889
_symmetry_Int_Tables_number   1
_chemical_formula_structural   Rb3Er(PO4)2
_chemical_formula_sum   'Rb3 Er1 P2 O8'
_cell_volume   235.35725073
_cell_formula_units_Z   1
loop_
 _symmetry_equiv_pos_site_id
 _symmetry_equiv_pos_as_xyz
  1  'x, y, z'
loop_
 _atom_site_type_symbol
 _atom_site_label
 _atom_site_symmetry_multiplicity
 _atom_site_fract_x
 _atom_site_fract_y
 _atom_site_fract_z
 _atom_site_occupancy
  Rb  Rb0  1  0.00000000  0.00000000  0.50000000  1
  Rb  Rb1  1  0.66664544  0.33332272  0.74064871  1
  Rb  Rb2  1  0.33335456  0.66667728  0.25935129  1
  Er  Er3  1  0.00000000  0.00000000  0.00000000  1
  P  P4  1  0.66665381  0.33332690  0.21913417  1
  P  P5  1  0.33334619  0.66667310  0.78086583  1
  O  O6  1  0.36889812  0.18444906  0.15533633  1
  O  O7  1  0.81554019  0.18444871  0.15534545  1
  O  O8  1  0.81554018  0.63109148  0.15534545  1
  O  O9  1  0.63110188  0.81555094  0.84466367  1
  O  O10  1  0.18445981  0.81555129  0.84465455  1
  O  O11  1  0.18445982  0.36890852  0.84465455  1
  O  O12  1  0.66662156  0.33331078  0.40330393  1
  O  O13  1  0.33337844  0.66668922  0.59669607  1
