# generated using pymatgen
data_Al(VS2)4
_symmetry_space_group_name_H-M   'P 1'
_cell_length_a   6.86779728
_cell_length_b   6.86779728
_cell_length_c   6.86779728
_cell_angle_alpha   60.00000000
_cell_angle_beta   60.00000000
_cell_angle_gamma   60.00000000
_symmetry_Int_Tables_number   1
_chemical_formula_structural   Al(VS2)4
_chemical_formula_sum   'Al1 V4 S8'
_cell_volume   229.05374919
_cell_formula_units_Z   1
loop_
 _symmetry_equiv_pos_site_id
 _symmetry_equiv_pos_as_xyz
  1  'x, y, z'
loop_
 _atom_site_type_symbol
 _atom_site_label
 _atom_site_symmetry_multiplicity
 _atom_site_fract_x
 _atom_site_fract_y
 _atom_site_fract_z
 _atom_site_occupancy
  Al  Al0  1  0.00000000  -0.00000000  0.00000000  1
  V  V1  1  0.81686072  0.39437976  0.39437976  1
  V  V2  1  0.39437976  0.81686072  0.39437976  1
  V  V3  1  0.39437976  0.39437976  0.81686072  1
  V  V4  1  0.39437976  0.39437976  0.39437976  1
  S  S5  1  0.11205083  0.62931639  0.62931639  1
  S  S6  1  0.62931639  0.11205083  0.62931639  1
  S  S7  1  0.62931639  0.62931639  0.11205083  1
  S  S8  1  0.62931639  0.62931639  0.62931639  1
  S  S9  1  0.59381253  0.13539582  0.13539582  1
  S  S10  1  0.13539582  0.59381253  0.13539582  1
  S  S11  1  0.13539582  0.13539582  0.59381253  1
  S  S12  1  0.13539582  0.13539582  0.13539582  1
