# generated using pymatgen
data_BaGaH5
_symmetry_space_group_name_H-M   'P 1'
_cell_length_a   4.61165767
_cell_length_b   5.02455704
_cell_length_c   8.59863450
_cell_angle_alpha   90.17291029
_cell_angle_beta   90.00000000
_cell_angle_gamma   90.00000000
_symmetry_Int_Tables_number   1
_chemical_formula_structural   BaGaH5
_chemical_formula_sum   'Ba2 Ga2 H10'
_cell_volume   199.24267007
_cell_formula_units_Z   2
loop_
 _symmetry_equiv_pos_site_id
 _symmetry_equiv_pos_as_xyz
  1  'x, y, z'
loop_
 _atom_site_type_symbol
 _atom_site_label
 _atom_site_symmetry_multiplicity
 _atom_site_fract_x
 _atom_site_fract_y
 _atom_site_fract_z
 _atom_site_occupancy
  Ba  Ba0  1  0.25824313  0.75419211  0.66005144  1
  Ba  Ba1  1  0.75824313  0.24580789  0.33994856  1
  Ga  Ga2  1  0.67082219  0.25598487  0.85585596  1
  Ga  Ga3  1  0.17082219  0.74401513  0.14414404  1
  H  H4  1  0.32213460  0.25585787  0.84223041  1
  H  H5  1  0.82213460  0.74414213  0.15776959  1
  H  H6  1  0.77187031  0.00862257  0.74987569  1
  H  H7  1  0.27187031  0.99137743  0.25012431  1
  H  H8  1  0.77157459  0.52272858  0.76820932  1
  H  H9  1  0.27157459  0.47727142  0.23179068  1
  H  H10  1  0.79564516  0.23927078  0.02597402  1
  H  H11  1  0.29564516  0.76072922  0.97402598  1
  H  H12  1  0.26121902  0.25349624  0.51714161  1
  H  H13  1  0.76121902  0.74650376  0.48285839  1
