# generated using pymatgen
data_NpSeO5
_symmetry_space_group_name_H-M   'P 1'
_cell_length_a   4.26543971
_cell_length_b   5.87661518
_cell_length_c   9.49006176
_cell_angle_alpha   90.00000000
_cell_angle_beta   90.00000000
_cell_angle_gamma   91.36653356
_symmetry_Int_Tables_number   1
_chemical_formula_structural   NpSeO5
_chemical_formula_sum   'Np2 Se2 O10'
_cell_volume   237.81353253
_cell_formula_units_Z   2
loop_
 _symmetry_equiv_pos_site_id
 _symmetry_equiv_pos_as_xyz
  1  'x, y, z'
loop_
 _atom_site_type_symbol
 _atom_site_label
 _atom_site_symmetry_multiplicity
 _atom_site_fract_x
 _atom_site_fract_y
 _atom_site_fract_z
 _atom_site_occupancy
  Np  Np0  1  0.50000000  -0.00000000  -0.00000000  1
  Np  Np1  1  0.50000000  -0.00000000  0.50000000  1
  Se  Se2  1  0.91349660  0.71049088  0.25000000  1
  Se  Se3  1  0.08650340  0.28950912  0.75000000  1
  O  O4  1  0.52865300  0.80054254  0.25000000  1
  O  O5  1  0.47134700  0.19945746  0.75000000  1
  O  O6  1  0.00891660  0.87648487  0.10353267  1
  O  O7  1  0.99108340  0.12351513  0.60353267  1
  O  O8  1  0.99108340  0.12351513  0.89646733  1
  O  O9  1  0.00891660  0.87648487  0.39646733  1
  O  O10  1  0.50405293  0.26661341  0.09073983  1
  O  O11  1  0.49594707  0.73338659  0.59073983  1
  O  O12  1  0.49594707  0.73338659  0.90926017  1
  O  O13  1  0.50405293  0.26661341  0.40926017  1
