# generated using pymatgen
data_Pd2PbO4
_symmetry_space_group_name_H-M   'P 1'
_cell_length_a   5.94739666
_cell_length_b   5.94739666
_cell_length_c   6.62239587
_cell_angle_alpha   116.68188739
_cell_angle_beta   116.68188739
_cell_angle_gamma   90.00000000
_symmetry_Int_Tables_number   1
_chemical_formula_structural   Pd2PbO4
_chemical_formula_sum   'Pd4 Pb2 O8'
_cell_volume   180.95006106
_cell_formula_units_Z   2
loop_
 _symmetry_equiv_pos_site_id
 _symmetry_equiv_pos_as_xyz
  1  'x, y, z'
loop_
 _atom_site_type_symbol
 _atom_site_label
 _atom_site_symmetry_multiplicity
 _atom_site_fract_x
 _atom_site_fract_y
 _atom_site_fract_z
 _atom_site_occupancy
  Pd  Pd0  1  0.87500000  0.62500000  0.25000000  1
  Pd  Pd1  1  0.37500000  0.62500000  0.25000000  1
  Pd  Pd2  1  0.37500000  0.62500000  0.75000000  1
  Pd  Pd3  1  0.37500000  0.12500000  0.75000000  1
  Pb  Pb4  1  0.75000000  0.25000000  0.50000000  1
  Pb  Pb5  1  -0.00000000  0.00000000  -0.00000000  1
  O  O6  1  0.36480103  0.00294232  0.40638449  1
  O  O7  1  0.04158346  0.40344217  0.40638449  1
  O  O8  1  0.70841654  0.84655783  0.09361551  1
  O  O9  1  0.38519897  0.24705768  0.09361551  1
  O  O10  1  0.99705768  0.95841654  0.59361551  1
  O  O11  1  0.59655783  0.63519897  0.59361551  1
  O  O12  1  0.15344217  0.61480103  0.90638449  1
  O  O13  1  0.75294232  0.29158346  0.90638449  1
