# generated using pymatgen
data_LiFeF4
_symmetry_space_group_name_H-M   'P 1'
_cell_length_a   5.21470472
_cell_length_b   5.21470472
_cell_length_c   6.43142030
_cell_angle_alpha   90.00000000
_cell_angle_beta   90.00000000
_cell_angle_gamma   67.85284665
_symmetry_Int_Tables_number   1
_chemical_formula_structural   LiFeF4
_chemical_formula_sum   'Li2 Fe2 F8'
_cell_volume   161.98689366
_cell_formula_units_Z   2
loop_
 _symmetry_equiv_pos_site_id
 _symmetry_equiv_pos_as_xyz
  1  'x, y, z'
loop_
 _atom_site_type_symbol
 _atom_site_label
 _atom_site_symmetry_multiplicity
 _atom_site_fract_x
 _atom_site_fract_y
 _atom_site_fract_z
 _atom_site_occupancy
  Li  Li0  1  0.00000000  0.00000000  0.00000000  1
  Li  Li1  1  0.00000000  0.00000000  0.50000000  1
  Fe  Fe2  1  0.64712229  0.64712229  0.75000000  1
  Fe  Fe3  1  0.35287771  0.35287771  0.25000000  1
  F  F4  1  0.26124965  0.77367315  0.75000000  1
  F  F5  1  0.22632685  0.73875035  0.25000000  1
  F  F6  1  0.77100965  0.77100965  0.51957684  1
  F  F7  1  0.22899035  0.22899035  0.01957684  1
  F  F8  1  0.22899035  0.22899035  0.48042316  1
  F  F9  1  0.77100965  0.77100965  0.98042316  1
  F  F10  1  0.73875035  0.22632685  0.25000000  1
  F  F11  1  0.77367315  0.26124965  0.75000000  1
