# generated using pymatgen
data_Ta7Fe6
_symmetry_space_group_name_H-M   'P 1'
_cell_length_a   4.93865928
_cell_length_b   4.93865928
_cell_length_c   9.45788627
_cell_angle_alpha   74.86543975
_cell_angle_beta   74.86543975
_cell_angle_gamma   59.99999810
_symmetry_Int_Tables_number   1
_chemical_formula_structural   Ta7Fe6
_chemical_formula_sum   'Ta7 Fe6'
_cell_volume   190.48089889
_cell_formula_units_Z   1
loop_
 _symmetry_equiv_pos_site_id
 _symmetry_equiv_pos_as_xyz
  1  'x, y, z'
loop_
 _atom_site_type_symbol
 _atom_site_label
 _atom_site_symmetry_multiplicity
 _atom_site_fract_x
 _atom_site_fract_y
 _atom_site_fract_z
 _atom_site_occupancy
  Ta  Ta0  1  -0.00000000  0.00000000  0.00000000  1
  Ta  Ta1  1  0.16687374  0.16687374  0.49937879  1
  Ta  Ta2  1  0.83312626  0.83312626  0.50062121  1
  Ta  Ta3  1  0.34758645  0.34758645  0.95724065  1
  Ta  Ta4  1  0.65241355  0.65241355  0.04275935  1
  Ta  Ta5  1  0.45090703  0.45090703  0.64727891  1
  Ta  Ta6  1  0.54909297  0.54909297  0.35272109  1
  Fe  Fe7  1  0.58203353  0.09187167  0.23422314  1
  Fe  Fe8  1  0.09187167  0.09187167  0.23422314  1
  Fe  Fe9  1  0.09187167  0.58203353  0.23422314  1
  Fe  Fe10  1  0.41796647  0.90812833  0.76577686  1
  Fe  Fe11  1  0.90812833  0.90812833  0.76577686  1
  Fe  Fe12  1  0.90812833  0.41796647  0.76577686  1
