# generated using pymatgen
data_Yb2Sn2Au3
_symmetry_space_group_name_H-M   'P 1'
_cell_length_a   4.83644425
_cell_length_b   4.83644425
_cell_length_c   16.03747158
_cell_angle_alpha   81.32753438
_cell_angle_beta   81.32753438
_cell_angle_gamma   59.99999910
_symmetry_Int_Tables_number   1
_chemical_formula_structural   Yb2Sn2Au3
_chemical_formula_sum   'Yb4 Sn4 Au6'
_cell_volume   319.91470904
_cell_formula_units_Z   2
loop_
 _symmetry_equiv_pos_site_id
 _symmetry_equiv_pos_as_xyz
  1  'x, y, z'
loop_
 _atom_site_type_symbol
 _atom_site_label
 _atom_site_symmetry_multiplicity
 _atom_site_fract_x
 _atom_site_fract_y
 _atom_site_fract_z
 _atom_site_occupancy
  Yb  Yb0  1  0.42246036  0.42246036  0.73261891  1
  Yb  Yb1  1  0.57753964  0.57753964  0.26738109  1
  Yb  Yb2  1  0.50000000  0.50000000  0.50000000  1
  Yb  Yb3  1  -0.00000000  -0.00000000  0.00000000  1
  Sn  Sn4  1  0.12582241  0.12582241  0.62253276  1
  Sn  Sn5  1  0.87417759  0.87417759  0.37746724  1
  Sn  Sn6  1  0.29150482  0.29150482  0.12548553  1
  Sn  Sn7  1  0.70849518  0.70849518  0.87451447  1
  Au  Au8  1  0.06491144  0.06491144  0.80526568  1
  Au  Au9  1  0.93508856  0.93508856  0.19473432  1
  Au  Au10  1  0.20208202  0.20208202  0.39375395  1
  Au  Au11  1  0.79791798  0.79791798  0.60624605  1
  Au  Au12  1  0.35671370  0.35671370  0.92985891  1
  Au  Au13  1  0.64328630  0.64328630  0.07014109  1
