# generated using pymatgen
data_Li4TiV5O12
_symmetry_space_group_name_H-M   'P 1'
_cell_length_a   5.14916715
_cell_length_b   5.14916696
_cell_length_c   10.24840416
_cell_angle_alpha   89.40382875
_cell_angle_beta   89.40383055
_cell_angle_gamma   119.22545280
_symmetry_Int_Tables_number   1
_chemical_formula_structural   Li4TiV5O12
_chemical_formula_sum   'Li4 Ti1 V5 O12'
_cell_volume   237.08599976
_cell_formula_units_Z   1
loop_
 _symmetry_equiv_pos_site_id
 _symmetry_equiv_pos_as_xyz
  1  'x, y, z'
loop_
 _atom_site_type_symbol
 _atom_site_label
 _atom_site_symmetry_multiplicity
 _atom_site_fract_x
 _atom_site_fract_y
 _atom_site_fract_z
 _atom_site_occupancy
  Li  Li0  1  0.14035691  0.64569092  0.75042653  1
  Li  Li1  1  0.35430908  0.85964309  0.24957347  1
  Li  Li2  1  0.64569092  0.14035691  0.75042653  1
  Li  Li3  1  0.85964309  0.35430908  0.24957347  1
  Ti  Ti4  1  0.00000000  0.00000000  0.00000000  1
  V  V5  1  0.50000000  0.50000000  0.50000000  1
  V  V6  1  0.15728758  0.84271242  0.50000000  1
  V  V7  1  0.33775603  0.66224397  0.00000000  1
  V  V8  1  0.66224397  0.33775603  1.00000000  1
  V  V9  1  0.84271242  0.15728758  0.50000000  1
  O  O10  1  0.01070078  0.67449739  0.10675358  1
  O  O11  1  0.32550261  0.98929922  0.89324642  1
  O  O12  1  0.16230276  0.50927146  0.39389817  1
  O  O13  1  0.49072854  0.83769724  0.60610183  1
  O  O14  1  0.16805413  0.16805413  0.60428468  1
  O  O15  1  0.31905377  0.31905377  0.10091119  1
  O  O16  1  0.68094623  0.68094623  0.89908881  1
  O  O17  1  0.83194587  0.83194587  0.39571532  1
  O  O18  1  0.50927146  0.16230276  0.39389817  1
  O  O19  1  0.83769724  0.49072854  0.60610183  1
  O  O20  1  0.67449739  0.01070078  0.10675358  1
  O  O21  1  0.98929922  0.32550261  0.89324642  1
