# generated using pymatgen
data_Y3Pd4
_symmetry_space_group_name_H-M   'P 1'
_cell_length_a   5.78241664
_cell_length_b   7.90897632
_cell_length_c   7.90897654
_cell_angle_alpha   114.26203583
_cell_angle_beta   104.10543102
_cell_angle_gamma   104.10543144
_symmetry_Int_Tables_number   1
_chemical_formula_structural   Y3Pd4
_chemical_formula_sum   'Y6 Pd8'
_cell_volume   294.63799496
_cell_formula_units_Z   2
loop_
 _symmetry_equiv_pos_site_id
 _symmetry_equiv_pos_as_xyz
  1  'x, y, z'
loop_
 _atom_site_type_symbol
 _atom_site_label
 _atom_site_symmetry_multiplicity
 _atom_site_fract_x
 _atom_site_fract_y
 _atom_site_fract_z
 _atom_site_occupancy
  Y  Y0  1  0.40436528  0.12917239  0.37990438  1
  Y  Y1  1  0.02446090  0.62009562  0.74926801  1
  Y  Y2  1  0.27519289  0.25073199  0.87082761  1
  Y  Y3  1  0.59563472  0.87082761  0.62009562  1
  Y  Y4  1  0.97553910  0.37990438  0.25073199  1
  Y  Y5  1  0.72480711  0.74926801  0.12917239  1
  Pd  Pd6  1  -0.00000000  -0.00000000  0.00000000  1
  Pd  Pd7  1  0.50000000  -0.00000000  0.00000000  1
  Pd  Pd8  1  0.22923308  0.67779440  0.16595353  1
  Pd  Pd9  1  0.06327955  0.83404647  0.51184087  1
  Pd  Pd10  1  0.55143868  0.48815913  0.32220560  1
  Pd  Pd11  1  0.77076692  0.32220560  0.83404647  1
  Pd  Pd12  1  0.93672045  0.16595353  0.48815913  1
  Pd  Pd13  1  0.44856132  0.51184087  0.67779440  1
