# generated using pymatgen
data_Cs2GeSe4
_symmetry_space_group_name_H-M   'P 1'
_cell_length_a   7.84137204
_cell_length_b   8.74400224
_cell_length_c   9.96307330
_cell_angle_alpha   67.08416362
_cell_angle_beta   66.82619209
_cell_angle_gamma   63.35984112
_symmetry_Int_Tables_number   1
_chemical_formula_structural   Cs2GeSe4
_chemical_formula_sum   'Cs4 Ge2 Se8'
_cell_volume   542.15919376
_cell_formula_units_Z   2
loop_
 _symmetry_equiv_pos_site_id
 _symmetry_equiv_pos_as_xyz
  1  'x, y, z'
loop_
 _atom_site_type_symbol
 _atom_site_label
 _atom_site_symmetry_multiplicity
 _atom_site_fract_x
 _atom_site_fract_y
 _atom_site_fract_z
 _atom_site_occupancy
  Cs  Cs0  1  0.15876664  0.96740635  0.71506037  1
  Cs  Cs1  1  0.84123336  0.03259365  0.28493963  1
  Cs  Cs2  1  0.40824039  0.32536875  0.85815048  1
  Cs  Cs3  1  0.59175961  0.67463125  0.14184952  1
  Ge  Ge4  1  0.15729247  0.38729653  0.29811853  1
  Ge  Ge5  1  0.84270753  0.61270347  0.70188147  1
  Se  Se6  1  0.83938838  0.36235943  0.46613996  1
  Se  Se7  1  0.33211223  0.36235943  0.46613996  1
  Se  Se8  1  0.16061162  0.63764057  0.53386004  1
  Se  Se9  1  0.66788777  0.63764057  0.53386004  1
  Se  Se10  1  0.12557546  0.64454307  0.10430600  1
  Se  Se11  1  0.87442454  0.35545693  0.89569400  1
  Se  Se12  1  0.31515713  0.10003435  0.26965139  1
  Se  Se13  1  0.68484287  0.89996565  0.73034861  1
