# generated using pymatgen
data_Eu(AlS2)2
_symmetry_space_group_name_H-M   'P 1'
_cell_length_a   6.00551214
_cell_length_b   6.00551214
_cell_length_c   10.50797995
_cell_angle_alpha   90.00000000
_cell_angle_beta   90.00000000
_cell_angle_gamma   120.54031849
_symmetry_Int_Tables_number   1
_chemical_formula_structural   Eu(AlS2)2
_chemical_formula_sum   'Eu2 Al4 S8'
_cell_volume   326.40707256
_cell_formula_units_Z   2
loop_
 _symmetry_equiv_pos_site_id
 _symmetry_equiv_pos_as_xyz
  1  'x, y, z'
loop_
 _atom_site_type_symbol
 _atom_site_label
 _atom_site_symmetry_multiplicity
 _atom_site_fract_x
 _atom_site_fract_y
 _atom_site_fract_z
 _atom_site_occupancy
  Eu  Eu0  1  0.50000000  0.50000000  0.25000000  1
  Eu  Eu1  1  0.50000000  0.50000000  0.75000000  1
  Al  Al2  1  0.75936904  0.23780840  0.50000000  1
  Al  Al3  1  0.24063096  0.76219160  0.50000000  1
  Al  Al4  1  0.76219160  0.24063096  0.00000000  1
  Al  Al5  1  0.23780840  0.75936904  0.00000000  1
  S  S6  1  0.81916899  0.64744851  0.50000000  1
  S  S7  1  0.18083101  0.35255149  0.50000000  1
  S  S8  1  0.35255149  0.18083101  0.00000000  1
  S  S9  1  0.64744851  0.81916899  0.00000000  1
  S  S10  1  -0.00000000  0.50000000  0.16372889  1
  S  S11  1  0.50000000  -0.00000000  0.33627111  1
  S  S12  1  -0.00000000  0.50000000  0.83627111  1
  S  S13  1  0.50000000  -0.00000000  0.66372889  1
