# generated using pymatgen
data_KCr5Te8
_symmetry_space_group_name_H-M   'P 1'
_cell_length_a   4.03281522
_cell_length_b   9.61556515
_cell_length_c   10.44004676
_cell_angle_alpha   104.32822478
_cell_angle_beta   101.13618298
_cell_angle_gamma   90.00000000
_symmetry_Int_Tables_number   1
_chemical_formula_structural   KCr5Te8
_chemical_formula_sum   'K1 Cr5 Te8'
_cell_volume   384.37650298
_cell_formula_units_Z   1
loop_
 _symmetry_equiv_pos_site_id
 _symmetry_equiv_pos_as_xyz
  1  'x, y, z'
loop_
 _atom_site_type_symbol
 _atom_site_label
 _atom_site_symmetry_multiplicity
 _atom_site_fract_x
 _atom_site_fract_y
 _atom_site_fract_z
 _atom_site_occupancy
  K  K0  1  0.50000000  0.50000000  0.00000000  1
  Cr  Cr1  1  0.00000000  0.00000000  0.00000000  1
  Cr  Cr2  1  0.65915850  0.98654372  0.31831701  1
  Cr  Cr3  1  0.34084150  0.01345628  0.68168299  1
  Cr  Cr4  1  0.70426123  0.33135746  0.40852245  1
  Cr  Cr5  1  0.29573877  0.66864254  0.59147755  1
  Te  Te6  1  0.42747732  0.83720162  0.85495465  1
  Te  Te7  1  0.57252268  0.16279838  0.14504535  1
  Te  Te8  1  0.91187987  0.17002119  0.82375975  1
  Te  Te9  1  0.08812013  0.82997881  0.17624025  1
  Te  Te10  1  0.82959612  0.50911591  0.65919224  1
  Te  Te11  1  0.17040388  0.49088409  0.34080776  1
  Te  Te12  1  0.76025516  0.84201202  0.52051032  1
  Te  Te13  1  0.23974484  0.15798798  0.47948968  1
