# generated using pymatgen
data_Al4Tc
_symmetry_space_group_name_H-M   'P 1'
_cell_length_a   5.20053192
_cell_length_b   5.17034957
_cell_length_c   9.17735907
_cell_angle_alpha   86.83738134
_cell_angle_beta   73.54065778
_cell_angle_gamma   78.77181530
_symmetry_Int_Tables_number   1
_chemical_formula_structural   Al4Tc
_chemical_formula_sum   'Al12 Tc3'
_cell_volume   232.12415137
_cell_formula_units_Z   3
loop_
 _symmetry_equiv_pos_site_id
 _symmetry_equiv_pos_as_xyz
  1  'x, y, z'
loop_
 _atom_site_type_symbol
 _atom_site_label
 _atom_site_symmetry_multiplicity
 _atom_site_fract_x
 _atom_site_fract_y
 _atom_site_fract_z
 _atom_site_occupancy
  Al  Al0  1  0.85217643  0.50624788  0.00000000  1
  Al  Al1  1  0.50659449  0.14593867  0.00000000  1
  Al  Al2  1  0.26271695  0.68076792  0.15304455  1
  Al  Al3  1  0.41576150  0.68076792  0.84695545  1
  Al  Al4  1  0.06183040  0.21336066  0.23975876  1
  Al  Al5  1  0.30158916  0.21336066  0.76024124  1
  Al  Al6  1  0.94191569  0.81035567  0.75026497  1
  Al  Al7  1  0.69218067  0.81035567  0.24973503  1
  Al  Al8  1  0.08229123  0.59243026  0.46632453  1
  Al  Al9  1  0.54861576  0.59243026  0.53367547  1
  Al  Al10  1  0.23145472  0.07169923  0.49751887  1
  Al  Al11  1  0.72897359  0.07169923  0.50248113  1
  Tc  Tc12  1  0.01302707  0.99267968  0.00000000  1
  Tc  Tc13  1  0.80539514  0.33195314  0.72708206  1
  Tc  Tc14  1  0.53247720  0.33195314  0.27291794  1
