# generated using pymatgen
data_Sm5Ru2
_symmetry_space_group_name_H-M   'P 1'
_cell_length_a   6.51114126
_cell_length_b   7.36948964
_cell_length_c   8.70824016
_cell_angle_alpha   96.18707582
_cell_angle_beta   111.95321564
_cell_angle_gamma   90.00000000
_symmetry_Int_Tables_number   1
_chemical_formula_structural   Sm5Ru2
_chemical_formula_sum   'Sm10 Ru4'
_cell_volume   384.93008677
_cell_formula_units_Z   2
loop_
 _symmetry_equiv_pos_site_id
 _symmetry_equiv_pos_as_xyz
  1  'x, y, z'
loop_
 _atom_site_type_symbol
 _atom_site_label
 _atom_site_symmetry_multiplicity
 _atom_site_fract_x
 _atom_site_fract_y
 _atom_site_fract_z
 _atom_site_occupancy
  Sm  Sm0  1  0.97924633  0.91571200  0.18652862  1
  Sm  Sm1  1  0.79271771  0.58428800  0.81347138  1
  Sm  Sm2  1  0.02075367  0.08428800  0.81347138  1
  Sm  Sm3  1  0.20728229  0.41571200  0.18652862  1
  Sm  Sm4  1  0.64156598  0.81424240  0.43443590  1
  Sm  Sm5  1  0.20713008  0.68575760  0.56556410  1
  Sm  Sm6  1  0.35843402  0.18575760  0.56556410  1
  Sm  Sm7  1  0.79286992  0.31424240  0.43443590  1
  Sm  Sm8  1  0.42259902  0.75000000  1.00000000  1
  Sm  Sm9  1  0.57740098  0.25000000  0.00000000  1
  Ru  Ru10  1  0.82415287  0.57435628  0.22081400  1
  Ru  Ru11  1  0.60333888  0.92564372  0.77918600  1
  Ru  Ru12  1  0.17584713  0.42564372  0.77918600  1
  Ru  Ru13  1  0.39666112  0.07435628  0.22081400  1
