# generated using pymatgen
data_Sr3Pt2
_symmetry_space_group_name_H-M   'P 1'
_cell_length_a   8.03723282
_cell_length_b   8.03723282
_cell_length_c   8.03723272
_cell_angle_alpha   71.94257710
_cell_angle_beta   71.94257716
_cell_angle_gamma   71.94257892
_symmetry_Int_Tables_number   1
_chemical_formula_structural   Sr3Pt2
_chemical_formula_sum   'Sr9 Pt6'
_cell_volume   455.97085152
_cell_formula_units_Z   3
loop_
 _symmetry_equiv_pos_site_id
 _symmetry_equiv_pos_as_xyz
  1  'x, y, z'
loop_
 _atom_site_type_symbol
 _atom_site_label
 _atom_site_symmetry_multiplicity
 _atom_site_fract_x
 _atom_site_fract_y
 _atom_site_fract_z
 _atom_site_occupancy
  Sr  Sr0  1  0.00000000  0.00000000  -0.00000000  1
  Sr  Sr1  1  0.79661233  0.79661233  0.79661233  1
  Sr  Sr2  1  0.20338767  0.20338767  0.20338767  1
  Sr  Sr3  1  0.61191112  0.32602046  0.84327612  1
  Sr  Sr4  1  0.32602046  0.84327612  0.61191112  1
  Sr  Sr5  1  0.84327612  0.61191112  0.32602046  1
  Sr  Sr6  1  0.38808888  0.67397954  0.15672388  1
  Sr  Sr7  1  0.67397954  0.15672388  0.38808888  1
  Sr  Sr8  1  0.15672388  0.38808888  0.67397954  1
  Pt  Pt9  1  0.96025635  0.14709020  0.58764282  1
  Pt  Pt10  1  0.14709020  0.58764282  0.96025635  1
  Pt  Pt11  1  0.58764282  0.96025635  0.14709020  1
  Pt  Pt12  1  0.03974365  0.85290980  0.41235718  1
  Pt  Pt13  1  0.85290980  0.41235718  0.03974365  1
  Pt  Pt14  1  0.41235718  0.03974365  0.85290980  1
