# generated using pymatgen
data_CaH2F4
_symmetry_space_group_name_H-M   'P 1'
_cell_length_a   5.63781267
_cell_length_b   5.83734212
_cell_length_c   6.02886771
_cell_angle_alpha   76.95048253
_cell_angle_beta   62.12343954
_cell_angle_gamma   61.12441168
_symmetry_Int_Tables_number   1
_chemical_formula_structural   CaH2F4
_chemical_formula_sum   'Ca2 H4 F8'
_cell_volume   153.57952615
_cell_formula_units_Z   2
loop_
 _symmetry_equiv_pos_site_id
 _symmetry_equiv_pos_as_xyz
  1  'x, y, z'
loop_
 _atom_site_type_symbol
 _atom_site_label
 _atom_site_symmetry_multiplicity
 _atom_site_fract_x
 _atom_site_fract_y
 _atom_site_fract_z
 _atom_site_occupancy
  Ca  Ca0  1  0.12500000  0.25000000  0.75000000  1
  Ca  Ca1  1  0.87500000  0.75000000  0.25000000  1
  H  H2  1  0.25597096  0.75000000  0.48805808  1
  H  H3  1  0.49402904  0.75000000  0.01194192  1
  H  H4  1  0.74402904  0.25000000  0.51194192  1
  H  H5  1  0.50597096  0.25000000  0.98805808  1
  F  F6  1  0.16488665  0.61153676  0.48580704  1
  F  F7  1  0.26223045  0.88846324  0.01419296  1
  F  F8  1  0.72357659  0.61153676  0.01419296  1
  F  F9  1  0.34930631  0.88846324  0.48580704  1
  F  F10  1  0.83511335  0.38846324  0.51419296  1
  F  F11  1  0.73776955  0.11153676  0.98580704  1
  F  F12  1  0.27642341  0.38846324  0.98580704  1
  F  F13  1  0.65069369  0.11153676  0.51419296  1
