# generated using pymatgen
data_Er3Pt4
_symmetry_space_group_name_H-M   'P 1'
_cell_length_a   5.68962913
_cell_length_b   7.81360792
_cell_length_c   7.81360780
_cell_angle_alpha   114.30716068
_cell_angle_beta   104.04731534
_cell_angle_gamma   104.04731512
_symmetry_Int_Tables_number   1
_chemical_formula_structural   Er3Pt4
_chemical_formula_sum   'Er6 Pt8'
_cell_volume   283.10457890
_cell_formula_units_Z   2
loop_
 _symmetry_equiv_pos_site_id
 _symmetry_equiv_pos_as_xyz
  1  'x, y, z'
loop_
 _atom_site_type_symbol
 _atom_site_label
 _atom_site_symmetry_multiplicity
 _atom_site_fract_x
 _atom_site_fract_y
 _atom_site_fract_z
 _atom_site_occupancy
  Er  Er0  1  0.40366573  0.12225064  0.37730354  1
  Er  Er1  1  0.02636219  0.62269646  0.74494710  1
  Er  Er2  1  0.28141509  0.25505290  0.87774936  1
  Er  Er3  1  0.59633427  0.87774936  0.62269646  1
  Er  Er4  1  0.97363781  0.37730354  0.25505290  1
  Er  Er5  1  0.71858491  0.74494710  0.12225064  1
  Pt  Pt6  1  -0.00000000  -0.00000000  0.00000000  1
  Pt  Pt7  1  0.50000000  -0.00000000  0.00000000  1
  Pt  Pt8  1  0.22488554  0.67291055  0.16385107  1
  Pt  Pt9  1  0.06103447  0.83614893  0.50905948  1
  Pt  Pt10  1  0.55197499  0.49094052  0.32708945  1
  Pt  Pt11  1  0.77511446  0.32708945  0.83614893  1
  Pt  Pt12  1  0.93896553  0.16385107  0.49094052  1
  Pt  Pt13  1  0.44802501  0.50905948  0.67291055  1
