# generated using pymatgen
data_Ho3Pd4
_symmetry_space_group_name_H-M   'P 1'
_cell_length_a   5.72477063
_cell_length_b   7.85076367
_cell_length_c   7.85076416
_cell_angle_alpha   114.29143187
_cell_angle_beta   104.06759196
_cell_angle_gamma   104.06759286
_symmetry_Int_Tables_number   1
_chemical_formula_structural   Ho3Pd4
_chemical_formula_sum   'Ho6 Pd8'
_cell_volume   287.51776232
_cell_formula_units_Z   2
loop_
 _symmetry_equiv_pos_site_id
 _symmetry_equiv_pos_as_xyz
  1  'x, y, z'
loop_
 _atom_site_type_symbol
 _atom_site_label
 _atom_site_symmetry_multiplicity
 _atom_site_fract_x
 _atom_site_fract_y
 _atom_site_fract_z
 _atom_site_occupancy
  Ho  Ho0  1  0.40398962  0.12627861  0.37865103  1
  Ho  Ho1  1  0.02533859  0.62134897  0.74762758  1
  Ho  Ho2  1  0.27771101  0.25237242  0.87372139  1
  Ho  Ho3  1  0.59601038  0.87372139  0.62134897  1
  Ho  Ho4  1  0.97466141  0.37865103  0.25237242  1
  Ho  Ho5  1  0.72228899  0.74762758  0.12627861  1
  Pd  Pd6  1  -0.00000000  0.00000000  -0.00000000  1
  Pd  Pd7  1  0.50000000  0.00000000  -0.00000000  1
  Pd  Pd8  1  0.22689683  0.67523915  0.16436195  1
  Pd  Pd9  1  0.06253488  0.83563805  0.51087720  1
  Pd  Pd10  1  0.55165768  0.48912280  0.32476085  1
  Pd  Pd11  1  0.77310317  0.32476085  0.83563805  1
  Pd  Pd12  1  0.93746512  0.16436195  0.48912280  1
  Pd  Pd13  1  0.44834232  0.51087720  0.67523915  1
