# generated using pymatgen
data_Gd3Se2NO
_symmetry_space_group_name_H-M   'P 1'
_cell_length_a   3.96776378
_cell_length_b   8.08789336
_cell_length_c   9.83303066
_cell_angle_alpha   97.09204910
_cell_angle_beta   90.00000000
_cell_angle_gamma   104.19898765
_symmetry_Int_Tables_number   1
_chemical_formula_structural   Gd3Se2NO
_chemical_formula_sum   'Gd6 Se4 N2 O2'
_cell_volume   303.41920796
_cell_formula_units_Z   2
loop_
 _symmetry_equiv_pos_site_id
 _symmetry_equiv_pos_as_xyz
  1  'x, y, z'
loop_
 _atom_site_type_symbol
 _atom_site_label
 _atom_site_symmetry_multiplicity
 _atom_site_fract_x
 _atom_site_fract_y
 _atom_site_fract_z
 _atom_site_occupancy
  Gd  Gd0  1  0.39098016  0.78196032  0.05412720  1
  Gd  Gd1  1  0.60901984  0.21803968  0.94587280  1
  Gd  Gd2  1  0.04394010  0.08788021  0.26180949  1
  Gd  Gd3  1  0.95605990  0.91211979  0.73819051  1
  Gd  Gd4  1  0.19732697  0.39465394  0.67467421  1
  Gd  Gd5  1  0.80267303  0.60534606  0.32532579  1
  Se  Se6  1  0.21182517  0.42365034  0.15052667  1
  Se  Se7  1  0.78817483  0.57634966  0.84947333  1
  Se  Se8  1  0.37125030  0.74250060  0.52585023  1
  Se  Se9  1  0.62874970  0.25749940  0.47414977  1
  N  N10  1  0.09803301  0.19606602  0.81201859  1
  N  N11  1  0.90196699  0.80393398  0.18798141  1
  O  O12  1  0.53500488  0.07000976  0.14001147  1
  O  O13  1  0.46499512  0.92999024  0.85998853  1
