# generated using pymatgen
data_Ta5(NiP)4
_symmetry_space_group_name_H-M   'P 1'
_cell_length_a   3.52813510
_cell_length_b   7.23232288
_cell_length_c   7.23232288
_cell_angle_alpha   86.58921789
_cell_angle_beta   75.88231397
_cell_angle_gamma   75.88231397
_symmetry_Int_Tables_number   1
_chemical_formula_structural   Ta5(NiP)4
_chemical_formula_sum   'Ta5 Ni4 P4'
_cell_volume   173.56505372
_cell_formula_units_Z   1
loop_
 _symmetry_equiv_pos_site_id
 _symmetry_equiv_pos_as_xyz
  1  'x, y, z'
loop_
 _atom_site_type_symbol
 _atom_site_label
 _atom_site_symmetry_multiplicity
 _atom_site_fract_x
 _atom_site_fract_y
 _atom_site_fract_z
 _atom_site_occupancy
  Ta  Ta0  1  0.86957282  0.32510855  0.93574582  1
  Ta  Ta1  1  0.13042718  0.67489145  0.06425418  1
  Ta  Ta2  1  0.19468137  0.93574582  0.67489145  1
  Ta  Ta3  1  0.80531863  0.06425418  0.32510855  1
  Ta  Ta4  1  0.50000000  -0.00000000  0.00000000  1
  Ni  Ni5  1  0.61056946  0.47695224  0.30190884  1
  Ni  Ni6  1  0.38943054  0.52304776  0.69809116  1
  Ni  Ni7  1  0.08752170  0.30190884  0.52304776  1
  Ni  Ni8  1  0.91247830  0.69809116  0.47695224  1
  P  P9  1  0.75838158  0.68555470  0.79768214  1
  P  P10  1  0.24161842  0.31444530  0.20231786  1
  P  P11  1  0.44393628  0.79768214  0.31444530  1
  P  P12  1  0.55606372  0.20231786  0.68555470  1
