# generated using pymatgen
data_Li2FeO2F
_symmetry_space_group_name_H-M   'P 1'
_cell_length_a   5.16956102
_cell_length_b   5.23335890
_cell_length_c   9.89205595
_cell_angle_alpha   84.29070699
_cell_angle_beta   94.40923870
_cell_angle_gamma   59.85338884
_symmetry_Int_Tables_number   1
_chemical_formula_structural   Li2FeO2F
_chemical_formula_sum   'Li8 Fe4 O8 F4'
_cell_volume   227.76003332
_cell_formula_units_Z   4
loop_
 _symmetry_equiv_pos_site_id
 _symmetry_equiv_pos_as_xyz
  1  'x, y, z'
loop_
 _atom_site_type_symbol
 _atom_site_label
 _atom_site_symmetry_multiplicity
 _atom_site_fract_x
 _atom_site_fract_y
 _atom_site_fract_z
 _atom_site_occupancy
  Li  Li0  1  0.31674603  0.88238357  0.99784783  1
  Li  Li1  1  0.14598229  0.69275083  0.50434728  1
  Li  Li2  1  0.00039907  0.50525336  0.00640756  1
  Li  Li3  1  0.23668547  0.23916330  0.74563758  1
  Li  Li4  1  0.73662656  0.77647309  0.24961325  1
  Li  Li5  1  0.51032643  0.96716584  0.49875177  1
  Li  Li6  1  0.82882549  0.34269492  0.49354265  1
  Li  Li7  1  0.67811790  0.13131044  0.99550055  1
  Fe  Fe8  1  0.60749832  0.60427034  0.75298891  1
  Fe  Fe9  1  0.91988993  0.92098861  0.74974081  1
  Fe  Fe10  1  0.42050218  0.40928991  0.24959774  1
  Fe  Fe11  1  0.10670386  0.03428438  0.24970143  1
  O  O12  1  0.22072147  0.92478783  0.63926462  1
  O  O13  1  0.06380652  0.77728413  0.13334021  1
  O  O14  1  0.64033959  0.86743409  0.86924584  1
  O  O15  1  0.45085159  0.69599834  0.36688690  1
  O  O16  1  0.87162030  0.64220227  0.63305891  1
  O  O17  1  0.34990421  0.14670138  0.13764171  1
  O  O18  1  0.92573618  0.21345213  0.86151472  1
  O  O19  1  0.79083138  0.07014588  0.36155054  1
  F  F20  1  0.29128026  0.54365804  0.87535951  1
  F  F21  1  0.13446148  0.36714009  0.37957024  1
  F  F22  1  0.54593393  0.28775784  0.62475243  1
  F  F23  1  0.70620858  0.45740840  0.12413701  1
