# generated using pymatgen
data_Dy(GaFe)6
_symmetry_space_group_name_H-M   'P 1'
_cell_length_a   5.02998211
_cell_length_b   6.59468164
_cell_length_c   6.59468164
_cell_angle_alpha   80.52507297
_cell_angle_beta   67.58164368
_cell_angle_gamma   67.58164368
_symmetry_Int_Tables_number   1
_chemical_formula_structural   Dy(GaFe)6
_chemical_formula_sum   'Dy1 Ga6 Fe6'
_cell_volume   186.89043548
_cell_formula_units_Z   1
loop_
 _symmetry_equiv_pos_site_id
 _symmetry_equiv_pos_as_xyz
  1  'x, y, z'
loop_
 _atom_site_type_symbol
 _atom_site_label
 _atom_site_symmetry_multiplicity
 _atom_site_fract_x
 _atom_site_fract_y
 _atom_site_fract_z
 _atom_site_occupancy
  Dy  Dy0  1  -0.00000000  0.00000000  0.00000000  1
  Ga  Ga1  1  -0.00000000  0.66540110  0.33459890  1
  Ga  Ga2  1  0.00000000  0.33459890  0.66540110  1
  Ga  Ga3  1  0.34308430  0.65691570  0.65691570  1
  Ga  Ga4  1  0.65691570  0.34308430  0.34308430  1
  Ga  Ga5  1  0.31936568  0.18063432  0.18063432  1
  Ga  Ga6  1  0.68063432  0.81936568  0.81936568  1
  Fe  Fe7  1  0.50000000  0.24572241  0.75427759  1
  Fe  Fe8  1  0.50000000  0.75427759  0.24572241  1
  Fe  Fe9  1  -0.00000000  0.50000000  0.00000000  1
  Fe  Fe10  1  0.50000000  0.50000000  0.00000000  1
  Fe  Fe11  1  -0.00000000  0.00000000  0.50000000  1
  Fe  Fe12  1  0.50000000  0.00000000  0.50000000  1
