# generated using pymatgen
data_K3TmV2O8
_symmetry_space_group_name_H-M   'P 1'
_cell_length_a   5.97047069
_cell_length_b   5.97066686
_cell_length_c   7.74554797
_cell_angle_alpha   90.00000002
_cell_angle_beta   90.00193091
_cell_angle_gamma   120.00108173
_symmetry_Int_Tables_number   1
_chemical_formula_structural   K3TmV2O8
_chemical_formula_sum   'K3 Tm1 V2 O8'
_cell_volume   239.11645052
_cell_formula_units_Z   1
loop_
 _symmetry_equiv_pos_site_id
 _symmetry_equiv_pos_as_xyz
  1  'x, y, z'
loop_
 _atom_site_type_symbol
 _atom_site_label
 _atom_site_symmetry_multiplicity
 _atom_site_fract_x
 _atom_site_fract_y
 _atom_site_fract_z
 _atom_site_occupancy
  K  K0  1  0.66669542  0.33334771  0.70217260  1
  K  K1  1  0.33330458  0.66665229  0.29782740  1
  K  K2  1  -0.00000000  0.00000000  0.00000000  1
  Tm  Tm3  1  -0.00000000  0.00000000  0.50000000  1
  V  V4  1  0.66665512  0.33332756  0.25197656  1
  V  V5  1  0.33334488  0.66667244  0.74802344  1
  O  O6  1  0.66663318  0.33331659  0.03452614  1
  O  O7  1  0.33336682  0.66668341  0.96547386  1
  O  O8  1  0.65420588  0.82710294  0.67029538  1
  O  O9  1  0.17290478  0.82709735  0.67029084  1
  O  O10  1  0.17290478  0.34580744  0.67029084  1
  O  O11  1  0.34579412  0.17289706  0.32970462  1
  O  O12  1  0.82709522  0.17290265  0.32970916  1
  O  O13  1  0.82709522  0.65419256  0.32970916  1
