# generated using pymatgen
data_Cs3Bi2Cl9
_symmetry_space_group_name_H-M   'P 1'
_cell_length_a   7.98805007
_cell_length_b   7.98824147
_cell_length_c   9.72668984
_cell_angle_alpha   89.99999877
_cell_angle_beta   89.99911355
_cell_angle_gamma   120.00078887
_symmetry_Int_Tables_number   1
_chemical_formula_structural   Cs3Bi2Cl9
_chemical_formula_sum   'Cs3 Bi2 Cl9'
_cell_volume   537.50710511
_cell_formula_units_Z   1
loop_
 _symmetry_equiv_pos_site_id
 _symmetry_equiv_pos_as_xyz
  1  'x, y, z'
loop_
 _atom_site_type_symbol
 _atom_site_label
 _atom_site_symmetry_multiplicity
 _atom_site_fract_x
 _atom_site_fract_y
 _atom_site_fract_z
 _atom_site_occupancy
  Cs  Cs0  1  0.00000000  0.00000174  0.00000000  1
  Cs  Cs1  1  0.33338009  0.66668829  0.32762942  1
  Cs  Cs2  1  0.66661991  0.33330820  0.67237058  1
  Bi  Bi3  1  0.33333963  0.66666991  0.82455585  1
  Bi  Bi4  1  0.66666037  0.33333028  0.17544415  1
  Cl  Cl5  1  0.53205072  0.53205024  0.00000101  1
  Cl  Cl6  1  0.46794928  0.99999852  0.99999899  1
  Cl  Cl7  1  0.00000000  0.46794987  0.00000000  1
  Cl  Cl8  1  0.84975077  0.64574742  0.32312276  1
  Cl  Cl9  1  0.35423359  0.20399839  0.32312820  1
  Cl  Cl10  1  0.79599322  0.15024396  0.32312274  1
  Cl  Cl11  1  0.15024923  0.79599665  0.67687724  1
  Cl  Cl12  1  0.20400678  0.35425073  0.67687726  1
  Cl  Cl13  1  0.64576641  0.84976480  0.67687180  1
