# generated using pymatgen
data_Ba6Os2N6O
_symmetry_space_group_name_H-M   'P 1'
_cell_length_a   7.49794835
_cell_length_b   7.49794835
_cell_length_c   7.49794795
_cell_angle_alpha   66.03621834
_cell_angle_beta   66.03621827
_cell_angle_gamma   66.03621958
_symmetry_Int_Tables_number   1
_chemical_formula_structural   Ba6Os2N6O
_chemical_formula_sum   'Ba6 Os2 N6 O1'
_cell_volume   336.98816827
_cell_formula_units_Z   1
loop_
 _symmetry_equiv_pos_site_id
 _symmetry_equiv_pos_as_xyz
  1  'x, y, z'
loop_
 _atom_site_type_symbol
 _atom_site_label
 _atom_site_symmetry_multiplicity
 _atom_site_fract_x
 _atom_site_fract_y
 _atom_site_fract_z
 _atom_site_occupancy
  Ba  Ba0  1  0.66608194  0.81617576  0.26345584  1
  Ba  Ba1  1  0.81617576  0.26345584  0.66608194  1
  Ba  Ba2  1  0.26345584  0.66608194  0.81617576  1
  Ba  Ba3  1  0.33391806  0.18382424  0.73654416  1
  Ba  Ba4  1  0.18382424  0.73654416  0.33391806  1
  Ba  Ba5  1  0.73654416  0.33391806  0.18382424  1
  Os  Os6  1  0.75285949  0.75285949  0.75285949  1
  Os  Os7  1  0.24714051  0.24714051  0.24714051  1
  N  N8  1  0.75112923  0.97493925  0.52715377  1
  N  N9  1  0.97493925  0.52715377  0.75112923  1
  N  N10  1  0.52715377  0.75112923  0.97493925  1
  N  N11  1  0.24887077  0.02506075  0.47284623  1
  N  N12  1  0.02506075  0.47284623  0.24887077  1
  N  N13  1  0.47284623  0.24887077  0.02506075  1
  O  O14  1  0.50000000  0.50000000  0.50000000  1
