# generated using pymatgen
data_ErNi4
_symmetry_space_group_name_H-M   'P 1'
_cell_length_a   4.82537788
_cell_length_b   4.84886586
_cell_length_c   10.14718419
_cell_angle_alpha   85.30256097
_cell_angle_beta   80.52687142
_cell_angle_gamma   60.16010893
_symmetry_Int_Tables_number   1
_chemical_formula_structural   ErNi4
_chemical_formula_sum   'Er3 Ni12'
_cell_volume   203.13409307
_cell_formula_units_Z   3
loop_
 _symmetry_equiv_pos_site_id
 _symmetry_equiv_pos_as_xyz
  1  'x, y, z'
loop_
 _atom_site_type_symbol
 _atom_site_label
 _atom_site_symmetry_multiplicity
 _atom_site_fract_x
 _atom_site_fract_y
 _atom_site_fract_z
 _atom_site_occupancy
  Er  Er0  1  -0.00000000  -0.00000000  0.00000000  1
  Er  Er1  1  0.86778015  0.00000000  0.35542879  1
  Er  Er2  1  0.13221985  1.00000000  0.64457121  1
  Ni  Ni3  1  0.33360763  0.33278473  1.00000000  1
  Ni  Ni4  1  0.66639237  0.66721527  0.00000000  1
  Ni  Ni5  1  0.42181619  1.00000000  0.19995395  1
  Ni  Ni6  1  0.57818381  0.00000000  0.80004605  1
  Ni  Ni7  1  0.92795924  0.50209622  0.19815368  1
  Ni  Ni8  1  0.43005547  0.49790378  0.19815368  1
  Ni  Ni9  1  0.07204076  0.49790378  0.80184632  1
  Ni  Ni10  1  0.56994453  0.50209622  0.80184632  1
  Ni  Ni11  1  0.18891886  0.34443597  0.40470106  1
  Ni  Ni12  1  0.53335483  0.65556403  0.40470106  1
  Ni  Ni13  1  0.81108114  0.65556403  0.59529894  1
  Ni  Ni14  1  0.46664517  0.34443597  0.59529894  1
