# generated using pymatgen
data_Tb3GaCo3
_symmetry_space_group_name_H-M   'P 1'
_cell_length_a   3.92392197
_cell_length_b   5.59584916
_cell_length_c   12.89184332
_cell_angle_alpha   90.00000000
_cell_angle_beta   90.00000000
_cell_angle_gamma   110.52463344
_symmetry_Int_Tables_number   1
_chemical_formula_structural   Tb3GaCo3
_chemical_formula_sum   'Tb6 Ga2 Co6'
_cell_volume   265.10575108
_cell_formula_units_Z   2
loop_
 _symmetry_equiv_pos_site_id
 _symmetry_equiv_pos_as_xyz
  1  'x, y, z'
loop_
 _atom_site_type_symbol
 _atom_site_label
 _atom_site_symmetry_multiplicity
 _atom_site_fract_x
 _atom_site_fract_y
 _atom_site_fract_z
 _atom_site_occupancy
  Tb  Tb0  1  0.21624732  0.43249463  0.39135825  1
  Tb  Tb1  1  0.78375268  0.56750537  0.60864175  1
  Tb  Tb2  1  0.21624732  0.43249463  0.10864175  1
  Tb  Tb3  1  0.78375268  0.56750537  0.89135825  1
  Tb  Tb4  1  0.49251891  0.98503783  0.25000000  1
  Tb  Tb5  1  0.50748109  0.01496217  0.75000000  1
  Ga  Ga6  1  0.50000000  -0.00000000  0.50000000  1
  Ga  Ga7  1  0.50000000  -0.00000000  0.00000000  1
  Co  Co8  1  0.92085010  0.84170020  0.40820914  1
  Co  Co9  1  0.07914990  0.15829980  0.59179086  1
  Co  Co10  1  0.92085010  0.84170020  0.09179086  1
  Co  Co11  1  0.07914990  0.15829980  0.90820914  1
  Co  Co12  1  0.78693676  0.57387352  0.25000000  1
  Co  Co13  1  0.21306324  0.42612648  0.75000000  1
