# generated using pymatgen
data_Lu3Ga8Cu3
_symmetry_space_group_name_H-M   'P 1'
_cell_length_a   4.22415000
_cell_length_b   8.00583393
_cell_length_c   8.00583393
_cell_angle_alpha   72.71554229
_cell_angle_beta   74.70332701
_cell_angle_gamma   74.70332701
_symmetry_Int_Tables_number   1
_chemical_formula_structural   Lu3Ga8Cu3
_chemical_formula_sum   'Lu3 Ga8 Cu3'
_cell_volume   244.24915540
_cell_formula_units_Z   1
loop_
 _symmetry_equiv_pos_site_id
 _symmetry_equiv_pos_as_xyz
  1  'x, y, z'
loop_
 _atom_site_type_symbol
 _atom_site_label
 _atom_site_symmetry_multiplicity
 _atom_site_fract_x
 _atom_site_fract_y
 _atom_site_fract_z
 _atom_site_occupancy
  Lu  Lu0  1  -0.00000000  -0.00000000  0.00000000  1
  Lu  Lu1  1  0.30944907  0.69055093  0.69055093  1
  Lu  Lu2  1  0.69055093  0.30944907  0.30944907  1
  Ga  Ga3  1  0.13142621  0.58013473  0.15701284  1
  Ga  Ga4  1  0.86857379  0.41986527  0.84298716  1
  Ga  Ga5  1  0.13142621  0.15701284  0.58013473  1
  Ga  Ga6  1  0.86857379  0.84298716  0.41986527  1
  Ga  Ga7  1  0.34306323  0.28886342  0.02501012  1
  Ga  Ga8  1  0.65693677  0.71113658  0.97498988  1
  Ga  Ga9  1  0.34306323  0.02501012  0.28886342  1
  Ga  Ga10  1  0.65693677  0.97498988  0.71113658  1
  Cu  Cu11  1  -0.00000000  0.50000000  0.50000000  1
  Cu  Cu12  1  0.50000000  0.30317265  0.69682735  1
  Cu  Cu13  1  0.50000000  0.69682735  0.30317265  1
