# generated using pymatgen
data_Li4Nb2Co3Sb3O16
_symmetry_space_group_name_H-M   'P 1'
_cell_length_a   6.20707520
_cell_length_b   6.26731110
_cell_length_c   9.90788040
_cell_angle_alpha   90.01664927
_cell_angle_beta   89.26991215
_cell_angle_gamma   120.21077664
_symmetry_Int_Tables_number   1
_chemical_formula_structural   Li4Nb2Co3Sb3O16
_chemical_formula_sum   'Li4 Nb2 Co3 Sb3 O16'
_cell_volume   333.04825228
_cell_formula_units_Z   1
loop_
 _symmetry_equiv_pos_site_id
 _symmetry_equiv_pos_as_xyz
  1  'x, y, z'
loop_
 _atom_site_type_symbol
 _atom_site_label
 _atom_site_symmetry_multiplicity
 _atom_site_fract_x
 _atom_site_fract_y
 _atom_site_fract_z
 _atom_site_occupancy
  Li  Li0  1  0.34337909  0.66733070  0.89655965  1
  Li  Li1  1  0.97500883  0.99490230  0.98487289  1
  Li  Li2  1  0.98403287  0.00330944  0.50120800  1
  Li  Li3  1  0.66225561  0.32280318  0.40714387  1
  Nb  Nb4  1  0.34982225  0.67199750  0.49816730  1
  Nb  Nb5  1  0.69653548  0.36013121  0.97779137  1
  Co  Co6  1  0.66684589  0.82946033  0.21110970  1
  Co  Co7  1  0.83048032  0.65809199  0.71064599  1
  Co  Co8  1  0.83409009  0.17151026  0.71519809  1
  Sb  Sb9  1  0.17406845  0.83797321  0.21728197  1
  Sb  Sb10  1  0.17204154  0.34479093  0.21540843  1
  Sb  Sb11  1  0.34348393  0.16689110  0.71475507  1
  O  O12  1  0.18063575  0.83719526  0.59081988  1
  O  O13  1  0.03401844  0.49395903  0.35398184  1
  O  O14  1  0.34143704  0.65203798  0.10135335  1
  O  O15  1  0.99388493  0.02511058  0.31655329  1
  O  O16  1  0.99794133  0.99854519  0.79872663  1
  O  O17  1  0.18986031  0.33674406  0.59460611  1
  O  O18  1  0.47696519  0.95041939  0.35116373  1
  O  O19  1  0.46766867  0.50533396  0.34196287  1
  O  O20  1  0.32930803  0.18752170  0.09611361  1
  O  O21  1  0.65866751  0.81863389  0.58894811  1
  O  O22  1  0.51002694  0.46878357  0.84001155  1
  O  O23  1  0.50160109  0.03731273  0.85182927  1
  O  O24  1  0.66848515  0.32568293  0.60849511  1
  O  O25  1  0.79748816  0.66082803  0.07849841  1
  O  O26  1  0.96445204  0.47820736  0.84786121  1
  O  O27  1  0.85551408  0.19479118  0.09677170  1
