# generated using pymatgen
data_Eu5Pt2
_symmetry_space_group_name_H-M   'P 1'
_cell_length_a   6.79515035
_cell_length_b   7.83223185
_cell_length_c   9.06903426
_cell_angle_alpha   96.97614556
_cell_angle_beta   112.00173858
_cell_angle_gamma   90.00000000
_symmetry_Int_Tables_number   1
_chemical_formula_structural   Eu5Pt2
_chemical_formula_sum   'Eu10 Pt4'
_cell_volume   443.65726050
_cell_formula_units_Z   2
loop_
 _symmetry_equiv_pos_site_id
 _symmetry_equiv_pos_as_xyz
  1  'x, y, z'
loop_
 _atom_site_type_symbol
 _atom_site_label
 _atom_site_symmetry_multiplicity
 _atom_site_fract_x
 _atom_site_fract_y
 _atom_site_fract_z
 _atom_site_occupancy
  Eu  Eu0  1  0.98097025  0.92020371  0.18260262  1
  Eu  Eu1  1  0.79836763  0.57979629  0.81739738  1
  Eu  Eu2  1  0.01902975  0.07979629  0.81739738  1
  Eu  Eu3  1  0.20163237  0.42020371  0.18260262  1
  Eu  Eu4  1  0.63889858  0.81822034  0.43538055  1
  Eu  Eu5  1  0.20351803  0.68177966  0.56461945  1
  Eu  Eu6  1  0.36110142  0.18177966  0.56461945  1
  Eu  Eu7  1  0.79648197  0.31822034  0.43538055  1
  Eu  Eu8  1  0.42112448  0.75000000  -0.00000000  1
  Eu  Eu9  1  0.57887552  0.25000000  -0.00000000  1
  Pt  Pt10  1  0.81659760  0.58070779  0.21890580  1
  Pt  Pt11  1  0.59769180  0.91929221  0.78109420  1
  Pt  Pt12  1  0.18340240  0.41929221  0.78109420  1
  Pt  Pt13  1  0.40230820  0.08070779  0.21890580  1
