# generated using pymatgen
data_La3SbO3
_symmetry_space_group_name_H-M   'P 1'
_cell_length_a   4.11897243
_cell_length_b   7.25920553
_cell_length_c   11.12569712
_cell_angle_alpha   81.81361920
_cell_angle_beta   79.33241229
_cell_angle_gamma   73.51843804
_symmetry_Int_Tables_number   1
_chemical_formula_structural   La3SbO3
_chemical_formula_sum   'La6 Sb2 O6'
_cell_volume   312.05272443
_cell_formula_units_Z   2
loop_
 _symmetry_equiv_pos_site_id
 _symmetry_equiv_pos_as_xyz
  1  'x, y, z'
loop_
 _atom_site_type_symbol
 _atom_site_label
 _atom_site_symmetry_multiplicity
 _atom_site_fract_x
 _atom_site_fract_y
 _atom_site_fract_z
 _atom_site_occupancy
  La  La0  1  0.61961496  0.20540650  0.55536357  1
  La  La1  1  0.38038504  0.79459350  0.44463643  1
  La  La2  1  0.62788886  0.64326396  0.10095831  1
  La  La3  1  0.37211114  0.35673604  0.89904169  1
  La  La4  1  0.15451054  0.89771309  0.79326582  1
  La  La5  1  0.84548946  0.10228691  0.20673418  1
  Sb  Sb6  1  0.12224206  0.43759489  0.31792100  1
  Sb  Sb7  1  0.87775794  0.56240511  0.68207900  1
  O  O8  1  0.18957680  0.03153159  0.58931482  1
  O  O9  1  0.81042320  0.96846841  0.41068518  1
  O  O10  1  0.43628253  0.92599769  0.20143725  1
  O  O11  1  0.56371747  0.07400231  0.79856275  1
  O  O12  1  0.16176488  0.68909282  0.98737742  1
  O  O13  1  0.83823512  0.31090718  0.01262258  1
