# generated using pymatgen
data_Nb
_symmetry_space_group_name_H-M   'P 1'
_cell_length_a   5.56228497
_cell_length_b   4.67200257
_cell_length_c   9.95310421
_cell_angle_alpha   78.86128625
_cell_angle_beta   94.37562606
_cell_angle_gamma   91.97403593
_symmetry_Int_Tables_number   1
_chemical_formula_structural   Nb
_chemical_formula_sum   Nb14
_cell_volume   252.98799421
_cell_formula_units_Z   14
loop_
 _symmetry_equiv_pos_site_id
 _symmetry_equiv_pos_as_xyz
  1  'x, y, z'
loop_
 _atom_site_type_symbol
 _atom_site_label
 _atom_site_symmetry_multiplicity
 _atom_site_fract_x
 _atom_site_fract_y
 _atom_site_fract_z
 _atom_site_occupancy
  Nb  Nb0  1  0.32374772  0.78219492  0.42876858  1
  Nb  Nb1  1  0.67625228  0.21780508  0.57123142  1
  Nb  Nb2  1  0.96963894  0.34962479  0.28638417  1
  Nb  Nb3  1  0.03036106  0.65037521  0.71361583  1
  Nb  Nb4  1  0.46959794  0.34949937  0.28641338  1
  Nb  Nb5  1  0.53040206  0.65050063  0.71358662  1
  Nb  Nb6  1  0.11160523  0.92224273  0.14335704  1
  Nb  Nb7  1  0.88839477  0.07775727  0.85664296  1
  Nb  Nb8  1  0.38839575  0.07750227  0.85669437  1
  Nb  Nb9  1  0.61160425  0.92249773  0.14330563  1
  Nb  Nb10  1  0.82374893  0.78223536  0.42873397  1
  Nb  Nb11  1  0.17625107  0.21776464  0.57126603  1
  Nb  Nb12  1  0.75003913  0.50025761  0.99989527  1
  Nb  Nb13  1  0.24996087  0.49974239  0.00010473  1
