# generated using pymatgen
data_Tb3Zn11
_symmetry_space_group_name_H-M   'P 1'
_cell_length_a   4.43687531
_cell_length_b   8.15608639
_cell_length_c   8.15608639
_cell_angle_alpha   65.26183710
_cell_angle_beta   74.21681706
_cell_angle_gamma   74.21681706
_symmetry_Int_Tables_number   1
_chemical_formula_structural   Tb3Zn11
_chemical_formula_sum   'Tb3 Zn11'
_cell_volume   253.69655893
_cell_formula_units_Z   1
loop_
 _symmetry_equiv_pos_site_id
 _symmetry_equiv_pos_as_xyz
  1  'x, y, z'
loop_
 _atom_site_type_symbol
 _atom_site_label
 _atom_site_symmetry_multiplicity
 _atom_site_fract_x
 _atom_site_fract_y
 _atom_site_fract_z
 _atom_site_occupancy
  Tb  Tb0  1  0.00000000  0.00000000  -0.00000000  1
  Tb  Tb1  1  0.29426101  0.70573899  0.70573899  1
  Tb  Tb2  1  0.70573899  0.29426101  0.29426101  1
  Zn  Zn3  1  0.00000000  0.50000000  0.50000000  1
  Zn  Zn4  1  0.50000000  0.31807835  0.68192165  1
  Zn  Zn5  1  0.50000000  0.68192165  0.31807835  1
  Zn  Zn6  1  0.34036092  0.30062714  0.01865102  1
  Zn  Zn7  1  0.65963908  0.69937286  0.98134898  1
  Zn  Zn8  1  0.34036092  0.01865102  0.30062714  1
  Zn  Zn9  1  0.65963908  0.98134898  0.69937286  1
  Zn  Zn10  1  0.13744687  0.58204282  0.14306344  1
  Zn  Zn11  1  0.86255313  0.41795718  0.85693656  1
  Zn  Zn12  1  0.13744687  0.14306344  0.58204282  1
  Zn  Zn13  1  0.86255313  0.85693656  0.41795718  1
