# generated using pymatgen
data_La5Ir2
_symmetry_space_group_name_H-M   'P 1'
_cell_length_a   6.77957457
_cell_length_b   7.41594161
_cell_length_c   9.18235811
_cell_angle_alpha   95.99296174
_cell_angle_beta   111.66400937
_cell_angle_gamma   90.00000000
_symmetry_Int_Tables_number   1
_chemical_formula_structural   La5Ir2
_chemical_formula_sum   'La10 Ir4'
_cell_volume   426.33515148
_cell_formula_units_Z   2
loop_
 _symmetry_equiv_pos_site_id
 _symmetry_equiv_pos_as_xyz
  1  'x, y, z'
loop_
 _atom_site_type_symbol
 _atom_site_label
 _atom_site_symmetry_multiplicity
 _atom_site_fract_x
 _atom_site_fract_y
 _atom_site_fract_z
 _atom_site_occupancy
  La  La0  1  0.98571950  0.91158445  0.18637970  1
  La  La1  1  0.79933980  0.58841555  0.81362030  1
  La  La2  1  0.01428050  0.08841555  0.81362030  1
  La  La3  1  0.20066020  0.41158445  0.18637970  1
  La  La4  1  0.64366718  0.81674641  0.43083618  1
  La  La5  1  0.21283100  0.68325359  0.56916382  1
  La  La6  1  0.35633282  0.18325359  0.56916382  1
  La  La7  1  0.78716900  0.31674641  0.43083618  1
  La  La8  1  0.42214762  0.75000000  -0.00000000  1
  La  La9  1  0.57785238  0.25000000  -0.00000000  1
  Ir  Ir10  1  0.81608883  0.58004303  0.22322421  1
  Ir  Ir11  1  0.59286463  0.91995697  0.77677579  1
  Ir  Ir12  1  0.18391117  0.41995697  0.77677579  1
  Ir  Ir13  1  0.40713537  0.08004303  0.22322421  1
