# generated using pymatgen
data_Sm3Pd4
_symmetry_space_group_name_H-M   'P 1'
_cell_length_a   5.81400335
_cell_length_b   8.07974380
_cell_length_c   8.07974430
_cell_angle_alpha   114.43756272
_cell_angle_beta   103.87822908
_cell_angle_gamma   103.87822995
_symmetry_Int_Tables_number   1
_chemical_formula_structural   Sm3Pd4
_chemical_formula_sum   'Sm6 Pd8'
_cell_volume   309.79009305
_cell_formula_units_Z   2
loop_
 _symmetry_equiv_pos_site_id
 _symmetry_equiv_pos_as_xyz
  1  'x, y, z'
loop_
 _atom_site_type_symbol
 _atom_site_label
 _atom_site_symmetry_multiplicity
 _atom_site_fract_x
 _atom_site_fract_y
 _atom_site_fract_z
 _atom_site_occupancy
  Sm  Sm0  1  0.40429470  0.12595796  0.37752857  1
  Sm  Sm1  1  0.02676613  0.62247143  0.74842938  1
  Sm  Sm2  1  0.27833675  0.25157062  0.87404204  1
  Sm  Sm3  1  0.59570530  0.87404204  0.62247143  1
  Sm  Sm4  1  0.97323387  0.37752857  0.25157062  1
  Sm  Sm5  1  0.72166325  0.74842938  0.12595796  1
  Pd  Pd6  1  -0.00000000  -0.00000000  -0.00000000  1
  Pd  Pd7  1  0.50000000  -0.00000000  -0.00000000  1
  Pd  Pd8  1  0.22379796  0.67117423  0.16396968  1
  Pd  Pd9  1  0.05982828  0.83603032  0.50720455  1
  Pd  Pd10  1  0.55262373  0.49279545  0.32882577  1
  Pd  Pd11  1  0.77620204  0.32882577  0.83603032  1
  Pd  Pd12  1  0.94017172  0.16396968  0.49279545  1
  Pd  Pd13  1  0.44737627  0.50720455  0.67117423  1
