# generated using pymatgen
data_Nb7Co6
_symmetry_space_group_name_H-M   'P 1'
_cell_length_a   4.97604403
_cell_length_b   4.97604403
_cell_length_c   9.16826644
_cell_angle_alpha   74.25399910
_cell_angle_beta   74.25399910
_cell_angle_gamma   59.99999856
_symmetry_Int_Tables_number   1
_chemical_formula_structural   Nb7Co6
_chemical_formula_sum   'Nb7 Co6'
_cell_volume   186.69964750
_cell_formula_units_Z   1
loop_
 _symmetry_equiv_pos_site_id
 _symmetry_equiv_pos_as_xyz
  1  'x, y, z'
loop_
 _atom_site_type_symbol
 _atom_site_label
 _atom_site_symmetry_multiplicity
 _atom_site_fract_x
 _atom_site_fract_y
 _atom_site_fract_z
 _atom_site_occupancy
  Nb  Nb0  1  0.00000000  0.00000000  0.00000000  1
  Nb  Nb1  1  0.16662818  0.16662818  0.50011545  1
  Nb  Nb2  1  0.83337182  0.83337182  0.49988455  1
  Nb  Nb3  1  0.34738003  0.34738003  0.95785991  1
  Nb  Nb4  1  0.65261997  0.65261997  0.04214009  1
  Nb  Nb5  1  0.45036609  0.45036609  0.64890174  1
  Nb  Nb6  1  0.54963391  0.54963391  0.35109826  1
  Co  Co7  1  0.57942515  0.09332795  0.23391895  1
  Co  Co8  1  0.09332795  0.09332795  0.23391895  1
  Co  Co9  1  0.09332795  0.57942515  0.23391895  1
  Co  Co10  1  0.42057485  0.90667205  0.76608105  1
  Co  Co11  1  0.90667205  0.90667205  0.76608105  1
  Co  Co12  1  0.90667205  0.42057485  0.76608105  1
