# generated using pymatgen
data_Yb3Ga9Pt2
_symmetry_space_group_name_H-M   'P 1'
_cell_length_a   4.29953331
_cell_length_b   8.15825507
_cell_length_c   8.15825507
_cell_angle_alpha   73.08109639
_cell_angle_beta   74.72167470
_cell_angle_gamma   74.72167470
_symmetry_Int_Tables_number   1
_chemical_formula_structural   Yb3Ga9Pt2
_chemical_formula_sum   'Yb3 Ga9 Pt2'
_cell_volume   258.63485459
_cell_formula_units_Z   1
loop_
 _symmetry_equiv_pos_site_id
 _symmetry_equiv_pos_as_xyz
  1  'x, y, z'
loop_
 _atom_site_type_symbol
 _atom_site_label
 _atom_site_symmetry_multiplicity
 _atom_site_fract_x
 _atom_site_fract_y
 _atom_site_fract_z
 _atom_site_occupancy
  Yb  Yb0  1  0.50000000  0.50000000  0.50000000  1
  Yb  Yb1  1  0.20173265  0.79826735  0.79826735  1
  Yb  Yb2  1  0.79826735  0.20173265  0.20173265  1
  Ga  Ga3  1  0.36359177  0.35631181  0.91650465  1
  Ga  Ga4  1  0.63640823  0.64368819  0.08349535  1
  Ga  Ga5  1  0.36359177  0.91650465  0.35631181  1
  Ga  Ga6  1  0.63640823  0.08349535  0.64368819  1
  Ga  Ga7  1  0.15673171  0.47632834  0.21020824  1
  Ga  Ga8  1  0.84326829  0.52367166  0.78979176  1
  Ga  Ga9  1  0.15673171  0.21020824  0.47632834  1
  Ga  Ga10  1  0.84326829  0.78979176  0.52367166  1
  Ga  Ga11  1  0.50000000  0.00000000  0.00000000  1
  Pt  Pt12  1  -0.00000000  0.81817079  0.18182921  1
  Pt  Pt13  1  -0.00000000  0.18182921  0.81817079  1
