# generated using pymatgen
data_CsGdZnTe3
_symmetry_space_group_name_H-M   'P 1'
_cell_length_a   4.65396566
_cell_length_b   8.79835883
_cell_length_c   11.81121552
_cell_angle_alpha   90.00000000
_cell_angle_beta   90.00000000
_cell_angle_gamma   105.33600858
_symmetry_Int_Tables_number   1
_chemical_formula_structural   CsGdZnTe3
_chemical_formula_sum   'Cs2 Gd2 Zn2 Te6'
_cell_volume   466.41527400
_cell_formula_units_Z   2
loop_
 _symmetry_equiv_pos_site_id
 _symmetry_equiv_pos_as_xyz
  1  'x, y, z'
loop_
 _atom_site_type_symbol
 _atom_site_label
 _atom_site_symmetry_multiplicity
 _atom_site_fract_x
 _atom_site_fract_y
 _atom_site_fract_z
 _atom_site_occupancy
  Cs  Cs0  1  0.74438769  0.48877538  0.25000000  1
  Cs  Cs1  1  0.25561231  0.51122462  0.75000000  1
  Gd  Gd2  1  0.00000000  0.00000000  0.50000000  1
  Gd  Gd3  1  0.00000000  0.00000000  -0.00000000  1
  Zn  Zn4  1  0.46057763  0.92115525  0.25000000  1
  Zn  Zn5  1  0.53942237  0.07884475  0.75000000  1
  Te  Te6  1  0.38088260  0.76176520  0.44207805  1
  Te  Te7  1  0.61911740  0.23823480  0.55792195  1
  Te  Te8  1  0.38088260  0.76176520  0.05792195  1
  Te  Te9  1  0.61911740  0.23823480  0.94207805  1
  Te  Te10  1  0.05681481  0.11362961  0.25000000  1
  Te  Te11  1  0.94318519  0.88637039  0.75000000  1
