# generated using pymatgen
data_Sm5Ir2
_symmetry_space_group_name_H-M   'P 1'
_cell_length_a   6.60928229
_cell_length_b   7.27713057
_cell_length_c   8.84067041
_cell_angle_alpha   96.43879128
_cell_angle_beta   111.95015478
_cell_angle_gamma   90.00000000
_symmetry_Int_Tables_number   1
_chemical_formula_structural   Sm5Ir2
_chemical_formula_sum   'Sm10 Ir4'
_cell_volume   391.48959755
_cell_formula_units_Z   2
loop_
 _symmetry_equiv_pos_site_id
 _symmetry_equiv_pos_as_xyz
  1  'x, y, z'
loop_
 _atom_site_type_symbol
 _atom_site_label
 _atom_site_symmetry_multiplicity
 _atom_site_fract_x
 _atom_site_fract_y
 _atom_site_fract_z
 _atom_site_occupancy
  Sm  Sm0  1  0.97760673  0.91959029  0.18458190  1
  Sm  Sm1  1  0.79302483  0.58040971  0.81541810  1
  Sm  Sm2  1  0.02239327  0.08040971  0.81541810  1
  Sm  Sm3  1  0.20697517  0.41959029  0.18458190  1
  Sm  Sm4  1  0.65201604  0.81633946  0.43724916  1
  Sm  Sm5  1  0.21476688  0.68366054  0.56275084  1
  Sm  Sm6  1  0.34798396  0.18366054  0.56275084  1
  Sm  Sm7  1  0.78523312  0.31633946  0.43724916  1
  Sm  Sm8  1  0.43227207  0.75000000  -0.00000000  1
  Sm  Sm9  1  0.56772793  0.25000000  -0.00000000  1
  Ir  Ir10  1  0.82307782  0.57312519  0.22240114  1
  Ir  Ir11  1  0.60067669  0.92687481  0.77759886  1
  Ir  Ir12  1  0.17692218  0.42687481  0.77759886  1
  Ir  Ir13  1  0.39932331  0.07312519  0.22240114  1
