# generated using pymatgen
data_SmNiSn
_symmetry_space_group_name_H-M   'P 1'
_cell_length_a   4.57988076
_cell_length_b   7.41680730
_cell_length_c   7.60321824
_cell_angle_alpha   90.00000000
_cell_angle_beta   90.00000000
_cell_angle_gamma   90.00000000
_symmetry_Int_Tables_number   1
_chemical_formula_structural   SmNiSn
_chemical_formula_sum   'Sm4 Ni4 Sn4'
_cell_volume   258.26682469
_cell_formula_units_Z   4
loop_
 _symmetry_equiv_pos_site_id
 _symmetry_equiv_pos_as_xyz
  1  'x, y, z'
loop_
 _atom_site_type_symbol
 _atom_site_label
 _atom_site_symmetry_multiplicity
 _atom_site_fract_x
 _atom_site_fract_y
 _atom_site_fract_z
 _atom_site_occupancy
  Sm  Sm0  1  0.75000000  0.47746740  0.20177927  1
  Sm  Sm1  1  0.75000000  0.97746740  0.29822073  1
  Sm  Sm2  1  0.25000000  0.52253260  0.79822073  1
  Sm  Sm3  1  0.25000000  0.02253260  0.70177927  1
  Ni  Ni4  1  0.75000000  0.19450730  0.92425166  1
  Ni  Ni5  1  0.75000000  0.69450730  0.57574834  1
  Ni  Ni6  1  0.25000000  0.80549270  0.07574834  1
  Ni  Ni7  1  0.25000000  0.30549270  0.42425166  1
  Sn  Sn8  1  0.75000000  0.30922178  0.59400767  1
  Sn  Sn9  1  0.75000000  0.80922178  0.90599233  1
  Sn  Sn10  1  0.25000000  0.69077822  0.40599233  1
  Sn  Sn11  1  0.25000000  0.19077822  0.09400767  1
