# generated using pymatgen
data_Y(GaFe)6
_symmetry_space_group_name_H-M   'P 1'
_cell_length_a   5.05047975
_cell_length_b   6.59346147
_cell_length_c   6.59346147
_cell_angle_alpha   80.69176390
_cell_angle_beta   67.48088824
_cell_angle_gamma   67.48088824
_symmetry_Int_Tables_number   1
_chemical_formula_structural   Y(GaFe)6
_chemical_formula_sum   'Y1 Ga6 Fe6'
_cell_volume   187.32792798
_cell_formula_units_Z   1
loop_
 _symmetry_equiv_pos_site_id
 _symmetry_equiv_pos_as_xyz
  1  'x, y, z'
loop_
 _atom_site_type_symbol
 _atom_site_label
 _atom_site_symmetry_multiplicity
 _atom_site_fract_x
 _atom_site_fract_y
 _atom_site_fract_z
 _atom_site_occupancy
  Y  Y0  1  -0.00000000  0.00000000  0.00000000  1
  Ga  Ga1  1  0.00000000  0.66593949  0.33406051  1
  Ga  Ga2  1  -0.00000000  0.33406051  0.66593949  1
  Ga  Ga3  1  0.34357350  0.65642650  0.65642650  1
  Ga  Ga4  1  0.65642650  0.34357350  0.34357350  1
  Ga  Ga5  1  0.31852411  0.18147589  0.18147589  1
  Ga  Ga6  1  0.68147589  0.81852411  0.81852411  1
  Fe  Fe7  1  0.50000000  0.24502250  0.75497750  1
  Fe  Fe8  1  0.50000000  0.75497750  0.24502250  1
  Fe  Fe9  1  -0.00000000  0.50000000  0.00000000  1
  Fe  Fe10  1  0.50000000  0.50000000  0.00000000  1
  Fe  Fe11  1  -0.00000000  0.00000000  0.50000000  1
  Fe  Fe12  1  0.50000000  0.00000000  0.50000000  1
