# generated using pymatgen
data_Eu3Au2
_symmetry_space_group_name_H-M   'P 1'
_cell_length_a   8.13435674
_cell_length_b   8.13435674
_cell_length_c   8.13435706
_cell_angle_alpha   70.58213970
_cell_angle_beta   70.58213966
_cell_angle_gamma   70.58214179
_symmetry_Int_Tables_number   1
_chemical_formula_structural   Eu3Au2
_chemical_formula_sum   'Eu9 Au6'
_cell_volume   463.60225589
_cell_formula_units_Z   3
loop_
 _symmetry_equiv_pos_site_id
 _symmetry_equiv_pos_as_xyz
  1  'x, y, z'
loop_
 _atom_site_type_symbol
 _atom_site_label
 _atom_site_symmetry_multiplicity
 _atom_site_fract_x
 _atom_site_fract_y
 _atom_site_fract_z
 _atom_site_occupancy
  Eu  Eu0  1  -0.00000000  0.00000000  0.00000000  1
  Eu  Eu1  1  0.79786746  0.79786746  0.79786746  1
  Eu  Eu2  1  0.20213254  0.20213254  0.20213254  1
  Eu  Eu3  1  0.59966006  0.33956158  0.84067592  1
  Eu  Eu4  1  0.33956158  0.84067592  0.59966006  1
  Eu  Eu5  1  0.84067592  0.59966006  0.33956158  1
  Eu  Eu6  1  0.40033994  0.66043842  0.15932408  1
  Eu  Eu7  1  0.66043842  0.15932408  0.40033994  1
  Eu  Eu8  1  0.15932408  0.40033994  0.66043842  1
  Au  Au9  1  0.95691640  0.15851717  0.59131991  1
  Au  Au10  1  0.15851717  0.59131991  0.95691640  1
  Au  Au11  1  0.59131991  0.95691640  0.15851717  1
  Au  Au12  1  0.04308360  0.84148283  0.40868009  1
  Au  Au13  1  0.84148283  0.40868009  0.04308360  1
  Au  Au14  1  0.40868009  0.04308360  0.84148283  1
