# generated using pymatgen
data_Tm3Ge4
_symmetry_space_group_name_H-M   'P 1'
_cell_length_a   4.01843372
_cell_length_b   5.66226461
_cell_length_c   14.19931625
_cell_angle_alpha   90.00000000
_cell_angle_beta   90.00000000
_cell_angle_gamma   110.78383765
_symmetry_Int_Tables_number   1
_chemical_formula_structural   Tm3Ge4
_chemical_formula_sum   'Tm6 Ge8'
_cell_volume   302.05884125
_cell_formula_units_Z   2
loop_
 _symmetry_equiv_pos_site_id
 _symmetry_equiv_pos_as_xyz
  1  'x, y, z'
loop_
 _atom_site_type_symbol
 _atom_site_label
 _atom_site_symmetry_multiplicity
 _atom_site_fract_x
 _atom_site_fract_y
 _atom_site_fract_z
 _atom_site_occupancy
  Tm  Tm0  1  0.33181315  0.66362629  0.40283808  1
  Tm  Tm1  1  0.66818685  0.33637371  0.59716192  1
  Tm  Tm2  1  0.33181315  0.66362629  0.09716192  1
  Tm  Tm3  1  0.66818685  0.33637371  0.90283808  1
  Tm  Tm4  1  0.04835591  0.09671182  0.25000000  1
  Tm  Tm5  1  0.95164409  0.90328818  0.75000000  1
  Ge  Ge6  1  0.37905824  0.75811648  0.60840318  1
  Ge  Ge7  1  0.62094176  0.24188352  0.39159682  1
  Ge  Ge8  1  0.37905824  0.75811648  0.89159682  1
  Ge  Ge9  1  0.62094176  0.24188352  0.10840318  1
  Ge  Ge10  1  0.77761429  0.55522857  0.25000000  1
  Ge  Ge11  1  0.22238571  0.44477143  0.75000000  1
  Ge  Ge12  1  0.00000000  0.00000000  0.50000000  1
  Ge  Ge13  1  0.00000000  0.00000000  -0.00000000  1
