# generated using pymatgen
data_Ti3Mn2Cr3O16
_symmetry_space_group_name_H-M   'P 1'
_cell_length_a   5.86487943
_cell_length_b   5.89154615
_cell_length_c   8.94640812
_cell_angle_alpha   89.69870351
_cell_angle_beta   89.38068492
_cell_angle_gamma   119.77576874
_symmetry_Int_Tables_number   1
_chemical_formula_structural   Ti3Mn2Cr3O16
_chemical_formula_sum   'Ti3 Mn2 Cr3 O16'
_cell_volume   268.27898076
_cell_formula_units_Z   1
loop_
 _symmetry_equiv_pos_site_id
 _symmetry_equiv_pos_as_xyz
  1  'x, y, z'
loop_
 _atom_site_type_symbol
 _atom_site_label
 _atom_site_symmetry_multiplicity
 _atom_site_fract_x
 _atom_site_fract_y
 _atom_site_fract_z
 _atom_site_occupancy
  Ti  Ti0  1  0.32415668  0.17434131  0.70484874  1
  Ti  Ti1  1  0.17042266  0.83511947  0.21055584  1
  Ti  Ti2  1  0.16999025  0.33474014  0.21193387  1
  Mn  Mn3  1  0.33630644  0.66624318  0.48306446  1
  Mn  Mn4  1  0.66613972  0.33597302  0.98178380  1
  Cr  Cr5  1  0.66838765  0.83487520  0.20012067  1
  Cr  Cr6  1  0.83464580  0.66881190  0.69975822  1
  Cr  Cr7  1  0.81860952  0.16459082  0.71635241  1
  O  O8  1  0.17392714  0.82593592  0.60808171  1
  O  O9  1  0.05093623  0.52613139  0.34700074  1
  O  O10  1  0.32595340  0.66342411  0.09600543  1
  O  O11  1  0.99952609  0.99923141  0.31328764  1
  O  O12  1  0.99402416  0.00208470  0.81138590  1
  O  O13  1  0.17434813  0.34195904  0.60201404  1
  O  O14  1  0.47940490  0.94844471  0.34140206  1
  O  O15  1  0.48060128  0.52996992  0.34080499  1
  O  O16  1  0.34616551  0.17389623  0.10493712  1
  O  O17  1  0.66114948  0.82135131  0.60584108  1
  O  O18  1  0.52656722  0.47472364  0.83901278  1
  O  O19  1  0.53004220  0.04766806  0.84542148  1
  O  O20  1  0.67373921  0.32671524  0.59846987  1
  O  O21  1  0.82223041  0.65694161  0.10641537  1
  O  O22  1  0.94971737  0.47899917  0.83988903  1
  O  O23  1  0.82300754  0.16802650  0.10733375  1
