# generated using pymatgen
data_La3Rh2
_symmetry_space_group_name_H-M   'P 1'
_cell_length_a   7.72693243
_cell_length_b   7.72693243
_cell_length_c   7.72693239
_cell_angle_alpha   71.22332637
_cell_angle_beta   71.22332637
_cell_angle_gamma   71.22333403
_symmetry_Int_Tables_number   1
_chemical_formula_structural   La3Rh2
_chemical_formula_sum   'La9 Rh6'
_cell_volume   401.09478347
_cell_formula_units_Z   3
loop_
 _symmetry_equiv_pos_site_id
 _symmetry_equiv_pos_as_xyz
  1  'x, y, z'
loop_
 _atom_site_type_symbol
 _atom_site_label
 _atom_site_symmetry_multiplicity
 _atom_site_fract_x
 _atom_site_fract_y
 _atom_site_fract_z
 _atom_site_occupancy
  La  La0  1  -0.00000000  0.00000000  0.00000000  1
  La  La1  1  0.79789524  0.79789524  0.79789524  1
  La  La2  1  0.20210476  0.20210476  0.20210476  1
  La  La3  1  0.39043912  0.16429727  0.66739137  1
  La  La4  1  0.16429727  0.66739137  0.39043912  1
  La  La5  1  0.66739137  0.39043912  0.16429727  1
  La  La6  1  0.60956088  0.83570273  0.33260863  1
  La  La7  1  0.83570273  0.33260863  0.60956088  1
  La  La8  1  0.33260863  0.60956088  0.83570273  1
  Rh  Rh9  1  0.16556003  0.95609534  0.59015726  1
  Rh  Rh10  1  0.95609534  0.59015726  0.16556003  1
  Rh  Rh11  1  0.59015726  0.16556003  0.95609534  1
  Rh  Rh12  1  0.83443997  0.04390466  0.40984274  1
  Rh  Rh13  1  0.04390466  0.40984274  0.83443997  1
  Rh  Rh14  1  0.40984274  0.83443997  0.04390466  1
