# generated using pymatgen
data_Lu2FeC4
_symmetry_space_group_name_H-M   'P 1'
_cell_length_a   4.93262982
_cell_length_b   6.44630429
_cell_length_c   6.44630429
_cell_angle_alpha   70.37920498
_cell_angle_beta   67.50557371
_cell_angle_gamma   67.50557371
_symmetry_Int_Tables_number   1
_chemical_formula_structural   Lu2FeC4
_chemical_formula_sum   'Lu4 Fe2 C8'
_cell_volume   170.60891680
_cell_formula_units_Z   2
loop_
 _symmetry_equiv_pos_site_id
 _symmetry_equiv_pos_as_xyz
  1  'x, y, z'
loop_
 _atom_site_type_symbol
 _atom_site_label
 _atom_site_symmetry_multiplicity
 _atom_site_fract_x
 _atom_site_fract_y
 _atom_site_fract_z
 _atom_site_occupancy
  Lu  Lu0  1  0.14570432  0.50852821  0.20006316  1
  Lu  Lu1  1  0.85429568  0.49147179  0.79993684  1
  Lu  Lu2  1  0.64570432  0.20006316  0.50852821  1
  Lu  Lu3  1  0.35429568  0.79993684  0.49147179  1
  Fe  Fe4  1  0.25000000  0.00000000  -0.00000000  1
  Fe  Fe5  1  0.75000000  0.00000000  -0.00000000  1
  C  C6  1  0.36964476  0.47234712  0.78836336  1
  C  C7  1  0.63035524  0.52765288  0.21163664  1
  C  C8  1  0.86964476  0.78836336  0.47234712  1
  C  C9  1  0.13035524  0.21163664  0.52765288  1
  C  C10  1  0.42222382  0.24625762  0.90929474  1
  C  C11  1  0.57777618  0.75374238  0.09070526  1
  C  C12  1  0.92222382  0.90929474  0.24625762  1
  C  C13  1  0.07777618  0.09070526  0.75374238  1
