# generated using pymatgen
data_Nd5Ir2
_symmetry_space_group_name_H-M   'P 1'
_cell_length_a   6.70576005
_cell_length_b   7.34978396
_cell_length_c   8.97896787
_cell_angle_alpha   96.53027617
_cell_angle_beta   111.92637250
_cell_angle_gamma   90.00000000
_symmetry_Int_Tables_number   1
_chemical_formula_structural   Nd5Ir2
_chemical_formula_sum   'Nd10 Ir4'
_cell_volume   407.42855160
_cell_formula_units_Z   2
loop_
 _symmetry_equiv_pos_site_id
 _symmetry_equiv_pos_as_xyz
  1  'x, y, z'
loop_
 _atom_site_type_symbol
 _atom_site_label
 _atom_site_symmetry_multiplicity
 _atom_site_fract_x
 _atom_site_fract_y
 _atom_site_fract_z
 _atom_site_occupancy
  Nd  Nd0  1  0.98196683  0.91973425  0.18545850  1
  Nd  Nd1  1  0.79650833  0.58026575  0.81454150  1
  Nd  Nd2  1  0.01803317  0.08026575  0.81454150  1
  Nd  Nd3  1  0.20349167  0.41973425  0.18545850  1
  Nd  Nd4  1  0.65026379  0.81572514  0.43520155  1
  Nd  Nd5  1  0.21506224  0.68427486  0.56479845  1
  Nd  Nd6  1  0.34973621  0.18427486  0.56479845  1
  Nd  Nd7  1  0.78493776  0.31572514  0.43520155  1
  Nd  Nd8  1  0.43286832  0.75000000  1.00000000  1
  Nd  Nd9  1  0.56713168  0.25000000  0.00000000  1
  Ir  Ir10  1  0.82101677  0.57392325  0.22281014  1
  Ir  Ir11  1  0.59820663  0.92607675  0.77718986  1
  Ir  Ir12  1  0.17898323  0.42607675  0.77718986  1
  Ir  Ir13  1  0.40179337  0.07392325  0.22281014  1
