# generated using pymatgen
data_Hf(Ni2P)2
_symmetry_space_group_name_H-M   'P 1'
_cell_length_a   3.55296048
_cell_length_b   6.92474541
_cell_length_c   6.92474541
_cell_angle_alpha   90.00000000
_cell_angle_beta   90.00000000
_cell_angle_gamma   90.00000000
_symmetry_Int_Tables_number   1
_chemical_formula_structural   Hf(Ni2P)2
_chemical_formula_sum   'Hf2 Ni8 P4'
_cell_volume   170.37191266
_cell_formula_units_Z   2
loop_
 _symmetry_equiv_pos_site_id
 _symmetry_equiv_pos_as_xyz
  1  'x, y, z'
loop_
 _atom_site_type_symbol
 _atom_site_label
 _atom_site_symmetry_multiplicity
 _atom_site_fract_x
 _atom_site_fract_y
 _atom_site_fract_z
 _atom_site_occupancy
  Hf  Hf0  1  -0.00000000  0.50000000  0.50000000  1
  Hf  Hf1  1  0.50000000  -0.00000000  -0.00000000  1
  Ni  Ni2  1  0.50000000  0.16655783  0.58519697  1
  Ni  Ni3  1  0.50000000  0.83344217  0.41480303  1
  Ni  Ni4  1  0.00000000  0.33344217  0.08519697  1
  Ni  Ni5  1  -0.00000000  0.66655783  0.91480303  1
  Ni  Ni6  1  0.50000000  0.58519697  0.16655783  1
  Ni  Ni7  1  0.50000000  0.41480303  0.83344217  1
  Ni  Ni8  1  0.00000000  0.08519697  0.33344217  1
  Ni  Ni9  1  -0.00000000  0.91480303  0.66655783  1
  P  P10  1  0.50000000  0.71761727  0.71761727  1
  P  P11  1  0.50000000  0.28238273  0.28238273  1
  P  P12  1  -0.00000000  0.78238273  0.21761727  1
  P  P13  1  -0.00000000  0.21761727  0.78238273  1
