# generated using pymatgen
data_Eu5Pd2
_symmetry_space_group_name_H-M   'P 1'
_cell_length_a   6.88960492
_cell_length_b   7.83136430
_cell_length_c   9.20572010
_cell_angle_alpha   96.74565667
_cell_angle_beta   111.97502730
_cell_angle_gamma   90.00000000
_symmetry_Int_Tables_number   1
_chemical_formula_structural   Eu5Pd2
_chemical_formula_sum   'Eu10 Pd4'
_cell_volume   456.89841748
_cell_formula_units_Z   2
loop_
 _symmetry_equiv_pos_site_id
 _symmetry_equiv_pos_as_xyz
  1  'x, y, z'
loop_
 _atom_site_type_symbol
 _atom_site_label
 _atom_site_symmetry_multiplicity
 _atom_site_fract_x
 _atom_site_fract_y
 _atom_site_fract_z
 _atom_site_occupancy
  Eu  Eu0  1  0.98301095  0.92033135  0.18387967  1
  Eu  Eu1  1  0.79913127  0.57966865  0.81612033  1
  Eu  Eu2  1  0.01698905  0.07966865  0.81612033  1
  Eu  Eu3  1  0.20086873  0.42033135  0.18387967  1
  Eu  Eu4  1  0.63953949  0.81719686  0.43712768  1
  Eu  Eu5  1  0.20241182  0.68280314  0.56287232  1
  Eu  Eu6  1  0.36046051  0.18280314  0.56287232  1
  Eu  Eu7  1  0.79758818  0.31719686  0.43712768  1
  Eu  Eu8  1  0.41482343  0.75000000  0.00000000  1
  Eu  Eu9  1  0.58517657  0.25000000  1.00000000  1
  Pd  Pd10  1  0.81417683  0.57926374  0.21817375  1
  Pd  Pd11  1  0.59600309  0.92073626  0.78182625  1
  Pd  Pd12  1  0.18582317  0.42073626  0.78182625  1
  Pd  Pd13  1  0.40399691  0.07926374  0.21817375  1
