# generated using pymatgen
data_LiFeF4
_symmetry_space_group_name_H-M   'P 1'
_cell_length_a   8.98202741
_cell_length_b   9.93698404
_cell_length_c   8.93590494
_cell_angle_alpha   90.00000000
_cell_angle_beta   90.00000000
_cell_angle_gamma   90.00000000
_symmetry_Int_Tables_number   1
_chemical_formula_structural   LiFeF4
_chemical_formula_sum   'Li8 Fe8 F32'
_cell_volume   797.56760984
_cell_formula_units_Z   8
loop_
 _symmetry_equiv_pos_site_id
 _symmetry_equiv_pos_as_xyz
  1  'x, y, z'
loop_
 _atom_site_type_symbol
 _atom_site_label
 _atom_site_symmetry_multiplicity
 _atom_site_fract_x
 _atom_site_fract_y
 _atom_site_fract_z
 _atom_site_occupancy
  Li  Li0  1  0.14279540  0.58451778  0.20663890  1
  Li  Li1  1  0.14279540  0.91548222  0.70663890  1
  Li  Li2  1  0.35720460  0.08451778  0.20663890  1
  Li  Li3  1  0.35720460  0.41548222  0.70663890  1
  Li  Li4  1  0.64279540  0.58451778  0.29336110  1
  Li  Li5  1  0.64279540  0.91548222  0.79336110  1
  Li  Li6  1  0.85720460  0.08451778  0.29336110  1
  Li  Li7  1  0.85720460  0.41548222  0.79336110  1
  Fe  Fe8  1  0.06388390  0.22952128  0.57792084  1
  Fe  Fe9  1  0.06388390  0.27047872  0.07792084  1
  Fe  Fe10  1  0.43611610  0.77047872  0.07792084  1
  Fe  Fe11  1  0.43611610  0.72952128  0.57792084  1
  Fe  Fe12  1  0.56388390  0.27047872  0.42207916  1
  Fe  Fe13  1  0.56388390  0.22952128  0.92207916  1
  Fe  Fe14  1  0.93611610  0.72952128  0.92207916  1
  Fe  Fe15  1  0.93611610  0.77047872  0.42207916  1
  F  F16  1  0.03748022  0.13897888  0.39889480  1
  F  F17  1  0.03748022  0.36102112  0.89889480  1
  F  F18  1  0.12114768  0.69982810  0.37461280  1
  F  F19  1  0.12114768  0.80017190  0.87461280  1
  F  F20  1  0.12092454  0.39614921  0.21889223  1
  F  F21  1  0.12092454  0.10385079  0.71889223  1
  F  F22  1  0.19402980  0.12700193  0.08203030  1
  F  F23  1  0.19402980  0.37299807  0.58203030  1
  F  F24  1  0.30597020  0.62700193  0.08203030  1
  F  F25  1  0.30597020  0.87299807  0.58203030  1
  F  F26  1  0.37907546  0.89614921  0.21889223  1
  F  F27  1  0.37907546  0.60385079  0.71889223  1
  F  F28  1  0.37885232  0.19982810  0.37461280  1
  F  F29  1  0.37885232  0.30017190  0.87461280  1
  F  F30  1  0.46251978  0.63897888  0.39889480  1
  F  F31  1  0.46251978  0.86102112  0.89889480  1
  F  F32  1  0.53748022  0.13897888  0.10110520  1
  F  F33  1  0.53748022  0.36102112  0.60110520  1
  F  F34  1  0.62114768  0.69982810  0.12538720  1
  F  F35  1  0.62114768  0.80017190  0.62538720  1
  F  F36  1  0.62092454  0.39614921  0.28110777  1
  F  F37  1  0.62092454  0.10385079  0.78110777  1
  F  F38  1  0.69402980  0.12700193  0.41796970  1
  F  F39  1  0.69402980  0.37299807  0.91796970  1
  F  F40  1  0.80597020  0.62700193  0.41796970  1
  F  F41  1  0.80597020  0.87299807  0.91796970  1
  F  F42  1  0.87907546  0.89614921  0.28110777  1
  F  F43  1  0.87907546  0.60385079  0.78110777  1
  F  F44  1  0.87885232  0.19982810  0.12538720  1
  F  F45  1  0.87885232  0.30017190  0.62538720  1
  F  F46  1  0.96251978  0.63897888  0.10110520  1
  F  F47  1  0.96251978  0.86102112  0.60110520  1
