# generated using pymatgen
data_Ba(Cd2Pt)2
_symmetry_space_group_name_H-M   'P 1'
_cell_length_a   4.51319607
_cell_length_b   8.54153560
_cell_length_c   8.54153560
_cell_angle_alpha   90.00000000
_cell_angle_beta   90.00000000
_cell_angle_gamma   90.00000000
_symmetry_Int_Tables_number   1
_chemical_formula_structural   Ba(Cd2Pt)2
_chemical_formula_sum   'Ba2 Cd8 Pt4'
_cell_volume   329.27299346
_cell_formula_units_Z   2
loop_
 _symmetry_equiv_pos_site_id
 _symmetry_equiv_pos_as_xyz
  1  'x, y, z'
loop_
 _atom_site_type_symbol
 _atom_site_label
 _atom_site_symmetry_multiplicity
 _atom_site_fract_x
 _atom_site_fract_y
 _atom_site_fract_z
 _atom_site_occupancy
  Ba  Ba0  1  0.50000000  0.50000000  0.50000000  1
  Ba  Ba1  1  -0.00000000  0.00000000  0.00000000  1
  Cd  Cd2  1  0.50000000  0.08943042  0.34344593  1
  Cd  Cd3  1  0.50000000  0.91056958  0.65655407  1
  Cd  Cd4  1  -0.00000000  0.41056958  0.84344593  1
  Cd  Cd5  1  0.00000000  0.58943042  0.15655407  1
  Cd  Cd6  1  0.50000000  0.34344593  0.08943042  1
  Cd  Cd7  1  0.50000000  0.65655407  0.91056958  1
  Cd  Cd8  1  -0.00000000  0.84344593  0.41056958  1
  Cd  Cd9  1  0.00000000  0.15655407  0.58943042  1
  Pt  Pt10  1  0.50000000  0.22130757  0.77869243  1
  Pt  Pt11  1  0.50000000  0.77869243  0.22130757  1
  Pt  Pt12  1  0.00000000  0.27869243  0.27869243  1
  Pt  Pt13  1  -0.00000000  0.72130757  0.72130757  1
