# generated using pymatgen
data_Hf2CuSi4
_symmetry_space_group_name_H-M   'P 1'
_cell_length_a   3.66429576
_cell_length_b   3.68275150
_cell_length_c   16.37530807
_cell_angle_alpha   96.45647108
_cell_angle_beta   90.00000000
_cell_angle_gamma   90.00000000
_symmetry_Int_Tables_number   1
_chemical_formula_structural   Hf2CuSi4
_chemical_formula_sum   'Hf4 Cu2 Si8'
_cell_volume   219.57816971
_cell_formula_units_Z   2
loop_
 _symmetry_equiv_pos_site_id
 _symmetry_equiv_pos_as_xyz
  1  'x, y, z'
loop_
 _atom_site_type_symbol
 _atom_site_label
 _atom_site_symmetry_multiplicity
 _atom_site_fract_x
 _atom_site_fract_y
 _atom_site_fract_z
 _atom_site_occupancy
  Hf  Hf0  1  0.75000000  0.04709785  0.09419571  1
  Hf  Hf1  1  0.25000000  0.95290215  0.90580429  1
  Hf  Hf2  1  0.75000000  0.32340443  0.64680886  1
  Hf  Hf3  1  0.25000000  0.67659557  0.35319114  1
  Cu  Cu4  1  0.75000000  0.74994578  0.49989155  1
  Cu  Cu5  1  0.25000000  0.25005422  0.50010845  1
  Si  Si6  1  0.75000000  0.47563401  0.95126801  1
  Si  Si7  1  0.25000000  0.52436599  0.04873199  1
  Si  Si8  1  0.75000000  0.61257366  0.22514733  1
  Si  Si9  1  0.25000000  0.38742634  0.77485267  1
  Si  Si10  1  0.75000000  0.88711635  0.77423270  1
  Si  Si11  1  0.25000000  0.11288365  0.22576730  1
  Si  Si12  1  0.75000000  0.20209691  0.40419381  1
  Si  Si13  1  0.25000000  0.79790309  0.59580619  1
