# generated using pymatgen
data_Tm3Pd4
_symmetry_space_group_name_H-M   'P 1'
_cell_length_a   5.68454514
_cell_length_b   7.78928977
_cell_length_c   7.78928997
_cell_angle_alpha   114.28240883
_cell_angle_beta   104.07922119
_cell_angle_gamma   104.07922153
_symmetry_Int_Tables_number   1
_chemical_formula_structural   Tm3Pd4
_chemical_formula_sum   'Tm6 Pd8'
_cell_volume   281.01531455
_cell_formula_units_Z   2
loop_
 _symmetry_equiv_pos_site_id
 _symmetry_equiv_pos_as_xyz
  1  'x, y, z'
loop_
 _atom_site_type_symbol
 _atom_site_label
 _atom_site_symmetry_multiplicity
 _atom_site_fract_x
 _atom_site_fract_y
 _atom_site_fract_z
 _atom_site_occupancy
  Tm  Tm0  1  0.40358599  0.12468524  0.37837676  1
  Tm  Tm1  1  0.02520923  0.62162324  0.74630848  1
  Tm  Tm2  1  0.27890076  0.25369152  0.87531476  1
  Tm  Tm3  1  0.59641401  0.87531476  0.62162324  1
  Tm  Tm4  1  0.97479077  0.37837676  0.25369152  1
  Tm  Tm5  1  0.72109924  0.74630848  0.12468524  1
  Pd  Pd6  1  -0.00000000  -0.00000000  0.00000000  1
  Pd  Pd7  1  0.50000000  -0.00000000  0.00000000  1
  Pd  Pd8  1  0.22656421  0.67520242  0.16415161  1
  Pd  Pd9  1  0.06241260  0.83584839  0.51105081  1
  Pd  Pd10  1  0.55136179  0.48894919  0.32479758  1
  Pd  Pd11  1  0.77343579  0.32479758  0.83584839  1
  Pd  Pd12  1  0.93758740  0.16415161  0.48894919  1
  Pd  Pd13  1  0.44863821  0.51105081  0.67520242  1
