# generated using pymatgen
data_Ho(MnGe)6
_symmetry_space_group_name_H-M   'P 1'
_cell_length_a   5.17770349
_cell_length_b   5.17765858
_cell_length_c   8.17001561
_cell_angle_alpha   90.00000000
_cell_angle_beta   90.00000000
_cell_angle_gamma   120.00028602
_symmetry_Int_Tables_number   1
_chemical_formula_structural   Ho(MnGe)6
_chemical_formula_sum   'Ho1 Mn6 Ge6'
_cell_volume   189.68057242
_cell_formula_units_Z   1
loop_
 _symmetry_equiv_pos_site_id
 _symmetry_equiv_pos_as_xyz
  1  'x, y, z'
loop_
 _atom_site_type_symbol
 _atom_site_label
 _atom_site_symmetry_multiplicity
 _atom_site_fract_x
 _atom_site_fract_y
 _atom_site_fract_z
 _atom_site_occupancy
  Ho  Ho0  1  0.99997461  0.00000000  -0.00000000  1
  Mn  Mn1  1  0.49999854  -0.00000000  0.25002425  1
  Mn  Mn2  1  0.49999279  0.50000317  0.25001952  1
  Mn  Mn3  1  0.99998962  0.49999683  0.25001952  1
  Mn  Mn4  1  0.49999854  -0.00000000  0.74997575  1
  Mn  Mn5  1  0.49999279  0.50000317  0.74998048  1
  Mn  Mn6  1  0.99998962  0.49999683  0.74998048  1
  Ge  Ge7  1  0.33331640  0.66668654  -0.00000000  1
  Ge  Ge8  1  0.66662986  0.33331346  -0.00000000  1
  Ge  Ge9  1  0.33331320  0.66670013  0.50000000  1
  Ge  Ge10  1  0.66661307  0.33329987  0.50000000  1
  Ge  Ge11  1  0.99999547  -0.00000000  0.34323764  1
  Ge  Ge12  1  0.99999547  -0.00000000  0.65676236  1
