# generated using pymatgen
data_Gd5(FeB3)2
_symmetry_space_group_name_H-M   'P 1'
_cell_length_a   5.43344036
_cell_length_b   5.43444955
_cell_length_c   8.36426045
_cell_angle_alpha   71.08233961
_cell_angle_beta   71.07969882
_cell_angle_gamma   59.95868111
_symmetry_Int_Tables_number   1
_chemical_formula_structural   Gd5(FeB3)2
_chemical_formula_sum   'Gd5 Fe2 B6'
_cell_volume   198.25736545
_cell_formula_units_Z   1
loop_
 _symmetry_equiv_pos_site_id
 _symmetry_equiv_pos_as_xyz
  1  'x, y, z'
loop_
 _atom_site_type_symbol
 _atom_site_label
 _atom_site_symmetry_multiplicity
 _atom_site_fract_x
 _atom_site_fract_y
 _atom_site_fract_z
 _atom_site_occupancy
  Gd  Gd0  1  0.00001682  -0.00003329  0.00004659  1
  Gd  Gd1  1  0.25110076  0.25099655  0.24668546  1
  Gd  Gd2  1  0.74891420  0.74875488  0.75361807  1
  Gd  Gd3  1  0.41656359  0.41691745  0.75065968  1
  Gd  Gd4  1  0.58313818  0.58319605  0.24992082  1
  Fe  Fe5  1  0.11742671  0.11748421  0.64742470  1
  Fe  Fe6  1  0.88260384  0.88242208  0.35236080  1
  B  B7  1  0.16755099  0.83252259  0.49987462  1
  B  B8  1  0.83245184  0.50018099  0.49986546  1
  B  B9  1  0.50010697  0.16755474  0.49989524  1
  B  B10  1  0.16751903  0.50006398  0.49990496  1
  B  B11  1  0.50013566  0.83242705  0.49986405  1
  B  B12  1  0.83247141  0.16751272  0.49987955  1
