# generated using pymatgen
data_Yb(MnGe)6
_symmetry_space_group_name_H-M   'P 1'
_cell_length_a   5.18552015
_cell_length_b   5.18656640
_cell_length_c   8.13187833
_cell_angle_alpha   90.00000000
_cell_angle_beta   90.00000000
_cell_angle_gamma   119.99333413
_symmetry_Int_Tables_number   1
_chemical_formula_structural   Yb(MnGe)6
_chemical_formula_sum   'Yb1 Mn6 Ge6'
_cell_volume   189.41873856
_cell_formula_units_Z   1
loop_
 _symmetry_equiv_pos_site_id
 _symmetry_equiv_pos_as_xyz
  1  'x, y, z'
loop_
 _atom_site_type_symbol
 _atom_site_label
 _atom_site_symmetry_multiplicity
 _atom_site_fract_x
 _atom_site_fract_y
 _atom_site_fract_z
 _atom_site_occupancy
  Yb  Yb0  1  0.99999513  1.00000000  0.00000000  1
  Mn  Mn1  1  0.49998818  0.00000000  0.25072219  1
  Mn  Mn2  1  0.50000370  0.49998745  0.25063338  1
  Mn  Mn3  1  0.00001624  0.50001255  0.25063338  1
  Mn  Mn4  1  0.49998818  0.00000000  0.74927781  1
  Mn  Mn5  1  0.50000370  0.49998745  0.74936662  1
  Mn  Mn6  1  0.00001624  0.50001255  0.74936662  1
  Ge  Ge7  1  0.33332535  0.66668070  0.00000000  1
  Ge  Ge8  1  0.66664466  0.33331930  0.00000000  1
  Ge  Ge9  1  0.33321277  0.66657123  0.50000000  1
  Ge  Ge10  1  0.66664154  0.33342877  0.50000000  1
  Ge  Ge11  1  0.99998216  0.00000000  0.34097109  1
  Ge  Ge12  1  0.99998216  0.00000000  0.65902891  1
