# generated using pymatgen
data_Cs4Au6S5
_symmetry_space_group_name_H-M   'P 1'
_cell_length_a   5.54716806
_cell_length_b   10.63582024
_cell_length_c   10.63665980
_cell_angle_alpha   120.00260688
_cell_angle_beta   89.99932477
_cell_angle_gamma   90.00033860
_symmetry_Int_Tables_number   1
_chemical_formula_structural   Cs4Au6S5
_chemical_formula_sum   'Cs4 Au6 S5'
_cell_volume   543.45902330
_cell_formula_units_Z   1
loop_
 _symmetry_equiv_pos_site_id
 _symmetry_equiv_pos_as_xyz
  1  'x, y, z'
loop_
 _atom_site_type_symbol
 _atom_site_label
 _atom_site_symmetry_multiplicity
 _atom_site_fract_x
 _atom_site_fract_y
 _atom_site_fract_z
 _atom_site_occupancy
  Cs  Cs0  1  0.13725242  0.00000000  0.99998730  1
  Cs  Cs1  1  0.45204278  0.59128718  0.00000405  1
  Cs  Cs2  1  0.45204900  -0.00000000  0.59129177  1
  Cs  Cs3  1  0.45204278  0.40871282  0.40871687  1
  Au  Au4  1  0.92308935  0.83056908  0.28603794  1
  Au  Au5  1  0.92308273  0.71399726  0.54454440  1
  Au  Au6  1  0.92309062  0.45544266  0.16942687  1
  Au  Au7  1  0.92308935  0.16943092  0.45546886  1
  Au  Au8  1  0.92309062  0.54455734  0.71398421  1
  Au  Au9  1  0.92308273  0.28600274  0.83054714  1
  S  S10  1  0.13007319  0.33333424  0.66667968  1
  S  S11  1  0.13007319  0.66666576  0.33334544  1
  S  S12  1  0.71330975  0.00000000  0.25124929  1
  S  S13  1  0.71331525  0.74877365  0.74874493  1
  S  S14  1  0.71331525  0.25122635  -0.00002873  1
