# generated using pymatgen
data_Pr5Co2
_symmetry_space_group_name_H-M   'P 1'
_cell_length_a   6.59970833
_cell_length_b   7.10384959
_cell_length_c   9.03913303
_cell_angle_alpha   95.76521177
_cell_angle_beta   111.41147007
_cell_angle_gamma   90.00000000
_symmetry_Int_Tables_number   1
_chemical_formula_structural   Pr5Co2
_chemical_formula_sum   'Pr10 Co4'
_cell_volume   392.23288863
_cell_formula_units_Z   2
loop_
 _symmetry_equiv_pos_site_id
 _symmetry_equiv_pos_as_xyz
  1  'x, y, z'
loop_
 _atom_site_type_symbol
 _atom_site_label
 _atom_site_symmetry_multiplicity
 _atom_site_fract_x
 _atom_site_fract_y
 _atom_site_fract_z
 _atom_site_occupancy
  Pr  Pr0  1  0.98500709  0.91314747  0.18733311  1
  Pr  Pr1  1  0.79767398  0.58685253  0.81266689  1
  Pr  Pr2  1  0.01499291  0.08685253  0.81266689  1
  Pr  Pr3  1  0.20232602  0.41314747  0.18733311  1
  Pr  Pr4  1  0.64534816  0.81771836  0.43000640  1
  Pr  Pr5  1  0.21534176  0.68228164  0.56999360  1
  Pr  Pr6  1  0.35465184  0.18228164  0.56999360  1
  Pr  Pr7  1  0.78465824  0.31771836  0.43000640  1
  Pr  Pr8  1  0.42786195  0.75000000  1.00000000  1
  Pr  Pr9  1  0.57213805  0.25000000  0.00000000  1
  Co  Co10  1  0.81747585  0.57314811  0.22122789  1
  Co  Co11  1  0.59624796  0.92685189  0.77877211  1
  Co  Co12  1  0.18252415  0.42685189  0.77877211  1
  Co  Co13  1  0.40375204  0.07314811  0.22122789  1
