# generated using pymatgen
data_GdGa6
_symmetry_space_group_name_H-M   'P 1'
_cell_length_a   6.02249015
_cell_length_b   6.02249015
_cell_length_c   7.63183587
_cell_angle_alpha   90.00000000
_cell_angle_beta   90.00000000
_cell_angle_gamma   90.00000000
_symmetry_Int_Tables_number   1
_chemical_formula_structural   GdGa6
_chemical_formula_sum   'Gd2 Ga12'
_cell_volume   276.80964516
_cell_formula_units_Z   2
loop_
 _symmetry_equiv_pos_site_id
 _symmetry_equiv_pos_as_xyz
  1  'x, y, z'
loop_
 _atom_site_type_symbol
 _atom_site_label
 _atom_site_symmetry_multiplicity
 _atom_site_fract_x
 _atom_site_fract_y
 _atom_site_fract_z
 _atom_site_occupancy
  Gd  Gd0  1  0.00000000  0.50000000  0.00000000  1
  Gd  Gd1  1  0.50000000  -0.00000000  0.00000000  1
  Ga  Ga2  1  0.50000000  0.50000000  0.16233064  1
  Ga  Ga3  1  0.00000000  -0.00000000  0.83766936  1
  Ga  Ga4  1  0.50000000  0.50000000  0.83766936  1
  Ga  Ga5  1  0.00000000  -0.00000000  0.16233064  1
  Ga  Ga6  1  0.18629641  0.68629641  0.35082454  1
  Ga  Ga7  1  0.81370359  0.31370359  0.35082454  1
  Ga  Ga8  1  0.68629641  0.18629641  0.64917546  1
  Ga  Ga9  1  0.31370359  0.81370359  0.64917546  1
  Ga  Ga10  1  0.18629641  0.31370359  0.64917546  1
  Ga  Ga11  1  0.81370359  0.68629641  0.64917546  1
  Ga  Ga12  1  0.68629641  0.81370359  0.35082454  1
  Ga  Ga13  1  0.31370359  0.18629641  0.35082454  1
