# generated using pymatgen
data_Tb3Pt4
_symmetry_space_group_name_H-M   'P 1'
_cell_length_a   5.73726203
_cell_length_b   7.91518931
_cell_length_c   7.91518883
_cell_angle_alpha   114.35783040
_cell_angle_beta   103.98181884
_cell_angle_gamma   103.98181797
_symmetry_Int_Tables_number   1
_chemical_formula_structural   Tb3Pt4
_chemical_formula_sum   'Tb6 Pt8'
_cell_volume   293.11281546
_cell_formula_units_Z   2
loop_
 _symmetry_equiv_pos_site_id
 _symmetry_equiv_pos_as_xyz
  1  'x, y, z'
loop_
 _atom_site_type_symbol
 _atom_site_label
 _atom_site_symmetry_multiplicity
 _atom_site_fract_x
 _atom_site_fract_y
 _atom_site_fract_z
 _atom_site_occupancy
  Tb  Tb0  1  0.40390568  0.12321601  0.37711570  1
  Tb  Tb1  1  0.02678998  0.62288430  0.74610032  1
  Tb  Tb2  1  0.28068967  0.25389968  0.87678399  1
  Tb  Tb3  1  0.59609432  0.87678399  0.62288430  1
  Tb  Tb4  1  0.97321002  0.37711570  0.25389968  1
  Tb  Tb5  1  0.71931033  0.74610032  0.12321601  1
  Pt  Pt6  1  -0.00000000  -0.00000000  -0.00000000  1
  Pt  Pt7  1  0.50000000  -0.00000000  -0.00000000  1
  Pt  Pt8  1  0.22472315  0.67218992  0.16397193  1
  Pt  Pt9  1  0.06075122  0.83602807  0.50821800  1
  Pt  Pt10  1  0.55253323  0.49178200  0.32781008  1
  Pt  Pt11  1  0.77527685  0.32781008  0.83602807  1
  Pt  Pt12  1  0.93924878  0.16397193  0.49178200  1
  Pt  Pt13  1  0.44746677  0.50821800  0.67218992  1
