# generated using pymatgen
data_La3Pt4
_symmetry_space_group_name_H-M   'P 1'
_cell_length_a   5.86799922
_cell_length_b   8.27198128
_cell_length_c   8.27198157
_cell_angle_alpha   114.59046257
_cell_angle_beta   103.67775015
_cell_angle_gamma   103.67775065
_symmetry_Int_Tables_number   1
_chemical_formula_structural   La3Pt4
_chemical_formula_sum   'La6 Pt8'
_cell_volume   328.28531056
_cell_formula_units_Z   2
loop_
 _symmetry_equiv_pos_site_id
 _symmetry_equiv_pos_as_xyz
  1  'x, y, z'
loop_
 _atom_site_type_symbol
 _atom_site_label
 _atom_site_symmetry_multiplicity
 _atom_site_fract_x
 _atom_site_fract_y
 _atom_site_fract_z
 _atom_site_occupancy
  La  La0  1  0.40535086  0.12374958  0.37587732  1
  La  La1  1  0.02947354  0.62412268  0.74787226  1
  La  La2  1  0.28160128  0.25212774  0.87625042  1
  La  La3  1  0.59464914  0.87625042  0.62412268  1
  La  La4  1  0.97052646  0.37587732  0.25212774  1
  La  La5  1  0.71839872  0.74787226  0.12374958  1
  Pt  Pt6  1  0.00000000  -0.00000000  -0.00000000  1
  Pt  Pt7  1  0.50000000  -0.00000000  -0.00000000  1
  Pt  Pt8  1  0.22223748  0.66966649  0.16348625  1
  Pt  Pt9  1  0.05875122  0.83651375  0.50618024  1
  Pt  Pt10  1  0.55257099  0.49381976  0.33033351  1
  Pt  Pt11  1  0.77776252  0.33033351  0.83651375  1
  Pt  Pt12  1  0.94124878  0.16348625  0.49381976  1
  Pt  Pt13  1  0.44742901  0.50618024  0.66966649  1
