# generated using pymatgen
data_Sm3Pt4
_symmetry_space_group_name_H-M   'P 1'
_cell_length_a   5.78986825
_cell_length_b   8.05132581
_cell_length_c   8.05132634
_cell_angle_alpha   114.44447185
_cell_angle_beta   103.86922221
_cell_angle_gamma   103.86922320
_symmetry_Int_Tables_number   1
_chemical_formula_structural   Sm3Pt4
_chemical_formula_sum   'Sm6 Pt8'
_cell_volume   306.36156357
_cell_formula_units_Z   2
loop_
 _symmetry_equiv_pos_site_id
 _symmetry_equiv_pos_as_xyz
  1  'x, y, z'
loop_
 _atom_site_type_symbol
 _atom_site_label
 _atom_site_symmetry_multiplicity
 _atom_site_fract_x
 _atom_site_fract_y
 _atom_site_fract_z
 _atom_site_occupancy
  Sm  Sm0  1  0.40330718  0.12200827  0.37660095  1
  Sm  Sm1  1  0.02670623  0.62339905  0.74540732  1
  Sm  Sm2  1  0.28129891  0.25459268  0.87799173  1
  Sm  Sm3  1  0.59669282  0.87799173  0.62339905  1
  Sm  Sm4  1  0.97329377  0.37660095  0.25459268  1
  Sm  Sm5  1  0.71870109  0.74540732  0.12200827  1
  Pt  Pt6  1  0.00000000  0.00000000  0.00000000  1
  Pt  Pt7  1  0.50000000  0.00000000  0.00000000  1
  Pt  Pt8  1  0.22293085  0.67130485  0.16329311  1
  Pt  Pt9  1  0.05963773  0.83670689  0.50801174  1
  Pt  Pt10  1  0.55162600  0.49198826  0.32869515  1
  Pt  Pt11  1  0.77706915  0.32869515  0.83670689  1
  Pt  Pt12  1  0.94036227  0.16329311  0.49198826  1
  Pt  Pt13  1  0.44837400  0.50801174  0.67130485  1
