# generated using pymatgen
data_Yb(Al2Cu)4
_symmetry_space_group_name_H-M   'P 1'
_cell_length_a   5.12134946
_cell_length_b   6.75916138
_cell_length_c   6.75916138
_cell_angle_alpha   81.74820881
_cell_angle_beta   67.73784020
_cell_angle_gamma   67.73784020
_symmetry_Int_Tables_number   1
_chemical_formula_structural   Yb(Al2Cu)4
_chemical_formula_sum   'Yb1 Al8 Cu4'
_cell_volume   200.39434581
_cell_formula_units_Z   1
loop_
 _symmetry_equiv_pos_site_id
 _symmetry_equiv_pos_as_xyz
  1  'x, y, z'
loop_
 _atom_site_type_symbol
 _atom_site_label
 _atom_site_symmetry_multiplicity
 _atom_site_fract_x
 _atom_site_fract_y
 _atom_site_fract_z
 _atom_site_occupancy
  Yb  Yb0  1  0.00000000  0.00000000  -0.00000000  1
  Al  Al1  1  0.00000000  0.34722431  0.65277569  1
  Al  Al2  1  -0.00000000  0.65277569  0.34722431  1
  Al  Al3  1  0.65277569  0.34722431  0.34722431  1
  Al  Al4  1  0.34722431  0.65277569  0.65277569  1
  Al  Al5  1  0.50000000  0.78067559  0.21932441  1
  Al  Al6  1  0.50000000  0.21932441  0.78067559  1
  Al  Al7  1  0.71932441  0.78067559  0.78067559  1
  Al  Al8  1  0.28067559  0.21932441  0.21932441  1
  Cu  Cu9  1  0.00000000  0.00000000  0.50000000  1
  Cu  Cu10  1  0.50000000  0.00000000  0.50000000  1
  Cu  Cu11  1  0.50000000  0.50000000  -0.00000000  1
  Cu  Cu12  1  0.00000000  0.50000000  -0.00000000  1
