# generated using pymatgen
data_Ni3(PbS)2
_symmetry_space_group_name_H-M   'P 1'
_cell_length_a   6.96887643
_cell_length_b   6.96887643
_cell_length_c   6.96887643
_cell_angle_alpha   109.47122063
_cell_angle_beta   109.47122063
_cell_angle_gamma   109.47122063
_symmetry_Int_Tables_number   1
_chemical_formula_structural   Ni3(PbS)2
_chemical_formula_sum   'Ni6 Pb4 S4'
_cell_volume   260.53519530
_cell_formula_units_Z   2
loop_
 _symmetry_equiv_pos_site_id
 _symmetry_equiv_pos_as_xyz
  1  'x, y, z'
loop_
 _atom_site_type_symbol
 _atom_site_label
 _atom_site_symmetry_multiplicity
 _atom_site_fract_x
 _atom_site_fract_y
 _atom_site_fract_z
 _atom_site_occupancy
  Ni  Ni0  1  0.00001777  0.25000000  0.75001777  1
  Ni  Ni1  1  0.75000000  0.74998223  0.49998223  1
  Ni  Ni2  1  0.75001777  0.00001777  0.25000000  1
  Ni  Ni3  1  0.49998223  0.75000000  0.74998223  1
  Ni  Ni4  1  0.25000000  0.75001777  0.00001777  1
  Ni  Ni5  1  0.74998223  0.49998223  0.75000000  1
  Pb  Pb6  1  0.48869325  -0.00000000  0.50000000  1
  Pb  Pb7  1  0.50000000  0.48869325  -0.00000000  1
  Pb  Pb8  1  0.00000000  0.50000000  0.48869325  1
  Pb  Pb9  1  0.01130675  0.01130675  0.01130675  1
  S  S10  1  0.03357268  -0.00000000  0.50000000  1
  S  S11  1  0.50000000  0.03357268  0.00000000  1
  S  S12  1  -0.00000000  0.50000000  0.03357268  1
  S  S13  1  0.46642732  0.46642732  0.46642732  1
