# generated using pymatgen
data_LiFeF4
_symmetry_space_group_name_H-M   'P 1'
_cell_length_a   5.26812306
_cell_length_b   8.20026435
_cell_length_c   9.07312722
_cell_angle_alpha   90.00000000
_cell_angle_beta   110.96271507
_cell_angle_gamma   90.00000000
_symmetry_Int_Tables_number   1
_chemical_formula_structural   LiFeF4
_chemical_formula_sum   'Li4 Fe4 F16'
_cell_volume   366.01668423
_cell_formula_units_Z   4
loop_
 _symmetry_equiv_pos_site_id
 _symmetry_equiv_pos_as_xyz
  1  'x, y, z'
loop_
 _atom_site_type_symbol
 _atom_site_label
 _atom_site_symmetry_multiplicity
 _atom_site_fract_x
 _atom_site_fract_y
 _atom_site_fract_z
 _atom_site_occupancy
  Li  Li0  1  0.31077720  0.54884566  0.85191615  1
  Li  Li1  1  0.31077720  0.95115434  0.35191615  1
  Li  Li2  1  0.68922280  0.04884666  0.64808385  1
  Li  Li3  1  0.68922280  0.45115334  0.14808385  1
  Fe  Fe4  1  0.14304068  0.31249886  0.54967711  1
  Fe  Fe5  1  0.14304068  0.18750114  0.04967711  1
  Fe  Fe6  1  0.85695932  0.81249886  0.95032289  1
  Fe  Fe7  1  0.85695932  0.68750114  0.45032289  1
  F  F8  1  0.16269737  0.73249730  0.92284792  1
  F  F9  1  0.03478508  0.06037821  0.86582111  1
  F  F10  1  0.16269737  0.76750270  0.42284792  1
  F  F11  1  0.03478508  0.43962179  0.36582111  1
  F  F12  1  0.42340642  0.39696972  0.71816621  1
  F  F13  1  0.30378543  0.12045310  0.50971875  1
  F  F14  1  0.69621457  0.62045310  0.99028125  1
  F  F15  1  0.57659358  0.89696972  0.78183379  1
  F  F16  1  0.42340642  0.10303028  0.21816621  1
  F  F17  1  0.30378543  0.37954690  0.00971875  1
  F  F18  1  0.69621457  0.87954690  0.49028125  1
  F  F19  1  0.57659358  0.60303028  0.28183379  1
  F  F20  1  0.96521492  0.56037821  0.63417889  1
  F  F21  1  0.83730263  0.23249730  0.57715208  1
  F  F22  1  0.96521492  0.93962179  0.13417889  1
  F  F23  1  0.83730263  0.26750270  0.07715208  1
