# generated using pymatgen
data_K3HoV2O8
_symmetry_space_group_name_H-M   'P 1'
_cell_length_a   6.01779121
_cell_length_b   6.01790355
_cell_length_c   7.84897155
_cell_angle_alpha   89.99947674
_cell_angle_beta   90.00299832
_cell_angle_gamma   120.00049210
_symmetry_Int_Tables_number   1
_chemical_formula_structural   K3HoV2O8
_chemical_formula_sum   'K3 Ho1 V2 O8'
_cell_volume   246.16345086
_cell_formula_units_Z   1
loop_
 _symmetry_equiv_pos_site_id
 _symmetry_equiv_pos_as_xyz
  1  'x, y, z'
loop_
 _atom_site_type_symbol
 _atom_site_label
 _atom_site_symmetry_multiplicity
 _atom_site_fract_x
 _atom_site_fract_y
 _atom_site_fract_z
 _atom_site_occupancy
  K  K0  1  0.66662415  0.33331484  0.70526142  1
  K  K1  1  0.33337585  0.66668516  0.29473858  1
  K  K2  1  -0.00000000  -0.00000000  0.00000000  1
  Ho  Ho3  1  -0.00000000  -0.00000000  0.50000000  1
  V  V4  1  0.66664783  0.33332444  0.25493681  1
  V  V5  1  0.33335217  0.66667556  0.74506319  1
  O  O6  1  0.66660925  0.33330568  0.04074376  1
  O  O7  1  0.33339075  0.66669432  0.95925624  1
  O  O8  1  0.17391164  0.82602681  0.66870969  1
  O  O9  1  0.17399597  0.34788187  0.66871115  1
  O  O10  1  0.65213390  0.82611022  0.66869828  1
  O  O11  1  0.82608836  0.17397319  0.33129031  1
  O  O12  1  0.82600403  0.65211813  0.33128885  1
  O  O13  1  0.34786610  0.17388978  0.33130172  1
