# generated using pymatgen
data_Sc(CoGe)6
_symmetry_space_group_name_H-M   'P 1'
_cell_length_a   5.04368073
_cell_length_b   5.04373952
_cell_length_c   7.79063744
_cell_angle_alpha   90.00000000
_cell_angle_beta   90.00000000
_cell_angle_gamma   119.99961888
_symmetry_Int_Tables_number   1
_chemical_formula_structural   Sc(CoGe)6
_chemical_formula_sum   'Sc1 Co6 Ge6'
_cell_volume   171.63487197
_cell_formula_units_Z   1
loop_
 _symmetry_equiv_pos_site_id
 _symmetry_equiv_pos_as_xyz
  1  'x, y, z'
loop_
 _atom_site_type_symbol
 _atom_site_label
 _atom_site_symmetry_multiplicity
 _atom_site_fract_x
 _atom_site_fract_y
 _atom_site_fract_z
 _atom_site_occupancy
  Sc  Sc0  1  0.99997841  -0.00000000  -0.00000000  1
  Co  Co1  1  0.49999348  1.00000000  0.24962623  1
  Co  Co2  1  0.49999395  0.50000434  0.24962065  1
  Co  Co3  1  0.99998960  0.49999566  0.24962065  1
  Co  Co4  1  0.49999348  1.00000000  0.75037377  1
  Co  Co5  1  0.49999395  0.50000434  0.75037935  1
  Co  Co6  1  0.99998960  0.49999566  0.75037935  1
  Ge  Ge7  1  0.33331466  0.66669547  0.50000000  1
  Ge  Ge8  1  0.66661919  0.33330453  0.50000000  1
  Ge  Ge9  1  0.33331669  0.66668946  0.00000000  1
  Ge  Ge10  1  0.66662723  0.33331054  0.00000000  1
  Ge  Ge11  1  0.99999488  -0.00000000  0.33984399  1
  Ge  Ge12  1  0.99999488  -0.00000000  0.66015601  1
