# generated using pymatgen
data_Sc3(CuSi)4
_symmetry_space_group_name_H-M   'P 1'
_cell_length_a   3.96793939
_cell_length_b   6.42736386
_cell_length_c   7.54395157
_cell_angle_alpha   115.21363172
_cell_angle_beta   105.24743839
_cell_angle_gamma   90.00000000
_symmetry_Int_Tables_number   1
_chemical_formula_structural   Sc3(CuSi)4
_chemical_formula_sum   'Sc3 Cu4 Si4'
_cell_volume   166.54966906
_cell_formula_units_Z   1
loop_
 _symmetry_equiv_pos_site_id
 _symmetry_equiv_pos_as_xyz
  1  'x, y, z'
loop_
 _atom_site_type_symbol
 _atom_site_label
 _atom_site_symmetry_multiplicity
 _atom_site_fract_x
 _atom_site_fract_y
 _atom_site_fract_z
 _atom_site_occupancy
  Sc  Sc0  1  -0.00000000  0.50000000  -0.00000000  1
  Sc  Sc1  1  0.87482839  0.87482839  0.74965678  1
  Sc  Sc2  1  0.12517161  0.12517161  0.25034322  1
  Cu  Cu3  1  0.67126260  0.47760667  0.34252520  1
  Cu  Cu4  1  0.67126260  0.86491853  0.34252520  1
  Cu  Cu5  1  0.32873740  0.13508147  0.65747480  1
  Cu  Cu6  1  0.32873740  0.52239333  0.65747480  1
  Si  Si7  1  0.78272093  0.28272093  0.56544185  1
  Si  Si8  1  0.21727907  0.71727907  0.43455815  1
  Si  Si9  1  0.50000000  0.81275590  1.00000000  1
  Si  Si10  1  0.50000000  0.18724410  0.00000000  1
