# generated using pymatgen
data_Sm(Al2Fe)4
_symmetry_space_group_name_H-M   'P 1'
_cell_length_a   5.06091642
_cell_length_b   6.69482591
_cell_length_c   6.69482591
_cell_angle_alpha   81.78644789
_cell_angle_beta   67.79186281
_cell_angle_gamma   67.79186281
_symmetry_Int_Tables_number   1
_chemical_formula_structural   Sm(Al2Fe)4
_chemical_formula_sum   'Sm1 Al8 Fe4'
_cell_volume   194.42762158
_cell_formula_units_Z   1
loop_
 _symmetry_equiv_pos_site_id
 _symmetry_equiv_pos_as_xyz
  1  'x, y, z'
loop_
 _atom_site_type_symbol
 _atom_site_label
 _atom_site_symmetry_multiplicity
 _atom_site_fract_x
 _atom_site_fract_y
 _atom_site_fract_z
 _atom_site_occupancy
  Sm  Sm0  1  -0.00000000  -0.00000000  0.00000000  1
  Al  Al1  1  -0.00000000  0.34111857  0.65888143  1
  Al  Al2  1  -0.00000000  0.65888143  0.34111857  1
  Al  Al3  1  0.65888143  0.34111857  0.34111857  1
  Al  Al4  1  0.34111857  0.65888143  0.65888143  1
  Al  Al5  1  0.50000000  0.77761170  0.22238830  1
  Al  Al6  1  0.50000000  0.22238830  0.77761170  1
  Al  Al7  1  0.72238830  0.77761170  0.77761170  1
  Al  Al8  1  0.27761170  0.22238830  0.22238830  1
  Fe  Fe9  1  -0.00000000  -0.00000000  0.50000000  1
  Fe  Fe10  1  0.50000000  -0.00000000  0.50000000  1
  Fe  Fe11  1  0.50000000  0.50000000  0.00000000  1
  Fe  Fe12  1  -0.00000000  0.50000000  0.00000000  1
