# generated using pymatgen
data_Eu(Al2Cu)4
_symmetry_space_group_name_H-M   'P 1'
_cell_length_a   5.13074619
_cell_length_b   6.77307427
_cell_length_c   6.77307427
_cell_angle_alpha   81.75191304
_cell_angle_beta   67.74306854
_cell_angle_gamma   67.74306854
_symmetry_Int_Tables_number   1
_chemical_formula_structural   Eu(Al2Cu)4
_chemical_formula_sum   'Eu1 Al8 Cu4'
_cell_volume   201.60442903
_cell_formula_units_Z   1
loop_
 _symmetry_equiv_pos_site_id
 _symmetry_equiv_pos_as_xyz
  1  'x, y, z'
loop_
 _atom_site_type_symbol
 _atom_site_label
 _atom_site_symmetry_multiplicity
 _atom_site_fract_x
 _atom_site_fract_y
 _atom_site_fract_z
 _atom_site_occupancy
  Eu  Eu0  1  0.00000000  -0.00000000  -0.00000000  1
  Al  Al1  1  0.00000000  0.34752169  0.65247831  1
  Al  Al2  1  -0.00000000  0.65247831  0.34752169  1
  Al  Al3  1  0.65247831  0.34752169  0.34752169  1
  Al  Al4  1  0.34752169  0.65247831  0.65247831  1
  Al  Al5  1  0.50000000  0.77997836  0.22002164  1
  Al  Al6  1  0.50000000  0.22002164  0.77997836  1
  Al  Al7  1  0.72002164  0.77997836  0.77997836  1
  Al  Al8  1  0.27997836  0.22002164  0.22002164  1
  Cu  Cu9  1  0.00000000  -0.00000000  0.50000000  1
  Cu  Cu10  1  0.50000000  -0.00000000  0.50000000  1
  Cu  Cu11  1  0.50000000  0.50000000  -0.00000000  1
  Cu  Cu12  1  0.00000000  0.50000000  -0.00000000  1
