# generated using pymatgen
data_Tm3Pt4
_symmetry_space_group_name_H-M   'P 1'
_cell_length_a   5.68850920
_cell_length_b   7.80549418
_cell_length_c   7.80549470
_cell_angle_alpha   114.29779577
_cell_angle_beta   104.05939396
_cell_angle_gamma   104.05939486
_symmetry_Int_Tables_number   1
_chemical_formula_structural   Tm3Pt4
_chemical_formula_sum   'Tm6 Pt8'
_cell_volume   282.43152545
_cell_formula_units_Z   2
loop_
 _symmetry_equiv_pos_site_id
 _symmetry_equiv_pos_as_xyz
  1  'x, y, z'
loop_
 _atom_site_type_symbol
 _atom_site_label
 _atom_site_symmetry_multiplicity
 _atom_site_fract_x
 _atom_site_fract_y
 _atom_site_fract_z
 _atom_site_occupancy
  Tm  Tm0  1  0.40347988  0.12216909  0.37716757  1
  Tm  Tm1  1  0.02631232  0.62283243  0.74500153  1
  Tm  Tm2  1  0.28131079  0.25499847  0.87783091  1
  Tm  Tm3  1  0.59652012  0.87783091  0.62283243  1
  Tm  Tm4  1  0.97368768  0.37716757  0.25499847  1
  Tm  Tm5  1  0.71868921  0.74500153  0.12216909  1
  Pt  Pt6  1  0.00000000  -0.00000000  0.00000000  1
  Pt  Pt7  1  0.50000000  -0.00000000  0.00000000  1
  Pt  Pt8  1  0.22462807  0.67278043  0.16378862  1
  Pt  Pt9  1  0.06083945  0.83621138  0.50899181  1
  Pt  Pt10  1  0.55184764  0.49100819  0.32721957  1
  Pt  Pt11  1  0.77537193  0.32721957  0.83621138  1
  Pt  Pt12  1  0.93916055  0.16378862  0.49100819  1
  Pt  Pt13  1  0.44815236  0.50899181  0.67278043  1
