# generated using pymatgen
data_Li2MnF4
_symmetry_space_group_name_H-M   'P 1'
_cell_length_a   3.85372613
_cell_length_b   6.68670058
_cell_length_c   8.44758695
_cell_angle_alpha   73.25181046
_cell_angle_beta   103.18501704
_cell_angle_gamma   73.25196041
_symmetry_Int_Tables_number   1
_chemical_formula_structural   Li2MnF4
_chemical_formula_sum   'Li4 Mn2 F8'
_cell_volume   187.76537581
_cell_formula_units_Z   2
loop_
 _symmetry_equiv_pos_site_id
 _symmetry_equiv_pos_as_xyz
  1  'x, y, z'
loop_
 _atom_site_type_symbol
 _atom_site_label
 _atom_site_symmetry_multiplicity
 _atom_site_fract_x
 _atom_site_fract_y
 _atom_site_fract_z
 _atom_site_occupancy
  Li  Li0  1  0.34461364  0.71997232  0.40919860  1
  Li  Li1  1  0.16499997  0.44351385  0.77351480  1
  Li  Li2  1  0.83500003  0.55648615  0.22648520  1
  Li  Li3  1  0.65538636  0.28002768  0.59080140  1
  Mn  Mn4  1  0.43143531  0.87505256  0.73792318  1
  Mn  Mn5  1  0.56856469  0.12494744  0.26207682  1
  F  F6  1  0.84507178  0.94780216  0.63794573  1
  F  F7  1  0.78844616  0.76261343  0.33950576  1
  F  F8  1  0.64082111  0.71166695  0.99331016  1
  F  F9  1  0.54697957  0.57144097  0.66540011  1
  F  F10  1  0.45302043  0.42855903  0.33459989  1
  F  F11  1  0.35917889  0.28833305  0.00668984  1
  F  F12  1  0.21155384  0.23738657  0.66049424  1
  F  F13  1  0.15492822  0.05219784  0.36205427  1
