# generated using pymatgen
data_BaP2
_symmetry_space_group_name_H-M   'P 1'
_cell_length_a   6.44397495
_cell_length_b   6.49870161
_cell_length_c   12.27642343
_cell_angle_alpha   90.00000000
_cell_angle_beta   90.00000000
_cell_angle_gamma   105.94137439
_symmetry_Int_Tables_number   1
_chemical_formula_structural   BaP2
_chemical_formula_sum   'Ba6 P12'
_cell_volume   494.33471772
_cell_formula_units_Z   6
loop_
 _symmetry_equiv_pos_site_id
 _symmetry_equiv_pos_as_xyz
  1  'x, y, z'
loop_
 _atom_site_type_symbol
 _atom_site_label
 _atom_site_symmetry_multiplicity
 _atom_site_fract_x
 _atom_site_fract_y
 _atom_site_fract_z
 _atom_site_occupancy
  Ba  Ba0  1  0.10415995  0.33210347  0.16194568  1
  Ba  Ba1  1  0.39584005  0.16789653  0.66194568  1
  Ba  Ba2  1  0.89584005  0.66789653  0.83805432  1
  Ba  Ba3  1  0.60415995  0.83210347  0.33805432  1
  Ba  Ba4  1  0.00000000  0.50000000  0.50000000  1
  Ba  Ba5  1  0.50000000  -0.00000000  0.00000000  1
  P  P6  1  0.37120622  0.30372864  0.39250295  1
  P  P7  1  0.12879378  0.19627136  0.89250295  1
  P  P8  1  0.62879378  0.69627136  0.60749705  1
  P  P9  1  0.87120622  0.80372864  0.10749705  1
  P  P10  1  0.64691946  0.46747638  0.12732786  1
  P  P11  1  0.85308054  0.03252362  0.62732786  1
  P  P12  1  0.35308054  0.53252362  0.87267214  1
  P  P13  1  0.14691946  0.96747638  0.37267214  1
  P  P14  1  0.66762010  0.34714177  0.29493302  1
  P  P15  1  0.83237990  0.15285823  0.79493302  1
  P  P16  1  0.33237990  0.65285823  0.70506698  1
  P  P17  1  0.16762010  0.84714177  0.20506698  1
