# generated using pymatgen
data_Th3Pd4
_symmetry_space_group_name_H-M   'P 1'
_cell_length_a   5.84168070
_cell_length_b   8.22437638
_cell_length_c   8.22437641
_cell_angle_alpha   114.57695100
_cell_angle_beta   103.69556249
_cell_angle_gamma   103.69556264
_symmetry_Int_Tables_number   1
_chemical_formula_structural   Th3Pd4
_chemical_formula_sum   'Th6 Pd8'
_cell_volume   323.01324079
_cell_formula_units_Z   2
loop_
 _symmetry_equiv_pos_site_id
 _symmetry_equiv_pos_as_xyz
  1  'x, y, z'
loop_
 _atom_site_type_symbol
 _atom_site_label
 _atom_site_symmetry_multiplicity
 _atom_site_fract_x
 _atom_site_fract_y
 _atom_site_fract_z
 _atom_site_occupancy
  Th  Th0  1  0.40845363  0.12985669  0.37846705  1
  Th  Th1  1  0.02998657  0.62153295  0.75138964  1
  Th  Th2  1  0.27859693  0.24861036  0.87014331  1
  Th  Th3  1  0.59154637  0.87014331  0.62153295  1
  Th  Th4  1  0.97001343  0.37846705  0.24861036  1
  Th  Th5  1  0.72140307  0.75138964  0.12985669  1
  Pd  Pd6  1  0.00000000  -0.00000000  -0.00000000  1
  Pd  Pd7  1  0.50000000  -0.00000000  -0.00000000  1
  Pd  Pd8  1  0.22557514  0.66518072  0.16523616  1
  Pd  Pd9  1  0.06033899  0.83476384  0.49994457  1
  Pd  Pd10  1  0.56039442  0.50005543  0.33481928  1
  Pd  Pd11  1  0.77442486  0.33481928  0.83476384  1
  Pd  Pd12  1  0.93966101  0.16523616  0.50005543  1
  Pd  Pd13  1  0.43960558  0.49994457  0.66518072  1
