# generated using pymatgen
data_Rb2UH4(ClO)4
_symmetry_space_group_name_H-M   'P 1'
_cell_length_a   7.24457118
_cell_length_b   7.16282536
_cell_length_c   7.54344265
_cell_angle_alpha   91.89818291
_cell_angle_beta   99.81083004
_cell_angle_gamma   119.86559596
_symmetry_Int_Tables_number   1
_chemical_formula_structural   Rb2UH4(ClO)4
_chemical_formula_sum   'Rb2 U1 H4 Cl4 O4'
_cell_volume   331.28880171
_cell_formula_units_Z   1
loop_
 _symmetry_equiv_pos_site_id
 _symmetry_equiv_pos_as_xyz
  1  'x, y, z'
loop_
 _atom_site_type_symbol
 _atom_site_label
 _atom_site_symmetry_multiplicity
 _atom_site_fract_x
 _atom_site_fract_y
 _atom_site_fract_z
 _atom_site_occupancy
  Rb  Rb0  1  0.07235969  0.24597027  0.25265653  1
  Rb  Rb1  1  0.92764031  0.75402973  0.74734347  1
  U  U2  1  0.50000000  -0.00000000  0.50000000  1
  H  H3  1  0.63199190  0.77188213  0.06615466  1
  H  H4  1  0.36800810  0.22811787  0.93384534  1
  H  H5  1  0.77378450  0.68237516  0.15657572  1
  H  H6  1  0.22621550  0.31762484  0.84342428  1
  Cl  Cl7  1  0.69121320  0.22825501  0.83149506  1
  Cl  Cl8  1  0.30878680  0.77174499  0.16850494  1
  Cl  Cl9  1  0.33495600  0.62336591  0.63851267  1
  Cl  Cl10  1  0.66504400  0.37663409  0.36148733  1
  O  O11  1  0.77515241  0.78554278  0.07470072  1
  O  O12  1  0.22484759  0.21445722  0.92529928  1
  O  O13  1  0.25661151  0.00897897  0.51436941  1
  O  O14  1  0.74338849  0.99102103  0.48563059  1
