# generated using pymatgen
data_Ba9In4
_symmetry_space_group_name_H-M   'P 1'
_cell_length_a   5.97503870
_cell_length_b   10.46708054
_cell_length_c   10.46708054
_cell_angle_alpha   85.32722752
_cell_angle_beta   73.41601186
_cell_angle_gamma   73.41601186
_symmetry_Int_Tables_number   1
_chemical_formula_structural   Ba9In4
_chemical_formula_sum   'Ba9 In4'
_cell_volume   601.29503372
_cell_formula_units_Z   1
loop_
 _symmetry_equiv_pos_site_id
 _symmetry_equiv_pos_as_xyz
  1  'x, y, z'
loop_
 _atom_site_type_symbol
 _atom_site_label
 _atom_site_symmetry_multiplicity
 _atom_site_fract_x
 _atom_site_fract_y
 _atom_site_fract_z
 _atom_site_occupancy
  Ba  Ba0  1  0.50000000  0.00000000  0.00000000  1
  Ba  Ba1  1  0.81336833  0.29799849  0.07526486  1
  Ba  Ba2  1  0.18663167  0.70200151  0.92473514  1
  Ba  Ba3  1  0.11136681  0.07526486  0.70200151  1
  Ba  Ba4  1  0.88863319  0.92473514  0.29799849  1
  Ba  Ba5  1  0.87529425  0.51264930  0.73676220  1
  Ba  Ba6  1  0.12470575  0.48735070  0.26323780  1
  Ba  Ba7  1  0.38794355  0.73676220  0.48735070  1
  Ba  Ba8  1  0.61205645  0.26323780  0.51264930  1
  In  In9  1  0.59903947  0.66348257  0.13843849  1
  In  In10  1  0.40096053  0.33651743  0.86156151  1
  In  In11  1  0.26252204  0.13843849  0.33651743  1
  In  In12  1  0.73747796  0.86156151  0.66348257  1
