# generated using pymatgen
data_Li8MgCo13O28
_symmetry_space_group_name_H-M   'P 1'
_cell_length_a   8.29792589
_cell_length_b   8.78748464
_cell_length_c   7.70716249
_cell_angle_alpha   104.31882622
_cell_angle_beta   104.77899730
_cell_angle_gamma   102.49231668
_symmetry_Int_Tables_number   1
_chemical_formula_structural   Li8MgCo13O28
_chemical_formula_sum   'Li8 Mg1 Co13 O28'
_cell_volume   502.55862243
_cell_formula_units_Z   1
loop_
 _symmetry_equiv_pos_site_id
 _symmetry_equiv_pos_as_xyz
  1  'x, y, z'
loop_
 _atom_site_type_symbol
 _atom_site_label
 _atom_site_symmetry_multiplicity
 _atom_site_fract_x
 _atom_site_fract_y
 _atom_site_fract_z
 _atom_site_occupancy
  Li  Li0  1  0.00439410  0.49465504  0.51277076  1
  Li  Li1  1  0.15086977  0.35319425  0.22089630  1
  Li  Li2  1  0.28658395  0.21772790  0.92801841  1
  Li  Li3  1  0.42708630  0.07455682  0.64178333  1
  Li  Li4  1  0.56783249  0.92856276  0.35758866  1
  Li  Li5  1  0.70740798  0.78795803  0.06419275  1
  Li  Li6  1  0.85123980  0.64337568  0.77128065  1
  Li  Li7  1  0.92682298  0.57376442  0.14417041  1
  Mg  Mg8  1  0.50064281  0.50151976  0.49963212  1
  Co  Co9  1  0.13790225  0.85301579  0.70698542  1
  Co  Co10  1  0.07578188  0.93595194  0.35980665  1
  Co  Co11  1  0.00344703  0.00173161  0.00839080  1
  Co  Co12  1  0.21781507  0.78932108  0.06682983  1
  Co  Co13  1  0.28131942  0.71418975  0.42345615  1
  Co  Co14  1  0.35675936  0.63883999  0.78229215  1
  Co  Co15  1  0.42739926  0.57168307  0.14030116  1
  Co  Co16  1  0.57700019  0.43029470  0.85908752  1
  Co  Co17  1  0.63831619  0.35227783  0.21677373  1
  Co  Co18  1  0.71659191  0.28652495  0.57670757  1
  Co  Co19  1  0.78528754  0.21423603  0.93013192  1
  Co  Co20  1  0.92595438  0.06651612  0.64311727  1
  Co  Co21  1  0.85981969  0.14225437  0.28911730  1
  O  O22  1  0.01527970  0.18901379  0.92690918  1
  O  O23  1  0.22274630  0.98869877  0.99899609  1
  O  O24  1  0.05527100  0.71906093  0.42242533  1
  O  O25  1  0.11399916  0.66539740  0.78409763  1
  O  O26  1  0.16783372  0.04852290  0.64270084  1
  O  O27  1  0.08445353  0.13776407  0.28660956  1
  O  O28  1  0.30524208  0.90744536  0.35478218  1
  O  O29  1  0.35598204  0.84093737  0.68757271  1
  O  O30  1  0.26090694  0.52936105  0.50621503  1
  O  O31  1  0.20012041  0.59180296  0.15828334  1
  O  O32  1  0.35525773  0.44513613  0.88005283  1
  O  O33  1  0.44831885  0.76066043  0.05971530  1
  O  O34  1  0.59632725  0.61831507  0.78894196  1
  O  O35  1  0.49844702  0.70116101  0.39706107  1
  O  O36  1  0.50215244  0.30197067  0.60331286  1
  O  O37  1  0.40355345  0.38144587  0.20822414  1
  O  O38  1  0.55903381  0.23865145  0.93744425  1
  O  O39  1  0.65343476  0.55476849  0.12243270  1
  O  O40  1  0.80090783  0.41924390  0.84246231  1
  O  O41  1  0.73934021  0.46814105  0.48985522  1
  O  O42  1  0.63942273  0.15651623  0.31073901  1
  O  O43  1  0.69637162  0.10152935  0.66173740  1
  O  O44  1  0.91742796  0.86687823  0.71388729  1
  O  O45  1  0.83717534  0.95276869  0.35955240  1
  O  O46  1  0.87903818  0.33195952  0.20121130  1
  O  O47  1  0.93367002  0.26310523  0.55195939  1
  O  O48  1  0.78638841  0.01595241  0.02860407  1
  O  O49  1  0.97412217  0.80313975  0.07392174  1
