# generated using pymatgen
data_Sm3GaCo3
_symmetry_space_group_name_H-M   'P 1'
_cell_length_a   3.84155929
_cell_length_b   5.70863208
_cell_length_c   13.01697669
_cell_angle_alpha   90.00000000
_cell_angle_beta   90.00000000
_cell_angle_gamma   109.66191475
_symmetry_Int_Tables_number   1
_chemical_formula_structural   Sm3GaCo3
_chemical_formula_sum   'Sm6 Ga2 Co6'
_cell_volume   268.81884637
_cell_formula_units_Z   2
loop_
 _symmetry_equiv_pos_site_id
 _symmetry_equiv_pos_as_xyz
  1  'x, y, z'
loop_
 _atom_site_type_symbol
 _atom_site_label
 _atom_site_symmetry_multiplicity
 _atom_site_fract_x
 _atom_site_fract_y
 _atom_site_fract_z
 _atom_site_occupancy
  Sm  Sm0  1  0.21877267  0.43754533  0.39097677  1
  Sm  Sm1  1  0.78122733  0.56245467  0.60902323  1
  Sm  Sm2  1  0.21877267  0.43754533  0.10902323  1
  Sm  Sm3  1  0.78122733  0.56245467  0.89097677  1
  Sm  Sm4  1  0.49289773  0.98579546  0.25000000  1
  Sm  Sm5  1  0.50710227  0.01420454  0.75000000  1
  Ga  Ga6  1  0.50000000  0.00000000  0.50000000  1
  Ga  Ga7  1  0.50000000  0.00000000  -0.00000000  1
  Co  Co8  1  0.92115462  0.84230925  0.40873508  1
  Co  Co9  1  0.07884538  0.15769075  0.59126492  1
  Co  Co10  1  0.92115462  0.84230925  0.09126492  1
  Co  Co11  1  0.07884538  0.15769075  0.90873508  1
  Co  Co12  1  0.79076194  0.58152388  0.25000000  1
  Co  Co13  1  0.20923806  0.41847612  0.75000000  1
