# generated using pymatgen
data_Ta6Zn7
_symmetry_space_group_name_H-M   'P 1'
_cell_length_a   5.06587106
_cell_length_b   5.06587106
_cell_length_c   9.61748441
_cell_angle_alpha   74.73001201
_cell_angle_beta   74.73001201
_cell_angle_gamma   60.00000396
_symmetry_Int_Tables_number   1
_chemical_formula_structural   Ta6Zn7
_chemical_formula_sum   'Ta6 Zn7'
_cell_volume   203.62339796
_cell_formula_units_Z   1
loop_
 _symmetry_equiv_pos_site_id
 _symmetry_equiv_pos_as_xyz
  1  'x, y, z'
loop_
 _atom_site_type_symbol
 _atom_site_label
 _atom_site_symmetry_multiplicity
 _atom_site_fract_x
 _atom_site_fract_y
 _atom_site_fract_z
 _atom_site_occupancy
  Ta  Ta0  1  0.16465516  0.16465516  0.50603452  1
  Ta  Ta1  1  0.83534484  0.83534484  0.49396548  1
  Ta  Ta2  1  0.34980369  0.34980369  0.95058892  1
  Ta  Ta3  1  0.65019631  0.65019631  0.04941108  1
  Ta  Ta4  1  0.45471374  0.45471374  0.63585879  1
  Ta  Ta5  1  0.54528626  0.54528626  0.36414121  1
  Zn  Zn6  1  0.00000000  0.00000000  -0.00000000  1
  Zn  Zn7  1  0.58546237  0.09350411  0.22752942  1
  Zn  Zn8  1  0.09350411  0.09350411  0.22752942  1
  Zn  Zn9  1  0.09350411  0.58546237  0.22752942  1
  Zn  Zn10  1  0.41453763  0.90649589  0.77247058  1
  Zn  Zn11  1  0.90649589  0.90649589  0.77247058  1
  Zn  Zn12  1  0.90649589  0.41453763  0.77247058  1
