# generated using pymatgen
data_K3YV2O8
_symmetry_space_group_name_H-M   'P 1'
_cell_length_a   6.02142991
_cell_length_b   6.02128055
_cell_length_c   7.81690617
_cell_angle_alpha   90.00000001
_cell_angle_beta   89.99488413
_cell_angle_gamma   119.99917831
_symmetry_Int_Tables_number   1
_chemical_formula_structural   K3YV2O8
_chemical_formula_sum   'K3 Y1 V2 O8'
_cell_volume   245.44694033
_cell_formula_units_Z   1
loop_
 _symmetry_equiv_pos_site_id
 _symmetry_equiv_pos_as_xyz
  1  'x, y, z'
loop_
 _atom_site_type_symbol
 _atom_site_label
 _atom_site_symmetry_multiplicity
 _atom_site_fract_x
 _atom_site_fract_y
 _atom_site_fract_z
 _atom_site_occupancy
  K  K0  1  0.66664873  0.33332437  0.29327633  1
  K  K1  1  0.33335127  0.66667563  0.70672367  1
  K  K2  1  0.00000000  -0.00000000  0.00000000  1
  Y  Y3  1  0.00000000  -0.00000000  0.50000000  1
  V  V4  1  0.66667588  0.33333794  0.74852431  1
  V  V5  1  0.33332412  0.66666206  0.25147569  1
  O  O6  1  0.66660717  0.33330359  0.96369901  1
  O  O7  1  0.33339283  0.66669641  0.03630099  1
  O  O8  1  0.82587150  0.65177811  0.67188834  1
  O  O9  1  0.34816431  0.17408216  0.67187521  1
  O  O10  1  0.82587150  0.17409340  0.67188834  1
  O  O11  1  0.17412850  0.34822189  0.32811166  1
  O  O12  1  0.65183569  0.82591784  0.32812479  1
  O  O13  1  0.17412850  0.82590660  0.32811166  1
