# generated using pymatgen
data_Eu3P4
_symmetry_space_group_name_H-M   'P 1'
_cell_length_a   5.68398999
_cell_length_b   7.58090722
_cell_length_c   8.93105401
_cell_angle_alpha   83.14857893
_cell_angle_beta   71.44499703
_cell_angle_gamma   67.98258342
_symmetry_Int_Tables_number   1
_chemical_formula_structural   Eu3P4
_chemical_formula_sum   'Eu6 P8'
_cell_volume   338.22566917
_cell_formula_units_Z   2
loop_
 _symmetry_equiv_pos_site_id
 _symmetry_equiv_pos_as_xyz
  1  'x, y, z'
loop_
 _atom_site_type_symbol
 _atom_site_label
 _atom_site_symmetry_multiplicity
 _atom_site_fract_x
 _atom_site_fract_y
 _atom_site_fract_z
 _atom_site_occupancy
  Eu  Eu0  1  0.00722289  0.50000000  0.50000000  1
  Eu  Eu1  1  0.25722289  1.00000000  -0.00000000  1
  Eu  Eu2  1  0.58076568  0.99693193  0.33450271  1
  Eu  Eu3  1  0.91220032  0.00306807  0.66549729  1
  Eu  Eu4  1  0.32769761  0.50306807  0.83450271  1
  Eu  Eu5  1  0.66526839  0.49693193  0.16549729  1
  P  P6  1  0.33440767  0.17602109  0.65862171  1
  P  P7  1  0.16905047  0.82397891  0.34137829  1
  P  P8  1  0.26042876  0.32397891  0.15862171  1
  P  P9  1  0.74302938  0.67602109  0.84137829  1
  P  P10  1  0.42109823  0.66855769  0.50107883  1
  P  P11  1  0.59073474  0.33144231  0.49892117  1
  P  P12  1  0.83965591  0.83144231  0.00107883  1
  P  P13  1  0.67217706  0.16855769  0.99892117  1
