# generated using pymatgen
data_Eu2Si5Pt3
_symmetry_space_group_name_H-M   'P 1'
_cell_length_a   6.08831103
_cell_length_b   8.36855994
_cell_length_c   8.36855994
_cell_angle_alpha   74.92938523
_cell_angle_beta   68.66864915
_cell_angle_gamma   68.66864915
_symmetry_Int_Tables_number   1
_chemical_formula_structural   Eu2Si5Pt3
_chemical_formula_sum   'Eu4 Si10 Pt6'
_cell_volume   365.93390545
_cell_formula_units_Z   2
loop_
 _symmetry_equiv_pos_site_id
 _symmetry_equiv_pos_as_xyz
  1  'x, y, z'
loop_
 _atom_site_type_symbol
 _atom_site_label
 _atom_site_symmetry_multiplicity
 _atom_site_fract_x
 _atom_site_fract_y
 _atom_site_fract_z
 _atom_site_occupancy
  Eu  Eu0  1  0.12935477  0.63728116  0.10400930  1
  Eu  Eu1  1  0.87064523  0.36271884  0.89599070  1
  Eu  Eu2  1  0.62935477  0.10400930  0.63728116  1
  Eu  Eu3  1  0.37064523  0.89599070  0.36271884  1
  Si  Si4  1  0.25000000  -0.00000000  0.00000000  1
  Si  Si5  1  0.75000000  -0.00000000  0.00000000  1
  Si  Si6  1  0.97986476  0.27013524  0.27013524  1
  Si  Si7  1  0.52013524  0.72986476  0.72986476  1
  Si  Si8  1  0.02013524  0.72986476  0.72986476  1
  Si  Si9  1  0.47986476  0.27013524  0.27013524  1
  Si  Si10  1  0.38832603  0.46259510  0.76075284  1
  Si  Si11  1  0.61167397  0.53740490  0.23924716  1
  Si  Si12  1  0.88832603  0.76075284  0.46259510  1
  Si  Si13  1  0.11167397  0.23924716  0.53740490  1
  Pt  Pt14  1  0.25000000  0.50000000  0.50000000  1
  Pt  Pt15  1  0.75000000  0.50000000  0.50000000  1
  Pt  Pt16  1  0.36434376  0.24799206  0.02332042  1
  Pt  Pt17  1  0.63565624  0.75200794  0.97667958  1
  Pt  Pt18  1  0.86434376  0.02332042  0.24799206  1
  Pt  Pt19  1  0.13565624  0.97667958  0.75200794  1
