# generated using pymatgen
data_Sr2Sb2Se3O2
_symmetry_space_group_name_H-M   'P 1'
_cell_length_a   4.05857766
_cell_length_b   9.70021013
_cell_length_c   11.47118894
_cell_angle_alpha   100.42410053
_cell_angle_beta   90.00000000
_cell_angle_gamma   90.00000000
_symmetry_Int_Tables_number   1
_chemical_formula_structural   Sr2Sb2Se3O2
_chemical_formula_sum   'Sr4 Sb4 Se6 O4'
_cell_volume   444.15626398
_cell_formula_units_Z   2
loop_
 _symmetry_equiv_pos_site_id
 _symmetry_equiv_pos_as_xyz
  1  'x, y, z'
loop_
 _atom_site_type_symbol
 _atom_site_label
 _atom_site_symmetry_multiplicity
 _atom_site_fract_x
 _atom_site_fract_y
 _atom_site_fract_z
 _atom_site_occupancy
  Sr  Sr0  1  0.48575632  0.70964690  0.60183413  1
  Sr  Sr1  1  0.98575632  0.79035310  0.89816587  1
  Sr  Sr2  1  0.51424368  0.29035310  0.39816587  1
  Sr  Sr3  1  0.01424368  0.20964690  0.10183413  1
  Sb  Sb4  1  0.48793784  0.45355196  0.80852182  1
  Sb  Sb5  1  0.98793784  0.04644804  0.69147818  1
  Sb  Sb6  1  0.51206216  0.54644804  0.19147818  1
  Sb  Sb7  1  0.01206216  0.95355196  0.30852182  1
  Se  Se8  1  0.50000000  -0.00000000  0.50000000  1
  Se  Se9  1  0.00000000  0.50000000  -0.00000000  1
  Se  Se10  1  0.49281045  0.07689122  0.86755351  1
  Se  Se11  1  0.99281045  0.42310878  0.63244649  1
  Se  Se12  1  0.50718955  0.92310878  0.13244649  1
  Se  Se13  1  0.00718955  0.57689122  0.36755351  1
  O  O14  1  0.51159099  0.33988972  0.18746354  1
  O  O15  1  0.01159099  0.16011028  0.31253646  1
  O  O16  1  0.48840901  0.66011028  0.81253646  1
  O  O17  1  0.98840901  0.83988972  0.68746354  1
