# generated using pymatgen
data_TbTl(PSe3)2
_symmetry_space_group_name_H-M   'P 1'
_cell_length_a   6.88251558
_cell_length_b   7.67421042
_cell_length_c   10.41438937
_cell_angle_alpha   90.00000000
_cell_angle_beta   91.07853715
_cell_angle_gamma   90.00000000
_symmetry_Int_Tables_number   1
_chemical_formula_structural   TbTl(PSe3)2
_chemical_formula_sum   'Tb2 Tl2 P4 Se12'
_cell_volume   549.96843942
_cell_formula_units_Z   2
loop_
 _symmetry_equiv_pos_site_id
 _symmetry_equiv_pos_as_xyz
  1  'x, y, z'
loop_
 _atom_site_type_symbol
 _atom_site_label
 _atom_site_symmetry_multiplicity
 _atom_site_fract_x
 _atom_site_fract_y
 _atom_site_fract_z
 _atom_site_occupancy
  Tb  Tb0  1  0.71676669  0.50310544  0.50221427  1
  Tb  Tb1  1  0.28323331  0.00310544  0.49778573  1
  Tl  Tl2  1  0.18486222  0.78072983  0.99241850  1
  Tl  Tl3  1  0.81513778  0.28072983  0.00758150  1
  P  P4  1  0.69024023  0.77284311  0.79438475  1
  P  P5  1  0.30975977  0.27284311  0.20561525  1
  P  P6  1  0.81303858  0.99103330  0.67388271  1
  P  P7  1  0.18696142  0.49103330  0.32611729  1
  Se  Se8  1  0.89956943  0.56221298  0.76662214  1
  Se  Se9  1  0.10043057  0.06221298  0.23337786  1
  Se  Se10  1  0.90990724  0.58729729  0.24622555  1
  Se  Se11  1  0.09009276  0.08729729  0.75377445  1
  Se  Se12  1  0.43379374  0.69507960  0.66986988  1
  Se  Se13  1  0.56620626  0.19507960  0.33013012  1
  Se  Se14  1  0.65364118  0.86514718  0.98836209  1
  Se  Se15  1  0.34635882  0.36514718  0.01163791  1
  Se  Se16  1  0.87142705  0.86610397  0.48294674  1
  Se  Se17  1  0.12857295  0.36610397  0.51705326  1
  Se  Se18  1  0.57632792  0.19024731  0.66772547  1
  Se  Se19  1  0.42367208  0.69024731  0.33227453  1
