# generated using pymatgen
data_YTl(PSe3)2
_symmetry_space_group_name_H-M   'P 1'
_cell_length_a   6.87121443
_cell_length_b   7.66290589
_cell_length_c   10.36290131
_cell_angle_alpha   90.00000000
_cell_angle_beta   91.12698144
_cell_angle_gamma   90.00000000
_symmetry_Int_Tables_number   1
_chemical_formula_structural   YTl(PSe3)2
_chemical_formula_sum   'Y2 Tl2 P4 Se12'
_cell_volume   545.53716020
_cell_formula_units_Z   2
loop_
 _symmetry_equiv_pos_site_id
 _symmetry_equiv_pos_as_xyz
  1  'x, y, z'
loop_
 _atom_site_type_symbol
 _atom_site_label
 _atom_site_symmetry_multiplicity
 _atom_site_fract_x
 _atom_site_fract_y
 _atom_site_fract_z
 _atom_site_occupancy
  Y  Y0  1  0.71546487  0.50204658  0.50197214  1
  Y  Y1  1  0.28453513  0.00204658  0.49802786  1
  Tl  Tl2  1  0.18368678  0.77975770  0.99231428  1
  Tl  Tl3  1  0.81631322  0.27975770  0.00768572  1
  P  P4  1  0.81244034  0.99082042  0.67551617  1
  P  P5  1  0.18755966  0.49082042  0.32448383  1
  P  P6  1  0.68967996  0.77192220  0.79584212  1
  P  P7  1  0.31032004  0.27192220  0.20415788  1
  Se  Se8  1  0.57549872  0.19048931  0.66982821  1
  Se  Se9  1  0.42450128  0.69048931  0.33017179  1
  Se  Se10  1  0.43164310  0.69140316  0.67198833  1
  Se  Se11  1  0.56835690  0.19140316  0.32801167  1
  Se  Se12  1  0.87055764  0.86682421  0.48398076  1
  Se  Se13  1  0.12944236  0.36682421  0.51601924  1
  Se  Se14  1  0.90004453  0.56124155  0.76723575  1
  Se  Se15  1  0.09995547  0.06124155  0.23276425  1
  Se  Se16  1  0.90868842  0.58747376  0.24427900  1
  Se  Se17  1  0.09131158  0.08747376  0.75572100  1
  Se  Se18  1  0.65280650  0.86391109  0.99022659  1
  Se  Se19  1  0.34719350  0.36391109  0.00977341  1
