# generated using pymatgen
data_Ho(Co2B)6
_symmetry_space_group_name_H-M   'P 1'
_cell_length_a   5.95301067
_cell_length_b   5.95301067
_cell_length_c   5.95301039
_cell_angle_alpha   104.03095884
_cell_angle_beta   104.03095884
_cell_angle_gamma   104.03095339
_symmetry_Int_Tables_number   1
_chemical_formula_structural   Ho(Co2B)6
_chemical_formula_sum   'Ho1 Co12 B6'
_cell_volume   188.12069555
_cell_formula_units_Z   1
loop_
 _symmetry_equiv_pos_site_id
 _symmetry_equiv_pos_as_xyz
  1  'x, y, z'
loop_
 _atom_site_type_symbol
 _atom_site_label
 _atom_site_symmetry_multiplicity
 _atom_site_fract_x
 _atom_site_fract_y
 _atom_site_fract_z
 _atom_site_occupancy
  Ho  Ho0  1  0.00000000  0.00000000  0.00000000  1
  Co  Co1  1  0.86767847  0.13232153  0.50000000  1
  Co  Co2  1  0.13232153  0.50000000  0.86767847  1
  Co  Co3  1  0.50000000  0.86767847  0.13232153  1
  Co  Co4  1  0.86767847  0.50000000  0.13232153  1
  Co  Co5  1  0.50000000  0.13232153  0.86767847  1
  Co  Co6  1  0.13232153  0.86767847  0.50000000  1
  Co  Co7  1  0.81406643  0.54492763  0.54492763  1
  Co  Co8  1  0.54492763  0.54492763  0.81406643  1
  Co  Co9  1  0.54492763  0.81406643  0.54492763  1
  Co  Co10  1  0.18593357  0.45507237  0.45507237  1
  Co  Co11  1  0.45507237  0.45507237  0.18593357  1
  Co  Co12  1  0.45507237  0.18593357  0.45507237  1
  B  B13  1  0.67884718  0.23329306  0.23329306  1
  B  B14  1  0.23329306  0.23329306  0.67884718  1
  B  B15  1  0.23329306  0.67884718  0.23329306  1
  B  B16  1  0.32115282  0.76670694  0.76670694  1
  B  B17  1  0.76670694  0.76670694  0.32115282  1
  B  B18  1  0.76670694  0.32115282  0.76670694  1
