# generated using pymatgen
data_RbCdGeAs2
_symmetry_space_group_name_H-M   'P 1'
_cell_length_a   8.53809378
_cell_length_b   8.70034670
_cell_length_c   8.92521479
_cell_angle_alpha   70.70215548
_cell_angle_beta   75.41338620
_cell_angle_gamma   73.14245222
_symmetry_Int_Tables_number   1
_chemical_formula_structural   RbCdGeAs2
_chemical_formula_sum   'Rb4 Cd4 Ge4 As8'
_cell_volume   589.86280415
_cell_formula_units_Z   4
loop_
 _symmetry_equiv_pos_site_id
 _symmetry_equiv_pos_as_xyz
  1  'x, y, z'
loop_
 _atom_site_type_symbol
 _atom_site_label
 _atom_site_symmetry_multiplicity
 _atom_site_fract_x
 _atom_site_fract_y
 _atom_site_fract_z
 _atom_site_occupancy
  Rb  Rb0  1  0.45383979  0.76562902  0.32099415  1
  Rb  Rb1  1  0.54616021  0.23437098  0.67900585  1
  Rb  Rb2  1  0.44003823  0.80040499  0.81329420  1
  Rb  Rb3  1  0.55996177  0.19959501  0.18670580  1
  Cd  Cd4  1  0.99485221  0.89718629  0.68782477  1
  Cd  Cd5  1  0.00514779  0.10281371  0.31217523  1
  Cd  Cd6  1  0.96854741  0.81928906  0.16948506  1
  Cd  Cd7  1  0.03145259  0.18071094  0.83051494  1
  Ge  Ge8  1  0.95919879  0.58671336  0.59733647  1
  Ge  Ge9  1  0.04080121  0.41328664  0.40266353  1
  Ge  Ge10  1  0.15230920  0.44876172  0.97520425  1
  Ge  Ge11  1  0.84769080  0.55123828  0.02479575  1
  As  As12  1  0.80821941  0.87185419  0.46246683  1
  As  As13  1  0.19178059  0.12814581  0.53753317  1
  As  As14  1  0.78248723  0.40691855  0.31663239  1
  As  As15  1  0.21751277  0.59308145  0.68336761  1
  As  As16  1  0.76843096  0.86401939  0.96256624  1
  As  As17  1  0.23156904  0.13598061  0.03743376  1
  As  As18  1  0.76657904  0.44830172  0.82982239  1
  As  As19  1  0.23342096  0.55169828  0.17017761  1
