# generated using pymatgen
data_Sr2YbMoO6
_symmetry_space_group_name_H-M   'P 1'
_cell_length_a   5.81473440
_cell_length_b   5.88766349
_cell_length_c   8.24913866
_cell_angle_alpha   90.00000000
_cell_angle_beta   90.28628546
_cell_angle_gamma   90.00000000
_symmetry_Int_Tables_number   1
_chemical_formula_structural   Sr2YbMoO6
_chemical_formula_sum   'Sr4 Yb2 Mo2 O12'
_cell_volume   282.40738177
_cell_formula_units_Z   2
loop_
 _symmetry_equiv_pos_site_id
 _symmetry_equiv_pos_as_xyz
  1  'x, y, z'
loop_
 _atom_site_type_symbol
 _atom_site_label
 _atom_site_symmetry_multiplicity
 _atom_site_fract_x
 _atom_site_fract_y
 _atom_site_fract_z
 _atom_site_occupancy
  Sr  Sr0  1  0.49144322  0.53991744  0.24966656  1
  Sr  Sr1  1  0.99144322  0.96008256  0.74966656  1
  Sr  Sr2  1  0.50855678  0.46008256  0.75033344  1
  Sr  Sr3  1  0.00855678  0.03991744  0.25033344  1
  Yb  Yb4  1  -0.00000000  0.50000000  0.50000000  1
  Yb  Yb5  1  0.50000000  -0.00000000  0.00000000  1
  Mo  Mo6  1  0.50000000  -0.00000000  0.50000000  1
  Mo  Mo7  1  -0.00000000  0.50000000  0.00000000  1
  O  O8  1  0.23142600  0.80836979  0.45817060  1
  O  O9  1  0.73142600  0.69163021  0.95817060  1
  O  O10  1  0.76857400  0.19163021  0.54182940  1
  O  O11  1  0.26857400  0.30836979  0.04182940  1
  O  O12  1  0.18684960  0.77046050  0.04621727  1
  O  O13  1  0.68684960  0.72953950  0.54621727  1
  O  O14  1  0.81315040  0.22953950  0.95378273  1
  O  O15  1  0.31315040  0.27046050  0.45378273  1
  O  O16  1  0.58286591  0.97570548  0.27110862  1
  O  O17  1  0.08286591  0.52429452  0.77110862  1
  O  O18  1  0.41713409  0.02429452  0.72889138  1
  O  O19  1  0.91713409  0.47570548  0.22889138  1
