# generated using pymatgen
data_LaCrTeO6
_symmetry_space_group_name_H-M   'P 1'
_cell_length_a   5.24948611
_cell_length_b   5.24984798
_cell_length_c   10.43672808
_cell_angle_alpha   89.99509455
_cell_angle_beta   89.99922994
_cell_angle_gamma   120.00074691
_symmetry_Int_Tables_number   1
_chemical_formula_structural   LaCrTeO6
_chemical_formula_sum   'La2 Cr2 Te2 O12'
_cell_volume   249.08940057
_cell_formula_units_Z   2
loop_
 _symmetry_equiv_pos_site_id
 _symmetry_equiv_pos_as_xyz
  1  'x, y, z'
loop_
 _atom_site_type_symbol
 _atom_site_label
 _atom_site_symmetry_multiplicity
 _atom_site_fract_x
 _atom_site_fract_y
 _atom_site_fract_z
 _atom_site_occupancy
  La  La0  1  -0.00000000  0.00000000  -0.00000000  1
  La  La1  1  -0.00000000  0.00000000  0.50000000  1
  Cr  Cr2  1  0.33330707  0.66666562  0.24998410  1
  Cr  Cr3  1  0.66669293  0.33333438  0.75001590  1
  Te  Te4  1  0.33336070  0.66665505  0.74999751  1
  Te  Te5  1  0.66663930  0.33334495  0.25000249  1
  O  O6  1  0.37478833  0.36487142  0.14481517  1
  O  O7  1  0.63522520  0.01006463  0.14480419  1
  O  O8  1  0.99009456  0.62534034  0.14480662  1
  O  O9  1  0.62521167  0.63512858  0.85518483  1
  O  O10  1  0.36477480  0.98993537  0.85519581  1
  O  O11  1  0.00990544  0.37465966  0.85519338  1
  O  O12  1  0.63516907  0.62524034  0.35516550  1
  O  O13  1  0.37473894  0.00995885  0.35513939  1
  O  O14  1  0.99002744  0.36480832  0.35513688  1
  O  O15  1  0.36483093  0.37475966  0.64483450  1
  O  O16  1  0.62526106  0.99004115  0.64486061  1
  O  O17  1  0.00997256  0.63519168  0.64486312  1
