# generated using pymatgen
data_Zr3Sb
_symmetry_space_group_name_H-M   'P 1'
_cell_length_a   5.71746976
_cell_length_b   8.57911832
_cell_length_c   8.57911832
_cell_angle_alpha   83.62498249
_cell_angle_beta   70.53566272
_cell_angle_gamma   70.53566272
_symmetry_Int_Tables_number   1
_chemical_formula_structural   Zr3Sb
_chemical_formula_sum   'Zr12 Sb4'
_cell_volume   374.08780854
_cell_formula_units_Z   4
loop_
 _symmetry_equiv_pos_site_id
 _symmetry_equiv_pos_as_xyz
  1  'x, y, z'
loop_
 _atom_site_type_symbol
 _atom_site_label
 _atom_site_symmetry_multiplicity
 _atom_site_fract_x
 _atom_site_fract_y
 _atom_site_fract_z
 _atom_site_occupancy
  Zr  Zr0  1  0.89105887  0.97568609  0.81326381  1
  Zr  Zr1  1  0.68000877  0.02431391  0.18673619  1
  Zr  Zr2  1  0.13325504  0.18673619  0.97568609  1
  Zr  Zr3  1  0.29567731  0.81326381  0.02431391  1
  Zr  Zr4  1  0.61962717  0.38160795  0.33329252  1
  Zr  Zr5  1  0.33452764  0.61839205  0.66670748  1
  Zr  Zr6  1  0.99876488  0.66670748  0.38160795  1
  Zr  Zr7  1  0.04708031  0.33329252  0.61839205  1
  Zr  Zr8  1  0.02151949  0.03099473  0.40201504  1
  Zr  Zr9  1  0.45452926  0.96900527  0.59798496  1
  Zr  Zr10  1  0.94748577  0.59798496  0.03099473  1
  Zr  Zr11  1  0.57646547  0.40201504  0.96900527  1
  Sb  Sb12  1  0.18442342  0.32443539  0.25574078  1
  Sb  Sb13  1  0.76459959  0.67556461  0.74425922  1
  Sb  Sb14  1  0.49114119  0.74425922  0.32443539  1
  Sb  Sb15  1  0.55983579  0.25574078  0.67556461  1
