# generated using pymatgen
data_BiI5
_symmetry_space_group_name_H-M   'P 1'
_cell_length_a   10.75158048
_cell_length_b   10.73138959
_cell_length_c   19.97317763
_cell_angle_alpha   101.53664632
_cell_angle_beta   105.74588089
_cell_angle_gamma   114.48786776
_symmetry_Int_Tables_number   1
_chemical_formula_structural   BiI5
_chemical_formula_sum   'Bi4 I20'
_cell_volume   1885.68509730
_cell_formula_units_Z   4
loop_
 _symmetry_equiv_pos_site_id
 _symmetry_equiv_pos_as_xyz
  1  'x, y, z'
loop_
 _atom_site_type_symbol
 _atom_site_label
 _atom_site_symmetry_multiplicity
 _atom_site_fract_x
 _atom_site_fract_y
 _atom_site_fract_z
 _atom_site_occupancy
  Bi  Bi0  1  0.09938211  0.06906593  0.15063290  1
  Bi  Bi1  1  0.48441353  0.47669392  0.18175832  1
  Bi  Bi2  1  0.49147865  0.47165066  0.67754314  1
  Bi  Bi3  1  0.09185566  0.07299205  0.64474094  1
  I  I4  1  0.96740756  0.95332224  0.48715184  1
  I  I5  1  0.80875473  0.03569546  0.67146949  1
  I  I6  1  0.50442450  0.74492570  0.15282999  1
  I  I7  1  0.16947946  0.39659286  0.66161008  1
  I  I8  1  0.84194913  0.04541726  0.19713970  1
  I  I9  1  0.05767244  0.79492923  0.67483651  1
  I  I10  1  0.05398438  0.77240224  0.17201661  1
  I  I11  1  0.41951032  0.14985152  0.16438780  1
  I  I12  1  0.39909915  0.38348712  0.97073628  1
  I  I13  1  0.16480266  0.15287735  0.85084682  1
  I  I14  1  0.52451186  0.75460443  0.65077171  1
  I  I15  1  0.40875355  0.35759405  0.46916766  1
  I  I16  1  0.95478039  0.94660555  0.99307144  1
  I  I17  1  0.61204132  0.59382658  0.33903751  1
  I  I18  1  0.16168484  0.38341441  0.16223134  1
  I  I19  1  0.76903325  0.51231547  0.15118345  1
  I  I20  1  0.76098312  0.49586764  0.64423660  1
  I  I21  1  0.62600810  0.59438685  0.83573841  1
  I  I22  1  0.13552386  0.19552505  0.34531672  1
  I  I23  1  0.41476542  0.15085644  0.66524474  1
