# generated using pymatgen
data_NbAlBr8
_symmetry_space_group_name_H-M   'P 1'
_cell_length_a   9.03975648
_cell_length_b   9.18173142
_cell_length_c   10.37528273
_cell_angle_alpha   90.00000000
_cell_angle_beta   115.82596416
_cell_angle_gamma   90.00000000
_symmetry_Int_Tables_number   1
_chemical_formula_structural   NbAlBr8
_chemical_formula_sum   'Nb2 Al2 Br16'
_cell_volume   775.14395977
_cell_formula_units_Z   2
loop_
 _symmetry_equiv_pos_site_id
 _symmetry_equiv_pos_as_xyz
  1  'x, y, z'
loop_
 _atom_site_type_symbol
 _atom_site_label
 _atom_site_symmetry_multiplicity
 _atom_site_fract_x
 _atom_site_fract_y
 _atom_site_fract_z
 _atom_site_occupancy
  Nb  Nb0  1  0.61020237  0.25000000  0.22040473  1
  Nb  Nb1  1  0.38979763  0.75000000  0.77959527  1
  Al  Al2  1  0.81301441  0.25000000  0.62602883  1
  Al  Al3  1  0.18698559  0.75000000  0.37397117  1
  Br  Br4  1  0.92818894  0.25000000  0.45814050  1
  Br  Br5  1  0.47004844  0.75000000  0.54185950  1
  Br  Br6  1  0.07181106  0.75000000  0.54185950  1
  Br  Br7  1  0.52995156  0.25000000  0.45814050  1
  Br  Br8  1  0.63087368  0.51674327  0.26174736  1
  Br  Br9  1  0.36912632  0.48325673  0.73825264  1
  Br  Br10  1  0.63087368  0.98325673  0.26174736  1
  Br  Br11  1  0.36912632  0.01674327  0.73825264  1
  Br  Br12  1  0.73951519  0.25000000  0.05955776  1
  Br  Br13  1  0.67995743  0.75000000  0.94044224  1
  Br  Br14  1  0.26048481  0.75000000  0.94044224  1
  Br  Br15  1  0.32004257  0.25000000  0.05955776  1
  Br  Br16  1  0.87947895  0.04165092  0.75895790  1
  Br  Br17  1  0.12052105  0.95834908  0.24104210  1
  Br  Br18  1  0.87947895  0.45834908  0.75895790  1
  Br  Br19  1  0.12052105  0.54165092  0.24104210  1
