# generated using pymatgen
data_YbH3CN3
_symmetry_space_group_name_H-M   'P 1'
_cell_length_a   5.21032815
_cell_length_b   5.21032815
_cell_length_c   6.55975634
_cell_angle_alpha   90.00000000
_cell_angle_beta   90.00000000
_cell_angle_gamma   120.00001015
_symmetry_Int_Tables_number   1
_chemical_formula_structural   YbH3CN3
_chemical_formula_sum   'Yb2 H6 C2 N6'
_cell_volume   154.22275172
_cell_formula_units_Z   2
loop_
 _symmetry_equiv_pos_site_id
 _symmetry_equiv_pos_as_xyz
  1  'x, y, z'
loop_
 _atom_site_type_symbol
 _atom_site_label
 _atom_site_symmetry_multiplicity
 _atom_site_fract_x
 _atom_site_fract_y
 _atom_site_fract_z
 _atom_site_occupancy
  Yb  Yb0  1  0.00000000  -0.00000000  0.50000000  1
  Yb  Yb1  1  0.00000000  -0.00000000  -0.00000000  1
  H  H2  1  0.09139247  0.56307489  0.75000000  1
  H  H3  1  0.43692511  0.52831758  0.75000000  1
  H  H4  1  0.47168242  0.90860753  0.75000000  1
  H  H5  1  0.90860753  0.43692511  0.25000000  1
  H  H6  1  0.56307489  0.47168242  0.25000000  1
  H  H7  1  0.52831758  0.09139247  0.25000000  1
  C  C8  1  0.66666600  0.33333300  0.75000000  1
  C  C9  1  0.33333400  0.66666700  0.25000000  1
  N  N10  1  0.91885024  0.60367760  0.75000000  1
  N  N11  1  0.39632240  0.31517264  0.75000000  1
  N  N12  1  0.68482736  0.08114976  0.75000000  1
  N  N13  1  0.08114976  0.39632240  0.25000000  1
  N  N14  1  0.60367760  0.68482736  0.25000000  1
  N  N15  1  0.31517264  0.91885024  0.25000000  1
