# generated using pymatgen
data_DyTl(PSe3)2
_symmetry_space_group_name_H-M   'P 1'
_cell_length_a   6.87366571
_cell_length_b   7.65402379
_cell_length_c   10.43181753
_cell_angle_alpha   90.00000000
_cell_angle_beta   91.06345887
_cell_angle_gamma   90.00000000
_symmetry_Int_Tables_number   1
_chemical_formula_structural   DyTl(PSe3)2
_chemical_formula_sum   'Dy2 Tl2 P4 Se12'
_cell_volume   548.73591233
_cell_formula_units_Z   2
loop_
 _symmetry_equiv_pos_site_id
 _symmetry_equiv_pos_as_xyz
  1  'x, y, z'
loop_
 _atom_site_type_symbol
 _atom_site_label
 _atom_site_symmetry_multiplicity
 _atom_site_fract_x
 _atom_site_fract_y
 _atom_site_fract_z
 _atom_site_occupancy
  Dy  Dy0  1  0.71721215  0.50327356  0.50217380  1
  Dy  Dy1  1  0.28278785  0.00327356  0.49782620  1
  Tl  Tl2  1  0.18360943  0.77988418  0.99237196  1
  Tl  Tl3  1  0.81639057  0.27988418  0.00762804  1
  P  P4  1  0.81351951  0.99031266  0.67312955  1
  P  P5  1  0.18648049  0.49031266  0.32687045  1
  P  P6  1  0.68943337  0.77233403  0.79365780  1
  P  P7  1  0.31056663  0.27233403  0.20634220  1
  Se  Se8  1  0.90941977  0.58698727  0.24709332  1
  Se  Se9  1  0.09058023  0.08698727  0.75290668  1
  Se  Se10  1  0.89873215  0.56014014  0.76597701  1
  Se  Se11  1  0.10126785  0.06014014  0.23402299  1
  Se  Se12  1  0.87300392  0.86439541  0.48286644  1
  Se  Se13  1  0.12699608  0.36439541  0.51713356  1
  Se  Se14  1  0.65298565  0.86445470  0.98704367  1
  Se  Se15  1  0.34701435  0.36445470  0.01295633  1
  Se  Se16  1  0.57614926  0.18996056  0.66614459  1
  Se  Se17  1  0.42385074  0.68996056  0.33385541  1
  Se  Se18  1  0.43383234  0.69523750  0.66788246  1
  Se  Se19  1  0.56616766  0.19523750  0.33211754  1
