# generated using pymatgen
data_ErTl(PSe3)2
_symmetry_space_group_name_H-M   'P 1'
_cell_length_a   6.82486470
_cell_length_b   7.59824286
_cell_length_c   10.35858145
_cell_angle_alpha   90.00000000
_cell_angle_beta   91.18735559
_cell_angle_gamma   90.00000000
_symmetry_Int_Tables_number   1
_chemical_formula_structural   ErTl(PSe3)2
_chemical_formula_sum   'Er2 Tl2 P4 Se12'
_cell_volume   537.04940598
_cell_formula_units_Z   2
loop_
 _symmetry_equiv_pos_site_id
 _symmetry_equiv_pos_as_xyz
  1  'x, y, z'
loop_
 _atom_site_type_symbol
 _atom_site_label
 _atom_site_symmetry_multiplicity
 _atom_site_fract_x
 _atom_site_fract_y
 _atom_site_fract_z
 _atom_site_occupancy
  Er  Er0  1  0.71589387  0.50212015  0.50189137  1
  Er  Er1  1  0.28410613  0.00212015  0.49810863  1
  Tl  Tl2  1  0.18139886  0.77873318  0.99212255  1
  Tl  Tl3  1  0.81860114  0.27873318  0.00787745  1
  P  P4  1  0.81293695  0.99046552  0.67509874  1
  P  P5  1  0.18706305  0.49046552  0.32490126  1
  P  P6  1  0.68865485  0.77040349  0.79454997  1
  P  P7  1  0.31134515  0.27040349  0.20545003  1
  Se  Se8  1  0.90634423  0.58677382  0.24500974  1
  Se  Se9  1  0.09365577  0.08677382  0.75499026  1
  Se  Se10  1  0.89984495  0.55834415  0.76607362  1
  Se  Se11  1  0.10015505  0.05834415  0.23392638  1
  Se  Se12  1  0.57472448  0.19109606  0.66762986  1
  Se  Se13  1  0.42527552  0.69109606  0.33237014  1
  Se  Se14  1  0.65126382  0.86316559  0.99013054  1
  Se  Se15  1  0.34873618  0.36316559  0.00986946  1
  Se  Se16  1  0.43060382  0.69073085  0.66915712  1
  Se  Se17  1  0.56939618  0.19073085  0.33084288  1
  Se  Se18  1  0.87299901  0.86396719  0.48396407  1
  Se  Se19  1  0.12700099  0.36396719  0.51603593  1
