# generated using pymatgen
data_NaOsO3
_symmetry_space_group_name_H-M   'P 1'
_cell_length_a   5.37744404
_cell_length_b   5.43265609
_cell_length_c   7.64807245
_cell_angle_alpha   90.00000000
_cell_angle_beta   90.00000000
_cell_angle_gamma   90.00000000
_symmetry_Int_Tables_number   1
_chemical_formula_structural   NaOsO3
_chemical_formula_sum   'Na4 Os4 O12'
_cell_volume   223.42929039
_cell_formula_units_Z   4
loop_
 _symmetry_equiv_pos_site_id
 _symmetry_equiv_pos_as_xyz
  1  'x, y, z'
loop_
 _atom_site_type_symbol
 _atom_site_label
 _atom_site_symmetry_multiplicity
 _atom_site_fract_x
 _atom_site_fract_y
 _atom_site_fract_z
 _atom_site_occupancy
  Na  Na0  1  0.50798611  0.53200946  0.25000000  1
  Na  Na1  1  0.99201389  0.03200946  0.25000000  1
  Na  Na2  1  0.49201389  0.46799054  0.75000000  1
  Na  Na3  1  0.00798611  0.96799054  0.75000000  1
  Os  Os4  1  -0.00000000  0.50000000  -0.00000000  1
  Os  Os5  1  0.50000000  -0.00000000  0.50000000  1
  Os  Os6  1  -0.00000000  0.50000000  0.50000000  1
  Os  Os7  1  0.50000000  -0.00000000  0.00000000  1
  O  O8  1  0.41601784  0.99137772  0.25000000  1
  O  O9  1  0.08398216  0.49137772  0.25000000  1
  O  O10  1  0.58398216  0.00862228  0.75000000  1
  O  O11  1  0.91601784  0.50862228  0.75000000  1
  O  O12  1  0.78995131  0.78879871  0.04040534  1
  O  O13  1  0.71004869  0.28879871  0.45959466  1
  O  O14  1  0.21004869  0.21120129  0.54040534  1
  O  O15  1  0.28995131  0.71120129  0.95959466  1
  O  O16  1  0.21004869  0.21120129  0.95959466  1
  O  O17  1  0.28995131  0.71120129  0.54040534  1
  O  O18  1  0.78995131  0.78879871  0.45959466  1
  O  O19  1  0.71004869  0.28879871  0.04040534  1
