# generated using pymatgen
data_Ba(AsO3)2
_symmetry_space_group_name_H-M   'P 1'
_cell_length_a   5.07886446
_cell_length_b   5.87001787
_cell_length_c   9.81369485
_cell_angle_alpha   106.28290251
_cell_angle_beta   103.71896981
_cell_angle_gamma   94.14251627
_symmetry_Int_Tables_number   1
_chemical_formula_structural   Ba(AsO3)2
_chemical_formula_sum   'Ba2 As4 O12'
_cell_volume   269.79197400
_cell_formula_units_Z   2
loop_
 _symmetry_equiv_pos_site_id
 _symmetry_equiv_pos_as_xyz
  1  'x, y, z'
loop_
 _atom_site_type_symbol
 _atom_site_label
 _atom_site_symmetry_multiplicity
 _atom_site_fract_x
 _atom_site_fract_y
 _atom_site_fract_z
 _atom_site_occupancy
  Ba  Ba0  1  0.89508567  0.14508567  0.29017133  1
  Ba  Ba1  1  0.10491433  0.85491433  0.70982867  1
  As  As2  1  0.28424353  0.53424353  0.06848707  1
  As  As3  1  0.71575647  0.46575647  0.93151293  1
  As  As4  1  0.43757233  0.68757233  0.37514466  1
  As  As5  1  0.56242767  0.31242767  0.62485534  1
  O  O6  1  0.95927415  0.35256455  0.06173706  1
  O  O7  1  0.60246291  0.70917251  0.06173706  1
  O  O8  1  0.04072585  0.64743545  0.93826294  1
  O  O9  1  0.39753709  0.29082749  0.93826294  1
  O  O10  1  0.46994016  0.43129315  0.23100145  1
  O  O11  1  0.26106129  0.79970830  0.23100145  1
  O  O12  1  0.53005984  0.56870685  0.76899855  1
  O  O13  1  0.73893871  0.20029170  0.76899855  1
  O  O14  1  0.23231037  0.58824493  0.46455121  1
  O  O15  1  0.73224084  0.87630627  0.46455121  1
  O  O16  1  0.76768963  0.41175507  0.53544879  1
  O  O17  1  0.26775916  0.12369373  0.53544879  1
