# generated using pymatgen
data_LiFeF4
_symmetry_space_group_name_H-M   'P 1'
_cell_length_a   9.84756663
_cell_length_b   8.45545674
_cell_length_c   7.63416130
_cell_angle_alpha   90.00000000
_cell_angle_beta   90.00000000
_cell_angle_gamma   90.00000000
_symmetry_Int_Tables_number   1
_chemical_formula_structural   LiFeF4
_chemical_formula_sum   'Li8 Fe8 F32'
_cell_volume   635.66358328
_cell_formula_units_Z   8
loop_
 _symmetry_equiv_pos_site_id
 _symmetry_equiv_pos_as_xyz
  1  'x, y, z'
loop_
 _atom_site_type_symbol
 _atom_site_label
 _atom_site_symmetry_multiplicity
 _atom_site_fract_x
 _atom_site_fract_y
 _atom_site_fract_z
 _atom_site_occupancy
  Li  Li0  1  0.24333667  0.53089457  0.10968030  1
  Li  Li1  1  0.24333667  0.96910543  0.10968030  1
  Li  Li2  1  0.25666333  0.03089457  0.60968030  1
  Li  Li3  1  0.25666333  0.46910543  0.60968030  1
  Li  Li4  1  0.74333667  0.96910543  0.39031970  1
  Li  Li5  1  0.74333667  0.53089457  0.39031970  1
  Li  Li6  1  0.75666333  0.46910543  0.89031970  1
  Li  Li7  1  0.75666333  0.03089457  0.89031970  1
  Fe  Fe8  1  0.03104604  0.75000000  0.35900431  1
  Fe  Fe9  1  0.09268418  0.75000000  0.77854402  1
  Fe  Fe10  1  0.40731582  0.25000000  0.27854402  1
  Fe  Fe11  1  0.46895396  0.25000000  0.85900431  1
  Fe  Fe12  1  0.53104604  0.75000000  0.14099569  1
  Fe  Fe13  1  0.59268418  0.75000000  0.72145598  1
  Fe  Fe14  1  0.90731582  0.25000000  0.22145598  1
  Fe  Fe15  1  0.96895396  0.25000000  0.64099569  1
  F  F16  1  0.07399510  0.91113208  0.20491896  1
  F  F17  1  0.07399510  0.58886792  0.20491896  1
  F  F18  1  0.09385416  0.60907799  0.55844836  1
  F  F19  1  0.09385416  0.89092201  0.55844836  1
  F  F20  1  0.07981139  0.25000000  0.13616678  1
  F  F21  1  0.15927980  0.25000000  0.63756769  1
  F  F22  1  0.19817765  0.58021365  0.86387537  1
  F  F23  1  0.19817765  0.91978635  0.86387537  1
  F  F24  1  0.30182235  0.08021365  0.36387537  1
  F  F25  1  0.30182235  0.41978635  0.36387537  1
  F  F26  1  0.34072020  0.75000000  0.13756769  1
  F  F27  1  0.42018861  0.75000000  0.63616678  1
  F  F28  1  0.40614584  0.10907799  0.05844836  1
  F  F29  1  0.40614584  0.39092201  0.05844836  1
  F  F30  1  0.42600490  0.08886792  0.70491896  1
  F  F31  1  0.42600490  0.41113208  0.70491896  1
  F  F32  1  0.57399510  0.58886792  0.29508104  1
  F  F33  1  0.57399510  0.91113208  0.29508104  1
  F  F34  1  0.59385416  0.60907799  0.94155164  1
  F  F35  1  0.59385416  0.89092201  0.94155164  1
  F  F36  1  0.57981139  0.25000000  0.36383322  1
  F  F37  1  0.65927980  0.25000000  0.86243231  1
  F  F38  1  0.69817765  0.58021365  0.63612463  1
  F  F39  1  0.69817765  0.91978635  0.63612463  1
  F  F40  1  0.80182235  0.08021365  0.13612463  1
  F  F41  1  0.80182235  0.41978635  0.13612463  1
  F  F42  1  0.84072020  0.75000000  0.36243231  1
  F  F43  1  0.92018861  0.75000000  0.86383322  1
  F  F44  1  0.90614584  0.10907799  0.44155164  1
  F  F45  1  0.90614584  0.39092201  0.44155164  1
  F  F46  1  0.92600490  0.08886792  0.79508104  1
  F  F47  1  0.92600490  0.41113208  0.79508104  1
