# generated using pymatgen
data_Lu5(TeAu)2
_symmetry_space_group_name_H-M   'P 1'
_cell_length_a   7.83582095
_cell_length_b   7.82693208
_cell_length_c   8.56946877
_cell_angle_alpha   90.00000000
_cell_angle_beta   117.20619122
_cell_angle_gamma   90.00000000
_symmetry_Int_Tables_number   1
_chemical_formula_structural   Lu5(TeAu)2
_chemical_formula_sum   'Lu10 Te4 Au4'
_cell_volume   467.42395752
_cell_formula_units_Z   2
loop_
 _symmetry_equiv_pos_site_id
 _symmetry_equiv_pos_as_xyz
  1  'x, y, z'
loop_
 _atom_site_type_symbol
 _atom_site_label
 _atom_site_symmetry_multiplicity
 _atom_site_fract_x
 _atom_site_fract_y
 _atom_site_fract_z
 _atom_site_occupancy
  Lu  Lu0  1  0.50000000  0.50000000  0.00000000  1
  Lu  Lu1  1  0.00000000  0.00000000  0.00000000  1
  Lu  Lu2  1  0.04021744  0.66075035  0.75611739  1
  Lu  Lu3  1  0.71589995  0.33924965  0.75611739  1
  Lu  Lu4  1  0.21589995  0.16075035  0.75611739  1
  Lu  Lu5  1  0.54021744  0.83924965  0.75611739  1
  Lu  Lu6  1  0.95978256  0.33924965  0.24388261  1
  Lu  Lu7  1  0.28410005  0.66075035  0.24388261  1
  Lu  Lu8  1  0.78410005  0.83924965  0.24388261  1
  Lu  Lu9  1  0.45978256  0.16075035  0.24388261  1
  Te  Te10  1  0.29159623  0.50000000  0.58319246  1
  Te  Te11  1  0.79159623  0.00000000  0.58319246  1
  Te  Te12  1  0.70840377  0.50000000  0.41680754  1
  Te  Te13  1  0.20840377  0.00000000  0.41680754  1
  Au  Au14  1  0.36342058  0.86511748  1.00000000  1
  Au  Au15  1  0.63657942  0.13488252  0.00000000  1
  Au  Au16  1  0.13657942  0.36511748  0.00000000  1
  Au  Au17  1  0.86342058  0.63488252  1.00000000  1
