# generated using pymatgen
data_ErCrTeO6
_symmetry_space_group_name_H-M   'P 1'
_cell_length_a   5.18956120
_cell_length_b   5.18959512
_cell_length_c   9.69649321
_cell_angle_alpha   89.99991925
_cell_angle_beta   90.00004030
_cell_angle_gamma   120.00021159
_symmetry_Int_Tables_number   1
_chemical_formula_structural   ErCrTeO6
_chemical_formula_sum   'Er2 Cr2 Te2 O12'
_cell_volume   226.15620993
_cell_formula_units_Z   2
loop_
 _symmetry_equiv_pos_site_id
 _symmetry_equiv_pos_as_xyz
  1  'x, y, z'
loop_
 _atom_site_type_symbol
 _atom_site_label
 _atom_site_symmetry_multiplicity
 _atom_site_fract_x
 _atom_site_fract_y
 _atom_site_fract_z
 _atom_site_occupancy
  Er  Er0  1  0.00000000  -0.00000000  -0.00000000  1
  Er  Er1  1  0.00000000  -0.00000000  0.50000000  1
  Cr  Cr2  1  0.33332448  0.66666224  0.25000000  1
  Cr  Cr3  1  0.66667552  0.33333776  0.75000000  1
  Te  Te4  1  0.33337850  0.66668925  0.75000000  1
  Te  Te5  1  0.66662150  0.33331075  0.25000000  1
  O  O6  1  0.36302883  0.35257187  0.13850171  1
  O  O7  1  0.64739267  0.01044964  0.13850188  1
  O  O8  1  0.98951742  0.63693643  0.13850166  1
  O  O9  1  0.63697117  0.64742813  0.86149829  1
  O  O10  1  0.35260733  0.98955036  0.86149812  1
  O  O11  1  0.01048258  0.36306357  0.86149834  1
  O  O12  1  0.64739267  0.63694304  0.36149812  1
  O  O13  1  0.36302883  0.01045696  0.36149829  1
  O  O14  1  0.98951742  0.35258099  0.36149834  1
  O  O15  1  0.35260733  0.36305696  0.63850188  1
  O  O16  1  0.63697117  0.98954304  0.63850171  1
  O  O17  1  0.01048258  0.64741901  0.63850166  1
