# generated using pymatgen
data_BaHf(BO3)2
_symmetry_space_group_name_H-M   'P 1'
_cell_length_a   5.19131726
_cell_length_b   5.19131726
_cell_length_c   11.85158065
_cell_angle_alpha   77.34888833
_cell_angle_beta   77.34888833
_cell_angle_gamma   60.00000363
_symmetry_Int_Tables_number   1
_chemical_formula_structural   BaHf(BO3)2
_chemical_formula_sum   'Ba2 Hf2 B4 O12'
_cell_volume   267.61483899
_cell_formula_units_Z   2
loop_
 _symmetry_equiv_pos_site_id
 _symmetry_equiv_pos_as_xyz
  1  'x, y, z'
loop_
 _atom_site_type_symbol
 _atom_site_label
 _atom_site_symmetry_multiplicity
 _atom_site_fract_x
 _atom_site_fract_y
 _atom_site_fract_z
 _atom_site_occupancy
  Ba  Ba0  1  0.49990704  0.49990704  0.50027887  1
  Ba  Ba1  1  0.99990704  0.99990704  0.00027887  1
  Hf  Hf2  1  0.25094435  0.25094435  0.24716695  1
  Hf  Hf3  1  0.75094435  0.75094435  0.74716695  1
  B  B4  1  0.38307568  0.38307568  0.85077296  1
  B  B5  1  0.88307568  0.88307568  0.35077296  1
  B  B6  1  0.11960872  0.11960872  0.64117383  1
  B  B7  1  0.61960872  0.61960872  0.14117383  1
  O  O8  1  0.59401035  0.08359556  0.85321490  1
  O  O9  1  0.08359556  0.46917920  0.85321490  1
  O  O10  1  0.46917919  0.59401035  0.85321490  1
  O  O11  1  0.09401035  0.96917919  0.35321490  1
  O  O12  1  0.96917920  0.58359556  0.35321490  1
  O  O13  1  0.58359556  0.09401035  0.35321490  1
  O  O14  1  0.01860623  0.92115799  0.63801090  1
  O  O15  1  0.92115799  0.42222488  0.63801090  1
  O  O16  1  0.42222488  0.01860623  0.63801090  1
  O  O17  1  0.51860623  0.92222488  0.13801090  1
  O  O18  1  0.92222488  0.42115799  0.13801090  1
  O  O19  1  0.42115799  0.51860623  0.13801090  1
