# generated using pymatgen
data_Li2CuBi(PO4)2
_symmetry_space_group_name_H-M   'P 1'
_cell_length_a   11.00225827
_cell_length_b   6.42308554
_cell_length_c   4.83658340
_cell_angle_alpha   90.00000000
_cell_angle_beta   89.72155439
_cell_angle_gamma   90.00000000
_symmetry_Int_Tables_number   1
_chemical_formula_structural   Li2CuBi(PO4)2
_chemical_formula_sum   'Li4 Cu2 Bi2 P4 O16'
_cell_volume   341.78979647
_cell_formula_units_Z   2
loop_
 _symmetry_equiv_pos_site_id
 _symmetry_equiv_pos_as_xyz
  1  'x, y, z'
loop_
 _atom_site_type_symbol
 _atom_site_label
 _atom_site_symmetry_multiplicity
 _atom_site_fract_x
 _atom_site_fract_y
 _atom_site_fract_z
 _atom_site_occupancy
  Li  Li0  1  0.00000000  0.00000000  0.00000000  1
  Li  Li1  1  0.00000000  0.50000000  0.00000000  1
  Li  Li2  1  0.50000000  0.00000000  0.50000000  1
  Li  Li3  1  0.50000000  0.50000000  0.50000000  1
  Cu  Cu4  1  0.29535287  0.25000000  0.96981832  1
  Cu  Cu5  1  0.70464713  0.75000000  0.03018168  1
  Bi  Bi6  1  0.21876641  0.75000000  0.47873678  1
  Bi  Bi7  1  0.78123359  0.25000000  0.52126322  1
  P  P8  1  0.08631572  0.25000000  0.39700770  1
  P  P9  1  0.41621518  0.75000000  0.91177574  1
  P  P10  1  0.58378482  0.25000000  0.08822426  1
  P  P11  1  0.91368428  0.75000000  0.60299230  1
  O  O12  1  0.04408699  0.75000000  0.74683352  1
  O  O13  1  0.07860421  0.25000000  0.71003963  1
  O  O14  1  0.15132321  0.05565880  0.26830872  1
  O  O15  1  0.15132321  0.44434120  0.26830872  1
  O  O16  1  0.34241183  0.55640772  0.79438902  1
  O  O17  1  0.34241183  0.94359228  0.79438902  1
  O  O18  1  0.41889095  0.75000000  0.23144948  1
  O  O19  1  0.45718652  0.25000000  0.22522622  1
  O  O20  1  0.54281348  0.75000000  0.77477378  1
  O  O21  1  0.58110905  0.25000000  0.76855052  1
  O  O22  1  0.65758817  0.05640772  0.20561098  1
  O  O23  1  0.65758817  0.44359228  0.20561098  1
  O  O24  1  0.84867679  0.55565880  0.73169128  1
  O  O25  1  0.84867679  0.94434120  0.73169128  1
  O  O26  1  0.92139579  0.75000000  0.28996037  1
  O  O27  1  0.95591301  0.25000000  0.25316648  1
