# generated using pymatgen
data_Pr5As2ClO10
_symmetry_space_group_name_H-M   'P 1'
_cell_length_a   5.78296049
_cell_length_b   6.94793813
_cell_length_c   9.01170245
_cell_angle_alpha   69.16725136
_cell_angle_beta   71.28515902
_cell_angle_gamma   65.40737692
_symmetry_Int_Tables_number   1
_chemical_formula_structural   Pr5As2ClO10
_chemical_formula_sum   'Pr5 As2 Cl1 O10'
_cell_volume   301.28478302
_cell_formula_units_Z   1
loop_
 _symmetry_equiv_pos_site_id
 _symmetry_equiv_pos_as_xyz
  1  'x, y, z'
loop_
 _atom_site_type_symbol
 _atom_site_label
 _atom_site_symmetry_multiplicity
 _atom_site_fract_x
 _atom_site_fract_y
 _atom_site_fract_z
 _atom_site_occupancy
  Pr  Pr0  1  0.00000000  -0.00000000  -0.00000000  1
  Pr  Pr1  1  0.25223684  0.36627285  0.12925348  1
  Pr  Pr2  1  0.74776316  0.63372715  0.87074652  1
  Pr  Pr3  1  0.49976325  0.29243972  0.70803378  1
  Pr  Pr4  1  0.50023675  0.70756028  0.29196622  1
  As  As5  1  0.21535324  0.95987117  0.60942235  1
  As  As6  1  0.78464676  0.04012883  0.39057765  1
  Cl  Cl7  1  0.00000000  0.50000000  0.50000000  1
  O  O8  1  0.86673159  0.67528835  0.08379933  1
  O  O9  1  0.37418073  0.67528835  0.08379933  1
  O  O10  1  0.13326841  0.32471165  0.91620067  1
  O  O11  1  0.62581927  0.32471165  0.91620067  1
  O  O12  1  0.35900341  0.67869718  0.60329601  1
  O  O13  1  0.64099659  0.32130282  0.39670399  1
  O  O14  1  0.09292491  0.03677030  0.24647308  1
  O  O15  1  0.62383170  0.03677030  0.24647308  1
  O  O16  1  0.90707509  0.96322970  0.75352692  1
  O  O17  1  0.37616830  0.96322970  0.75352692  1
