# generated using pymatgen
data_HgAs2H2F14
_symmetry_space_group_name_H-M   'P 1'
_cell_length_a   5.03278706
_cell_length_b   6.68005767
_cell_length_c   7.84268759
_cell_angle_alpha   86.13193152
_cell_angle_beta   79.76811417
_cell_angle_gamma   78.66981075
_symmetry_Int_Tables_number   1
_chemical_formula_structural   HgAs2H2F14
_chemical_formula_sum   'Hg1 As2 H2 F14'
_cell_volume   254.27094129
_cell_formula_units_Z   1
loop_
 _symmetry_equiv_pos_site_id
 _symmetry_equiv_pos_as_xyz
  1  'x, y, z'
loop_
 _atom_site_type_symbol
 _atom_site_label
 _atom_site_symmetry_multiplicity
 _atom_site_fract_x
 _atom_site_fract_y
 _atom_site_fract_z
 _atom_site_occupancy
  Hg  Hg0  1  -0.00000000  0.00000000  0.00000000  1
  As  As1  1  0.63090664  0.72553420  0.72475789  1
  As  As2  1  0.36909336  0.27446580  0.27524211  1
  H  H3  1  0.04749325  0.38726570  0.81732013  1
  H  H4  1  0.95250675  0.61273430  0.18267987  1
  F  F5  1  0.55994119  0.48560298  0.69707588  1
  F  F6  1  0.44005881  0.51439702  0.30292412  1
  F  F7  1  0.34852960  0.85887459  0.63786562  1
  F  F8  1  0.65147040  0.14112541  0.36213438  1
  F  F9  1  0.85840899  0.72563453  0.53180993  1
  F  F10  1  0.14159101  0.27436547  0.46819007  1
  F  F11  1  0.41124856  0.73509244  0.93800701  1
  F  F12  1  0.58875144  0.26490756  0.06199299  1
  F  F13  1  0.71547386  0.96077211  0.78150758  1
  F  F14  1  0.28452614  0.03922789  0.21849242  1
  F  F15  1  0.91209676  0.59756604  0.83774720  1
  F  F16  1  0.08790324  0.40243396  0.16225280  1
  F  F17  1  0.14904564  0.24252046  0.81216107  1
  F  F18  1  0.85095436  0.75747954  0.18783893  1
