# generated using pymatgen
data_Rb2Hg3Se4
_symmetry_space_group_name_H-M   'P 1'
_cell_length_a   6.68524034
_cell_length_b   10.09803534
_cell_length_c   10.09803534
_cell_angle_alpha   72.90888994
_cell_angle_beta   70.66949231
_cell_angle_gamma   70.66949231
_symmetry_Int_Tables_number   1
_chemical_formula_structural   Rb2Hg3Se4
_chemical_formula_sum   'Rb4 Hg6 Se8'
_cell_volume   593.85390035
_cell_formula_units_Z   2
loop_
 _symmetry_equiv_pos_site_id
 _symmetry_equiv_pos_as_xyz
  1  'x, y, z'
loop_
 _atom_site_type_symbol
 _atom_site_label
 _atom_site_symmetry_multiplicity
 _atom_site_fract_x
 _atom_site_fract_y
 _atom_site_fract_z
 _atom_site_occupancy
  Rb  Rb0  1  0.22914993  0.87968720  0.12031280  1
  Rb  Rb1  1  0.77085007  0.12031280  0.87968720  1
  Rb  Rb2  1  0.27085007  0.37968720  0.62031280  1
  Rb  Rb3  1  0.72914993  0.62031280  0.37968720  1
  Hg  Hg4  1  0.25000000  0.25000000  0.25000000  1
  Hg  Hg5  1  0.75000000  0.75000000  0.75000000  1
  Hg  Hg6  1  0.25000000  0.58572897  0.91427103  1
  Hg  Hg7  1  0.25000000  0.91427103  0.58572897  1
  Hg  Hg8  1  0.75000000  0.41427103  0.08572897  1
  Hg  Hg9  1  0.75000000  0.08572897  0.41427103  1
  Se  Se10  1  0.35985193  0.49484035  0.23257493  1
  Se  Se11  1  0.91273280  0.23257493  0.49484035  1
  Se  Se12  1  0.14014807  0.26742507  0.00515965  1
  Se  Se13  1  0.58726720  0.00515965  0.26742507  1
  Se  Se14  1  0.64014807  0.50515965  0.76742507  1
  Se  Se15  1  0.08726720  0.76742507  0.50515965  1
  Se  Se16  1  0.85985193  0.73257493  0.99484035  1
  Se  Se17  1  0.41273280  0.99484035  0.73257493  1
