# generated using pymatgen
data_KCdGeAs2
_symmetry_space_group_name_H-M   'P 1'
_cell_length_a   8.24437081
_cell_length_b   8.61204655
_cell_length_c   8.86914979
_cell_angle_alpha   70.76196966
_cell_angle_beta   75.33114060
_cell_angle_gamma   73.34946343
_symmetry_Int_Tables_number   1
_chemical_formula_structural   KCdGeAs2
_chemical_formula_sum   'K4 Cd4 Ge4 As8'
_cell_volume   560.77475311
_cell_formula_units_Z   4
loop_
 _symmetry_equiv_pos_site_id
 _symmetry_equiv_pos_as_xyz
  1  'x, y, z'
loop_
 _atom_site_type_symbol
 _atom_site_label
 _atom_site_symmetry_multiplicity
 _atom_site_fract_x
 _atom_site_fract_y
 _atom_site_fract_z
 _atom_site_occupancy
  K  K0  1  0.45791205  0.76484340  0.32258920  1
  K  K1  1  0.54208795  0.23515660  0.67741080  1
  K  K2  1  0.44164631  0.80241528  0.81018047  1
  K  K3  1  0.55835369  0.19758472  0.18981953  1
  Cd  Cd4  1  0.99386894  0.89752713  0.68641858  1
  Cd  Cd5  1  0.00613106  0.10247287  0.31358142  1
  Cd  Cd6  1  0.97225552  0.82345000  0.16730654  1
  Cd  Cd7  1  0.02774448  0.17655000  0.83269346  1
  Ge  Ge8  1  0.95643373  0.58587645  0.59859279  1
  Ge  Ge9  1  0.04356627  0.41412355  0.40140721  1
  Ge  Ge10  1  0.15686190  0.44885161  0.97440219  1
  Ge  Ge11  1  0.84313810  0.55114839  0.02559781  1
  As  As12  1  0.79933741  0.87198087  0.46330770  1
  As  As13  1  0.20066259  0.12801913  0.53669230  1
  As  As14  1  0.77538689  0.40700984  0.31936568  1
  As  As15  1  0.22461311  0.59299016  0.68063432  1
  As  As16  1  0.76085866  0.86667075  0.96416408  1
  As  As17  1  0.23914134  0.13332925  0.03583592  1
  As  As18  1  0.75584849  0.44719367  0.83265394  1
  As  As19  1  0.24415151  0.55280633  0.16734606  1
