# generated using pymatgen
data_Tb7FeI12
_symmetry_space_group_name_H-M   'P 1'
_cell_length_a   9.71432856
_cell_length_b   9.71432856
_cell_length_c   9.71432904
_cell_angle_alpha   106.89174274
_cell_angle_beta   106.89174274
_cell_angle_gamma   106.89174486
_symmetry_Int_Tables_number   1
_chemical_formula_structural   Tb7FeI12
_chemical_formula_sum   'Tb7 Fe1 I12'
_cell_volume   765.69953086
_cell_formula_units_Z   1
loop_
 _symmetry_equiv_pos_site_id
 _symmetry_equiv_pos_as_xyz
  1  'x, y, z'
loop_
 _atom_site_type_symbol
 _atom_site_label
 _atom_site_symmetry_multiplicity
 _atom_site_fract_x
 _atom_site_fract_y
 _atom_site_fract_z
 _atom_site_occupancy
  Tb  Tb0  1  0.50000000  0.50000000  0.50000000  1
  Tb  Tb1  1  0.29056668  0.09288224  0.02370248  1
  Tb  Tb2  1  0.09288224  0.02370248  0.29056668  1
  Tb  Tb3  1  0.02370248  0.29056668  0.09288224  1
  Tb  Tb4  1  0.70943332  0.90711776  0.97629752  1
  Tb  Tb5  1  0.90711776  0.97629752  0.70943332  1
  Tb  Tb6  1  0.97629752  0.70943332  0.90711776  1
  Fe  Fe7  1  -0.00000000  0.00000000  -0.00000000  1
  I  I8  1  0.38869402  0.46659906  0.15987510  1
  I  I9  1  0.46659906  0.15987510  0.38869402  1
  I  I10  1  0.15987510  0.38869402  0.46659906  1
  I  I11  1  0.61130598  0.53340094  0.84012490  1
  I  I12  1  0.53340094  0.84012490  0.61130598  1
  I  I13  1  0.84012490  0.61130598  0.53340094  1
  I  I14  1  0.32007279  0.77332524  0.92725749  1
  I  I15  1  0.77332524  0.92725749  0.32007279  1
  I  I16  1  0.92725749  0.32007279  0.77332524  1
  I  I17  1  0.67992721  0.22667476  0.07274251  1
  I  I18  1  0.22667476  0.07274251  0.67992721  1
  I  I19  1  0.07274251  0.67992721  0.22667476  1
