# generated using pymatgen
data_Lu5Ge3C
_symmetry_space_group_name_H-M   'P 1'
_cell_length_a   6.30019673
_cell_length_b   8.32077444
_cell_length_c   8.31437108
_cell_angle_alpha   120.02548020
_cell_angle_beta   90.00000000
_cell_angle_gamma   90.00000000
_symmetry_Int_Tables_number   1
_chemical_formula_structural   Lu5Ge3C
_chemical_formula_sum   'Lu10 Ge6 C2'
_cell_volume   377.36909550
_cell_formula_units_Z   2
loop_
 _symmetry_equiv_pos_site_id
 _symmetry_equiv_pos_as_xyz
  1  'x, y, z'
loop_
 _atom_site_type_symbol
 _atom_site_label
 _atom_site_symmetry_multiplicity
 _atom_site_fract_x
 _atom_site_fract_y
 _atom_site_fract_z
 _atom_site_occupancy
  Lu  Lu0  1  0.49999910  0.33342513  0.66689636  1
  Lu  Lu1  1  0.49999910  0.66652877  0.33310364  1
  Lu  Lu2  1  0.99999910  0.66657487  0.33310364  1
  Lu  Lu3  1  0.99999910  0.33347123  0.66689636  1
  Lu  Lu4  1  0.74998973  0.22099595  0.00000000  1
  Lu  Lu5  1  0.75000700  0.77926143  0.77945764  1
  Lu  Lu6  1  0.75000700  0.99980379  0.22054236  1
  Lu  Lu7  1  0.24998973  0.77900405  1.00000000  1
  Lu  Lu8  1  0.25000700  0.22073857  0.22054236  1
  Lu  Lu9  1  0.25000700  0.00019621  0.77945764  1
  Ge  Ge10  1  0.75002690  0.59320690  0.00000000  1
  Ge  Ge11  1  0.74998396  0.40700093  0.40696851  1
  Ge  Ge12  1  0.74998396  0.00003242  0.59303149  1
  Ge  Ge13  1  0.25002690  0.40679310  1.00000000  1
  Ge  Ge14  1  0.24998396  0.59299907  0.59303149  1
  Ge  Ge15  1  0.24998396  0.99996758  0.40696851  1
  C  C16  1  0.50000326  0.99999407  0.00000000  1
  C  C17  1  0.00000326  0.00000593  -0.00000000  1
