# generated using pymatgen
data_TaMnSi
_symmetry_space_group_name_H-M   'P 1'
_cell_length_a   6.39846949
_cell_length_b   7.05127232
_cell_length_c   7.27117208
_cell_angle_alpha   119.00452273
_cell_angle_beta   116.10317069
_cell_angle_gamma   90.00000000
_symmetry_Int_Tables_number   1
_chemical_formula_structural   TaMnSi
_chemical_formula_sum   'Ta6 Mn6 Si6'
_cell_volume   247.95968175
_cell_formula_units_Z   6
loop_
 _symmetry_equiv_pos_site_id
 _symmetry_equiv_pos_as_xyz
  1  'x, y, z'
loop_
 _atom_site_type_symbol
 _atom_site_label
 _atom_site_symmetry_multiplicity
 _atom_site_fract_x
 _atom_site_fract_y
 _atom_site_fract_z
 _atom_site_occupancy
  Ta  Ta0  1  0.90262093  0.94792493  0.39584986  1
  Ta  Ta1  1  0.50677107  0.05207507  0.60415014  1
  Ta  Ta2  1  0.50679152  0.53074755  0.56149509  1
  Ta  Ta3  1  0.94529643  0.46925245  0.43850491  1
  Ta  Ta4  1  0.08622466  0.74872248  0.99744497  1
  Ta  Ta5  1  0.08877969  0.25127752  0.00255503  1
  Mn  Mn6  1  0.25605672  0.90816146  0.75436798  1
  Mn  Mn7  1  0.50168874  0.09183854  0.24563202  1
  Mn  Mn8  1  0.25605672  0.34620652  0.75436798  1
  Mn  Mn9  1  0.50168874  0.65379348  0.24563202  1
  Mn  Mn10  1  0.74747666  0.50000000  -0.00000000  1
  Mn  Mn11  1  0.74747666  -0.00000000  -0.00000000  1
  Si  Si12  1  0.17177105  0.67292956  0.33483547  1
  Si  Si13  1  0.83693558  0.32707044  0.66516453  1
  Si  Si14  1  0.17177105  0.16190591  0.33483547  1
  Si  Si15  1  0.83693558  0.83809409  0.66516453  1
  Si  Si16  1  0.47270155  0.72587245  0.95174490  1
  Si  Si17  1  0.52095665  0.27412755  0.04825510  1
