# generated using pymatgen
data_GdB4
_symmetry_space_group_name_H-M   'P 1'
_cell_length_a   4.04785013
_cell_length_b   7.13382202
_cell_length_c   7.13382202
_cell_angle_alpha   90.00000000
_cell_angle_beta   90.00000000
_cell_angle_gamma   90.00000000
_symmetry_Int_Tables_number   1
_chemical_formula_structural   GdB4
_chemical_formula_sum   'Gd4 B16'
_cell_volume   206.00082735
_cell_formula_units_Z   4
loop_
 _symmetry_equiv_pos_site_id
 _symmetry_equiv_pos_as_xyz
  1  'x, y, z'
loop_
 _atom_site_type_symbol
 _atom_site_label
 _atom_site_symmetry_multiplicity
 _atom_site_fract_x
 _atom_site_fract_y
 _atom_site_fract_z
 _atom_site_occupancy
  Gd  Gd0  1  0.00000000  0.31686255  0.81686255  1
  Gd  Gd1  1  0.00000000  0.68313745  0.18313745  1
  Gd  Gd2  1  0.00000000  0.18313745  0.31686255  1
  Gd  Gd3  1  0.00000000  0.81686255  0.68313745  1
  B  B4  1  0.79673698  0.50000000  0.50000000  1
  B  B5  1  0.79673698  -0.00000000  0.00000000  1
  B  B6  1  0.20326302  0.50000000  0.50000000  1
  B  B7  1  0.20326302  -0.00000000  0.00000000  1
  B  B8  1  0.50000000  0.53852959  0.67576146  1
  B  B9  1  0.50000000  0.46147041  0.32423854  1
  B  B10  1  0.50000000  0.96147041  0.17576146  1
  B  B11  1  0.50000000  0.03852959  0.82423854  1
  B  B12  1  0.50000000  0.67576146  0.46147041  1
  B  B13  1  0.50000000  0.32423854  0.53852959  1
  B  B14  1  0.50000000  0.17576146  0.03852959  1
  B  B15  1  0.50000000  0.82423854  0.96147041  1
  B  B16  1  0.50000000  0.58708200  0.91291800  1
  B  B17  1  0.50000000  0.41291800  0.08708200  1
  B  B18  1  0.50000000  0.91291800  0.41291800  1
  B  B19  1  0.50000000  0.08708200  0.58708200  1
