# generated using pymatgen
data_Nd7Ni3
_symmetry_space_group_name_H-M   'P 1'
_cell_length_a   6.35823993
_cell_length_b   9.92886084
_cell_length_c   9.92886084
_cell_angle_alpha   120.00299715
_cell_angle_beta   90.00000000
_cell_angle_gamma   90.00000000
_symmetry_Int_Tables_number   1
_chemical_formula_structural   Nd7Ni3
_chemical_formula_sum   'Nd14 Ni6'
_cell_volume   542.81679234
_cell_formula_units_Z   2
loop_
 _symmetry_equiv_pos_site_id
 _symmetry_equiv_pos_as_xyz
  1  'x, y, z'
loop_
 _atom_site_type_symbol
 _atom_site_label
 _atom_site_symmetry_multiplicity
 _atom_site_fract_x
 _atom_site_fract_y
 _atom_site_fract_z
 _atom_site_occupancy
  Nd  Nd0  1  0.46421639  0.33331222  0.66668778  1
  Nd  Nd1  1  0.96421639  0.66668778  0.33331222  1
  Nd  Nd2  1  0.25065055  0.12536929  0.87463071  1
  Nd  Nd3  1  0.25065033  0.74927813  0.87462437  1
  Nd  Nd4  1  0.25065033  0.12537563  0.25072187  1
  Nd  Nd5  1  0.75065055  0.87463071  0.12536929  1
  Nd  Nd6  1  0.75065033  0.25072187  0.12537563  1
  Nd  Nd7  1  0.75065033  0.87462437  0.74927813  1
  Nd  Nd8  1  0.43557716  0.53934401  0.46065599  1
  Nd  Nd9  1  0.43553096  0.92134052  0.46068396  1
  Nd  Nd10  1  0.43553096  0.53931604  0.07865948  1
  Nd  Nd11  1  0.93557716  0.46065599  0.53934401  1
  Nd  Nd12  1  0.93553096  0.07865948  0.53931604  1
  Nd  Nd13  1  0.93553096  0.46068396  0.92134052  1
  Ni  Ni14  1  0.19009116  0.81179176  0.18820824  1
  Ni  Ni15  1  0.19005108  0.37639286  0.18819940  1
  Ni  Ni16  1  0.19005108  0.81180060  0.62360714  1
  Ni  Ni17  1  0.69009116  0.18820824  0.81179176  1
  Ni  Ni18  1  0.69005108  0.62360714  0.81180060  1
  Ni  Ni19  1  0.69005108  0.18819940  0.37639286  1
