# generated using pymatgen
data_Na8Cu2O7
_symmetry_space_group_name_H-M   'P 1'
_cell_length_a   8.65766121
_cell_length_b   11.07455067
_cell_length_c   10.00838423
_cell_angle_alpha   90.00000000
_cell_angle_beta   106.15921265
_cell_angle_gamma   90.00000000
_symmetry_Int_Tables_number   1
_chemical_formula_structural   Na8Cu2O7
_chemical_formula_sum   'Na32 Cu8 O28'
_cell_volume   921.68908698
_cell_formula_units_Z   4
loop_
 _symmetry_equiv_pos_site_id
 _symmetry_equiv_pos_as_xyz
  1  'x, y, z'
loop_
 _atom_site_type_symbol
 _atom_site_label
 _atom_site_symmetry_multiplicity
 _atom_site_fract_x
 _atom_site_fract_y
 _atom_site_fract_z
 _atom_site_occupancy
  Na  Na0  1  0.12076373  0.47783902  0.92079451  1
  Na  Na1  1  0.08008221  0.46008289  0.64610688  1
  Na  Na2  1  0.10934922  0.74064129  0.53396085  1
  Na  Na3  1  0.12076373  0.02216098  0.42079451  1
  Na  Na4  1  0.25910762  0.94817237  0.71456002  1
  Na  Na5  1  0.08008221  0.03991711  0.14610688  1
  Na  Na6  1  0.28860136  0.24938579  0.57027072  1
  Na  Na7  1  0.10934922  0.75935871  0.03396085  1
  Na  Na8  1  0.43035152  0.47520715  0.85775025  1
  Na  Na9  1  0.33973887  0.50397474  0.51560236  1
  Na  Na10  1  0.25910762  0.55182763  0.21456002  1
  Na  Na11  1  0.50758555  0.23231089  0.87476409  1
  Na  Na12  1  0.28860136  0.25061421  0.07027072  1
  Na  Na13  1  0.49241445  0.73231089  0.62523591  1
  Na  Na14  1  0.43035152  0.02479285  0.35775025  1
  Na  Na15  1  0.66026113  0.00397474  0.98439764  1
  Na  Na16  1  0.33973887  0.99602526  0.01560236  1
  Na  Na17  1  0.56964848  0.97520715  0.64224975  1
  Na  Na18  1  0.50758555  0.26768911  0.37476409  1
  Na  Na19  1  0.71139864  0.74938579  0.92972928  1
  Na  Na20  1  0.49241445  0.76768911  0.12523591  1
  Na  Na21  1  0.74089238  0.44817237  0.78543998  1
  Na  Na22  1  0.66026113  0.49602526  0.48439764  1
  Na  Na23  1  0.56964848  0.52479285  0.14224975  1
  Na  Na24  1  0.89065078  0.24064129  0.96603915  1
  Na  Na25  1  0.71139864  0.75061421  0.42972928  1
  Na  Na26  1  0.91991779  0.96008289  0.85389312  1
  Na  Na27  1  0.74089238  0.05182763  0.28543998  1
  Na  Na28  1  0.87923627  0.97783902  0.57920549  1
  Na  Na29  1  0.89065078  0.25935871  0.46603915  1
  Na  Na30  1  0.91991779  0.53991711  0.35389312  1
  Na  Na31  1  0.87923627  0.52216098  0.07920549  1
  Cu  Cu32  1  0.09280632  0.20132151  0.77407314  1
  Cu  Cu33  1  0.09280632  0.29867849  0.27407314  1
  Cu  Cu34  1  0.30982512  0.71866052  0.84676910  1
  Cu  Cu35  1  0.30982512  0.78133948  0.34676910  1
  Cu  Cu36  1  0.69017488  0.21866052  0.65323090  1
  Cu  Cu37  1  0.69017488  0.28133948  0.15323090  1
  Cu  Cu38  1  0.90719368  0.70132151  0.72592686  1
  Cu  Cu39  1  0.90719368  0.79867849  0.22592686  1
  O  O40  1  0.10940841  0.11084363  0.93564104  1
  O  O41  1  0.10338891  0.80642985  0.78976837  1
  O  O42  1  0.10048697  0.11034167  0.61910806  1
  O  O43  1  0.10940841  0.38915637  0.43564104  1
  O  O44  1  0.25234669  0.32313916  0.81974032  1
  O  O45  1  0.10338891  0.69357015  0.28976837  1
  O  O46  1  0.10048697  0.38965833  0.11910806  1
  O  O47  1  0.31172951  0.61218757  0.69850195  1
  O  O48  1  0.25234669  0.17686084  0.31974032  1
  O  O49  1  0.45777596  0.85520642  0.89470664  1
  O  O50  1  0.33231949  0.88990771  0.50542387  1
  O  O51  1  0.31172951  0.88781243  0.19850195  1
  O  O52  1  0.45777596  0.64479358  0.39470664  1
  O  O53  1  0.66768051  0.38990771  0.99457613  1
  O  O54  1  0.33231949  0.61009229  0.00542387  1
  O  O55  1  0.54222404  0.35520642  0.60529336  1
  O  O56  1  0.68827049  0.11218757  0.80149805  1
  O  O57  1  0.66768051  0.11009229  0.49457613  1
  O  O58  1  0.54222404  0.14479358  0.10529336  1
  O  O59  1  0.74765331  0.82313916  0.68025968  1
  O  O60  1  0.68827049  0.38781243  0.30149805  1
  O  O61  1  0.89951303  0.61034167  0.88089194  1
  O  O62  1  0.89661109  0.30642985  0.71023163  1
  O  O63  1  0.74765331  0.67686084  0.18025968  1
  O  O64  1  0.89059159  0.61084363  0.56435896  1
  O  O65  1  0.89951303  0.88965833  0.38089194  1
  O  O66  1  0.89661109  0.19357015  0.21023163  1
  O  O67  1  0.89059159  0.88915637  0.06435896  1
