# generated using pymatgen
data_KOsNOF5
_symmetry_space_group_name_H-M   'P 1'
_cell_length_a   4.94220914
_cell_length_b   6.29306397
_cell_length_c   9.49849180
_cell_angle_alpha   90.00000000
_cell_angle_beta   99.17488271
_cell_angle_gamma   90.00000000
_symmetry_Int_Tables_number   1
_chemical_formula_structural   KOsNOF5
_chemical_formula_sum   'K2 Os2 N2 O2 F10'
_cell_volume   291.63914612
_cell_formula_units_Z   2
loop_
 _symmetry_equiv_pos_site_id
 _symmetry_equiv_pos_as_xyz
  1  'x, y, z'
loop_
 _atom_site_type_symbol
 _atom_site_label
 _atom_site_symmetry_multiplicity
 _atom_site_fract_x
 _atom_site_fract_y
 _atom_site_fract_z
 _atom_site_occupancy
  K  K0  1  0.29189830  0.25000000  0.88971068  1
  K  K1  1  0.70810170  0.75000000  0.11028932  1
  Os  Os2  1  0.90383683  0.75000000  0.73324574  1
  Os  Os3  1  0.09616317  0.25000000  0.26675426  1
  N  N4  1  0.65681947  0.75000000  0.57843749  1
  N  N5  1  0.34318053  0.25000000  0.42156251  1
  O  O6  1  0.49508006  0.75000000  0.47425724  1
  O  O7  1  0.50491994  0.25000000  0.52574276  1
  F  F8  1  0.12658815  0.52796389  0.66800761  1
  F  F9  1  0.87341185  0.02796389  0.33199239  1
  F  F10  1  0.87341185  0.47203611  0.33199239  1
  F  F11  1  0.12658815  0.97203611  0.66800761  1
  F  F12  1  0.72929799  0.96803706  0.83440162  1
  F  F13  1  0.27070201  0.46803706  0.16559838  1
  F  F14  1  0.27070201  0.03196294  0.16559838  1
  F  F15  1  0.72929799  0.53196294  0.83440162  1
  F  F16  1  0.17783242  0.75000000  0.90657499  1
  F  F17  1  0.82216758  0.25000000  0.09342501  1
