# generated using pymatgen
data_Ba2P7Br
_symmetry_space_group_name_H-M   'P 1'
_cell_length_a   6.38420836
_cell_length_b   6.96277355
_cell_length_c   12.05440430
_cell_angle_alpha   90.00000000
_cell_angle_beta   95.89877803
_cell_angle_gamma   90.00000000
_symmetry_Int_Tables_number   1
_chemical_formula_structural   Ba2P7Br
_chemical_formula_sum   'Ba4 P14 Br2'
_cell_volume   533.00266625
_cell_formula_units_Z   2
loop_
 _symmetry_equiv_pos_site_id
 _symmetry_equiv_pos_as_xyz
  1  'x, y, z'
loop_
 _atom_site_type_symbol
 _atom_site_label
 _atom_site_symmetry_multiplicity
 _atom_site_fract_x
 _atom_site_fract_y
 _atom_site_fract_z
 _atom_site_occupancy
  Ba  Ba0  1  0.71161438  0.25000000  0.04637811  1
  Ba  Ba1  1  0.28838562  0.75000000  0.95362189  1
  Ba  Ba2  1  0.93235107  0.25000000  0.64766001  1
  Ba  Ba3  1  0.06764893  0.75000000  0.35233999  1
  P  P4  1  0.50510271  0.25000000  0.44812046  1
  P  P5  1  0.49489729  0.75000000  0.55187954  1
  P  P6  1  0.16926089  0.25000000  0.22357538  1
  P  P7  1  0.83073911  0.75000000  0.77642462  1
  P  P8  1  0.16836160  0.25000000  0.40542114  1
  P  P9  1  0.83163840  0.75000000  0.59457886  1
  P  P10  1  0.37447181  0.49344551  0.19773035  1
  P  P11  1  0.62552819  0.99344551  0.80226965  1
  P  P12  1  0.62552819  0.50655449  0.80226965  1
  P  P13  1  0.37447181  0.00655449  0.19773035  1
  P  P14  1  0.64009283  0.41917665  0.31407270  1
  P  P15  1  0.35990717  0.91917665  0.68592730  1
  P  P16  1  0.35990717  0.58082335  0.68592730  1
  P  P17  1  0.64009283  0.08082335  0.31407270  1
  Br  Br18  1  0.15507932  0.25000000  0.91449363  1
  Br  Br19  1  0.84492068  0.75000000  0.08550637  1
