# generated using pymatgen
data_Tb6CoCl10
_symmetry_space_group_name_H-M   'P 1'
_cell_length_a   7.11856367
_cell_length_b   8.75814865
_cell_length_c   8.80187259
_cell_angle_alpha   109.94634686
_cell_angle_beta   96.94256143
_cell_angle_gamma   107.02306812
_symmetry_Int_Tables_number   1
_chemical_formula_structural   Tb6CoCl10
_chemical_formula_sum   'Tb6 Co1 Cl10'
_cell_volume   478.13132760
_cell_formula_units_Z   1
loop_
 _symmetry_equiv_pos_site_id
 _symmetry_equiv_pos_as_xyz
  1  'x, y, z'
loop_
 _atom_site_type_symbol
 _atom_site_label
 _atom_site_symmetry_multiplicity
 _atom_site_fract_x
 _atom_site_fract_y
 _atom_site_fract_z
 _atom_site_occupancy
  Tb  Tb0  1  0.87171980  0.14863971  0.19460786  1
  Tb  Tb1  1  0.12828020  0.85136029  0.80539214  1
  Tb  Tb2  1  0.52132848  0.69521082  0.89649239  1
  Tb  Tb3  1  0.47867152  0.30478918  0.10350761  1
  Tb  Tb4  1  0.63254233  0.04977443  0.75444465  1
  Tb  Tb5  1  0.36745767  0.95022557  0.24555535  1
  Co  Co6  1  0.50000000  -0.00000000  0.00000000  1
  Cl  Cl7  1  0.74873105  0.08208068  0.45782440  1
  Cl  Cl8  1  0.25126895  0.91791932  0.54217560  1
  Cl  Cl9  1  0.94700141  0.82617197  0.07709692  1
  Cl  Cl10  1  0.05299859  0.17382803  0.92290308  1
  Cl  Cl11  1  0.29964247  0.26234593  0.35586120  1
  Cl  Cl12  1  0.70035753  0.73765407  0.64413880  1
  Cl  Cl13  1  0.59050559  0.37127043  0.83582302  1
  Cl  Cl14  1  0.40949441  0.62872957  0.16417698  1
  Cl  Cl15  1  0.86619496  0.46852870  0.28229295  1
  Cl  Cl16  1  0.13380504  0.53147130  0.71770705  1
