# generated using pymatgen
data_Ni8Bi8SI
_symmetry_space_group_name_H-M   'P 1'
_cell_length_a   4.21037081
_cell_length_b   9.84904933
_cell_length_c   9.84904933
_cell_angle_alpha   90.00000000
_cell_angle_beta   90.00000000
_cell_angle_gamma   90.00000000
_symmetry_Int_Tables_number   1
_chemical_formula_structural   Ni8Bi8SI
_chemical_formula_sum   'Ni8 Bi8 S1 I1'
_cell_volume   408.42185306
_cell_formula_units_Z   1
loop_
 _symmetry_equiv_pos_site_id
 _symmetry_equiv_pos_as_xyz
  1  'x, y, z'
loop_
 _atom_site_type_symbol
 _atom_site_label
 _atom_site_symmetry_multiplicity
 _atom_site_fract_x
 _atom_site_fract_y
 _atom_site_fract_z
 _atom_site_occupancy
  Ni  Ni0  1  0.50140416  0.82034679  0.08803388  1
  Ni  Ni1  1  0.50140416  0.17965321  0.91196612  1
  Ni  Ni2  1  0.50140416  0.91196612  0.82034679  1
  Ni  Ni3  1  0.50140416  0.08803388  0.17965321  1
  Ni  Ni4  1  0.00130063  0.93800240  0.18957669  1
  Ni  Ni5  1  0.00130063  0.06199760  0.81042331  1
  Ni  Ni6  1  0.00130063  0.81042331  0.93800240  1
  Ni  Ni7  1  0.00130063  0.18957669  0.06199760  1
  Bi  Bi8  1  0.50254317  0.87804692  0.35655240  1
  Bi  Bi9  1  0.50254317  0.12195308  0.64344760  1
  Bi  Bi10  1  0.50254317  0.64344760  0.87804692  1
  Bi  Bi11  1  0.50254317  0.35655240  0.12195308  1
  Bi  Bi12  1  0.00022014  0.66330595  0.17128501  1
  Bi  Bi13  1  0.00022014  0.33669405  0.82871499  1
  Bi  Bi14  1  0.00022014  0.82871499  0.66330595  1
  Bi  Bi15  1  0.00022014  0.17128501  0.33669405  1
  S  S16  1  0.25225274  0.00000000  -0.00000000  1
  I  I17  1  0.51527489  0.50000000  0.50000000  1
