# generated using pymatgen
data_SmGe2Ir
_symmetry_space_group_name_H-M   'P 1'
_cell_length_a   4.34912957
_cell_length_b   8.99337620
_cell_length_c   9.53691482
_cell_angle_alpha   118.13193558
_cell_angle_beta   103.18026638
_cell_angle_gamma   90.00000000
_symmetry_Int_Tables_number   1
_chemical_formula_structural   SmGe2Ir
_chemical_formula_sum   'Sm4 Ge8 Ir4'
_cell_volume   317.76758214
_cell_formula_units_Z   4
loop_
 _symmetry_equiv_pos_site_id
 _symmetry_equiv_pos_as_xyz
  1  'x, y, z'
loop_
 _atom_site_type_symbol
 _atom_site_label
 _atom_site_symmetry_multiplicity
 _atom_site_fract_x
 _atom_site_fract_y
 _atom_site_fract_z
 _atom_site_occupancy
  Sm  Sm0  1  1.00000000  0.26031919  1.00000000  1
  Sm  Sm1  1  0.00000000  0.73968081  0.00000000  1
  Sm  Sm2  1  0.79370880  0.29370880  0.58741759  1
  Sm  Sm3  1  0.20629120  0.70629120  0.41258241  1
  Ge  Ge4  1  0.42156087  0.92156087  0.84312175  1
  Ge  Ge5  1  0.57843913  0.07843913  0.15687825  1
  Ge  Ge6  1  0.42265368  0.42265368  0.84530736  1
  Ge  Ge7  1  0.57734632  0.57734632  0.15469264  1
  Ge  Ge8  1  0.19968568  0.04621610  0.39937135  1
  Ge  Ge9  1  0.80031432  0.95378390  0.60062865  1
  Ge  Ge10  1  0.19968568  0.35315525  0.39937135  1
  Ge  Ge11  1  0.80031432  0.64684475  0.60062865  1
  Ir  Ir12  1  0.35366950  0.10243532  0.70733900  1
  Ir  Ir13  1  0.64633050  0.89756468  0.29266100  1
  Ir  Ir14  1  0.35366950  0.60490368  0.70733900  1
  Ir  Ir15  1  0.64633050  0.39509632  0.29266100  1
