# generated using pymatgen
data_Nd2SbO2
_symmetry_space_group_name_H-M   'P 1'
_cell_length_a   4.07182518
_cell_length_b   7.86886032
_cell_length_c   13.83946571
_cell_angle_alpha   90.00000000
_cell_angle_beta   90.00000000
_cell_angle_gamma   90.00000000
_symmetry_Int_Tables_number   1
_chemical_formula_structural   Nd2SbO2
_chemical_formula_sum   'Nd8 Sb4 O8'
_cell_volume   443.42511149
_cell_formula_units_Z   4
loop_
 _symmetry_equiv_pos_site_id
 _symmetry_equiv_pos_as_xyz
  1  'x, y, z'
loop_
 _atom_site_type_symbol
 _atom_site_label
 _atom_site_symmetry_multiplicity
 _atom_site_fract_x
 _atom_site_fract_y
 _atom_site_fract_z
 _atom_site_occupancy
  Nd  Nd0  1  0.25000000  0.12352434  0.91218779  1
  Nd  Nd1  1  0.25000000  0.12352434  0.58781221  1
  Nd  Nd2  1  0.75000000  0.87647566  0.08781221  1
  Nd  Nd3  1  0.75000000  0.87647566  0.41218779  1
  Nd  Nd4  1  0.25000000  0.62639383  0.91578295  1
  Nd  Nd5  1  0.25000000  0.62639383  0.58421705  1
  Nd  Nd6  1  0.75000000  0.37360617  0.08421705  1
  Nd  Nd7  1  0.75000000  0.37360617  0.41578295  1
  Sb  Sb8  1  0.25000000  0.15617423  0.25000000  1
  Sb  Sb9  1  0.75000000  0.84382577  0.75000000  1
  Sb  Sb10  1  0.25000000  0.59335353  0.25000000  1
  Sb  Sb11  1  0.75000000  0.40664647  0.75000000  1
  O  O12  1  0.25000000  0.37218521  0.99855376  1
  O  O13  1  0.25000000  0.37218521  0.50144624  1
  O  O14  1  0.75000000  0.62781479  0.00144624  1
  O  O15  1  0.75000000  0.62781479  0.49855376  1
  O  O16  1  0.25000000  0.87782357  0.00524443  1
  O  O17  1  0.25000000  0.87782357  0.49475557  1
  O  O18  1  0.75000000  0.12217643  0.99475557  1
  O  O19  1  0.75000000  0.12217643  0.50524443  1
