# generated using pymatgen
data_Tb6IrI10
_symmetry_space_group_name_H-M   'P 1'
_cell_length_a   7.76041828
_cell_length_b   9.73941806
_cell_length_c   9.71584494
_cell_angle_alpha   107.52636125
_cell_angle_beta   97.12864043
_cell_angle_gamma   104.93749817
_symmetry_Int_Tables_number   1
_chemical_formula_structural   Tb6IrI10
_chemical_formula_sum   'Tb6 Ir1 I10'
_cell_volume   660.17473005
_cell_formula_units_Z   1
loop_
 _symmetry_equiv_pos_site_id
 _symmetry_equiv_pos_as_xyz
  1  'x, y, z'
loop_
 _atom_site_type_symbol
 _atom_site_label
 _atom_site_symmetry_multiplicity
 _atom_site_fract_x
 _atom_site_fract_y
 _atom_site_fract_z
 _atom_site_occupancy
  Tb  Tb0  1  0.35333222  0.12839541  0.16756500  1
  Tb  Tb1  1  0.64666778  0.87160459  0.83243500  1
  Tb  Tb2  1  0.97282142  0.28711380  0.08663775  1
  Tb  Tb3  1  0.02717858  0.71288620  0.91336225  1
  Tb  Tb4  1  0.88656341  0.96075923  0.24143746  1
  Tb  Tb5  1  0.11343659  0.03924077  0.75856254  1
  Ir  Ir6  1  -0.00000000  0.00000000  0.00000000  1
  I  I7  1  0.35943517  0.45766297  0.27494168  1
  I  I8  1  0.64056483  0.54233703  0.72505832  1
  I  I9  1  0.78832675  0.26379179  0.35279593  1
  I  I10  1  0.21167325  0.73620821  0.64720407  1
  I  I11  1  0.54737595  0.18485721  0.90773307  1
  I  I12  1  0.45262405  0.81514279  0.09226693  1
  I  I13  1  0.73638536  0.91053654  0.53585351  1
  I  I14  1  0.26361464  0.08946346  0.46414649  1
  I  I15  1  0.91363633  0.62826803  0.18102394  1
  I  I16  1  0.08636367  0.37173197  0.81897606  1
