# generated using pymatgen
data_Er5Ge3C
_symmetry_space_group_name_H-M   'P 1'
_cell_length_a   6.41026140
_cell_length_b   8.43972665
_cell_length_c   8.43945257
_cell_angle_alpha   120.00106675
_cell_angle_beta   90.00000000
_cell_angle_gamma   90.00000000
_symmetry_Int_Tables_number   1
_chemical_formula_structural   Er5Ge3C
_chemical_formula_sum   'Er10 Ge6 C2'
_cell_volume   395.40700616
_cell_formula_units_Z   2
loop_
 _symmetry_equiv_pos_site_id
 _symmetry_equiv_pos_as_xyz
  1  'x, y, z'
loop_
 _atom_site_type_symbol
 _atom_site_label
 _atom_site_symmetry_multiplicity
 _atom_site_fract_x
 _atom_site_fract_y
 _atom_site_fract_z
 _atom_site_occupancy
  Er  Er0  1  0.50000676  0.33332651  0.66668905  1
  Er  Er1  1  0.50000676  0.66663746  0.33331095  1
  Er  Er2  1  0.00000676  0.66667349  0.33331095  1
  Er  Er3  1  0.00000676  0.33336254  0.66668905  1
  Er  Er4  1  0.75001155  0.22120204  1.00000000  1
  Er  Er5  1  0.74998871  0.77883602  0.77881748  1
  Er  Er6  1  0.74998871  0.00001854  0.22118252  1
  Er  Er7  1  0.25001155  0.77879796  0.00000000  1
  Er  Er8  1  0.24998871  0.22116398  0.22118252  1
  Er  Er9  1  0.24998871  0.99998146  0.77881748  1
  Ge  Ge10  1  0.74998859  0.59219989  1.00000000  1
  Ge  Ge11  1  0.75000702  0.40778957  0.40778711  1
  Ge  Ge12  1  0.75000702  0.00000246  0.59221289  1
  Ge  Ge13  1  0.24998859  0.40780011  0.00000000  1
  Ge  Ge14  1  0.25000702  0.59221043  0.59221289  1
  Ge  Ge15  1  0.25000702  0.99999754  0.40778711  1
  C  C16  1  0.49999489  0.99999440  1.00000000  1
  C  C17  1  0.99999489  0.00000560  0.00000000  1
