# generated using pymatgen
data_Yb(CoP3)4
_symmetry_space_group_name_H-M   'P 1'
_cell_length_a   6.72912917
_cell_length_b   6.72912917
_cell_length_c   6.72912917
_cell_angle_alpha   109.47122063
_cell_angle_beta   109.47122063
_cell_angle_gamma   109.47122063
_symmetry_Int_Tables_number   1
_chemical_formula_structural   Yb(CoP3)4
_chemical_formula_sum   'Yb1 Co4 P12'
_cell_volume   234.56040610
_cell_formula_units_Z   1
loop_
 _symmetry_equiv_pos_site_id
 _symmetry_equiv_pos_as_xyz
  1  'x, y, z'
loop_
 _atom_site_type_symbol
 _atom_site_label
 _atom_site_symmetry_multiplicity
 _atom_site_fract_x
 _atom_site_fract_y
 _atom_site_fract_z
 _atom_site_occupancy
  Yb  Yb0  1  -0.00000000  0.00000000  -0.00000000  1
  Co  Co1  1  -0.00000000  0.00000000  0.50000000  1
  Co  Co2  1  0.50000000  0.00000000  -0.00000000  1
  Co  Co3  1  -0.00000000  0.50000000  -0.00000000  1
  Co  Co4  1  0.50000000  0.50000000  0.50000000  1
  P  P5  1  0.35344011  0.20505012  0.85161001  1
  P  P6  1  0.64655989  0.79494988  0.14838999  1
  P  P7  1  0.64655989  0.49816991  0.85161001  1
  P  P8  1  0.35344011  0.50183009  0.14838999  1
  P  P9  1  0.20505012  0.85161001  0.35344011  1
  P  P10  1  0.79494988  0.14838999  0.64655989  1
  P  P11  1  0.49816991  0.85161001  0.64655989  1
  P  P12  1  0.50183009  0.14838999  0.35344011  1
  P  P13  1  0.85161001  0.35344011  0.20505012  1
  P  P14  1  0.14838999  0.64655989  0.79494988  1
  P  P15  1  0.85161001  0.64655989  0.49816991  1
  P  P16  1  0.14838999  0.35344011  0.50183009  1
