# generated using pymatgen
data_Ce2Si5Ir3
_symmetry_space_group_name_H-M   'P 1'
_cell_length_a   5.89644002
_cell_length_b   8.19873774
_cell_length_c   8.19873774
_cell_angle_alpha   75.26630939
_cell_angle_beta   68.92471242
_cell_angle_gamma   68.92471242
_symmetry_Int_Tables_number   1
_chemical_formula_structural   Ce2Si5Ir3
_chemical_formula_sum   'Ce4 Si10 Ir6'
_cell_volume   341.52673683
_cell_formula_units_Z   2
loop_
 _symmetry_equiv_pos_site_id
 _symmetry_equiv_pos_as_xyz
  1  'x, y, z'
loop_
 _atom_site_type_symbol
 _atom_site_label
 _atom_site_symmetry_multiplicity
 _atom_site_fract_x
 _atom_site_fract_y
 _atom_site_fract_z
 _atom_site_occupancy
  Ce  Ce0  1  0.36842516  0.40132420  0.86182549  1
  Ce  Ce1  1  0.63157484  0.59867580  0.13817451  1
  Ce  Ce2  1  0.86842516  0.86182549  0.40132420  1
  Ce  Ce3  1  0.13157484  0.13817451  0.59867580  1
  Si  Si4  1  0.25000000  0.50000000  0.50000000  1
  Si  Si5  1  0.75000000  0.50000000  0.50000000  1
  Si  Si6  1  0.02343411  0.22656589  0.22656589  1
  Si  Si7  1  0.47656589  0.77343411  0.77343411  1
  Si  Si8  1  0.97656589  0.77343411  0.77343411  1
  Si  Si9  1  0.52343411  0.22656589  0.22656589  1
  Si  Si10  1  0.10721206  0.73967002  0.04590587  1
  Si  Si11  1  0.89278794  0.26032998  0.95409413  1
  Si  Si12  1  0.60721206  0.04590587  0.73967002  1
  Si  Si13  1  0.39278794  0.95409413  0.26032998  1
  Ir  Ir14  1  0.25000000  -0.00000000  0.00000000  1
  Ir  Ir15  1  0.75000000  -0.00000000  0.00000000  1
  Ir  Ir16  1  0.13895864  0.47501992  0.24706280  1
  Ir  Ir17  1  0.86104136  0.52498008  0.75293720  1
  Ir  Ir18  1  0.63895864  0.24706280  0.47501992  1
  Ir  Ir19  1  0.36104136  0.75293720  0.52498008  1
