# generated using pymatgen
data_Tb2Te3
_symmetry_space_group_name_H-M   'P 1'
_cell_length_a   7.57594647
_cell_length_b   7.57594647
_cell_length_c   13.97831994
_cell_angle_alpha   100.39007195
_cell_angle_beta   100.39007195
_cell_angle_gamma   109.54091929
_symmetry_Int_Tables_number   1
_chemical_formula_structural   Tb2Te3
_chemical_formula_sum   'Tb8 Te12'
_cell_volume   718.17451517
_cell_formula_units_Z   4
loop_
 _symmetry_equiv_pos_site_id
 _symmetry_equiv_pos_as_xyz
  1  'x, y, z'
loop_
 _atom_site_type_symbol
 _atom_site_label
 _atom_site_symmetry_multiplicity
 _atom_site_fract_x
 _atom_site_fract_y
 _atom_site_fract_z
 _atom_site_occupancy
  Tb  Tb0  1  0.70763235  0.95763235  0.91526470  1
  Tb  Tb1  1  0.54236765  0.79236765  0.58473530  1
  Tb  Tb2  1  0.29236765  0.04236765  0.08473530  1
  Tb  Tb3  1  0.45763235  0.20763235  0.41526470  1
  Tb  Tb4  1  0.37485328  0.62485328  0.24970655  1
  Tb  Tb5  1  0.87514672  0.12514672  0.25029345  1
  Tb  Tb6  1  0.62514672  0.37514672  0.75029345  1
  Tb  Tb7  1  0.12485328  0.87485328  0.74970655  1
  Te  Te8  1  0.87583851  0.12583851  0.75000000  1
  Te  Te9  1  0.37416149  0.62416149  0.75000000  1
  Te  Te10  1  0.12416149  0.87416149  0.25000000  1
  Te  Te11  1  0.62583851  0.37583851  0.25000000  1
  Te  Te12  1  0.54378398  0.79375588  0.08458076  1
  Te  Te13  1  0.70624412  0.95621602  0.41541924  1
  Te  Te14  1  0.20917512  0.45920322  0.41541924  1
  Te  Te15  1  0.04079678  0.29082488  0.08458076  1
  Te  Te16  1  0.45621602  0.20624412  0.91541924  1
  Te  Te17  1  0.29375588  0.04378398  0.58458076  1
  Te  Te18  1  0.79082488  0.54079678  0.58458076  1
  Te  Te19  1  0.95920322  0.70917512  0.91541924  1
