# generated using pymatgen
data_Li3MnF5
_symmetry_space_group_name_H-M   'P 1'
_cell_length_a   10.84020347
_cell_length_b   5.86237612
_cell_length_c   6.03266261
_cell_angle_alpha   90.00000000
_cell_angle_beta   90.00000000
_cell_angle_gamma   90.00000000
_symmetry_Int_Tables_number   1
_chemical_formula_structural   Li3MnF5
_chemical_formula_sum   'Li12 Mn4 F20'
_cell_volume   383.37178738
_cell_formula_units_Z   4
loop_
 _symmetry_equiv_pos_site_id
 _symmetry_equiv_pos_as_xyz
  1  'x, y, z'
loop_
 _atom_site_type_symbol
 _atom_site_label
 _atom_site_symmetry_multiplicity
 _atom_site_fract_x
 _atom_site_fract_y
 _atom_site_fract_z
 _atom_site_occupancy
  Li  Li0  1  0.00589184  0.75808575  0.17042907  1
  Li  Li1  1  0.23010944  0.01036822  0.54163270  1
  Li  Li2  1  0.26773124  0.56194498  0.86958436  1
  Li  Li3  1  0.23226876  0.43805502  0.36958436  1
  Li  Li4  1  0.26989056  0.98963178  0.04163270  1
  Li  Li5  1  0.49410816  0.24191425  0.67042907  1
  Li  Li6  1  0.50589184  0.74191425  0.82957093  1
  Li  Li7  1  0.73010944  0.48963178  0.45836730  1
  Li  Li8  1  0.76773124  0.93805502  0.13041564  1
  Li  Li9  1  0.73226876  0.06194498  0.63041564  1
  Li  Li10  1  0.76989056  0.51036822  0.95836730  1
  Li  Li11  1  0.99410816  0.25808575  0.32957093  1
  Mn  Mn12  1  0.03862459  0.19632724  0.84821464  1
  Mn  Mn13  1  0.46137541  0.80367276  0.34821464  1
  Mn  Mn14  1  0.53862459  0.30367276  0.15178536  1
  Mn  Mn15  1  0.96137541  0.69632724  0.65178536  1
  F  F16  1  0.95477031  0.50719614  0.97778493  1
  F  F17  1  0.06972579  0.55853394  0.40177589  1
  F  F18  1  0.12003825  0.83380253  0.89278612  1
  F  F19  1  0.16589682  0.22690865  0.14442245  1
  F  F20  1  0.20467443  0.30485000  0.69643440  1
  F  F21  1  0.29532557  0.69515000  0.19643440  1
  F  F22  1  0.33410318  0.77309135  0.64442245  1
  F  F23  1  0.37996175  0.16619747  0.39278612  1
  F  F24  1  0.43027421  0.44146606  0.90177589  1
  F  F25  1  0.54522969  0.49280386  0.47778493  1
  F  F26  1  0.45477031  0.99280386  0.02221507  1
  F  F27  1  0.56972579  0.94146606  0.59822411  1
  F  F28  1  0.62003825  0.66619747  0.10721388  1
  F  F29  1  0.66589682  0.27309135  0.85557755  1
  F  F30  1  0.70467443  0.19515000  0.30356560  1
  F  F31  1  0.79532557  0.80485000  0.80356560  1
  F  F32  1  0.83410318  0.72690865  0.35557755  1
  F  F33  1  0.87996175  0.33380253  0.60721388  1
  F  F34  1  0.93027421  0.05853394  0.09822411  1
  F  F35  1  0.04522969  0.00719614  0.52221507  1
