# generated using pymatgen
data_CaCd2Pd
_symmetry_space_group_name_H-M   'P 1'
_cell_length_a   5.63169888
_cell_length_b   8.05471656
_cell_length_c   8.18881561
_cell_angle_alpha   90.00000000
_cell_angle_beta   90.00000000
_cell_angle_gamma   90.00000000
_symmetry_Int_Tables_number   1
_chemical_formula_structural   CaCd2Pd
_chemical_formula_sum   'Ca4 Cd8 Pd4'
_cell_volume   371.45891011
_cell_formula_units_Z   4
loop_
 _symmetry_equiv_pos_site_id
 _symmetry_equiv_pos_as_xyz
  1  'x, y, z'
loop_
 _atom_site_type_symbol
 _atom_site_label
 _atom_site_symmetry_multiplicity
 _atom_site_fract_x
 _atom_site_fract_y
 _atom_site_fract_z
 _atom_site_occupancy
  Ca  Ca0  1  0.39880593  0.53355838  0.25000000  1
  Ca  Ca1  1  0.10119407  0.03355838  0.25000000  1
  Ca  Ca2  1  0.60119407  0.46644162  0.75000000  1
  Ca  Ca3  1  0.89880593  0.96644162  0.75000000  1
  Cd  Cd4  1  0.90495440  0.67182385  0.05546310  1
  Cd  Cd5  1  0.59504560  0.17182385  0.44453690  1
  Cd  Cd6  1  0.09504560  0.32817615  0.55546310  1
  Cd  Cd7  1  0.40495440  0.82817615  0.94453690  1
  Cd  Cd8  1  0.09504560  0.32817615  0.94453690  1
  Cd  Cd9  1  0.40495440  0.82817615  0.55546310  1
  Cd  Cd10  1  0.90495440  0.67182385  0.44453690  1
  Cd  Cd11  1  0.59504560  0.17182385  0.05546310  1
  Pd  Pd12  1  0.61752328  0.87807861  0.25000000  1
  Pd  Pd13  1  0.88247672  0.37807861  0.25000000  1
  Pd  Pd14  1  0.38247672  0.12192139  0.75000000  1
  Pd  Pd15  1  0.11752328  0.62192139  0.75000000  1
