# generated using pymatgen
data_LiCu5(PO4)2
_symmetry_space_group_name_H-M   'P 1'
_cell_length_a   6.24856971
_cell_length_b   5.60482103
_cell_length_c   10.32295240
_cell_angle_alpha   89.65157992
_cell_angle_beta   90.97190850
_cell_angle_gamma   88.82843333
_symmetry_Int_Tables_number   1
_chemical_formula_structural   LiCu5(PO4)2
_chemical_formula_sum   'Li2 Cu10 P4 O16'
_cell_volume   361.39657487
_cell_formula_units_Z   2
loop_
 _symmetry_equiv_pos_site_id
 _symmetry_equiv_pos_as_xyz
  1  'x, y, z'
loop_
 _atom_site_type_symbol
 _atom_site_label
 _atom_site_symmetry_multiplicity
 _atom_site_fract_x
 _atom_site_fract_y
 _atom_site_fract_z
 _atom_site_occupancy
  Li  Li0  1  0.99813536  0.14382764  0.25055363  1
  Li  Li1  1  0.24596463  0.32092591  0.49292867  1
  Cu  Cu2  1  0.00831751  0.25361364  0.74881434  1
  Cu  Cu3  1  0.27994200  0.35924743  0.99904544  1
  Cu  Cu4  1  0.29801096  0.65670081  0.23629996  1
  Cu  Cu5  1  0.23461265  0.63275400  0.75761852  1
  Cu  Cu6  1  0.50072909  0.74074045  0.98703537  1
  Cu  Cu7  1  0.50739804  0.74240136  0.47807389  1
  Cu  Cu8  1  0.75305983  0.64566004  0.74102569  1
  Cu  Cu9  1  0.70169404  0.64847523  0.23037484  1
  Cu  Cu10  1  0.75582742  0.35091402  0.49843913  1
  Cu  Cu11  1  0.71742540  0.35741351  0.00204438  1
  P  P12  1  0.99473496  0.86136006  0.00644190  1
  P  P13  1  0.00948761  0.83753226  0.50172060  1
  P  P14  1  0.49673495  0.18145534  0.25817254  1
  P  P15  1  0.49906720  0.15934048  0.74630534  1
  O  O16  1  0.00257370  0.84760705  0.65169961  1
  O  O17  1  0.01291737  0.09253948  0.44222654  1
  O  O18  1  0.99707011  0.83841345  0.15636143  1
  O  O19  1  0.99040040  0.12495688  0.96078577  1
  O  O20  1  0.20556503  0.68202643  0.45622254  1
  O  O21  1  0.19616681  0.73006920  0.94983765  1
  O  O22  1  0.28245636  0.30657309  0.20754057  1
  O  O23  1  0.30240724  0.30085142  0.68356791  1
  O  O24  1  0.49149850  0.16179682  0.89615454  1
  O  O25  1  0.50221662  0.90075119  0.69581582  1
  O  O26  1  0.49806119  0.17766326  0.40783871  1
  O  O27  1  0.49553556  0.92787046  0.19990243  1
  O  O28  1  0.70178587  0.29371660  0.69954445  1
  O  O29  1  0.70754539  0.29716087  0.20800949  1
  O  O30  1  0.81061708  0.70242971  0.44523311  1
  O  O31  1  0.80203811  0.72321191  0.94695619  1
