# generated using pymatgen
data_Dy5Ge3
_symmetry_space_group_name_H-M   'P 1'
_cell_length_a   6.39978220
_cell_length_b   8.52951295
_cell_length_c   8.52866074
_cell_angle_alpha   120.00330350
_cell_angle_beta   90.00000000
_cell_angle_gamma   90.00000000
_symmetry_Int_Tables_number   1
_chemical_formula_structural   Dy5Ge3
_chemical_formula_sum   'Dy10 Ge6'
_cell_volume   403.16835785
_cell_formula_units_Z   2
loop_
 _symmetry_equiv_pos_site_id
 _symmetry_equiv_pos_as_xyz
  1  'x, y, z'
loop_
 _atom_site_type_symbol
 _atom_site_label
 _atom_site_symmetry_multiplicity
 _atom_site_fract_x
 _atom_site_fract_y
 _atom_site_fract_z
 _atom_site_occupancy
  Dy  Dy0  1  0.49996377  0.33337517  0.66665334  1
  Dy  Dy1  1  0.49996377  0.66672183  0.33334666  1
  Dy  Dy2  1  0.99996377  0.66662483  0.33334666  1
  Dy  Dy3  1  0.99996377  0.33327817  0.66665334  1
  Dy  Dy4  1  0.75010840  0.24282751  1.00000000  1
  Dy  Dy5  1  0.75003398  0.75697067  0.75701323  1
  Dy  Dy6  1  0.75003398  0.99995744  0.24298677  1
  Dy  Dy7  1  0.25010840  0.75717249  0.00000000  1
  Dy  Dy8  1  0.25003398  0.24302933  0.24298677  1
  Dy  Dy9  1  0.25003398  0.00004256  0.75701323  1
  Ge  Ge10  1  0.74995450  0.60663333  0.00000000  1
  Ge  Ge11  1  0.74997080  0.39320130  0.39310350  1
  Ge  Ge12  1  0.74997080  0.00009780  0.60689650  1
  Ge  Ge13  1  0.24995450  0.39336667  1.00000000  1
  Ge  Ge14  1  0.24997080  0.60679870  0.60689650  1
  Ge  Ge15  1  0.24997080  0.99990220  0.39310350  1
