# generated using pymatgen
data_Mg2B2AsIr5
_symmetry_space_group_name_H-M   'P 1'
_cell_length_a   2.98908952
_cell_length_b   9.48834666
_cell_length_c   9.48834666
_cell_angle_alpha   90.00000000
_cell_angle_beta   90.00000000
_cell_angle_gamma   90.00000000
_symmetry_Int_Tables_number   1
_chemical_formula_structural   Mg2B2AsIr5
_chemical_formula_sum   'Mg4 B4 As2 Ir10'
_cell_volume   269.10391045
_cell_formula_units_Z   2
loop_
 _symmetry_equiv_pos_site_id
 _symmetry_equiv_pos_as_xyz
  1  'x, y, z'
loop_
 _atom_site_type_symbol
 _atom_site_label
 _atom_site_symmetry_multiplicity
 _atom_site_fract_x
 _atom_site_fract_y
 _atom_site_fract_z
 _atom_site_occupancy
  Mg  Mg0  1  -0.00000000  0.32466461  0.82466461  1
  Mg  Mg1  1  -0.00000000  0.67533539  0.17533539  1
  Mg  Mg2  1  0.00000000  0.17533539  0.32466461  1
  Mg  Mg3  1  0.00000000  0.82466461  0.67533539  1
  B  B4  1  0.00000000  0.12429294  0.62429294  1
  B  B5  1  0.00000000  0.87570706  0.37570706  1
  B  B6  1  -0.00000000  0.37570706  0.12429294  1
  B  B7  1  -0.00000000  0.62429294  0.87570706  1
  As  As8  1  0.00000000  0.50000000  0.50000000  1
  As  As9  1  0.00000000  0.00000000  0.00000000  1
  Ir  Ir10  1  0.50000000  0.00000000  0.50000000  1
  Ir  Ir11  1  0.50000000  0.50000000  0.00000000  1
  Ir  Ir12  1  0.50000000  0.57259526  0.71620593  1
  Ir  Ir13  1  0.50000000  0.42740474  0.28379407  1
  Ir  Ir14  1  0.50000000  0.92740474  0.21620593  1
  Ir  Ir15  1  0.50000000  0.07259526  0.78379407  1
  Ir  Ir16  1  0.50000000  0.71620593  0.42740474  1
  Ir  Ir17  1  0.50000000  0.28379407  0.57259526  1
  Ir  Ir18  1  0.50000000  0.21620593  0.07259526  1
  Ir  Ir19  1  0.50000000  0.78379407  0.92740474  1
