# generated using pymatgen
data_Ba(GaP)2
_symmetry_space_group_name_H-M   'P 1'
_cell_length_a   7.42195469
_cell_length_b   7.49466726
_cell_length_c   9.78126781
_cell_angle_alpha   90.00000000
_cell_angle_beta   90.00000000
_cell_angle_gamma   115.34023276
_symmetry_Int_Tables_number   1
_chemical_formula_structural   Ba(GaP)2
_chemical_formula_sum   'Ba4 Ga8 P8'
_cell_volume   491.73328627
_cell_formula_units_Z   4
loop_
 _symmetry_equiv_pos_site_id
 _symmetry_equiv_pos_as_xyz
  1  'x, y, z'
loop_
 _atom_site_type_symbol
 _atom_site_label
 _atom_site_symmetry_multiplicity
 _atom_site_fract_x
 _atom_site_fract_y
 _atom_site_fract_z
 _atom_site_occupancy
  Ba  Ba0  1  0.58231309  0.27586656  0.89830392  1
  Ba  Ba1  1  0.41768691  0.22413344  0.39830392  1
  Ba  Ba2  1  0.41768691  0.72413344  0.10169608  1
  Ba  Ba3  1  0.58231309  0.77586656  0.60169608  1
  Ga  Ga4  1  0.93956648  0.37349172  0.21190228  1
  Ga  Ga5  1  0.06043352  0.12650828  0.71190228  1
  Ga  Ga6  1  0.06043352  0.62650828  0.78809772  1
  Ga  Ga7  1  0.93956648  0.87349172  0.28809772  1
  Ga  Ga8  1  0.93955862  0.26208597  0.51210615  1
  Ga  Ga9  1  0.06044138  0.23791403  0.01210615  1
  Ga  Ga10  1  0.06044138  0.73791403  0.48789385  1
  Ga  Ga11  1  0.93955862  0.76208597  0.98789385  1
  P  P12  1  0.79562830  0.46903961  0.61294269  1
  P  P13  1  0.20437170  0.03096039  0.11294269  1
  P  P14  1  0.20437170  0.53096039  0.38705731  1
  P  P15  1  0.79562830  0.96903961  0.88705731  1
  P  P16  1  0.26225621  0.44493325  0.82112287  1
  P  P17  1  0.73774379  0.05506675  0.32112287  1
  P  P18  1  0.73774379  0.55506675  0.17887713  1
  P  P19  1  0.26225621  0.94493325  0.67887713  1
