# generated using pymatgen
data_LiAu(S2O7)2
_symmetry_space_group_name_H-M   'P 1'
_cell_length_a   5.54264461
_cell_length_b   6.72030169
_cell_length_c   8.61726672
_cell_angle_alpha   106.60315583
_cell_angle_beta   91.95161554
_cell_angle_gamma   102.90386889
_symmetry_Int_Tables_number   1
_chemical_formula_structural   LiAu(S2O7)2
_chemical_formula_sum   'Li1 Au1 S4 O14'
_cell_volume   298.17738253
_cell_formula_units_Z   1
loop_
 _symmetry_equiv_pos_site_id
 _symmetry_equiv_pos_as_xyz
  1  'x, y, z'
loop_
 _atom_site_type_symbol
 _atom_site_label
 _atom_site_symmetry_multiplicity
 _atom_site_fract_x
 _atom_site_fract_y
 _atom_site_fract_z
 _atom_site_occupancy
  Li  Li0  1  0.50000000  0.00000000  0.00000000  1
  Au  Au1  1  0.50000000  0.50000000  0.50000000  1
  S  S2  1  0.93633212  0.73799574  0.76825231  1
  S  S3  1  0.06366788  0.26200426  0.23174769  1
  S  S4  1  0.66012287  0.30682005  0.75658216  1
  S  S5  1  0.33987713  0.69317995  0.24341784  1
  O  O6  1  0.85729337  0.66349030  0.58379410  1
  O  O7  1  0.14270663  0.33650970  0.41620590  1
  O  O8  1  0.45623675  0.40311587  0.70240611  1
  O  O9  1  0.54376325  0.59688413  0.29759389  1
  O  O10  1  0.20014571  0.82812575  0.79029713  1
  O  O11  1  0.79985429  0.17187425  0.20970287  1
  O  O12  1  0.77553270  0.85520185  0.86062490  1
  O  O13  1  0.22446730  0.14479815  0.13937510  1
  O  O14  1  0.59340435  0.26005363  0.90379058  1
  O  O15  1  0.40659565  0.73994637  0.09620942  1
  O  O16  1  0.90939520  0.51610590  0.81778239  1
  O  O17  1  0.09060480  0.48389410  0.18221761  1
  O  O18  1  0.73432950  0.15381359  0.62686271  1
  O  O19  1  0.26567050  0.84618641  0.37313729  1
