# generated using pymatgen
data_Sc4OsCl4
_symmetry_space_group_name_H-M   'P 1'
_cell_length_a   6.15920964
_cell_length_b   8.07649159
_cell_length_c   8.07649159
_cell_angle_alpha   89.30910541
_cell_angle_beta   90.51427450
_cell_angle_gamma   90.51427450
_symmetry_Int_Tables_number   1
_chemical_formula_structural   Sc4OsCl4
_chemical_formula_sum   'Sc8 Os2 Cl8'
_cell_volume   401.70230867
_cell_formula_units_Z   2
loop_
 _symmetry_equiv_pos_site_id
 _symmetry_equiv_pos_as_xyz
  1  'x, y, z'
loop_
 _atom_site_type_symbol
 _atom_site_label
 _atom_site_symmetry_multiplicity
 _atom_site_fract_x
 _atom_site_fract_y
 _atom_site_fract_z
 _atom_site_occupancy
  Sc  Sc0  1  0.51638688  0.10402560  0.74083716  1
  Sc  Sc1  1  0.98361312  0.25916284  0.89597440  1
  Sc  Sc2  1  0.48361312  0.89597440  0.25916284  1
  Sc  Sc3  1  0.01638688  0.74083716  0.10402560  1
  Sc  Sc4  1  0.48683296  0.74256204  0.89709048  1
  Sc  Sc5  1  0.01316704  0.10290952  0.25743796  1
  Sc  Sc6  1  0.51316704  0.25743796  0.10290952  1
  Sc  Sc7  1  0.98683296  0.89709048  0.74256204  1
  Os  Os8  1  0.25000000  0.00921532  0.99078468  1
  Os  Os9  1  0.75000000  0.99078468  0.00921532  1
  Cl  Cl10  1  0.60218701  0.42174563  0.81918455  1
  Cl  Cl11  1  0.89781299  0.18081545  0.57825437  1
  Cl  Cl12  1  0.39781299  0.57825437  0.18081545  1
  Cl  Cl13  1  0.10218701  0.81918455  0.42174563  1
  Cl  Cl14  1  0.60470846  0.80678971  0.58167164  1
  Cl  Cl15  1  0.89529154  0.41832836  0.19321029  1
  Cl  Cl16  1  0.39529154  0.19321029  0.41832836  1
  Cl  Cl17  1  0.10470846  0.58167164  0.80678971  1
