# generated using pymatgen
data_Pr3Ru
_symmetry_space_group_name_H-M   'P 1'
_cell_length_a   6.55262412
_cell_length_b   7.47201975
_cell_length_c   9.83977591
_cell_angle_alpha   90.00000000
_cell_angle_beta   90.00000000
_cell_angle_gamma   90.00000000
_symmetry_Int_Tables_number   1
_chemical_formula_structural   Pr3Ru
_chemical_formula_sum   'Pr12 Ru4'
_cell_volume   481.76858275
_cell_formula_units_Z   4
loop_
 _symmetry_equiv_pos_site_id
 _symmetry_equiv_pos_as_xyz
  1  'x, y, z'
loop_
 _atom_site_type_symbol
 _atom_site_label
 _atom_site_symmetry_multiplicity
 _atom_site_fract_x
 _atom_site_fract_y
 _atom_site_fract_z
 _atom_site_occupancy
  Pr  Pr0  1  0.32631381  0.67473461  0.06855346  1
  Pr  Pr1  1  0.17368619  0.17473461  0.43144654  1
  Pr  Pr2  1  0.67368619  0.32526539  0.56855346  1
  Pr  Pr3  1  0.82631381  0.82526539  0.93144654  1
  Pr  Pr4  1  0.67368619  0.32526539  0.93144654  1
  Pr  Pr5  1  0.82631381  0.82526539  0.56855346  1
  Pr  Pr6  1  0.32631381  0.67473461  0.43144654  1
  Pr  Pr7  1  0.17368619  0.17473461  0.06855346  1
  Pr  Pr8  1  0.85421687  0.54087811  0.25000000  1
  Pr  Pr9  1  0.64578313  0.04087811  0.25000000  1
  Pr  Pr10  1  0.14578313  0.45912189  0.75000000  1
  Pr  Pr11  1  0.35421687  0.95912189  0.75000000  1
  Ru  Ru12  1  0.05143443  0.88453696  0.25000000  1
  Ru  Ru13  1  0.44856557  0.38453696  0.25000000  1
  Ru  Ru14  1  0.94856557  0.11546304  0.75000000  1
  Ru  Ru15  1  0.55143443  0.61546304  0.75000000  1
