# generated using pymatgen
data_Nb5Ge3B
_symmetry_space_group_name_H-M   'P 1'
_cell_length_a   5.37184766
_cell_length_b   7.78026979
_cell_length_c   7.77997195
_cell_angle_alpha   120.00126832
_cell_angle_beta   90.00000000
_cell_angle_gamma   90.00000000
_symmetry_Int_Tables_number   1
_chemical_formula_structural   Nb5Ge3B
_chemical_formula_sum   'Nb10 Ge6 B2'
_cell_volume   281.59274214
_cell_formula_units_Z   2
loop_
 _symmetry_equiv_pos_site_id
 _symmetry_equiv_pos_as_xyz
  1  'x, y, z'
loop_
 _atom_site_type_symbol
 _atom_site_label
 _atom_site_symmetry_multiplicity
 _atom_site_fract_x
 _atom_site_fract_y
 _atom_site_fract_z
 _atom_site_occupancy
  Nb  Nb0  1  0.49999974  0.33329170  0.66660006  1
  Nb  Nb1  1  0.49999974  0.66669164  0.33339994  1
  Nb  Nb2  1  0.99999974  0.66670830  0.33339994  1
  Nb  Nb3  1  0.99999974  0.33330836  0.66660006  1
  Nb  Nb4  1  0.75000254  0.24357594  1.00000000  1
  Nb  Nb5  1  0.74999884  0.75633450  0.75641703  1
  Nb  Nb6  1  0.74999884  0.99991747  0.24358297  1
  Nb  Nb7  1  0.25000254  0.75642406  0.00000000  1
  Nb  Nb8  1  0.24999884  0.24366550  0.24358297  1
  Nb  Nb9  1  0.24999884  0.00008253  0.75641703  1
  Ge  Ge10  1  0.74999193  0.59937645  1.00000000  1
  Ge  Ge11  1  0.75000413  0.40048961  0.40047502  1
  Ge  Ge12  1  0.75000413  0.00001459  0.59952498  1
  Ge  Ge13  1  0.24999193  0.40062355  0.00000000  1
  Ge  Ge14  1  0.25000413  0.59951039  0.59952498  1
  Ge  Ge15  1  0.25000413  0.99998541  0.40047502  1
  B  B16  1  0.50000011  0.00001257  0.00000000  1
  B  B17  1  0.00000011  0.99998743  1.00000000  1
