# generated using pymatgen
data_Sm7Pd3
_symmetry_space_group_name_H-M   'P 1'
_cell_length_a   6.45518548
_cell_length_b   10.08351687
_cell_length_c   10.08351687
_cell_angle_alpha   119.78182193
_cell_angle_beta   90.00000000
_cell_angle_gamma   90.00000000
_symmetry_Int_Tables_number   1
_chemical_formula_structural   Sm7Pd3
_chemical_formula_sum   'Sm14 Pd6'
_cell_volume   569.65776733
_cell_formula_units_Z   2
loop_
 _symmetry_equiv_pos_site_id
 _symmetry_equiv_pos_as_xyz
  1  'x, y, z'
loop_
 _atom_site_type_symbol
 _atom_site_label
 _atom_site_symmetry_multiplicity
 _atom_site_fract_x
 _atom_site_fract_y
 _atom_site_fract_z
 _atom_site_occupancy
  Sm  Sm0  1  0.44855113  0.33341677  0.66658323  1
  Sm  Sm1  1  0.94855113  0.66658323  0.33341677  1
  Sm  Sm2  1  0.24607237  0.12651282  0.87348718  1
  Sm  Sm3  1  0.24554675  0.74706472  0.87354416  1
  Sm  Sm4  1  0.24554675  0.12645584  0.25293528  1
  Sm  Sm5  1  0.74607237  0.87348718  0.12651282  1
  Sm  Sm6  1  0.74554675  0.25293528  0.12645584  1
  Sm  Sm7  1  0.74554675  0.87354416  0.74706472  1
  Sm  Sm8  1  0.44596460  0.53779014  0.46220986  1
  Sm  Sm9  1  0.44518786  0.92478122  0.46238624  1
  Sm  Sm10  1  0.44518786  0.53761376  0.07521878  1
  Sm  Sm11  1  0.94596460  0.46220986  0.53779014  1
  Sm  Sm12  1  0.94518786  0.07521878  0.53761376  1
  Sm  Sm13  1  0.94518786  0.46238624  0.92478122  1
  Pd  Pd14  1  0.19030493  0.81094388  0.18905612  1
  Pd  Pd15  1  0.19031889  0.37795589  0.18894728  1
  Pd  Pd16  1  0.19031889  0.81105272  0.62204411  1
  Pd  Pd17  1  0.69030493  0.18905612  0.81094388  1
  Pd  Pd18  1  0.69031889  0.62204411  0.81105272  1
  Pd  Pd19  1  0.69031889  0.18894728  0.37795589  1
