# generated using pymatgen
data_Hf5CuSb3
_symmetry_space_group_name_H-M   'P 1'
_cell_length_a   5.75893201
_cell_length_b   8.57333592
_cell_length_c   8.57497161
_cell_angle_alpha   119.99369335
_cell_angle_beta   90.00000000
_cell_angle_gamma   90.00000000
_symmetry_Int_Tables_number   1
_chemical_formula_structural   Hf5CuSb3
_chemical_formula_sum   'Hf10 Cu2 Sb6'
_cell_volume   366.67619033
_cell_formula_units_Z   2
loop_
 _symmetry_equiv_pos_site_id
 _symmetry_equiv_pos_as_xyz
  1  'x, y, z'
loop_
 _atom_site_type_symbol
 _atom_site_label
 _atom_site_symmetry_multiplicity
 _atom_site_fract_x
 _atom_site_fract_y
 _atom_site_fract_z
 _atom_site_occupancy
  Hf  Hf0  1  0.49999979  0.33332634  0.66667234  1
  Hf  Hf1  1  0.49999979  0.66665399  0.33332766  1
  Hf  Hf2  1  0.99999979  0.66667366  0.33332766  1
  Hf  Hf3  1  0.99999979  0.33334601  0.66667234  1
  Hf  Hf4  1  0.74999591  0.26522397  0.00000000  1
  Hf  Hf5  1  0.75000220  0.73478573  0.73475531  1
  Hf  Hf6  1  0.75000220  0.00003042  0.26524469  1
  Hf  Hf7  1  0.24999591  0.73477603  1.00000000  1
  Hf  Hf8  1  0.25000220  0.26521427  0.26524469  1
  Hf  Hf9  1  0.25000220  0.99996958  0.73475531  1
  Cu  Cu10  1  0.00000054  0.99999767  0.00000000  1
  Cu  Cu11  1  0.50000054  0.00000233  0.00000000  1
  Sb  Sb12  1  0.74999383  0.61470241  1.00000000  1
  Sb  Sb13  1  0.75000287  0.38529346  0.38528578  1
  Sb  Sb14  1  0.75000287  0.00000768  0.61471422  1
  Sb  Sb15  1  0.24999383  0.38529759  0.00000000  1
  Sb  Sb16  1  0.25000287  0.61470654  0.61471422  1
  Sb  Sb17  1  0.25000287  0.99999232  0.38528578  1
