# generated using pymatgen
data_Y2Se3
_symmetry_space_group_name_H-M   'P 1'
_cell_length_a   7.11644496
_cell_length_b   7.11644496
_cell_length_c   12.99519927
_cell_angle_alpha   100.64576394
_cell_angle_beta   100.64576394
_cell_angle_gamma   108.98454262
_symmetry_Int_Tables_number   1
_chemical_formula_structural   Y2Se3
_chemical_formula_sum   'Y8 Se12'
_cell_volume   590.01001070
_cell_formula_units_Z   4
loop_
 _symmetry_equiv_pos_site_id
 _symmetry_equiv_pos_as_xyz
  1  'x, y, z'
loop_
 _atom_site_type_symbol
 _atom_site_label
 _atom_site_symmetry_multiplicity
 _atom_site_fract_x
 _atom_site_fract_y
 _atom_site_fract_z
 _atom_site_occupancy
  Y  Y0  1  0.70863535  0.95863535  0.91727070  1
  Y  Y1  1  0.54136465  0.79136465  0.58272930  1
  Y  Y2  1  0.29136465  0.04136465  0.08272930  1
  Y  Y3  1  0.45863535  0.20863535  0.41727070  1
  Y  Y4  1  0.37262443  0.62262443  0.24524885  1
  Y  Y5  1  0.87737557  0.12737557  0.25475115  1
  Y  Y6  1  0.62737557  0.37737557  0.75475115  1
  Y  Y7  1  0.12262443  0.87262443  0.74524885  1
  Se  Se8  1  0.86659972  0.11659972  0.75000000  1
  Se  Se9  1  0.38340028  0.63340028  0.75000000  1
  Se  Se10  1  0.13340028  0.88340028  0.25000000  1
  Se  Se11  1  0.61659972  0.36659972  0.25000000  1
  Se  Se12  1  0.54902112  0.80502552  0.08778832  1
  Se  Se13  1  0.69497448  0.95097888  0.41221168  1
  Se  Se14  1  0.21723720  0.46123280  0.41221168  1
  Se  Se15  1  0.03876720  0.28276280  0.08778832  1
  Se  Se16  1  0.45097888  0.19497448  0.91221168  1
  Se  Se17  1  0.30502552  0.04902112  0.58778832  1
  Se  Se18  1  0.78276280  0.53876720  0.58778832  1
  Se  Se19  1  0.96123280  0.71723720  0.91221168  1
