# generated using pymatgen
data_NaLaFeWO6
_symmetry_space_group_name_H-M   'P 1'
_cell_length_a   5.60198789
_cell_length_b   5.64790478
_cell_length_c   8.11024471
_cell_angle_alpha   90.27776314
_cell_angle_beta   90.00000000
_cell_angle_gamma   90.00000000
_symmetry_Int_Tables_number   1
_chemical_formula_structural   NaLaFeWO6
_chemical_formula_sum   'Na2 La2 Fe2 W2 O12'
_cell_volume   256.60102475
_cell_formula_units_Z   2
loop_
 _symmetry_equiv_pos_site_id
 _symmetry_equiv_pos_as_xyz
  1  'x, y, z'
loop_
 _atom_site_type_symbol
 _atom_site_label
 _atom_site_symmetry_multiplicity
 _atom_site_fract_x
 _atom_site_fract_y
 _atom_site_fract_z
 _atom_site_occupancy
  Na  Na0  1  0.98183876  0.25747195  0.50043084  1
  Na  Na1  1  0.48183876  0.74252805  0.49956916  1
  La  La2  1  0.98908429  0.24754198  0.99902599  1
  La  La3  1  0.48908429  0.75245802  0.00097401  1
  Fe  Fe4  1  0.46763655  0.24643940  0.74092770  1
  Fe  Fe5  1  0.96763655  0.75356060  0.25907230  1
  W  W6  1  0.46339802  0.25338850  0.26156653  1
  W  W7  1  0.96339802  0.74661150  0.73843347  1
  O  O8  1  0.24212683  0.99443877  0.19012822  1
  O  O9  1  0.74212683  0.00556123  0.80987178  1
  O  O10  1  0.22301015  0.96891058  0.80350053  1
  O  O11  1  0.72301015  0.03108942  0.19649947  1
  O  O12  1  0.18652883  0.45731761  0.27571858  1
  O  O13  1  0.68652883  0.54268239  0.72428142  1
  O  O14  1  0.17249800  0.48416781  0.72103874  1
  O  O15  1  0.67249800  0.51583219  0.27896126  1
  O  O16  1  0.45184435  0.33129375  0.00989368  1
  O  O17  1  0.95184435  0.66870625  0.99010632  1
  O  O18  1  0.46363421  0.16664891  0.48289567  1
  O  O19  1  0.96363421  0.83335109  0.51710433  1
