# generated using pymatgen
data_Cs6Fe2O5
_symmetry_space_group_name_H-M   'P 1'
_cell_length_a   7.34050932
_cell_length_b   7.34050932
_cell_length_c   7.48025099
_cell_angle_alpha   93.13315187
_cell_angle_beta   93.13315187
_cell_angle_gamma   117.59639288
_symmetry_Int_Tables_number   1
_chemical_formula_structural   Cs6Fe2O5
_chemical_formula_sum   'Cs6 Fe2 O5'
_cell_volume   355.21044637
_cell_formula_units_Z   1
loop_
 _symmetry_equiv_pos_site_id
 _symmetry_equiv_pos_as_xyz
  1  'x, y, z'
loop_
 _atom_site_type_symbol
 _atom_site_label
 _atom_site_symmetry_multiplicity
 _atom_site_fract_x
 _atom_site_fract_y
 _atom_site_fract_z
 _atom_site_occupancy
  Cs  Cs0  1  0.01257051  0.01257051  0.36428924  1
  Cs  Cs1  1  0.29589240  0.29589240  0.99345689  1
  Cs  Cs2  1  0.88761902  0.40595091  0.68565217  1
  Cs  Cs3  1  0.40595091  0.88761902  0.68565217  1
  Cs  Cs4  1  0.86098911  0.43473509  0.18358391  1
  Cs  Cs5  1  0.43473509  0.86098911  0.18358391  1
  Fe  Fe6  1  0.83744779  0.83744779  0.87886532  1
  Fe  Fe7  1  0.44751990  0.44751990  0.50893795  1
  O  O8  1  0.61011396  0.61011396  0.72882382  1
  O  O9  1  0.22363467  0.48459302  0.40778793  1
  O  O10  1  0.48459302  0.22363467  0.40778793  1
  O  O11  1  0.07814819  0.81718543  0.95848937  1
  O  O12  1  0.81718543  0.07814819  0.95848937  1
