# generated using pymatgen
data_Fe3(O2F)2
_symmetry_space_group_name_H-M   'P 1'
_cell_length_a   10.59246744
_cell_length_b   6.64219473
_cell_length_c   3.02698531
_cell_angle_alpha   90.00000000
_cell_angle_beta   90.00000000
_cell_angle_gamma   71.74809071
_symmetry_Int_Tables_number   1
_chemical_formula_structural   Fe3(O2F)2
_chemical_formula_sum   'Fe6 O8 F4'
_cell_volume   202.25549084
_cell_formula_units_Z   2
loop_
 _symmetry_equiv_pos_site_id
 _symmetry_equiv_pos_as_xyz
  1  'x, y, z'
loop_
 _atom_site_type_symbol
 _atom_site_label
 _atom_site_symmetry_multiplicity
 _atom_site_fract_x
 _atom_site_fract_y
 _atom_site_fract_z
 _atom_site_occupancy
  Fe  Fe0  1  0.01510221  0.99250465  0.00000000  1
  Fe  Fe1  1  0.01222594  0.49392380  0.50000000  1
  Fe  Fe2  1  0.33323464  0.33340548  0.00000000  1
  Fe  Fe3  1  0.65567628  0.17211639  0.50000000  1
  Fe  Fe4  1  0.33199957  0.83402502  0.50000000  1
  Fe  Fe5  1  0.65036260  0.67473025  0.00000000  1
  O  O6  1  0.00415926  0.30514007  0.00000000  1
  O  O7  1  0.00432377  0.69069873  0.00000000  1
  O  O8  1  0.21401907  0.39286407  0.50000000  1
  O  O9  1  0.45570712  0.27228981  0.50000000  1
  O  O10  1  0.14146796  0.92949282  0.50000000  1
  O  O11  1  0.66181768  0.36111606  0.00000000  1
  O  O12  1  0.52676106  0.73642845  0.50000000  1
  O  O13  1  0.66163524  0.97707657  0.00000000  1
  F  F14  1  0.33446049  0.02621920  0.00000000  1
  F  F15  1  0.33413359  0.63949921  0.00000000  1
  F  F16  1  0.87269307  0.06351725  0.50000000  1
  F  F17  1  0.79021844  0.60495316  0.50000000  1
