# generated using pymatgen
data_Er7IrI12
_symmetry_space_group_name_H-M   'P 1'
_cell_length_a   9.75682150
_cell_length_b   9.75682150
_cell_length_c   9.75682173
_cell_angle_alpha   106.90268991
_cell_angle_beta   106.90268991
_cell_angle_gamma   106.90268755
_symmetry_Int_Tables_number   1
_chemical_formula_structural   Er7IrI12
_chemical_formula_sum   'Er7 Ir1 I12'
_cell_volume   775.56283192
_cell_formula_units_Z   1
loop_
 _symmetry_equiv_pos_site_id
 _symmetry_equiv_pos_as_xyz
  1  'x, y, z'
loop_
 _atom_site_type_symbol
 _atom_site_label
 _atom_site_symmetry_multiplicity
 _atom_site_fract_x
 _atom_site_fract_y
 _atom_site_fract_z
 _atom_site_occupancy
  Er  Er0  1  0.02312785  0.09329376  0.29413891  1
  Er  Er1  1  0.09329376  0.29413891  0.02312785  1
  Er  Er2  1  0.29413891  0.02312785  0.09329376  1
  Er  Er3  1  0.97687215  0.90670624  0.70586109  1
  Er  Er4  1  0.90670624  0.70586109  0.97687215  1
  Er  Er5  1  0.70586109  0.97687215  0.90670624  1
  Er  Er6  1  0.50000000  0.50000000  0.50000000  1
  Ir  Ir7  1  -0.00000000  0.00000000  0.00000000  1
  I  I8  1  0.67456931  0.06970997  0.22461063  1
  I  I9  1  0.06970997  0.22461063  0.67456931  1
  I  I10  1  0.22461063  0.67456931  0.06970997  1
  I  I11  1  0.32543069  0.93029003  0.77538937  1
  I  I12  1  0.93029003  0.77538937  0.32543069  1
  I  I13  1  0.77538937  0.32543069  0.93029003  1
  I  I14  1  0.16347100  0.46544018  0.38886076  1
  I  I15  1  0.46544018  0.38886076  0.16347100  1
  I  I16  1  0.38886076  0.16347100  0.46544018  1
  I  I17  1  0.83652900  0.53455982  0.61113924  1
  I  I18  1  0.53455982  0.61113924  0.83652900  1
  I  I19  1  0.61113924  0.83652900  0.53455982  1
