# generated using pymatgen
data_Th2Se3
_symmetry_space_group_name_H-M   'P 1'
_cell_length_a   4.07603162
_cell_length_b   11.35695939
_cell_length_c   11.40593064
_cell_angle_alpha   90.00000000
_cell_angle_beta   90.00000000
_cell_angle_gamma   90.00000000
_symmetry_Int_Tables_number   1
_chemical_formula_structural   Th2Se3
_chemical_formula_sum   'Th8 Se12'
_cell_volume   527.99564881
_cell_formula_units_Z   4
loop_
 _symmetry_equiv_pos_site_id
 _symmetry_equiv_pos_as_xyz
  1  'x, y, z'
loop_
 _atom_site_type_symbol
 _atom_site_label
 _atom_site_symmetry_multiplicity
 _atom_site_fract_x
 _atom_site_fract_y
 _atom_site_fract_z
 _atom_site_occupancy
  Th  Th0  1  0.25000000  0.18509140  0.47961037  1
  Th  Th1  1  0.25000000  0.31490860  0.97961037  1
  Th  Th2  1  0.75000000  0.81490860  0.52038963  1
  Th  Th3  1  0.75000000  0.68509140  0.02038963  1
  Th  Th4  1  0.75000000  0.48641418  0.69936418  1
  Th  Th5  1  0.75000000  0.01358582  0.19936418  1
  Th  Th6  1  0.25000000  0.51358582  0.30063582  1
  Th  Th7  1  0.25000000  0.98641418  0.80063582  1
  Se  Se8  1  0.25000000  0.62094743  0.55108255  1
  Se  Se9  1  0.25000000  0.87905257  0.05108255  1
  Se  Se10  1  0.75000000  0.37905257  0.44891745  1
  Se  Se11  1  0.75000000  0.12094743  0.94891745  1
  Se  Se12  1  0.75000000  0.05655631  0.62301636  1
  Se  Se13  1  0.75000000  0.44344369  0.12301636  1
  Se  Se14  1  0.25000000  0.94344369  0.37698364  1
  Se  Se15  1  0.25000000  0.55655631  0.87698364  1
  Se  Se16  1  0.25000000  0.29312898  0.72029910  1
  Se  Se17  1  0.25000000  0.20687102  0.22029910  1
  Se  Se18  1  0.75000000  0.70687102  0.27970090  1
  Se  Se19  1  0.75000000  0.79312898  0.77970090  1
