# generated using pymatgen
data_Er3Ni
_symmetry_space_group_name_H-M   'P 1'
_cell_length_a   6.27103638
_cell_length_b   6.75425939
_cell_length_c   9.45578609
_cell_angle_alpha   90.00000000
_cell_angle_beta   90.00000000
_cell_angle_gamma   90.00000000
_symmetry_Int_Tables_number   1
_chemical_formula_structural   Er3Ni
_chemical_formula_sum   'Er12 Ni4'
_cell_volume   400.51122687
_cell_formula_units_Z   4
loop_
 _symmetry_equiv_pos_site_id
 _symmetry_equiv_pos_as_xyz
  1  'x, y, z'
loop_
 _atom_site_type_symbol
 _atom_site_label
 _atom_site_symmetry_multiplicity
 _atom_site_fract_x
 _atom_site_fract_y
 _atom_site_fract_z
 _atom_site_occupancy
  Er  Er0  1  0.32073303  0.67850051  0.06549965  1
  Er  Er1  1  0.17926697  0.17850051  0.43450035  1
  Er  Er2  1  0.67926697  0.32149949  0.56549965  1
  Er  Er3  1  0.82073303  0.82149949  0.93450035  1
  Er  Er4  1  0.67926697  0.32149949  0.93450035  1
  Er  Er5  1  0.82073303  0.82149949  0.56549965  1
  Er  Er6  1  0.32073303  0.67850051  0.43450035  1
  Er  Er7  1  0.17926697  0.17850051  0.06549965  1
  Er  Er8  1  0.86127366  0.53271557  0.25000000  1
  Er  Er9  1  0.63872634  0.03271557  0.25000000  1
  Er  Er10  1  0.13872634  0.46728443  0.75000000  1
  Er  Er11  1  0.36127366  0.96728443  0.75000000  1
  Ni  Ni12  1  0.05652316  0.89176753  0.25000000  1
  Ni  Ni13  1  0.44347684  0.39176753  0.25000000  1
  Ni  Ni14  1  0.94347684  0.10823247  0.75000000  1
  Ni  Ni15  1  0.55652316  0.60823247  0.75000000  1
