# generated using pymatgen
data_Gd2Te3
_symmetry_space_group_name_H-M   'P 1'
_cell_length_a   4.34558112
_cell_length_b   11.87601520
_cell_length_c   12.10825381
_cell_angle_alpha   90.00000000
_cell_angle_beta   90.00000000
_cell_angle_gamma   90.00000000
_symmetry_Int_Tables_number   1
_chemical_formula_structural   Gd2Te3
_chemical_formula_sum   'Gd8 Te12'
_cell_volume   624.88503212
_cell_formula_units_Z   4
loop_
 _symmetry_equiv_pos_site_id
 _symmetry_equiv_pos_as_xyz
  1  'x, y, z'
loop_
 _atom_site_type_symbol
 _atom_site_label
 _atom_site_symmetry_multiplicity
 _atom_site_fract_x
 _atom_site_fract_y
 _atom_site_fract_z
 _atom_site_occupancy
  Gd  Gd0  1  0.25000000  0.18814958  0.48297251  1
  Gd  Gd1  1  0.25000000  0.31185042  0.98297251  1
  Gd  Gd2  1  0.75000000  0.81185042  0.51702749  1
  Gd  Gd3  1  0.75000000  0.68814958  0.01702749  1
  Gd  Gd4  1  0.25000000  0.00195092  0.80416442  1
  Gd  Gd5  1  0.25000000  0.49804908  0.30416442  1
  Gd  Gd6  1  0.75000000  0.99804908  0.19583558  1
  Gd  Gd7  1  0.75000000  0.50195092  0.69583558  1
  Te  Te8  1  0.25000000  0.62344030  0.54312060  1
  Te  Te9  1  0.25000000  0.87655970  0.04312060  1
  Te  Te10  1  0.75000000  0.37655970  0.45687940  1
  Te  Te11  1  0.75000000  0.12344030  0.95687940  1
  Te  Te12  1  0.25000000  0.94324752  0.38149362  1
  Te  Te13  1  0.25000000  0.55675248  0.88149362  1
  Te  Te14  1  0.75000000  0.05675248  0.61850638  1
  Te  Te15  1  0.75000000  0.44324752  0.11850638  1
  Te  Te16  1  0.25000000  0.30304410  0.72404277  1
  Te  Te17  1  0.25000000  0.19695590  0.22404277  1
  Te  Te18  1  0.75000000  0.69695590  0.27595723  1
  Te  Te19  1  0.75000000  0.80304410  0.77595723  1
