# generated using pymatgen
data_Ho5Ge3C
_symmetry_space_group_name_H-M   'P 1'
_cell_length_a   6.43430210
_cell_length_b   8.47890060
_cell_length_c   8.48555315
_cell_angle_alpha   119.97407356
_cell_angle_beta   90.00000000
_cell_angle_gamma   90.00000000
_symmetry_Int_Tables_number   1
_chemical_formula_structural   Ho5Ge3C
_chemical_formula_sum   'Ho10 Ge6 C2'
_cell_volume   401.01921485
_cell_formula_units_Z   2
loop_
 _symmetry_equiv_pos_site_id
 _symmetry_equiv_pos_as_xyz
  1  'x, y, z'
loop_
 _atom_site_type_symbol
 _atom_site_label
 _atom_site_symmetry_multiplicity
 _atom_site_fract_x
 _atom_site_fract_y
 _atom_site_fract_z
 _atom_site_occupancy
  Ho  Ho0  1  0.49999965  0.33322501  0.66647865  1
  Ho  Ho1  1  0.49999965  0.66674635  0.33352135  1
  Ho  Ho2  1  0.99999965  0.66677499  0.33352135  1
  Ho  Ho3  1  0.99999965  0.33325365  0.66647865  1
  Ho  Ho4  1  0.74999948  0.22126782  0.00000000  1
  Ho  Ho5  1  0.75000210  0.77849119  0.77828112  1
  Ho  Ho6  1  0.75000210  0.00021006  0.22171888  1
  Ho  Ho7  1  0.24999948  0.77873218  1.00000000  1
  Ho  Ho8  1  0.25000210  0.22150881  0.22171888  1
  Ho  Ho9  1  0.25000210  0.99978994  0.77828112  1
  Ge  Ge10  1  0.75000791  0.59345401  0.00000000  1
  Ge  Ge11  1  0.74999455  0.40631623  0.40635813  1
  Ge  Ge12  1  0.74999455  0.99995809  0.59364187  1
  Ge  Ge13  1  0.25000791  0.40654599  1.00000000  1
  Ge  Ge14  1  0.24999455  0.59368377  0.59364187  1
  Ge  Ge15  1  0.24999455  0.00004191  0.40635813  1
  C  C16  1  0.50000000  0.99999264  0.00000000  1
  C  C17  1  0.00000000  0.00000736  1.00000000  1
