# generated using pymatgen
data_Er5Tl3
_symmetry_space_group_name_H-M   'P 1'
_cell_length_a   6.70408845
_cell_length_b   8.90285152
_cell_length_c   8.93149749
_cell_angle_alpha   119.89395718
_cell_angle_beta   90.00000000
_cell_angle_gamma   90.00000000
_symmetry_Int_Tables_number   1
_chemical_formula_structural   Er5Tl3
_chemical_formula_sum   'Er10 Tl6'
_cell_volume   462.15414850
_cell_formula_units_Z   2
loop_
 _symmetry_equiv_pos_site_id
 _symmetry_equiv_pos_as_xyz
  1  'x, y, z'
loop_
 _atom_site_type_symbol
 _atom_site_label
 _atom_site_symmetry_multiplicity
 _atom_site_fract_x
 _atom_site_fract_y
 _atom_site_fract_z
 _atom_site_occupancy
  Er  Er0  1  0.49998710  0.33319650  0.66648341  1
  Er  Er1  1  0.49998710  0.66671308  0.33351659  1
  Er  Er2  1  0.99998710  0.66680350  0.33351659  1
  Er  Er3  1  0.99998710  0.33328692  0.66648341  1
  Er  Er4  1  0.75003068  0.23689074  0.00000000  1
  Er  Er5  1  0.75001586  0.76350538  0.76323656  1
  Er  Er6  1  0.75001586  0.00026881  0.23676344  1
  Er  Er7  1  0.25003068  0.76310926  1.00000000  1
  Er  Er8  1  0.25001586  0.23649462  0.23676344  1
  Er  Er9  1  0.25001586  0.99973119  0.76323656  1
  Tl  Tl10  1  0.74997193  0.59903789  -0.00000000  1
  Tl  Tl11  1  0.74999573  0.40082264  0.40087029  1
  Tl  Tl12  1  0.74999573  -0.00004765  0.59912971  1
  Tl  Tl13  1  0.24997193  0.40096211  0.00000000  1
  Tl  Tl14  1  0.24999573  0.59917736  0.59912971  1
  Tl  Tl15  1  0.24999573  0.00004765  0.40087029  1
