# generated using pymatgen
data_Ce2AlGe6
_symmetry_space_group_name_H-M   'P 1'
_cell_length_a   6.03626751
_cell_length_b   6.03626751
_cell_length_c   10.67514268
_cell_angle_alpha   98.08169459
_cell_angle_beta   98.08169459
_cell_angle_gamma   91.33126209
_symmetry_Int_Tables_number   1
_chemical_formula_structural   Ce2AlGe6
_chemical_formula_sum   'Ce4 Al2 Ge12'
_cell_volume   380.91058126
_cell_formula_units_Z   2
loop_
 _symmetry_equiv_pos_site_id
 _symmetry_equiv_pos_as_xyz
  1  'x, y, z'
loop_
 _atom_site_type_symbol
 _atom_site_label
 _atom_site_symmetry_multiplicity
 _atom_site_fract_x
 _atom_site_fract_y
 _atom_site_fract_z
 _atom_site_occupancy
  Ce  Ce0  1  0.83621266  0.33361238  0.33643258  1
  Ce  Ce1  1  0.33361238  0.83621266  0.33643258  1
  Ce  Ce2  1  0.16378734  0.66638762  0.66356742  1
  Ce  Ce3  1  0.66638762  0.16378734  0.66356742  1
  Al  Al4  1  0.80037779  0.80037779  0.19863526  1
  Al  Al5  1  0.19962221  0.19962221  0.80136474  1
  Ge  Ge6  1  0.14716932  0.14716932  0.56221920  1
  Ge  Ge7  1  0.85283068  0.85283068  0.43778080  1
  Ge  Ge8  1  0.36144154  0.36144154  0.41554177  1
  Ge  Ge9  1  0.63855846  0.63855846  0.58445823  1
  Ge  Ge10  1  0.06500915  0.49422185  0.11607170  1
  Ge  Ge11  1  0.49422185  0.06500915  0.11607170  1
  Ge  Ge12  1  0.93499085  0.50577815  0.88392830  1
  Ge  Ge13  1  0.50577815  0.93499085  0.88392830  1
  Ge  Ge14  1  0.06725663  0.06725663  0.11605941  1
  Ge  Ge15  1  0.93274337  0.93274337  0.88394059  1
  Ge  Ge16  1  0.49182732  0.49182732  0.11637070  1
  Ge  Ge17  1  0.50817268  0.50817268  0.88362930  1
