# generated using pymatgen
data_LaCrSe3
_symmetry_space_group_name_H-M   'P 1'
_cell_length_a   4.00646776
_cell_length_b   8.24937028
_cell_length_c   13.84050508
_cell_angle_alpha   90.00000000
_cell_angle_beta   90.00000000
_cell_angle_gamma   90.00000000
_symmetry_Int_Tables_number   1
_chemical_formula_structural   LaCrSe3
_chemical_formula_sum   'La4 Cr4 Se12'
_cell_volume   457.44026449
_cell_formula_units_Z   4
loop_
 _symmetry_equiv_pos_site_id
 _symmetry_equiv_pos_as_xyz
  1  'x, y, z'
loop_
 _atom_site_type_symbol
 _atom_site_label
 _atom_site_symmetry_multiplicity
 _atom_site_fract_x
 _atom_site_fract_y
 _atom_site_fract_z
 _atom_site_occupancy
  La  La0  1  0.75000000  0.40497091  0.67113525  1
  La  La1  1  0.75000000  0.90497091  0.82886475  1
  La  La2  1  0.25000000  0.59502909  0.32886475  1
  La  La3  1  0.25000000  0.09502909  0.17113525  1
  Cr  Cr4  1  0.75000000  0.16099353  0.44802290  1
  Cr  Cr5  1  0.75000000  0.66099353  0.05197710  1
  Cr  Cr6  1  0.25000000  0.83900647  0.55197710  1
  Cr  Cr7  1  0.25000000  0.33900647  0.94802290  1
  Se  Se8  1  0.75000000  0.30849885  0.28779062  1
  Se  Se9  1  0.75000000  0.80849885  0.21220938  1
  Se  Se10  1  0.25000000  0.69150115  0.71220938  1
  Se  Se11  1  0.25000000  0.19150115  0.78779062  1
  Se  Se12  1  0.75000000  0.15972153  0.00357477  1
  Se  Se13  1  0.75000000  0.65972153  0.49642523  1
  Se  Se14  1  0.25000000  0.84027847  0.99642523  1
  Se  Se15  1  0.25000000  0.34027847  0.50357477  1
  Se  Se16  1  0.75000000  0.01251318  0.60621119  1
  Se  Se17  1  0.75000000  0.51251318  0.89378881  1
  Se  Se18  1  0.25000000  0.98748682  0.39378881  1
  Se  Se19  1  0.25000000  0.48748682  0.10621119  1
