# generated using pymatgen
data_Ba(InP)2
_symmetry_space_group_name_H-M   'P 1'
_cell_length_a   4.25092208
_cell_length_b   10.16417714
_cell_length_c   13.14184375
_cell_angle_alpha   94.61852161
_cell_angle_beta   90.00000000
_cell_angle_gamma   90.00000000
_symmetry_Int_Tables_number   1
_chemical_formula_structural   Ba(InP)2
_chemical_formula_sum   'Ba4 In8 P8'
_cell_volume   565.97751419
_cell_formula_units_Z   4
loop_
 _symmetry_equiv_pos_site_id
 _symmetry_equiv_pos_as_xyz
  1  'x, y, z'
loop_
 _atom_site_type_symbol
 _atom_site_label
 _atom_site_symmetry_multiplicity
 _atom_site_fract_x
 _atom_site_fract_y
 _atom_site_fract_z
 _atom_site_occupancy
  Ba  Ba0  1  0.75000000  0.43895876  0.15397239  1
  Ba  Ba1  1  0.25000000  0.56104124  0.84602761  1
  Ba  Ba2  1  0.75000000  0.84008913  0.59114659  1
  Ba  Ba3  1  0.25000000  0.15991087  0.40885341  1
  In  In4  1  0.25000000  0.55227427  0.40503525  1
  In  In5  1  0.75000000  0.44772573  0.59496475  1
  In  In6  1  0.75000000  0.04378220  0.16490187  1
  In  In7  1  0.25000000  0.95621780  0.83509813  1
  In  In8  1  0.25000000  0.18901554  0.96456122  1
  In  In9  1  0.75000000  0.81098446  0.03543878  1
  In  In10  1  0.25000000  0.77223375  0.28312638  1
  In  In11  1  0.75000000  0.22776625  0.71687362  1
  P  P12  1  0.25000000  0.19972895  0.16605384  1
  P  P13  1  0.75000000  0.80027105  0.83394616  1
  P  P14  1  0.75000000  0.39215843  0.39314418  1
  P  P15  1  0.25000000  0.60784157  0.60685582  1
  P  P16  1  0.75000000  0.92141511  0.33833796  1
  P  P17  1  0.25000000  0.07858489  0.66166204  1
  P  P18  1  0.25000000  0.67062145  0.08940335  1
  P  P19  1  0.75000000  0.32937855  0.91059665  1
