# generated using pymatgen
data_Dy(Co2B)6
_symmetry_space_group_name_H-M   'P 1'
_cell_length_a   5.95156702
_cell_length_b   5.95156702
_cell_length_c   5.95156721
_cell_angle_alpha   103.98873035
_cell_angle_beta   103.98873035
_cell_angle_gamma   103.98872684
_symmetry_Int_Tables_number   1
_chemical_formula_structural   Dy(Co2B)6
_chemical_formula_sum   'Dy1 Co12 B6'
_cell_volume   188.13632242
_cell_formula_units_Z   1
loop_
 _symmetry_equiv_pos_site_id
 _symmetry_equiv_pos_as_xyz
  1  'x, y, z'
loop_
 _atom_site_type_symbol
 _atom_site_label
 _atom_site_symmetry_multiplicity
 _atom_site_fract_x
 _atom_site_fract_y
 _atom_site_fract_z
 _atom_site_occupancy
  Dy  Dy0  1  -0.00000000  0.00000000  0.00000000  1
  Co  Co1  1  0.86745089  0.13254911  0.50000000  1
  Co  Co2  1  0.13254911  0.50000000  0.86745089  1
  Co  Co3  1  0.50000000  0.86745089  0.13254911  1
  Co  Co4  1  0.86745089  0.50000000  0.13254911  1
  Co  Co5  1  0.50000000  0.13254911  0.86745089  1
  Co  Co6  1  0.13254911  0.86745089  0.50000000  1
  Co  Co7  1  0.81383367  0.54375394  0.54375394  1
  Co  Co8  1  0.54375394  0.54375394  0.81383367  1
  Co  Co9  1  0.54375394  0.81383367  0.54375394  1
  Co  Co10  1  0.18616633  0.45624606  0.45624606  1
  Co  Co11  1  0.45624606  0.45624606  0.18616633  1
  Co  Co12  1  0.45624606  0.18616633  0.45624606  1
  B  B13  1  0.32378871  0.76778637  0.76778637  1
  B  B14  1  0.76778637  0.76778637  0.32378871  1
  B  B15  1  0.76778637  0.32378871  0.76778637  1
  B  B16  1  0.67621129  0.23221363  0.23221363  1
  B  B17  1  0.23221363  0.23221363  0.67621129  1
  B  B18  1  0.23221363  0.67621129  0.23221363  1
