# generated using pymatgen
data_LaCr4(CuO4)3
_symmetry_space_group_name_H-M   'P 1'
_cell_length_a   6.45351248
_cell_length_b   6.45351248
_cell_length_c   6.45351248
_cell_angle_alpha   109.47122063
_cell_angle_beta   109.47122063
_cell_angle_gamma   109.47122063
_symmetry_Int_Tables_number   1
_chemical_formula_structural   LaCr4(CuO4)3
_chemical_formula_sum   'La1 Cr4 Cu3 O12'
_cell_volume   206.90289760
_cell_formula_units_Z   1
loop_
 _symmetry_equiv_pos_site_id
 _symmetry_equiv_pos_as_xyz
  1  'x, y, z'
loop_
 _atom_site_type_symbol
 _atom_site_label
 _atom_site_symmetry_multiplicity
 _atom_site_fract_x
 _atom_site_fract_y
 _atom_site_fract_z
 _atom_site_occupancy
  La  La0  1  0.00000000  -0.00000000  0.00000000  1
  Cr  Cr1  1  0.00000000  -0.00000000  0.50000000  1
  Cr  Cr2  1  0.50000000  -0.00000000  0.00000000  1
  Cr  Cr3  1  0.00000000  0.50000000  0.00000000  1
  Cr  Cr4  1  0.50000000  0.50000000  0.50000000  1
  Cu  Cu5  1  0.50000000  -0.00000000  0.50000000  1
  Cu  Cu6  1  0.00000000  0.50000000  0.50000000  1
  Cu  Cu7  1  0.50000000  0.50000000  0.00000000  1
  O  O8  1  0.83110155  0.68878814  0.51988969  1
  O  O9  1  0.83110155  0.31121186  0.14231341  1
  O  O10  1  0.16889845  0.68878814  0.85768659  1
  O  O11  1  0.16889845  0.31121186  0.48011031  1
  O  O12  1  0.68878814  0.51988969  0.83110155  1
  O  O13  1  0.31121186  0.14231341  0.83110155  1
  O  O14  1  0.68878814  0.85768659  0.16889845  1
  O  O15  1  0.31121186  0.48011031  0.16889845  1
  O  O16  1  0.51988969  0.83110155  0.68878814  1
  O  O17  1  0.14231341  0.83110155  0.31121186  1
  O  O18  1  0.85768659  0.16889845  0.68878814  1
  O  O19  1  0.48011031  0.16889845  0.31121186  1
