# generated using pymatgen
data_LiCeSi2
_symmetry_space_group_name_H-M   'P 1'
_cell_length_a   3.87028235
_cell_length_b   7.66708611
_cell_length_c   10.48034256
_cell_angle_alpha   90.00000000
_cell_angle_beta   90.00000000
_cell_angle_gamma   90.00000000
_symmetry_Int_Tables_number   1
_chemical_formula_structural   LiCeSi2
_chemical_formula_sum   'Li4 Ce4 Si8'
_cell_volume   310.99146379
_cell_formula_units_Z   4
loop_
 _symmetry_equiv_pos_site_id
 _symmetry_equiv_pos_as_xyz
  1  'x, y, z'
loop_
 _atom_site_type_symbol
 _atom_site_label
 _atom_site_symmetry_multiplicity
 _atom_site_fract_x
 _atom_site_fract_y
 _atom_site_fract_z
 _atom_site_occupancy
  Li  Li0  1  0.75000000  0.50549392  0.10970571  1
  Li  Li1  1  0.75000000  0.00549392  0.39029429  1
  Li  Li2  1  0.25000000  0.49450608  0.89029429  1
  Li  Li3  1  0.25000000  0.99450608  0.60970571  1
  Ce  Ce4  1  0.75000000  0.36175334  0.63599699  1
  Ce  Ce5  1  0.75000000  0.86175334  0.86400301  1
  Ce  Ce6  1  0.25000000  0.63824666  0.36400301  1
  Ce  Ce7  1  0.25000000  0.13824666  0.13599699  1
  Si  Si8  1  0.75000000  0.26893700  0.93048666  1
  Si  Si9  1  0.75000000  0.76893700  0.56951334  1
  Si  Si10  1  0.25000000  0.73106300  0.06951334  1
  Si  Si11  1  0.25000000  0.23106300  0.43048666  1
  Si  Si12  1  0.75000000  0.83650039  0.17905395  1
  Si  Si13  1  0.75000000  0.33650039  0.32094605  1
  Si  Si14  1  0.25000000  0.16349961  0.82094605  1
  Si  Si15  1  0.25000000  0.66349961  0.67905395  1
