# generated using pymatgen
data_Y2Ge5Rh3
_symmetry_space_group_name_H-M   'P 1'
_cell_length_a   5.95347120
_cell_length_b   8.36625782
_cell_length_c   8.36625782
_cell_angle_alpha   92.47271178
_cell_angle_beta   109.60469897
_cell_angle_gamma   109.60469897
_symmetry_Int_Tables_number   1
_chemical_formula_structural   Y2Ge5Rh3
_chemical_formula_sum   'Y4 Ge10 Rh6'
_cell_volume   364.05793134
_cell_formula_units_Z   2
loop_
 _symmetry_equiv_pos_site_id
 _symmetry_equiv_pos_as_xyz
  1  'x, y, z'
loop_
 _atom_site_type_symbol
 _atom_site_label
 _atom_site_symmetry_multiplicity
 _atom_site_fract_x
 _atom_site_fract_y
 _atom_site_fract_z
 _atom_site_occupancy
  Y  Y0  1  0.23278688  0.86501553  0.59248051  1
  Y  Y1  1  0.26721312  0.40751949  0.13498447  1
  Y  Y2  1  0.76721312  0.13498447  0.40751949  1
  Y  Y3  1  0.73278688  0.59248051  0.86501553  1
  Ge  Ge4  1  0.16660556  0.07027401  0.26294532  1
  Ge  Ge5  1  0.33339444  0.73705468  0.92972599  1
  Ge  Ge6  1  0.83339444  0.92972599  0.73705468  1
  Ge  Ge7  1  0.66660556  0.26294532  0.07027401  1
  Ge  Ge8  1  0.25000000  0.21320713  0.78679287  1
  Ge  Ge9  1  0.75000000  0.78679287  0.21320713  1
  Ge  Ge10  1  0.25000000  0.50724812  0.49275188  1
  Ge  Ge11  1  0.75000000  0.49275188  0.50724812  1
  Ge  Ge12  1  0.25000000  0.77768799  0.22231201  1
  Ge  Ge13  1  0.75000000  0.22231201  0.77768799  1
  Rh  Rh14  1  0.38308932  0.25498182  0.53962893  1
  Rh  Rh15  1  0.11691068  0.46037107  0.74501818  1
  Rh  Rh16  1  0.61691068  0.74501818  0.46037107  1
  Rh  Rh17  1  0.88308932  0.53962893  0.25498182  1
  Rh  Rh18  1  0.25000000  0.00151393  0.99848607  1
  Rh  Rh19  1  0.75000000  0.99848607  0.00151393  1
