# generated using pymatgen
data_Y6CoI10
_symmetry_space_group_name_H-M   'P 1'
_cell_length_a   7.72794504
_cell_length_b   9.62833251
_cell_length_c   9.74227061
_cell_angle_alpha   107.40337352
_cell_angle_beta   97.02783321
_cell_angle_gamma   104.71933193
_symmetry_Int_Tables_number   1
_chemical_formula_structural   Y6CoI10
_chemical_formula_sum   'Y6 Co1 I10'
_cell_volume   653.37798005
_cell_formula_units_Z   1
loop_
 _symmetry_equiv_pos_site_id
 _symmetry_equiv_pos_as_xyz
  1  'x, y, z'
loop_
 _atom_site_type_symbol
 _atom_site_label
 _atom_site_symmetry_multiplicity
 _atom_site_fract_x
 _atom_site_fract_y
 _atom_site_fract_z
 _atom_site_occupancy
  Y  Y0  1  0.88755749  0.95939282  0.23823522  1
  Y  Y1  1  0.11244251  0.04060718  0.76176478  1
  Y  Y2  1  0.02955167  0.72792729  0.91941817  1
  Y  Y3  1  0.97044833  0.27207271  0.08058183  1
  Y  Y4  1  0.65346754  0.87642327  0.83547650  1
  Y  Y5  1  0.34653246  0.12357673  0.16452350  1
  Co  Co6  1  0.00000000  0.00000000  -0.00000000  1
  I  I7  1  0.64670671  0.54581608  0.72674076  1
  I  I8  1  0.35329329  0.45418392  0.27325924  1
  I  I9  1  0.73904725  0.91101209  0.53656120  1
  I  I10  1  0.26095275  0.08898791  0.46343880  1
  I  I11  1  0.08560254  0.37223668  0.82057127  1
  I  I12  1  0.91439746  0.62776332  0.17942873  1
  I  I13  1  0.45261563  0.81329885  0.09172365  1
  I  I14  1  0.54738437  0.18670115  0.90827635  1
  I  I15  1  0.21745394  0.73922278  0.65260562  1
  I  I16  1  0.78254606  0.26077722  0.34739438  1
