# generated using pymatgen
data_Mg2CoB2Ir5
_symmetry_space_group_name_H-M   'P 1'
_cell_length_a   2.89657538
_cell_length_b   9.44688905
_cell_length_c   9.44688905
_cell_angle_alpha   90.00000000
_cell_angle_beta   90.00000000
_cell_angle_gamma   90.00000000
_symmetry_Int_Tables_number   1
_chemical_formula_structural   Mg2CoB2Ir5
_chemical_formula_sum   'Mg4 Co2 B4 Ir10'
_cell_volume   258.50114109
_cell_formula_units_Z   2
loop_
 _symmetry_equiv_pos_site_id
 _symmetry_equiv_pos_as_xyz
  1  'x, y, z'
loop_
 _atom_site_type_symbol
 _atom_site_label
 _atom_site_symmetry_multiplicity
 _atom_site_fract_x
 _atom_site_fract_y
 _atom_site_fract_z
 _atom_site_occupancy
  Mg  Mg0  1  0.00000000  0.32346044  0.82346044  1
  Mg  Mg1  1  -0.00000000  0.67653956  0.17653956  1
  Mg  Mg2  1  -0.00000000  0.17653956  0.32346044  1
  Mg  Mg3  1  0.00000000  0.82346044  0.67653956  1
  Co  Co4  1  0.00000000  0.50000000  0.50000000  1
  Co  Co5  1  0.00000000  -0.00000000  0.00000000  1
  B  B6  1  -0.00000000  0.12638342  0.62638342  1
  B  B7  1  0.00000000  0.87361658  0.37361658  1
  B  B8  1  0.00000000  0.37361658  0.12638342  1
  B  B9  1  -0.00000000  0.62638342  0.87361658  1
  Ir  Ir10  1  0.50000000  -0.00000000  0.50000000  1
  Ir  Ir11  1  0.50000000  0.50000000  0.00000000  1
  Ir  Ir12  1  0.50000000  0.57058391  0.71432989  1
  Ir  Ir13  1  0.50000000  0.42941609  0.28567011  1
  Ir  Ir14  1  0.50000000  0.92941609  0.21432989  1
  Ir  Ir15  1  0.50000000  0.07058391  0.78567011  1
  Ir  Ir16  1  0.50000000  0.71432989  0.42941609  1
  Ir  Ir17  1  0.50000000  0.28567011  0.57058391  1
  Ir  Ir18  1  0.50000000  0.21432989  0.07058391  1
  Ir  Ir19  1  0.50000000  0.78567011  0.92941609  1
