# generated using pymatgen
data_GdGaPd2
_symmetry_space_group_name_H-M   'P 1'
_cell_length_a   5.71764842
_cell_length_b   7.16578249
_cell_length_c   7.47163343
_cell_angle_alpha   90.00323304
_cell_angle_beta   89.99561282
_cell_angle_gamma   90.00127127
_symmetry_Int_Tables_number   1
_chemical_formula_structural   GdGaPd2
_chemical_formula_sum   'Gd4 Ga4 Pd8'
_cell_volume   306.12346706
_cell_formula_units_Z   4
loop_
 _symmetry_equiv_pos_site_id
 _symmetry_equiv_pos_as_xyz
  1  'x, y, z'
loop_
 _atom_site_type_symbol
 _atom_site_label
 _atom_site_symmetry_multiplicity
 _atom_site_fract_x
 _atom_site_fract_y
 _atom_site_fract_z
 _atom_site_occupancy
  Gd  Gd0  1  0.15023434  0.74999130  0.46708021  1
  Gd  Gd1  1  0.34979937  0.75000861  0.96706507  1
  Gd  Gd2  1  0.84975508  0.25001056  0.53291959  1
  Gd  Gd3  1  0.65019733  0.24999570  0.03292749  1
  Ga  Ga4  1  0.84839714  0.74999494  0.12076218  1
  Ga  Ga5  1  0.65155877  0.75000205  0.62074829  1
  Ga  Ga6  1  0.15161168  0.25000104  0.87926150  1
  Ga  Ga7  1  0.34846390  0.24999808  0.37923511  1
  Pd  Pd8  1  0.58791904  0.94719401  0.32289525  1
  Pd  Pd9  1  0.91207991  0.55282205  0.82290538  1
  Pd  Pd10  1  0.41208716  0.44718794  0.67710241  1
  Pd  Pd11  1  0.08791253  0.05283089  0.17708728  1
  Pd  Pd12  1  0.41208273  0.05281102  0.67710185  1
  Pd  Pd13  1  0.08790808  0.44716701  0.17709849  1
  Pd  Pd14  1  0.58791790  0.55280576  0.32289596  1
  Pd  Pd15  1  0.91207503  0.94717902  0.82291395  1
