# generated using pymatgen
data_La5Sb3
_symmetry_space_group_name_H-M   'P 1'
_cell_length_a   6.55617231
_cell_length_b   9.60946961
_cell_length_c   9.61538525
_cell_angle_alpha   119.97965273
_cell_angle_beta   90.00000000
_cell_angle_gamma   90.00000000
_symmetry_Int_Tables_number   1
_chemical_formula_structural   La5Sb3
_chemical_formula_sum   'La10 Sb6'
_cell_volume   524.73025569
_cell_formula_units_Z   2
loop_
 _symmetry_equiv_pos_site_id
 _symmetry_equiv_pos_as_xyz
  1  'x, y, z'
loop_
 _atom_site_type_symbol
 _atom_site_label
 _atom_site_symmetry_multiplicity
 _atom_site_fract_x
 _atom_site_fract_y
 _atom_site_fract_z
 _atom_site_occupancy
  La  La0  1  0.49998539  0.33333468  0.66662591  1
  La  La1  1  0.49998539  0.66670876  0.33337409  1
  La  La2  1  0.99998539  0.66666532  0.33337409  1
  La  La3  1  0.99998539  0.33329124  0.66662591  1
  La  La4  1  0.74998784  0.25590423  0.00000000  1
  La  La5  1  0.75001701  0.74389821  0.74399539  1
  La  La6  1  0.75001701  0.99990282  0.25600461  1
  La  La7  1  0.24998784  0.74409577  1.00000000  1
  La  La8  1  0.25001701  0.25610179  0.25600461  1
  La  La9  1  0.25001701  0.00009718  0.74399539  1
  Sb  Sb10  1  0.74999215  0.61726712  0.00000000  1
  Sb  Sb11  1  0.75000761  0.38268288  0.38269202  1
  Sb  Sb12  1  0.75000761  0.99999087  0.61730798  1
  Sb  Sb13  1  0.24999215  0.38273288  1.00000000  1
  Sb  Sb14  1  0.25000761  0.61731712  0.61730798  1
  Sb  Sb15  1  0.25000761  0.00000913  0.38269202  1
