# generated using pymatgen
data_Nb2PdS5
_symmetry_space_group_name_H-M   'P 1'
_cell_length_a   3.30882653
_cell_length_b   6.49739707
_cell_length_c   15.35182101
_cell_angle_alpha   78.17174968
_cell_angle_beta   83.81341730
_cell_angle_gamma   75.24851566
_symmetry_Int_Tables_number   1
_chemical_formula_structural   Nb2PdS5
_chemical_formula_sum   'Nb4 Pd2 S10'
_cell_volume   311.85063919
_cell_formula_units_Z   2
loop_
 _symmetry_equiv_pos_site_id
 _symmetry_equiv_pos_as_xyz
  1  'x, y, z'
loop_
 _atom_site_type_symbol
 _atom_site_label
 _atom_site_symmetry_multiplicity
 _atom_site_fract_x
 _atom_site_fract_y
 _atom_site_fract_z
 _atom_site_occupancy
  Nb  Nb0  1  0.57655850  0.02787127  0.81901174  1
  Nb  Nb1  1  0.42344150  0.97212873  0.18098826  1
  Nb  Nb2  1  0.15254656  0.06975522  0.62515166  1
  Nb  Nb3  1  0.84745344  0.93024478  0.37484834  1
  Pd  Pd4  1  0.00000000  -0.00000000  -0.00000000  1
  Pd  Pd5  1  0.00000000  0.50000000  0.50000000  1
  S  S6  1  0.35221520  0.78951496  0.50605464  1
  S  S7  1  0.64778480  0.21048504  0.49394536  1
  S  S8  1  0.74917849  0.79995815  0.70168487  1
  S  S9  1  0.25082151  0.20004185  0.29831513  1
  S  S10  1  0.17025753  0.76243830  0.89704664  1
  S  S11  1  0.82974247  0.23756170  0.10295336  1
  S  S12  1  0.92879251  0.27155042  0.87086457  1
  S  S13  1  0.07120749  0.72844958  0.12913543  1
  S  S14  1  0.50470753  0.30812705  0.68245790  1
  S  S15  1  0.49529247  0.69187295  0.31754210  1
