# generated using pymatgen
data_CeAlPd2
_symmetry_space_group_name_H-M   'P 1'
_cell_length_a   5.93788656
_cell_length_b   7.02920911
_cell_length_c   7.57181144
_cell_angle_alpha   90.00000000
_cell_angle_beta   90.00000000
_cell_angle_gamma   90.00000000
_symmetry_Int_Tables_number   1
_chemical_formula_structural   CeAlPd2
_chemical_formula_sum   'Ce4 Al4 Pd8'
_cell_volume   316.03715956
_cell_formula_units_Z   4
loop_
 _symmetry_equiv_pos_site_id
 _symmetry_equiv_pos_as_xyz
  1  'x, y, z'
loop_
 _atom_site_type_symbol
 _atom_site_label
 _atom_site_symmetry_multiplicity
 _atom_site_fract_x
 _atom_site_fract_y
 _atom_site_fract_z
 _atom_site_occupancy
  Ce  Ce0  1  0.15894703  0.75000000  0.46741693  1
  Ce  Ce1  1  0.34105297  0.75000000  0.96741693  1
  Ce  Ce2  1  0.84105297  0.25000000  0.53258307  1
  Ce  Ce3  1  0.65894703  0.25000000  0.03258307  1
  Al  Al4  1  0.84263612  0.75000000  0.11718490  1
  Al  Al5  1  0.65736388  0.75000000  0.61718490  1
  Al  Al6  1  0.15736388  0.25000000  0.88281510  1
  Al  Al7  1  0.34263612  0.25000000  0.38281510  1
  Pd  Pd8  1  0.58545132  0.95002613  0.32063120  1
  Pd  Pd9  1  0.91454868  0.54997387  0.82063120  1
  Pd  Pd10  1  0.41454868  0.45002613  0.67936880  1
  Pd  Pd11  1  0.08545132  0.04997387  0.17936880  1
  Pd  Pd12  1  0.41454868  0.04997387  0.67936880  1
  Pd  Pd13  1  0.08545132  0.45002613  0.17936880  1
  Pd  Pd14  1  0.58545132  0.54997387  0.32063120  1
  Pd  Pd15  1  0.91454868  0.95002613  0.82063120  1
