# generated using pymatgen
data_Nd7Pd3
_symmetry_space_group_name_H-M   'P 1'
_cell_length_a   6.50131272
_cell_length_b   10.17534015
_cell_length_c   10.17534015
_cell_angle_alpha   119.65091774
_cell_angle_beta   90.00000000
_cell_angle_gamma   90.00000000
_symmetry_Int_Tables_number   1
_chemical_formula_structural   Nd7Pd3
_chemical_formula_sum   'Nd14 Pd6'
_cell_volume   584.98739155
_cell_formula_units_Z   2
loop_
 _symmetry_equiv_pos_site_id
 _symmetry_equiv_pos_as_xyz
  1  'x, y, z'
loop_
 _atom_site_type_symbol
 _atom_site_label
 _atom_site_symmetry_multiplicity
 _atom_site_fract_x
 _atom_site_fract_y
 _atom_site_fract_z
 _atom_site_occupancy
  Nd  Nd0  1  0.45072095  0.33348122  0.66651878  1
  Nd  Nd1  1  0.95072095  0.66651878  0.33348122  1
  Nd  Nd2  1  0.24514794  0.12668529  0.87331471  1
  Nd  Nd3  1  0.24436170  0.74694131  0.87336777  1
  Nd  Nd4  1  0.24436170  0.12663223  0.25305869  1
  Nd  Nd5  1  0.74514794  0.87331471  0.12668529  1
  Nd  Nd6  1  0.74436170  0.25305869  0.12663223  1
  Nd  Nd7  1  0.74436170  0.87336777  0.74694131  1
  Nd  Nd8  1  0.44615257  0.53839431  0.46160569  1
  Nd  Nd9  1  0.44521019  0.92336665  0.46166497  1
  Nd  Nd10  1  0.44521019  0.53833503  0.07663335  1
  Nd  Nd11  1  0.94615257  0.46160569  0.53839431  1
  Nd  Nd12  1  0.94521019  0.07663335  0.53833503  1
  Nd  Nd13  1  0.94521019  0.46166497  0.92336665  1
  Pd  Pd14  1  0.19067479  0.81090090  0.18909910  1
  Pd  Pd15  1  0.19057998  0.37782463  0.18882028  1
  Pd  Pd16  1  0.19057998  0.81117972  0.62217537  1
  Pd  Pd17  1  0.69067479  0.18909910  0.81090090  1
  Pd  Pd18  1  0.69057998  0.62217537  0.81117972  1
  Pd  Pd19  1  0.69057998  0.18882028  0.37782463  1
