# generated using pymatgen
data_DyGePd2
_symmetry_space_group_name_H-M   'P 1'
_cell_length_a   5.64078067
_cell_length_b   7.36772899
_cell_length_c   7.14160469
_cell_angle_alpha   90.00000000
_cell_angle_beta   90.00000000
_cell_angle_gamma   90.00000000
_symmetry_Int_Tables_number   1
_chemical_formula_structural   DyGePd2
_chemical_formula_sum   'Dy4 Ge4 Pd8'
_cell_volume   296.80325744
_cell_formula_units_Z   4
loop_
 _symmetry_equiv_pos_site_id
 _symmetry_equiv_pos_as_xyz
  1  'x, y, z'
loop_
 _atom_site_type_symbol
 _atom_site_label
 _atom_site_symmetry_multiplicity
 _atom_site_fract_x
 _atom_site_fract_y
 _atom_site_fract_z
 _atom_site_occupancy
  Dy  Dy0  1  0.85564647  0.52402517  0.25000000  1
  Dy  Dy1  1  0.64435353  0.02402517  0.25000000  1
  Dy  Dy2  1  0.14435353  0.47597483  0.75000000  1
  Dy  Dy3  1  0.35564647  0.97597483  0.75000000  1
  Ge  Ge4  1  0.14103251  0.87902937  0.25000000  1
  Ge  Ge5  1  0.35896749  0.37902937  0.25000000  1
  Ge  Ge6  1  0.85896749  0.12097063  0.75000000  1
  Ge  Ge7  1  0.64103251  0.62097063  0.75000000  1
  Pd  Pd8  1  0.41207404  0.68325787  0.05143444  1
  Pd  Pd9  1  0.08792596  0.18325787  0.44856556  1
  Pd  Pd10  1  0.58792596  0.31674213  0.55143444  1
  Pd  Pd11  1  0.91207404  0.81674213  0.94856556  1
  Pd  Pd12  1  0.58792596  0.31674213  0.94856556  1
  Pd  Pd13  1  0.91207404  0.81674213  0.55143444  1
  Pd  Pd14  1  0.41207404  0.68325787  0.44856556  1
  Pd  Pd15  1  0.08792596  0.18325787  0.05143444  1
