# generated using pymatgen
data_La(LuS2)3
_symmetry_space_group_name_H-M   'P 1'
_cell_length_a   3.96142873
_cell_length_b   11.22231732
_cell_length_c   11.01389815
_cell_angle_alpha   108.99559585
_cell_angle_beta   90.00000000
_cell_angle_gamma   90.00000000
_symmetry_Int_Tables_number   1
_chemical_formula_structural   La(LuS2)3
_chemical_formula_sum   'La2 Lu6 S12'
_cell_volume   462.97443081
_cell_formula_units_Z   2
loop_
 _symmetry_equiv_pos_site_id
 _symmetry_equiv_pos_as_xyz
  1  'x, y, z'
loop_
 _atom_site_type_symbol
 _atom_site_label
 _atom_site_symmetry_multiplicity
 _atom_site_fract_x
 _atom_site_fract_y
 _atom_site_fract_z
 _atom_site_occupancy
  La  La0  1  0.25000000  0.19605874  0.55092742  1
  La  La1  1  0.75000000  0.80394126  0.44907258  1
  Lu  Lu2  1  0.25000000  0.00000561  0.17872231  1
  Lu  Lu3  1  0.75000000  -0.00000561  0.82127769  1
  Lu  Lu4  1  0.25000000  0.33402819  0.94447103  1
  Lu  Lu5  1  0.75000000  0.66597181  0.05552897  1
  Lu  Lu6  1  0.25000000  0.58785274  0.66084072  1
  Lu  Lu7  1  0.75000000  0.41214726  0.33915928  1
  S  S8  1  0.25000000  0.11160017  0.97768081  1
  S  S9  1  0.75000000  0.88839983  0.02231919  1
  S  S10  1  0.25000000  0.25161040  0.30156469  1
  S  S11  1  0.75000000  0.74838960  0.69843531  1
  S  S12  1  0.25000000  0.55731848  0.89282751  1
  S  S13  1  0.75000000  0.44268152  0.10717249  1
  S  S14  1  0.25000000  0.59099309  0.41888559  1
  S  S15  1  0.75000000  0.40900691  0.58111441  1
  S  S16  1  0.25000000  0.76931771  0.22911108  1
  S  S17  1  0.75000000  0.23068229  0.77088892  1
  S  S18  1  0.25000000  0.96372354  0.62248916  1
  S  S19  1  0.75000000  0.03627646  0.37751084  1
