# generated using pymatgen
data_Nd3Ru
_symmetry_space_group_name_H-M   'P 1'
_cell_length_a   6.50855111
_cell_length_b   7.42492334
_cell_length_c   9.73727674
_cell_angle_alpha   90.00000000
_cell_angle_beta   90.00000000
_cell_angle_gamma   90.00000000
_symmetry_Int_Tables_number   1
_chemical_formula_structural   Nd3Ru
_chemical_formula_sum   'Nd12 Ru4'
_cell_volume   470.55869939
_cell_formula_units_Z   4
loop_
 _symmetry_equiv_pos_site_id
 _symmetry_equiv_pos_as_xyz
  1  'x, y, z'
loop_
 _atom_site_type_symbol
 _atom_site_label
 _atom_site_symmetry_multiplicity
 _atom_site_fract_x
 _atom_site_fract_y
 _atom_site_fract_z
 _atom_site_occupancy
  Nd  Nd0  1  0.32635455  0.67538550  0.06782759  1
  Nd  Nd1  1  0.17364545  0.17538550  0.43217241  1
  Nd  Nd2  1  0.67364545  0.32461450  0.56782759  1
  Nd  Nd3  1  0.82635455  0.82461450  0.93217241  1
  Nd  Nd4  1  0.67364545  0.32461450  0.93217241  1
  Nd  Nd5  1  0.82635455  0.82461450  0.56782759  1
  Nd  Nd6  1  0.32635455  0.67538550  0.43217241  1
  Nd  Nd7  1  0.17364545  0.17538550  0.06782759  1
  Nd  Nd8  1  0.85698228  0.53991465  0.25000000  1
  Nd  Nd9  1  0.64301772  0.03991465  0.25000000  1
  Nd  Nd10  1  0.14301772  0.46008535  0.75000000  1
  Nd  Nd11  1  0.35698228  0.96008535  0.75000000  1
  Ru  Ru12  1  0.05001625  0.88587195  0.25000000  1
  Ru  Ru13  1  0.44998375  0.38587195  0.25000000  1
  Ru  Ru14  1  0.94998375  0.11412805  0.75000000  1
  Ru  Ru15  1  0.55001625  0.61412805  0.75000000  1
