# generated using pymatgen
data_Lu5Sn3
_symmetry_space_group_name_H-M   'P 1'
_cell_length_a   6.40163733
_cell_length_b   8.77420174
_cell_length_c   8.77863407
_cell_angle_alpha   119.98330058
_cell_angle_beta   90.00000000
_cell_angle_gamma   90.00000000
_symmetry_Int_Tables_number   1
_chemical_formula_structural   Lu5Sn3
_chemical_formula_sum   'Lu10 Sn6'
_cell_volume   427.09974915
_cell_formula_units_Z   2
loop_
 _symmetry_equiv_pos_site_id
 _symmetry_equiv_pos_as_xyz
  1  'x, y, z'
loop_
 _atom_site_type_symbol
 _atom_site_label
 _atom_site_symmetry_multiplicity
 _atom_site_fract_x
 _atom_site_fract_y
 _atom_site_fract_z
 _atom_site_occupancy
  Lu  Lu0  1  0.49999146  0.33335370  0.66673445  1
  Lu  Lu1  1  0.49999146  0.66661925  0.33326555  1
  Lu  Lu2  1  0.99999146  0.66664630  0.33326555  1
  Lu  Lu3  1  0.99999146  0.33338075  0.66673445  1
  Lu  Lu4  1  0.75000426  0.24027864  1.00000000  1
  Lu  Lu5  1  0.75000244  0.75972989  0.75988985  1
  Lu  Lu6  1  0.75000244  0.99984004  0.24011015  1
  Lu  Lu7  1  0.25000426  0.75972136  0.00000000  1
  Lu  Lu8  1  0.25000244  0.24027011  0.24011015  1
  Lu  Lu9  1  0.25000244  0.00015996  0.75988985  1
  Sn  Sn10  1  0.74997760  0.60600982  0.00000000  1
  Sn  Sn11  1  0.75001517  0.39389934  0.39369805  1
  Sn  Sn12  1  0.75001517  0.00020129  0.60630195  1
  Sn  Sn13  1  0.24997760  0.39399018  1.00000000  1
  Sn  Sn14  1  0.25001517  0.60610066  0.60630195  1
  Sn  Sn15  1  0.25001517  0.99979871  0.39369805  1
