# generated using pymatgen
data_YB2Os
_symmetry_space_group_name_H-M   'P 1'
_cell_length_a   5.33289856
_cell_length_b   5.91465695
_cell_length_c   6.39118200
_cell_angle_alpha   90.00000000
_cell_angle_beta   90.00000000
_cell_angle_gamma   90.00000000
_symmetry_Int_Tables_number   1
_chemical_formula_structural   YB2Os
_chemical_formula_sum   'Y4 B8 Os4'
_cell_volume   201.59235970
_cell_formula_units_Z   4
loop_
 _symmetry_equiv_pos_site_id
 _symmetry_equiv_pos_as_xyz
  1  'x, y, z'
loop_
 _atom_site_type_symbol
 _atom_site_label
 _atom_site_symmetry_multiplicity
 _atom_site_fract_x
 _atom_site_fract_y
 _atom_site_fract_z
 _atom_site_occupancy
  Y  Y0  1  0.75000000  0.48919768  0.16455217  1
  Y  Y1  1  0.75000000  0.98919768  0.33544783  1
  Y  Y2  1  0.25000000  0.51080232  0.83544783  1
  Y  Y3  1  0.25000000  0.01080232  0.66455217  1
  B  B4  1  0.91790938  0.13614435  0.96013722  1
  B  B5  1  0.58209062  0.63614435  0.53986278  1
  B  B6  1  0.41790938  0.86385565  0.03986278  1
  B  B7  1  0.08209062  0.36385565  0.46013722  1
  B  B8  1  0.08209062  0.86385565  0.03986278  1
  B  B9  1  0.41790938  0.36385565  0.46013722  1
  B  B10  1  0.58209062  0.13614435  0.96013722  1
  B  B11  1  0.91790938  0.63614435  0.53986278  1
  Os  Os12  1  0.75000000  0.32415041  0.68181292  1
  Os  Os13  1  0.75000000  0.82415041  0.81818708  1
  Os  Os14  1  0.25000000  0.67584959  0.31818708  1
  Os  Os15  1  0.25000000  0.17584959  0.18181292  1
