# generated using pymatgen
data_Li5(CoO2)4
_symmetry_space_group_name_H-M   'P 1'
_cell_length_a   5.77233876
_cell_length_b   5.78511509
_cell_length_c   9.53728129
_cell_angle_alpha   90.02500778
_cell_angle_beta   89.94621741
_cell_angle_gamma   119.94226728
_symmetry_Int_Tables_number   1
_chemical_formula_structural   Li5(CoO2)4
_chemical_formula_sum   'Li10 Co8 O16'
_cell_volume   275.97592899
_cell_formula_units_Z   2
loop_
 _symmetry_equiv_pos_site_id
 _symmetry_equiv_pos_as_xyz
  1  'x, y, z'
loop_
 _atom_site_type_symbol
 _atom_site_label
 _atom_site_symmetry_multiplicity
 _atom_site_fract_x
 _atom_site_fract_y
 _atom_site_fract_z
 _atom_site_occupancy
  Li  Li0  1  0.20513440  0.80189812  0.05748297  1
  Li  Li1  1  0.62652985  0.80132702  0.05846990  1
  Li  Li2  1  0.34428205  0.66093183  0.27761546  1
  Li  Li3  1  0.01431773  0.00041923  0.48011519  1
  Li  Li4  1  0.20579491  0.38131802  0.05863387  1
  Li  Li5  1  0.82442851  0.61840063  0.55885790  1
  Li  Li6  1  0.40336108  0.19827050  0.55777015  1
  Li  Li7  1  0.68334284  0.33892154  0.77852016  1
  Li  Li8  1  0.82519222  0.19902379  0.55862785  1
  Li  Li9  1  0.01389948  0.99952369  0.98022720  1
  Co  Co10  1  0.35053122  0.67019234  0.52765530  1
  Co  Co11  1  0.67999760  0.32987107  0.02789595  1
  Co  Co12  1  0.67994849  0.83571393  0.78613079  1
  Co  Co13  1  0.18472851  0.34043063  0.78617843  1
  Co  Co14  1  0.84432894  0.65956116  0.28610378  1
  Co  Co15  1  0.84423567  0.16426902  0.28603648  1
  Co  Co16  1  0.18475997  0.83585215  0.78600582  1
  Co  Co17  1  0.34891936  0.16412872  0.28595318  1
  O  O18  1  0.17369029  0.83563873  0.39956128  1
  O  O19  1  0.50764943  0.98575533  0.67184724  1
  O  O20  1  0.03726400  0.51465500  0.67129203  1
  O  O21  1  0.69028058  0.83536473  0.39943493  1
  O  O22  1  0.34911812  0.66974286  0.89487221  1
  O  O23  1  0.50717243  0.51423199  0.67159231  1
  O  O24  1  0.85387892  0.67891727  0.89909873  1
  O  O25  1  0.17505595  0.32116640  0.39898013  1
  O  O26  1  0.52249099  0.48546173  0.17126589  1
  O  O27  1  0.67948154  0.33026007  0.39477670  1
  O  O28  1  0.01230338  0.99560853  0.17940704  1
  O  O29  1  0.99280988  0.48572548  0.17132175  1
  O  O30  1  0.01663371  0.00434576  0.67942605  1
  O  O31  1  0.33818994  0.16441574  0.89983163  1
  O  O32  1  0.52186193  0.01420879  0.17172806  1
  O  O33  1  0.85496306  0.16446019  0.89956365  1
