# generated using pymatgen
data_La(TmS2)3
_symmetry_space_group_name_H-M   'P 1'
_cell_length_a   3.98129803
_cell_length_b   11.27283318
_cell_length_c   11.05951835
_cell_angle_alpha   108.96137301
_cell_angle_beta   90.00000000
_cell_angle_gamma   90.00000000
_symmetry_Int_Tables_number   1
_chemical_formula_structural   La(TmS2)3
_chemical_formula_sum   'La2 Tm6 S12'
_cell_volume   469.42341926
_cell_formula_units_Z   2
loop_
 _symmetry_equiv_pos_site_id
 _symmetry_equiv_pos_as_xyz
  1  'x, y, z'
loop_
 _atom_site_type_symbol
 _atom_site_label
 _atom_site_symmetry_multiplicity
 _atom_site_fract_x
 _atom_site_fract_y
 _atom_site_fract_z
 _atom_site_occupancy
  La  La0  1  0.25000000  0.19545201  0.55068739  1
  La  La1  1  0.75000000  0.80454799  0.44931261  1
  Tm  Tm2  1  0.25000000  0.00010743  0.17885204  1
  Tm  Tm3  1  0.75000000  -0.00010743  0.82114796  1
  Tm  Tm4  1  0.25000000  0.33390116  0.94417770  1
  Tm  Tm5  1  0.75000000  0.66609884  0.05582230  1
  Tm  Tm6  1  0.25000000  0.58771736  0.66089263  1
  Tm  Tm7  1  0.75000000  0.41228264  0.33910737  1
  S  S8  1  0.25000000  0.11159274  0.97801102  1
  S  S9  1  0.75000000  0.88840726  0.02198898  1
  S  S10  1  0.25000000  0.25137234  0.30205278  1
  S  S11  1  0.75000000  0.74862766  0.69794722  1
  S  S12  1  0.25000000  0.55736382  0.89303867  1
  S  S13  1  0.75000000  0.44263618  0.10696133  1
  S  S14  1  0.25000000  0.59202183  0.41880472  1
  S  S15  1  0.75000000  0.40797817  0.58119528  1
  S  S16  1  0.25000000  0.76934368  0.22980129  1
  S  S17  1  0.75000000  0.23065632  0.77019871  1
  S  S18  1  0.25000000  0.96355834  0.62169573  1
  S  S19  1  0.75000000  0.03644166  0.37830427  1
