# generated using pymatgen
data_KNb(CuS2)2
_symmetry_space_group_name_H-M   'P 1'
_cell_length_a   5.54560657
_cell_length_b   7.43031800
_cell_length_c   9.59673854
_cell_angle_alpha   90.00000000
_cell_angle_beta   106.79401432
_cell_angle_gamma   90.00000000
_symmetry_Int_Tables_number   1
_chemical_formula_structural   KNb(CuS2)2
_chemical_formula_sum   'K2 Nb2 Cu4 S8'
_cell_volume   378.57394347
_cell_formula_units_Z   2
loop_
 _symmetry_equiv_pos_site_id
 _symmetry_equiv_pos_as_xyz
  1  'x, y, z'
loop_
 _atom_site_type_symbol
 _atom_site_label
 _atom_site_symmetry_multiplicity
 _atom_site_fract_x
 _atom_site_fract_y
 _atom_site_fract_z
 _atom_site_occupancy
  K  K0  1  0.56346275  0.75000000  0.63527437  1
  K  K1  1  0.92818838  0.25000000  0.36472563  1
  Nb  Nb2  1  0.61297660  0.75000000  0.22592409  1
  Nb  Nb3  1  0.38705251  0.25000000  0.77407591  1
  Cu  Cu4  1  0.47886085  0.50000000  1.00000000  1
  Cu  Cu5  1  0.47886085  -0.00000000  1.00000000  1
  Cu  Cu6  1  0.10864248  0.75000000  0.21740457  1
  Cu  Cu7  1  0.89123791  0.25000000  0.78259543  1
  S  S8  1  0.74520680  0.75000000  0.01622966  1
  S  S9  1  0.72897714  0.25000000  0.98377034  1
  S  S10  1  0.96495813  0.75000000  0.42396977  1
  S  S11  1  0.54098836  0.25000000  0.57603023  1
  S  S12  1  0.14675515  0.50240758  0.78521668  1
  S  S13  1  0.36153847  0.49759242  0.21478332  1
  S  S14  1  0.14675515  0.99759242  0.78521668  1
  S  S15  1  0.36153847  0.00240758  0.21478332  1
