# generated using pymatgen
data_AlH12
_symmetry_space_group_name_H-M   'P 1'
_cell_length_a   7.63974105
_cell_length_b   7.63974105
_cell_length_c   7.63974105
_cell_angle_alpha   60.00000000
_cell_angle_beta   60.00000000
_cell_angle_gamma   60.00000000
_symmetry_Int_Tables_number   1
_chemical_formula_structural   AlH12
_chemical_formula_sum   'Al2 H24'
_cell_volume   315.29778263
_cell_formula_units_Z   2
loop_
 _symmetry_equiv_pos_site_id
 _symmetry_equiv_pos_as_xyz
  1  'x, y, z'
loop_
 _atom_site_type_symbol
 _atom_site_label
 _atom_site_symmetry_multiplicity
 _atom_site_fract_x
 _atom_site_fract_y
 _atom_site_fract_z
 _atom_site_occupancy
  Al  Al0  1  -0.00000000  0.00000000  -0.00000000  1
  Al  Al1  1  0.75000000  0.75000000  0.75000000  1
  H  H2  1  0.69312505  0.69312505  0.25785167  1
  H  H3  1  0.35589823  0.25785167  0.69312505  1
  H  H4  1  0.25785167  0.35589823  0.69312505  1
  H  H5  1  0.69312505  0.25785167  0.69312505  1
  H  H6  1  0.39410177  0.05687495  0.49214833  1
  H  H7  1  0.05687495  0.05687495  0.49214833  1
  H  H8  1  0.69312505  0.69312505  0.35589823  1
  H  H9  1  0.25785167  0.69312505  0.35589823  1
  H  H10  1  0.05687495  0.49214833  0.05687495  1
  H  H11  1  0.39410177  0.49214833  0.05687495  1
  H  H12  1  0.35589823  0.69312505  0.25785167  1
  H  H13  1  0.05687495  0.39410177  0.05687495  1
  H  H14  1  0.49214833  0.39410177  0.05687495  1
  H  H15  1  0.69312505  0.35589823  0.69312505  1
  H  H16  1  0.49214833  0.05687495  0.39410177  1
  H  H17  1  0.05687495  0.05687495  0.39410177  1
  H  H18  1  0.25785167  0.69312505  0.69312505  1
  H  H19  1  0.69312505  0.25785167  0.35589823  1
  H  H20  1  0.35589823  0.69312505  0.69312505  1
  H  H21  1  0.69312505  0.35589823  0.25785167  1
  H  H22  1  0.05687495  0.49214833  0.39410177  1
  H  H23  1  0.49214833  0.05687495  0.05687495  1
  H  H24  1  0.05687495  0.39410177  0.49214833  1
  H  H25  1  0.39410177  0.05687495  0.05687495  1
