# generated using pymatgen
data_SmCrTeO6
_symmetry_space_group_name_H-M   'P 1'
_cell_length_a   5.21981361
_cell_length_b   5.22053563
_cell_length_c   10.08652966
_cell_angle_alpha   89.99720419
_cell_angle_beta   90.00139809
_cell_angle_gamma   120.00458460
_symmetry_Int_Tables_number   1
_chemical_formula_structural   SmCrTeO6
_chemical_formula_sum   'Sm2 Cr2 Te2 O12'
_cell_volume   238.02490258
_cell_formula_units_Z   2
loop_
 _symmetry_equiv_pos_site_id
 _symmetry_equiv_pos_as_xyz
  1  'x, y, z'
loop_
 _atom_site_type_symbol
 _atom_site_label
 _atom_site_symmetry_multiplicity
 _atom_site_fract_x
 _atom_site_fract_y
 _atom_site_fract_z
 _atom_site_occupancy
  Sm  Sm0  1  -0.00000000  0.00000000  0.00000000  1
  Sm  Sm1  1  -0.00000000  0.00000000  0.50000000  1
  Cr  Cr2  1  0.33344875  0.66672437  0.25000000  1
  Cr  Cr3  1  0.66655125  0.33327563  0.75000000  1
  Te  Te4  1  0.33318272  0.66659136  0.75000000  1
  Te  Te5  1  0.66681728  0.33340864  0.25000000  1
  O  O6  1  0.36986873  0.35965000  0.14185650  1
  O  O7  1  0.64044194  0.01021908  0.14184703  1
  O  O8  1  0.98987338  0.63020684  0.14186458  1
  O  O9  1  0.63013127  0.64035000  0.85814350  1
  O  O10  1  0.35955806  0.98978092  0.85815297  1
  O  O11  1  0.01012662  0.36979316  0.85813542  1
  O  O12  1  0.64044194  0.63022286  0.35815297  1
  O  O13  1  0.36986873  0.01021873  0.35814350  1
  O  O14  1  0.98987338  0.35966655  0.35813542  1
  O  O15  1  0.35955806  0.36977714  0.64184703  1
  O  O16  1  0.63013127  0.98978127  0.64185650  1
  O  O17  1  0.01012662  0.64033345  0.64186458  1
