# generated using pymatgen
data_Sm3Tl5
_symmetry_space_group_name_H-M   'P 1'
_cell_length_a   6.65461546
_cell_length_b   6.65461546
_cell_length_c   10.55021943
_cell_angle_alpha   90.00000000
_cell_angle_beta   90.00000000
_cell_angle_gamma   103.00008659
_symmetry_Int_Tables_number   1
_chemical_formula_structural   Sm3Tl5
_chemical_formula_sum   'Sm6 Tl10'
_cell_volume   455.23034420
_cell_formula_units_Z   2
loop_
 _symmetry_equiv_pos_site_id
 _symmetry_equiv_pos_as_xyz
  1  'x, y, z'
loop_
 _atom_site_type_symbol
 _atom_site_label
 _atom_site_symmetry_multiplicity
 _atom_site_fract_x
 _atom_site_fract_y
 _atom_site_fract_z
 _atom_site_occupancy
  Sm  Sm0  1  0.62528923  0.62528923  0.25000000  1
  Sm  Sm1  1  0.37471077  0.37471077  0.75000000  1
  Sm  Sm2  1  0.79795737  0.20204263  0.50000000  1
  Sm  Sm3  1  0.79795737  0.20204263  0.00000000  1
  Sm  Sm4  1  0.20204263  0.79795737  0.50000000  1
  Sm  Sm5  1  0.20204263  0.79795737  0.00000000  1
  Tl  Tl6  1  0.00269510  0.00269510  0.25000000  1
  Tl  Tl7  1  0.99730490  0.99730490  0.75000000  1
  Tl  Tl8  1  0.30583899  0.30583899  0.04975602  1
  Tl  Tl9  1  0.69416101  0.69416101  0.95024398  1
  Tl  Tl10  1  0.30583899  0.30583899  0.45024398  1
  Tl  Tl11  1  0.69416101  0.69416101  0.54975602  1
  Tl  Tl12  1  0.05864624  0.51130990  0.25000000  1
  Tl  Tl13  1  0.48869010  0.94135376  0.75000000  1
  Tl  Tl14  1  0.94135376  0.48869010  0.75000000  1
  Tl  Tl15  1  0.51130990  0.05864624  0.25000000  1
