# generated using pymatgen
data_Fe3O5F
_symmetry_space_group_name_H-M   'P 1'
_cell_length_a   7.37952373
_cell_length_b   5.54545871
_cell_length_c   5.54545871
_cell_angle_alpha   71.13525207
_cell_angle_beta   70.22991702
_cell_angle_gamma   70.22991702
_symmetry_Int_Tables_number   1
_chemical_formula_structural   Fe3O5F
_chemical_formula_sum   'Fe6 O10 F2'
_cell_volume   195.29929188
_cell_formula_units_Z   2
loop_
 _symmetry_equiv_pos_site_id
 _symmetry_equiv_pos_as_xyz
  1  'x, y, z'
loop_
 _atom_site_type_symbol
 _atom_site_label
 _atom_site_symmetry_multiplicity
 _atom_site_fract_x
 _atom_site_fract_y
 _atom_site_fract_z
 _atom_site_occupancy
  Fe  Fe0  1  0.82118476  0.65723401  0.65723401  1
  Fe  Fe1  1  0.66666700  0.33333300  0.33333300  1
  Fe  Fe2  1  0.33891658  0.65238843  0.65238843  1
  Fe  Fe3  1  0.16666700  0.33333300  0.33333300  1
  Fe  Fe4  1  0.51214924  0.00943299  0.00943299  1
  Fe  Fe5  1  0.99441642  0.01427757  0.01427757  1
  O  O6  1  0.66666700  0.01887098  0.64779502  1
  O  O7  1  0.32906527  0.35807843  0.97136288  1
  O  O8  1  0.95216465  0.24242165  0.24242165  1
  O  O9  1  0.63197826  0.55257850  0.55257850  1
  O  O10  1  0.38116935  0.42424435  0.42424435  1
  O  O11  1  0.70135474  0.11408850  0.11408850  1
  O  O12  1  0.32906527  0.97136288  0.35807843  1
  O  O13  1  0.66666700  0.64779502  0.01887098  1
  O  O14  1  0.00426773  0.30858757  0.69530412  1
  O  O15  1  0.00426773  0.69530412  0.30858757  1
  F  F16  1  0.29633640  0.89350425  0.89350425  1
  F  F17  1  0.03699660  0.77316275  0.77316275  1
