# generated using pymatgen
data_Er2Si4Mo3
_symmetry_space_group_name_H-M   'P 1'
_cell_length_a   6.84227489
_cell_length_b   6.71833169
_cell_length_c   6.90664688
_cell_angle_alpha   90.00000000
_cell_angle_beta   90.00000000
_cell_angle_gamma   108.97036288
_symmetry_Int_Tables_number   1
_chemical_formula_structural   Er2Si4Mo3
_chemical_formula_sum   'Er4 Si8 Mo6'
_cell_volume   300.24553900
_cell_formula_units_Z   2
loop_
 _symmetry_equiv_pos_site_id
 _symmetry_equiv_pos_as_xyz
  1  'x, y, z'
loop_
 _atom_site_type_symbol
 _atom_site_label
 _atom_site_symmetry_multiplicity
 _atom_site_fract_x
 _atom_site_fract_y
 _atom_site_fract_z
 _atom_site_occupancy
  Er  Er0  1  0.80929948  0.43911693  0.66954560  1
  Er  Er1  1  0.19070052  0.06088307  0.16954560  1
  Er  Er2  1  0.19070052  0.56088307  0.33045440  1
  Er  Er3  1  0.80929948  0.93911693  0.83045440  1
  Si  Si4  1  0.90995384  0.13242730  0.45644054  1
  Si  Si5  1  0.09004616  0.36757270  0.95644054  1
  Si  Si6  1  0.09004616  0.86757270  0.54355946  1
  Si  Si7  1  0.90995384  0.63242730  0.04355946  1
  Si  Si8  1  0.49612908  0.12915121  0.86821293  1
  Si  Si9  1  0.50387092  0.37084879  0.36821293  1
  Si  Si10  1  0.50387092  0.87084879  0.13178707  1
  Si  Si11  1  0.49612908  0.62915121  0.63178707  1
  Mo  Mo12  1  0.50000000  0.00000000  0.50000000  1
  Mo  Mo13  1  0.50000000  0.50000000  -0.00000000  1
  Mo  Mo14  1  0.75191703  0.25032543  0.16251424  1
  Mo  Mo15  1  0.24808297  0.24967457  0.66251424  1
  Mo  Mo16  1  0.24808297  0.74967457  0.83748576  1
  Mo  Mo17  1  0.75191703  0.75032543  0.33748576  1
