# generated using pymatgen
data_Ce2Ge5Rh3
_symmetry_space_group_name_H-M   'P 1'
_cell_length_a   6.09358495
_cell_length_b   8.43307720
_cell_length_c   8.43307720
_cell_angle_alpha   73.99566132
_cell_angle_beta   68.82051567
_cell_angle_gamma   68.82051567
_symmetry_Int_Tables_number   1
_chemical_formula_structural   Ce2Ge5Rh3
_chemical_formula_sum   'Ce4 Ge10 Rh6'
_cell_volume   371.50012579
_cell_formula_units_Z   2
loop_
 _symmetry_equiv_pos_site_id
 _symmetry_equiv_pos_as_xyz
  1  'x, y, z'
loop_
 _atom_site_type_symbol
 _atom_site_label
 _atom_site_symmetry_multiplicity
 _atom_site_fract_x
 _atom_site_fract_y
 _atom_site_fract_z
 _atom_site_occupancy
  Ce  Ce0  1  0.36646167  0.40173648  0.86534018  1
  Ce  Ce1  1  0.63353833  0.59826352  0.13465982  1
  Ce  Ce2  1  0.86646167  0.86534018  0.40173648  1
  Ce  Ce3  1  0.13353833  0.13465982  0.59826352  1
  Ge  Ge4  1  0.25000000  0.50000000  0.50000000  1
  Ge  Ge5  1  0.75000000  0.50000000  0.50000000  1
  Ge  Ge6  1  0.02643370  0.22356630  0.22356630  1
  Ge  Ge7  1  0.47356630  0.77643370  0.77643370  1
  Ge  Ge8  1  0.97356630  0.77643370  0.77643370  1
  Ge  Ge9  1  0.52643370  0.22356630  0.22356630  1
  Ge  Ge10  1  0.10055489  0.74011488  0.05877533  1
  Ge  Ge11  1  0.89944511  0.25988512  0.94122467  1
  Ge  Ge12  1  0.60055489  0.05877533  0.74011488  1
  Ge  Ge13  1  0.39944511  0.94122467  0.25988512  1
  Rh  Rh14  1  0.25000000  0.00000000  0.00000000  1
  Rh  Rh15  1  0.75000000  0.00000000  0.00000000  1
  Rh  Rh16  1  0.14018070  0.46775053  0.25188806  1
  Rh  Rh17  1  0.85981930  0.53224947  0.74811194  1
  Rh  Rh18  1  0.64018070  0.25188806  0.46775053  1
  Rh  Rh19  1  0.35981930  0.74811194  0.53224947  1
