# generated using pymatgen
data_NaAs
_symmetry_space_group_name_H-M   'P 1'
_cell_length_a   5.96036182
_cell_length_b   6.30272342
_cell_length_c   10.46597444
_cell_angle_alpha   84.31645722
_cell_angle_beta   90.00000000
_cell_angle_gamma   90.00000000
_symmetry_Int_Tables_number   1
_chemical_formula_structural   NaAs
_chemical_formula_sum   'Na8 As8'
_cell_volume   391.23735279
_cell_formula_units_Z   8
loop_
 _symmetry_equiv_pos_site_id
 _symmetry_equiv_pos_as_xyz
  1  'x, y, z'
loop_
 _atom_site_type_symbol
 _atom_site_label
 _atom_site_symmetry_multiplicity
 _atom_site_fract_x
 _atom_site_fract_y
 _atom_site_fract_z
 _atom_site_occupancy
  Na  Na0  1  0.89043275  0.61108647  0.17000905  1
  Na  Na1  1  0.39043275  0.88891353  0.32999095  1
  Na  Na2  1  0.10956725  0.38891353  0.82999095  1
  Na  Na3  1  0.60956725  0.11108647  0.67000905  1
  Na  Na4  1  0.16337382  0.29765425  0.46759503  1
  Na  Na5  1  0.66337382  0.20234575  0.03240497  1
  Na  Na6  1  0.83662618  0.70234575  0.53240497  1
  Na  Na7  1  0.33662618  0.79765425  0.96759503  1
  As  As8  1  0.39399809  0.46892159  0.21071238  1
  As  As9  1  0.89399809  0.03107841  0.28928762  1
  As  As10  1  0.60600191  0.53107841  0.78928762  1
  As  As11  1  0.10600191  0.96892159  0.71071238  1
  As  As12  1  0.66085214  0.30638125  0.38065097  1
  As  As13  1  0.16085214  0.19361875  0.11934903  1
  As  As14  1  0.33914786  0.69361875  0.61934903  1
  As  As15  1  0.83914786  0.80638125  0.88065097  1
