# generated using pymatgen
data_Tb5Sn3
_symmetry_space_group_name_H-M   'P 1'
_cell_length_a   6.61092553
_cell_length_b   9.01271585
_cell_length_c   9.01457669
_cell_angle_alpha   119.99317340
_cell_angle_beta   90.00000000
_cell_angle_gamma   90.00000000
_symmetry_Int_Tables_number   1
_chemical_formula_structural   Tb5Sn3
_chemical_formula_sum   'Tb10 Sn6'
_cell_volume   465.18294555
_cell_formula_units_Z   2
loop_
 _symmetry_equiv_pos_site_id
 _symmetry_equiv_pos_as_xyz
  1  'x, y, z'
loop_
 _atom_site_type_symbol
 _atom_site_label
 _atom_site_symmetry_multiplicity
 _atom_site_fract_x
 _atom_site_fract_y
 _atom_site_fract_z
 _atom_site_occupancy
  Tb  Tb0  1  0.50000041  0.33334080  0.66669380  1
  Tb  Tb1  1  0.50000041  0.66664701  0.33330620  1
  Tb  Tb2  1  0.00000041  0.66665920  0.33330620  1
  Tb  Tb3  1  0.00000041  0.33335299  0.66669380  1
  Tb  Tb4  1  0.75000189  0.24097808  0.00000000  1
  Tb  Tb5  1  0.74999831  0.75897810  0.75897637  1
  Tb  Tb6  1  0.74999831  0.00000174  0.24102363  1
  Tb  Tb7  1  0.25000189  0.75902192  1.00000000  1
  Tb  Tb8  1  0.24999831  0.24102190  0.24102363  1
  Tb  Tb9  1  0.24999831  -0.00000174  0.75897637  1
  Sn  Sn10  1  0.74999825  0.60603735  0.00000000  1
  Sn  Sn11  1  0.75000122  0.39395527  0.39383376  1
  Sn  Sn12  1  0.75000122  0.00012152  0.60616624  1
  Sn  Sn13  1  0.24999825  0.39396265  1.00000000  1
  Sn  Sn14  1  0.25000122  0.60604473  0.60616624  1
  Sn  Sn15  1  0.25000122  0.99987848  0.39383376  1
