# generated using pymatgen
data_Th(BIr)4
_symmetry_space_group_name_H-M   'P 1'
_cell_length_a   3.96592876
_cell_length_b   7.76137557
_cell_length_c   7.76137557
_cell_angle_alpha   90.00000000
_cell_angle_beta   90.00000000
_cell_angle_gamma   90.00000000
_symmetry_Int_Tables_number   1
_chemical_formula_structural   Th(BIr)4
_chemical_formula_sum   'Th2 B8 Ir8'
_cell_volume   238.90338721
_cell_formula_units_Z   2
loop_
 _symmetry_equiv_pos_site_id
 _symmetry_equiv_pos_as_xyz
  1  'x, y, z'
loop_
 _atom_site_type_symbol
 _atom_site_label
 _atom_site_symmetry_multiplicity
 _atom_site_fract_x
 _atom_site_fract_y
 _atom_site_fract_z
 _atom_site_occupancy
  Th  Th0  1  0.25000000  0.25000000  0.25000000  1
  Th  Th1  1  0.75000000  0.75000000  0.75000000  1
  B  B2  1  0.35959289  0.90941244  0.03063323  1
  B  B3  1  0.35959289  0.59058756  0.46936677  1
  B  B4  1  0.85959289  0.53063323  0.09058756  1
  B  B5  1  0.85959289  0.96936677  0.40941244  1
  B  B6  1  0.64040711  0.09058756  0.96936677  1
  B  B7  1  0.64040711  0.40941244  0.53063323  1
  B  B8  1  0.14040711  0.46936677  0.90941244  1
  B  B9  1  0.14040711  0.03063323  0.59058756  1
  Ir  Ir10  1  0.13843278  0.41457872  0.64300011  1
  Ir  Ir11  1  0.13843278  0.08542128  0.85699989  1
  Ir  Ir12  1  0.63843278  0.14300011  0.58542128  1
  Ir  Ir13  1  0.63843278  0.35699989  0.91457872  1
  Ir  Ir14  1  0.86156722  0.58542128  0.35699989  1
  Ir  Ir15  1  0.86156722  0.91457872  0.14300011  1
  Ir  Ir16  1  0.36156722  0.85699989  0.41457872  1
  Ir  Ir17  1  0.36156722  0.64300011  0.08542128  1
