# generated using pymatgen
data_V5Ge3B
_symmetry_space_group_name_H-M   'P 1'
_cell_length_a   4.94085674
_cell_length_b   7.34887541
_cell_length_c   7.35229674
_cell_angle_alpha   119.98461388
_cell_angle_beta   90.00000000
_cell_angle_gamma   90.00000000
_symmetry_Int_Tables_number   1
_chemical_formula_structural   V5Ge3B
_chemical_formula_sum   'V10 Ge6 B2'
_cell_volume   231.22996707
_cell_formula_units_Z   2
loop_
 _symmetry_equiv_pos_site_id
 _symmetry_equiv_pos_as_xyz
  1  'x, y, z'
loop_
 _atom_site_type_symbol
 _atom_site_label
 _atom_site_symmetry_multiplicity
 _atom_site_fract_x
 _atom_site_fract_y
 _atom_site_fract_z
 _atom_site_occupancy
  V  V0  1  0.49999955  0.33341751  0.66683736  1
  V  V1  1  0.49999955  0.66658016  0.33316264  1
  V  V2  1  0.99999955  0.66658249  0.33316264  1
  V  V3  1  0.99999955  0.33341984  0.66683736  1
  V  V4  1  0.74999981  0.24384256  1.00000000  1
  V  V5  1  0.75000036  0.75625431  0.75621898  1
  V  V6  1  0.75000036  0.00003534  0.24378102  1
  V  V7  1  0.24999981  0.75615744  0.00000000  1
  V  V8  1  0.25000036  0.24374569  0.24378102  1
  V  V9  1  0.25000036  0.99996466  0.75621898  1
  Ge  Ge10  1  0.74999496  0.60116212  1.00000000  1
  Ge  Ge11  1  0.75000242  0.39882283  0.39886815  1
  Ge  Ge12  1  0.75000242  0.99995467  0.60113185  1
  Ge  Ge13  1  0.24999496  0.39883788  0.00000000  1
  Ge  Ge14  1  0.25000242  0.60117717  0.60113185  1
  Ge  Ge15  1  0.25000242  0.00004533  0.39886815  1
  B  B16  1  0.50000059  0.00000109  0.00000000  1
  B  B17  1  0.00000059  0.99999891  1.00000000  1
