# generated using pymatgen
data_HfCo3B2
_symmetry_space_group_name_H-M   'P 1'
_cell_length_a   5.70024312
_cell_length_b   5.70024312
_cell_length_c   5.70024322
_cell_angle_alpha   94.52331294
_cell_angle_beta   94.52331294
_cell_angle_gamma   94.52331100
_symmetry_Int_Tables_number   1
_chemical_formula_structural   HfCo3B2
_chemical_formula_sum   'Hf3 Co9 B6'
_cell_volume   183.38885858
_cell_formula_units_Z   3
loop_
 _symmetry_equiv_pos_site_id
 _symmetry_equiv_pos_as_xyz
  1  'x, y, z'
loop_
 _atom_site_type_symbol
 _atom_site_label
 _atom_site_symmetry_multiplicity
 _atom_site_fract_x
 _atom_site_fract_y
 _atom_site_fract_z
 _atom_site_occupancy
  Hf  Hf0  1  0.00000000  -0.00000000  -0.00000000  1
  Hf  Hf1  1  0.67046722  0.67046722  0.67046722  1
  Hf  Hf2  1  0.32953278  0.32953278  0.32953278  1
  Co  Co3  1  0.00000000  0.50000000  -0.00000000  1
  Co  Co4  1  0.50000000  -0.00000000  -0.00000000  1
  Co  Co5  1  0.00000000  -0.00000000  0.50000000  1
  Co  Co6  1  0.19680474  0.69482333  0.69442193  1
  Co  Co7  1  0.69482333  0.69442193  0.19680474  1
  Co  Co8  1  0.69442193  0.19680474  0.69482333  1
  Co  Co9  1  0.80319526  0.30517667  0.30557807  1
  Co  Co10  1  0.30517667  0.30557807  0.80319526  1
  Co  Co11  1  0.30557807  0.80319526  0.30517667  1
  B  B12  1  0.99966243  0.37837508  0.62251615  1
  B  B13  1  0.37837508  0.62251615  0.99966243  1
  B  B14  1  0.62251615  0.99966243  0.37837508  1
  B  B15  1  0.00033757  0.62162492  0.37748385  1
  B  B16  1  0.62162492  0.37748385  0.00033757  1
  B  B17  1  0.37748385  0.00033757  0.62162492  1
