# generated using pymatgen
data_ErGePd
_symmetry_space_group_name_H-M   'P 1'
_cell_length_a   4.38712622
_cell_length_b   7.60429211
_cell_length_c   11.31901499
_cell_angle_alpha   109.62775102
_cell_angle_beta   101.17431158
_cell_angle_gamma   90.00000000
_symmetry_Int_Tables_number   1
_chemical_formula_structural   ErGePd
_chemical_formula_sum   'Er6 Ge6 Pd6'
_cell_volume   348.06252611
_cell_formula_units_Z   6
loop_
 _symmetry_equiv_pos_site_id
 _symmetry_equiv_pos_as_xyz
  1  'x, y, z'
loop_
 _atom_site_type_symbol
 _atom_site_label
 _atom_site_symmetry_multiplicity
 _atom_site_fract_x
 _atom_site_fract_y
 _atom_site_fract_z
 _atom_site_occupancy
  Er  Er0  1  1.00000000  0.46503719  1.00000000  1
  Er  Er1  1  0.33327520  0.79814299  0.66655039  1
  Er  Er2  1  0.66672480  0.13159260  0.33344961  1
  Er  Er3  1  0.50000000  0.04817615  0.00000000  1
  Er  Er4  1  0.16704503  0.70852115  0.33409007  1
  Er  Er5  1  0.83295497  0.37443109  0.66590993  1
  Ge  Ge6  1  0.06557371  0.91214749  0.13114741  1
  Ge  Ge7  1  0.93442629  0.78100008  0.86885259  1
  Ge  Ge8  1  0.23560911  0.39853015  0.47121821  1
  Ge  Ge9  1  0.76439089  0.92731193  0.52878179  1
  Ge  Ge10  1  0.40678860  0.25256480  0.81357720  1
  Ge  Ge11  1  0.59321140  0.43898761  0.18642280  1
  Pd  Pd12  1  0.10446716  0.27794022  0.20893432  1
  Pd  Pd13  1  0.89553284  0.06900590  0.79106568  1
  Pd  Pd14  1  0.26675916  0.10032612  0.53351831  1
  Pd  Pd15  1  0.73324084  0.56680781  0.46648169  1
  Pd  Pd16  1  0.42826560  0.60619395  0.85653119  1
  Pd  Pd17  1  0.57173440  0.74966276  0.14346881  1
