# generated using pymatgen
data_Nd2Ge5Ir3
_symmetry_space_group_name_H-M   'P 1'
_cell_length_a   6.10600337
_cell_length_b   8.48190834
_cell_length_c   8.48190834
_cell_angle_alpha   74.95605156
_cell_angle_beta   68.90331784
_cell_angle_gamma   68.90331784
_symmetry_Int_Tables_number   1
_chemical_formula_structural   Nd2Ge5Ir3
_chemical_formula_sum   'Nd4 Ge10 Ir6'
_cell_volume   378.08128155
_cell_formula_units_Z   2
loop_
 _symmetry_equiv_pos_site_id
 _symmetry_equiv_pos_as_xyz
  1  'x, y, z'
loop_
 _atom_site_type_symbol
 _atom_site_label
 _atom_site_symmetry_multiplicity
 _atom_site_fract_x
 _atom_site_fract_y
 _atom_site_fract_z
 _atom_site_occupancy
  Nd  Nd0  1  0.36596724  0.40701546  0.86105006  1
  Nd  Nd1  1  0.63403276  0.59298454  0.13894994  1
  Nd  Nd2  1  0.86596724  0.86105006  0.40701546  1
  Nd  Nd3  1  0.13403276  0.13894994  0.59298454  1
  Ge  Ge4  1  0.25000000  0.50000000  0.50000000  1
  Ge  Ge5  1  0.75000000  0.50000000  0.50000000  1
  Ge  Ge6  1  0.02623725  0.22376275  0.22376275  1
  Ge  Ge7  1  0.47376275  0.77623725  0.77623725  1
  Ge  Ge8  1  0.97376275  0.77623725  0.77623725  1
  Ge  Ge9  1  0.52623725  0.22376275  0.22376275  1
  Ge  Ge10  1  0.09900229  0.74006896  0.06192647  1
  Ge  Ge11  1  0.90099771  0.25993104  0.93807353  1
  Ge  Ge12  1  0.59900229  0.06192647  0.74006896  1
  Ge  Ge13  1  0.40099771  0.93807353  0.25993104  1
  Ir  Ir14  1  0.25000000  0.00000000  0.00000000  1
  Ir  Ir15  1  0.75000000  0.00000000  0.00000000  1
  Ir  Ir16  1  0.14164548  0.46803465  0.24867438  1
  Ir  Ir17  1  0.85835452  0.53196535  0.75132562  1
  Ir  Ir18  1  0.64164548  0.24867438  0.46803465  1
  Ir  Ir19  1  0.35835452  0.75132562  0.53196535  1
