# generated using pymatgen
data_Li2Cu(PO3)3
_symmetry_space_group_name_H-M   'P 1'
_cell_length_a   8.44726354
_cell_length_b   8.78795732
_cell_length_c   9.44362156
_cell_angle_alpha   90.00058914
_cell_angle_beta   90.00017340
_cell_angle_gamma   89.99999149
_symmetry_Int_Tables_number   1
_chemical_formula_structural   Li2Cu(PO3)3
_chemical_formula_sum   'Li8 Cu4 P12 O36'
_cell_volume   701.03961094
_cell_formula_units_Z   4
loop_
 _symmetry_equiv_pos_site_id
 _symmetry_equiv_pos_as_xyz
  1  'x, y, z'
loop_
 _atom_site_type_symbol
 _atom_site_label
 _atom_site_symmetry_multiplicity
 _atom_site_fract_x
 _atom_site_fract_y
 _atom_site_fract_z
 _atom_site_occupancy
  Li  Li0  1  0.95249692  0.52902099  0.06863355  1
  Li  Li1  1  0.83562970  0.13102648  0.63204025  1
  Li  Li2  1  0.66437093  0.86896967  0.13204101  1
  Li  Li3  1  0.54751068  0.47097036  0.56863551  1
  Li  Li4  1  0.45249391  0.97097455  0.93136817  1
  Li  Li5  1  0.33563016  0.36897374  0.36795921  1
  Li  Li6  1  0.16437022  0.63102853  0.86795874  1
  Li  Li7  1  0.04751055  0.02902793  0.43136329  1
  Cu  Cu8  1  0.87243044  0.86175636  0.84087252  1
  Cu  Cu9  1  0.62756424  0.13823449  0.34087663  1
  Cu  Cu10  1  0.37243504  0.63823996  0.15912389  1
  Cu  Cu11  1  0.12756478  0.36176123  0.65912974  1
  P  P12  1  0.97623773  0.31852133  0.31529104  1
  P  P13  1  0.81510633  0.47514903  0.80890029  1
  P  P14  1  0.79521415  0.81046891  0.42913271  1
  P  P15  1  0.70478845  0.18953125  0.92912644  1
  P  P16  1  0.68489476  0.52484887  0.30890484  1
  P  P17  1  0.52376396  0.68147743  0.81529182  1
  P  P18  1  0.47623639  0.18147742  0.68471009  1
  P  P19  1  0.31510868  0.02485528  0.19110094  1
  P  P20  1  0.29521636  0.68953074  0.57086515  1
  P  P21  1  0.20478590  0.31046870  0.07086883  1
  P  P22  1  0.18489544  0.97515052  0.69109275  1
  P  P23  1  0.02376347  0.81852426  0.18470875  1
  O  O24  1  0.96356826  0.77991918  0.34379861  1
  O  O25  1  0.91324494  0.59860719  0.87665967  1
  O  O26  1  0.89318250  0.87852867  0.09460619  1
  O  O27  1  0.86952283  0.38600107  0.68247656  1
  O  O28  1  0.88381829  0.18422461  0.37175355  1
  O  O29  1  0.85647134  0.45522796  0.26337286  1
  O  O30  1  0.84309313  0.86683876  0.57187626  1
  O  O31  1  0.81459822  0.10050598  0.83646180  1
  O  O32  1  0.76807460  0.36517514  0.94164734  1
  O  O33  1  0.73192771  0.63482413  0.44165136  1
  O  O34  1  0.68539855  0.89949717  0.33645999  1
  O  O35  1  0.65690290  0.13315977  0.07188088  1
  O  O36  1  0.64352932  0.54476953  0.76336806  1
  O  O37  1  0.61618241  0.81577363  0.87175538  1
  O  O38  1  0.63047557  0.61399151  0.18248568  1
  O  O39  1  0.60681860  0.12147502  0.59460743  1
  O  O40  1  0.58675745  0.40138651  0.37666565  1
  O  O41  1  0.53642940  0.22008263  0.84380118  1
  O  O42  1  0.46356823  0.72008151  0.65620165  1
  O  O43  1  0.41324621  0.90139049  0.12334349  1
  O  O44  1  0.39318175  0.62147094  0.90539292  1
  O  O45  1  0.36952827  0.11400758  0.31751668  1
  O  O46  1  0.38381607  0.31577361  0.62824573  1
  O  O47  1  0.35647102  0.04476971  0.73662934  1
  O  O48  1  0.34309752  0.63315906  0.42812433  1
  O  O49  1  0.31460028  0.39949816  0.16354111  1
  O  O50  1  0.26807522  0.13482567  0.05835214  1
  O  O51  1  0.23192910  0.86517471  0.55834577  1
  O  O52  1  0.18539749  0.60050359  0.66353850  1
  O  O53  1  0.15690181  0.36683980  0.92812539  1
  O  O54  1  0.14353098  0.95523193  0.23663152  1
  O  O55  1  0.11618217  0.68422623  0.12824733  1
  O  O56  1  0.13047594  0.88600743  0.81751159  1
  O  O57  1  0.10682009  0.37852582  0.40539374  1
  O  O58  1  0.08675800  0.09861300  0.62333229  1
  O  O59  1  0.03642960  0.27991728  0.15620086  1
