# generated using pymatgen
data_Ce5AgPb3
_symmetry_space_group_name_H-M   'P 1'
_cell_length_a   6.62016160
_cell_length_b   9.71615307
_cell_length_c   9.70887113
_cell_angle_alpha   120.02481606
_cell_angle_beta   90.00000000
_cell_angle_gamma   90.00000000
_symmetry_Int_Tables_number   1
_chemical_formula_structural   Ce5AgPb3
_chemical_formula_sum   'Ce10 Ag2 Pb6'
_cell_volume   540.69661646
_cell_formula_units_Z   2
loop_
 _symmetry_equiv_pos_site_id
 _symmetry_equiv_pos_as_xyz
  1  'x, y, z'
loop_
 _atom_site_type_symbol
 _atom_site_label
 _atom_site_symmetry_multiplicity
 _atom_site_fract_x
 _atom_site_fract_y
 _atom_site_fract_z
 _atom_site_occupancy
  Ce  Ce0  1  0.49998974  0.33348285  0.66696403  1
  Ce  Ce1  1  0.49998974  0.66651882  0.33303597  1
  Ce  Ce2  1  0.99998974  0.66651715  0.33303597  1
  Ce  Ce3  1  0.99998974  0.33348118  0.66696403  1
  Ce  Ce4  1  0.74999710  0.28328218  1.00000000  1
  Ce  Ce5  1  0.74999483  0.71659618  0.71661784  1
  Ce  Ce6  1  0.74999483  -0.00002166  0.28338216  1
  Ce  Ce7  1  0.24999710  0.71671782  0.00000000  1
  Ce  Ce8  1  0.24999483  0.28340382  0.28338216  1
  Ce  Ce9  1  0.24999483  0.00002166  0.71661784  1
  Ag  Ag10  1  0.49999549  0.00002572  0.00000000  1
  Ag  Ag11  1  0.99999549  0.99997428  -0.00000000  1
  Pb  Pb12  1  0.74999419  0.62821546  0.00000000  1
  Pb  Pb13  1  0.75002204  0.37156946  0.37160348  1
  Pb  Pb14  1  0.75002204  0.99996598  0.62839652  1
  Pb  Pb15  1  0.24999419  0.37178454  1.00000000  1
  Pb  Pb16  1  0.25002204  0.62843054  0.62839652  1
  Pb  Pb17  1  0.25002204  0.00003402  0.37160348  1
