# generated using pymatgen
data_LiCu(PO3)2
_symmetry_space_group_name_H-M   'P 1'
_cell_length_a   8.58210511
_cell_length_b   10.46898829
_cell_length_c   11.95410167
_cell_angle_alpha   67.64574338
_cell_angle_beta   89.99962331
_cell_angle_gamma   89.99995438
_symmetry_Int_Tables_number   1
_chemical_formula_structural   LiCu(PO3)2
_chemical_formula_sum   'Li8 Cu8 P16 O48'
_cell_volume   993.31450541
_cell_formula_units_Z   8
loop_
 _symmetry_equiv_pos_site_id
 _symmetry_equiv_pos_as_xyz
  1  'x, y, z'
loop_
 _atom_site_type_symbol
 _atom_site_label
 _atom_site_symmetry_multiplicity
 _atom_site_fract_x
 _atom_site_fract_y
 _atom_site_fract_z
 _atom_site_occupancy
  Li  Li0  1  0.10422532  0.74450800  0.01327736  1
  Li  Li1  1  0.55217787  0.77465969  0.20929869  1
  Li  Li2  1  0.05217377  0.22534082  0.29069931  1
  Li  Li3  1  0.39576773  0.74450398  0.51328264  1
  Li  Li4  1  0.89577058  0.25549273  0.98671838  1
  Li  Li5  1  0.60423199  0.25549710  0.48671362  1
  Li  Li6  1  0.94782497  0.77465798  0.70930246  1
  Li  Li7  1  0.44781852  0.22533828  0.79070324  1
  Cu  Cu8  1  0.46210085  0.75336455  0.97442195  1
  Cu  Cu9  1  0.22874078  0.73817306  0.26007760  1
  Cu  Cu10  1  0.03788527  0.75337125  0.47442107  1
  Cu  Cu11  1  0.53788715  0.24663975  0.02558038  1
  Cu  Cu12  1  0.27124598  0.73816312  0.76007968  1
  Cu  Cu13  1  0.72876085  0.26182909  0.23992252  1
  Cu  Cu14  1  0.96210659  0.24664934  0.52557717  1
  Cu  Cu15  1  0.77125319  0.26181995  0.73991916  1
  P  P16  1  0.23362811  0.46755276  0.01410618  1
  P  P17  1  0.76946807  0.97044545  0.02390220  1
  P  P18  1  0.51399315  0.99462969  0.31451952  1
  P  P19  1  0.01398804  0.00536151  0.18548670  1
  P  P20  1  0.50180723  0.49882655  0.31423081  1
  P  P21  1  0.26637230  0.46754983  0.51410860  1
  P  P22  1  0.73053537  0.97044542  0.52390434  1
  P  P23  1  0.99819254  0.49882237  0.81423260  1
  P  P24  1  0.00180952  0.50118085  0.18576253  1
  P  P25  1  0.26946943  0.02955235  0.47609627  1
  P  P26  1  0.73361554  0.53244512  0.48589286  1
  P  P27  1  0.49819636  0.50117434  0.68576691  1
  P  P28  1  0.98600769  0.99463824  0.81451672  1
  P  P29  1  0.48601047  0.00537296  0.68547839  1
  P  P30  1  0.23053219  0.02954839  0.97610328  1
  P  P31  1  0.76637881  0.53244483  0.98589152  1
  O  O32  1  0.25127547  0.87492862  0.03049029  1
  O  O33  1  0.10338692  0.89765643  0.28501485  1
  O  O34  1  0.07656393  0.62363412  0.19919817  1
  O  O35  1  0.63300407  0.87479483  0.05536014  1
  O  O36  1  0.13064832  0.41528018  0.13930285  1
  O  O37  1  0.45003571  0.86989046  0.29666698  1
  O  O38  1  0.37254557  0.37891274  0.03563267  1
  O  O39  1  0.11685398  0.07688108  0.06243113  1
  O  O40  1  0.42306722  0.61470208  0.21383941  1
  O  O41  1  0.87731905  0.92483472  0.14526998  1
  O  O42  1  0.24872085  0.87493525  0.53047499  1
  O  O43  1  0.25971208  0.62425976  0.46554691  1
  O  O44  1  0.75972317  0.37574399  0.03445346  1
  O  O45  1  0.61685467  0.92311600  0.43757737  1
  O  O46  1  0.88790155  0.57614387  0.07092152  1
  O  O47  1  0.04999018  0.86987892  0.79667334  1
  O  O48  1  0.12745830  0.37890463  0.53564864  1
  O  O49  1  0.38789242  0.42386323  0.42906774  1
  O  O50  1  0.57657269  0.37636907  0.30080114  1
  O  O51  1  0.07694367  0.61470183  0.71383970  1
  O  O52  1  0.63063032  0.58472103  0.36070224  1
  O  O53  1  0.13300326  0.12520448  0.44463532  1
  O  O54  1  0.62267568  0.92483537  0.64526859  1
  O  O55  1  0.60340630  0.10235193  0.21498862  1
  O  O56  1  0.39659490  0.89765249  0.78500499  1
  O  O57  1  0.37732278  0.07516278  0.35472826  1
  O  O58  1  0.86700046  0.87478810  0.55536670  1
  O  O59  1  0.36936265  0.41528367  0.63929635  1
  O  O60  1  0.92305797  0.38530471  0.28614953  1
  O  O61  1  0.42343840  0.62362947  0.69920851  1
  O  O62  1  0.61210073  0.57614559  0.57092755  1
  O  O63  1  0.87254091  0.62109768  0.46434713  1
  O  O64  1  0.95001360  0.13011319  0.20333342  1
  O  O65  1  0.11209626  0.42386599  0.92907519  1
  O  O66  1  0.38314900  0.07688652  0.56242126  1
  O  O67  1  0.24027877  0.62426301  0.96554246  1
  O  O68  1  0.74027355  0.37574551  0.53445595  1
  O  O69  1  0.75128816  0.12505964  0.46952745  1
  O  O70  1  0.12267902  0.07515810  0.85473710  1
  O  O71  1  0.57694477  0.38529810  0.78614842  1
  O  O72  1  0.88314779  0.92310939  0.93757705  1
  O  O73  1  0.62744796  0.62108985  0.96436153  1
  O  O74  1  0.54996991  0.13011335  0.70333135  1
  O  O75  1  0.86935210  0.58472483  0.86069229  1
  O  O76  1  0.36699481  0.12519931  0.94464384  1
  O  O77  1  0.92344484  0.37636905  0.80080090  1
  O  O78  1  0.89661357  0.10233377  0.71499288  1
  O  O79  1  0.74872149  0.12506297  0.96951316  1
