# generated using pymatgen
data_Li4V3Fe2Ni3O16
_symmetry_space_group_name_H-M   'P 1'
_cell_length_a   5.87215721
_cell_length_b   5.87260035
_cell_length_c   9.62342925
_cell_angle_alpha   90.42547036
_cell_angle_beta   92.20039612
_cell_angle_gamma   119.57666350
_symmetry_Int_Tables_number   1
_chemical_formula_structural   Li4V3Fe2Ni3O16
_chemical_formula_sum   'Li4 V3 Fe2 Ni3 O16'
_cell_volume   288.27368315
_cell_formula_units_Z   1
loop_
 _symmetry_equiv_pos_site_id
 _symmetry_equiv_pos_as_xyz
  1  'x, y, z'
loop_
 _atom_site_type_symbol
 _atom_site_label
 _atom_site_symmetry_multiplicity
 _atom_site_fract_x
 _atom_site_fract_y
 _atom_site_fract_z
 _atom_site_occupancy
  Li  Li0  1  0.32595528  0.66219822  0.89056379  1
  Li  Li1  1  0.98053772  0.98283044  0.98649293  1
  Li  Li2  1  0.00769904  0.00726527  0.49861994  1
  Li  Li3  1  0.63243679  0.31181227  0.40747072  1
  V  V4  1  0.12686049  0.78046196  0.23967865  1
  V  V5  1  0.20449531  0.32969687  0.19369972  1
  V  V6  1  0.34937837  0.18263319  0.72128842  1
  Fe  Fe7  1  0.34573053  0.67861126  0.50952622  1
  Fe  Fe8  1  0.70506558  0.34716042  0.97709476  1
  Ni  Ni9  1  0.65892113  0.83849811  0.21127852  1
  Ni  Ni10  1  0.83934616  0.66422965  0.70915505  1
  Ni  Ni11  1  0.83058621  0.16770336  0.71092652  1
  O  O12  1  0.18730383  0.85507141  0.60273653  1
  O  O13  1  0.99919786  0.51917333  0.34553129  1
  O  O14  1  0.29046536  0.64699790  0.11139873  1
  O  O15  1  0.02749836  0.01542738  0.30687496  1
  O  O16  1  0.01776592  0.02619214  0.80257533  1
  O  O17  1  0.20293843  0.33785429  0.60094493  1
  O  O18  1  0.44831512  0.95412162  0.32881249  1
  O  O19  1  0.44685075  0.49916921  0.33412543  1
  O  O20  1  0.34313200  0.19745743  0.09148929  1
  O  O21  1  0.68860879  0.85793664  0.59253160  1
  O  O22  1  0.51148810  0.47375467  0.84010047  1
  O  O23  1  0.49326927  0.03457544  0.84433611  1
  O  O24  1  0.64729741  0.30655767  0.60919265  1
  O  O25  1  0.85990563  0.68065700  0.10073433  1
  O  O26  1  0.96425496  0.46448357  0.83688201  1
  O  O27  1  0.86469461  0.17777128  0.10377461  1
