# generated using pymatgen
data_Co2O3F
_symmetry_space_group_name_H-M   'P 1'
_cell_length_a   5.27656299
_cell_length_b   9.26333426
_cell_length_c   5.27656299
_cell_angle_alpha   77.65753678
_cell_angle_beta   67.39038109
_cell_angle_gamma   97.86698757
_symmetry_Int_Tables_number   1
_chemical_formula_structural   Co2O3F
_chemical_formula_sum   'Co8 O12 F4'
_cell_volume   225.62061994
_cell_formula_units_Z   4
loop_
 _symmetry_equiv_pos_site_id
 _symmetry_equiv_pos_as_xyz
  1  'x, y, z'
loop_
 _atom_site_type_symbol
 _atom_site_label
 _atom_site_symmetry_multiplicity
 _atom_site_fract_x
 _atom_site_fract_y
 _atom_site_fract_z
 _atom_site_occupancy
  Co  Co0  1  0.62500000  0.25000000  0.87500000  1
  Co  Co1  1  0.89786155  0.76476739  0.63309416  1
  Co  Co2  1  0.50371733  0.99963021  0.49680429  1
  Co  Co3  1  0.74628267  0.50036979  0.25319571  1
  Co  Co4  1  0.25356650  0.50036979  0.74591287  1
  Co  Co5  1  0.12500000  0.25000000  0.37500000  1
  Co  Co6  1  0.35213845  0.73523261  0.11690584  1
  Co  Co7  1  0.99643350  0.99963021  0.00408713  1
  O  O8  1  0.92399715  0.15280381  0.77111621  1
  O  O9  1  0.32600285  0.34719619  0.97888379  1
  O  O10  1  0.57897620  0.84709608  0.72806309  1
  O  O11  1  0.82607999  0.34719619  0.47880665  1
  O  O12  1  0.89296217  0.09433555  0.29862662  1
  O  O13  1  0.11051085  0.90481785  0.70569300  1
  O  O14  1  0.35703783  0.40566445  0.45137338  1
  O  O15  1  0.17483983  0.65290392  0.51811989  1
  O  O16  1  0.67102380  0.65290392  0.02193691  1
  O  O17  1  0.42392001  0.15280381  0.27119335  1
  O  O18  1  0.07516017  0.84709608  0.23188011  1
  O  O19  1  0.13948915  0.59518215  0.04430700  1
  F  F20  1  0.84038211  0.39320340  0.94717871  1
  F  F21  1  0.66840322  0.61082768  0.55757554  1
  F  F22  1  0.40961789  0.10679660  0.80282129  1
  F  F23  1  0.58159678  0.88917232  0.19242446  1
