# generated using pymatgen
data_Fe3O5F
_symmetry_space_group_name_H-M   'P 1'
_cell_length_a   7.36576888
_cell_length_b   5.52309289
_cell_length_c   5.52309289
_cell_angle_alpha   70.98633162
_cell_angle_beta   70.81755699
_cell_angle_gamma   70.81755699
_symmetry_Int_Tables_number   1
_chemical_formula_structural   Fe3O5F
_chemical_formula_sum   'Fe6 O10 F2'
_cell_volume   194.36353464
_cell_formula_units_Z   2
loop_
 _symmetry_equiv_pos_site_id
 _symmetry_equiv_pos_as_xyz
  1  'x, y, z'
loop_
 _atom_site_type_symbol
 _atom_site_label
 _atom_site_symmetry_multiplicity
 _atom_site_fract_x
 _atom_site_fract_y
 _atom_site_fract_z
 _atom_site_occupancy
  Fe  Fe0  1  0.83333300  0.66666700  0.66666700  1
  Fe  Fe1  1  0.67729002  0.33442109  0.33442109  1
  Fe  Fe2  1  0.33333300  0.66666700  0.66666700  1
  Fe  Fe3  1  0.15251735  0.32423294  0.32423294  1
  Fe  Fe4  1  0.51414865  0.00910106  0.00910106  1
  Fe  Fe5  1  0.98937698  0.99891191  0.99891191  1
  O  O6  1  0.66641935  0.02862356  0.64277038  1
  O  O7  1  0.33333300  0.36202327  0.97130973  1
  O  O8  1  0.96654958  0.22230007  0.22230007  1
  O  O9  1  0.62177981  0.56357748  0.56357748  1
  O  O10  1  0.04488719  0.76975552  0.76975552  1
  O  O11  1  0.70011742  0.11103293  0.11103293  1
  O  O12  1  0.33333300  0.97130973  0.36202327  1
  O  O13  1  0.66641935  0.64277038  0.02862356  1
  O  O14  1  0.00024765  0.30470944  0.69056262  1
  O  O15  1  0.00024765  0.69056262  0.30470944  1
  F  F16  1  0.30008067  0.90377895  0.90377895  1
  F  F17  1  0.36658633  0.42955405  0.42955405  1
