# generated using pymatgen
data_Zr5CuBi3
_symmetry_space_group_name_H-M   'P 1'
_cell_length_a   5.92146869
_cell_length_b   8.83753666
_cell_length_c   8.83748408
_cell_angle_alpha   120.00019951
_cell_angle_beta   90.00000000
_cell_angle_gamma   90.00000000
_symmetry_Int_Tables_number   1
_chemical_formula_structural   Zr5CuBi3
_chemical_formula_sum   'Zr10 Cu2 Bi6'
_cell_volume   400.51526087
_cell_formula_units_Z   2
loop_
 _symmetry_equiv_pos_site_id
 _symmetry_equiv_pos_as_xyz
  1  'x, y, z'
loop_
 _atom_site_type_symbol
 _atom_site_label
 _atom_site_symmetry_multiplicity
 _atom_site_fract_x
 _atom_site_fract_y
 _atom_site_fract_z
 _atom_site_occupancy
  Zr  Zr0  1  0.75000454  0.26140936  0.26138548  1
  Zr  Zr1  1  0.75000454  0.00002388  0.73861452  1
  Zr  Zr2  1  0.74999316  0.73859714  1.00000000  1
  Zr  Zr3  1  0.25000454  0.73859064  0.73861452  1
  Zr  Zr4  1  0.25000454  0.99997612  0.26138548  1
  Zr  Zr5  1  0.24999316  0.26140286  0.00000000  1
  Zr  Zr6  1  0.49999971  0.66666140  0.33332117  1
  Zr  Zr7  1  0.49999971  0.33334023  0.66667883  1
  Zr  Zr8  1  0.99999971  0.33333860  0.66667883  1
  Zr  Zr9  1  0.99999971  0.66665977  0.33332117  1
  Cu  Cu10  1  0.50000098  0.00000243  0.00000000  1
  Cu  Cu11  1  0.00000098  0.99999757  -0.00000000  1
  Bi  Bi12  1  0.75000237  0.61537370  0.61537074  1
  Bi  Bi13  1  0.75000237  0.00000297  0.38462926  1
  Bi  Bi14  1  0.74999261  0.38465496  1.00000000  1
  Bi  Bi15  1  0.25000237  0.38462630  0.38462926  1
  Bi  Bi16  1  0.25000237  0.99999703  0.61537074  1
  Bi  Bi17  1  0.24999261  0.61534504  0.00000000  1
