# generated using pymatgen
data_LiCu2P3H8O13
_symmetry_space_group_name_H-M   'P 1'
_cell_length_a   6.80791438
_cell_length_b   9.29374173
_cell_length_c   9.87627920
_cell_angle_alpha   94.69595792
_cell_angle_beta   104.30286733
_cell_angle_gamma   107.68105312
_symmetry_Int_Tables_number   1
_chemical_formula_structural   LiCu2P3H8O13
_chemical_formula_sum   'Li2 Cu4 P6 H16 O26'
_cell_volume   568.51728896
_cell_formula_units_Z   2
loop_
 _symmetry_equiv_pos_site_id
 _symmetry_equiv_pos_as_xyz
  1  'x, y, z'
loop_
 _atom_site_type_symbol
 _atom_site_label
 _atom_site_symmetry_multiplicity
 _atom_site_fract_x
 _atom_site_fract_y
 _atom_site_fract_z
 _atom_site_occupancy
  Li  Li0  1  0.63578147  0.74926179  0.61216985  1
  Li  Li1  1  0.36421853  0.25073821  0.38783015  1
  Cu  Cu2  1  0.19453091  0.65739841  0.96162438  1
  Cu  Cu3  1  0.56082150  0.94748372  0.84886225  1
  Cu  Cu4  1  0.43917850  0.05251628  0.15113775  1
  Cu  Cu5  1  0.80546909  0.34260159  0.03837562  1
  P  P6  1  0.07894141  0.97887266  0.82246412  1
  P  P7  1  0.27006481  0.29626827  0.96736256  1
  P  P8  1  0.17798461  0.22287492  0.66134058  1
  P  P9  1  0.82201539  0.77712508  0.33865942  1
  P  P10  1  0.72993519  0.70373173  0.03263744  1
  P  P11  1  0.92105859  0.02112734  0.17753588  1
  H  H12  1  0.03094970  0.45486758  0.68054801  1
  H  H13  1  0.27131164  0.79939887  0.54639665  1
  H  H14  1  0.27526033  0.69347062  0.65973068  1
  H  H15  1  0.08134030  0.42379977  0.31659020  1
  H  H16  1  0.20464848  0.79797337  0.25490178  1
  H  H17  1  0.43289360  0.79015231  0.28038711  1
  H  H18  1  0.33756958  0.43485182  0.22366569  1
  H  H19  1  0.51841467  0.45539235  0.63308490  1
  H  H20  1  0.48158533  0.54460765  0.36691510  1
  H  H21  1  0.66243042  0.56514818  0.77633431  1
  H  H22  1  0.56710640  0.20984769  0.71961289  1
  H  H23  1  0.79535152  0.20202663  0.74509822  1
  H  H24  1  0.91865970  0.57620023  0.68340980  1
  H  H25  1  0.72473967  0.30652938  0.34026932  1
  H  H26  1  0.72868836  0.20060113  0.45360335  1
  H  H27  1  0.96905030  0.54513242  0.31945199  1
  O  O28  1  0.24692517  0.91674980  0.90038722  1
  O  O29  1  0.06267669  0.56520002  0.71222734  1
  O  O30  1  0.04022372  0.76058717  0.38556967  1
  O  O31  1  0.08002916  0.13059744  0.91747531  1
  O  O32  1  0.37183261  0.77625534  0.62514783  1
  O  O33  1  0.30766041  0.33115329  0.81457597  1
  O  O34  1  0.16141116  0.05275647  0.69269929  1
  O  O35  1  0.52672109  0.71960337  0.94246677  1
  O  O36  1  0.32225148  0.81335224  0.20954316  1
  O  O37  1  0.17265386  0.40661666  0.02231105  1
  O  O38  1  0.33325716  0.26207456  0.57364739  1
  O  O39  1  0.15238443  0.11802604  0.23298490  1
  O  O40  1  0.36613875  0.44486533  0.32745404  1
  O  O41  1  0.63386125  0.55513467  0.67254596  1
  O  O42  1  0.84761557  0.88197396  0.76701510  1
  O  O43  1  0.66674284  0.73792544  0.42635261  1
  O  O44  1  0.82734614  0.59338334  0.97768895  1
  O  O45  1  0.67774852  0.18664776  0.79045684  1
  O  O46  1  0.47327891  0.28039663  0.05753323  1
  O  O47  1  0.83858884  0.94724353  0.30730071  1
  O  O48  1  0.69233959  0.66884671  0.18542403  1
  O  O49  1  0.62816739  0.22374466  0.37485217  1
  O  O50  1  0.91997084  0.86940256  0.08252469  1
  O  O51  1  0.95977628  0.23941283  0.61443033  1
  O  O52  1  0.93732331  0.43479998  0.28777266  1
  O  O53  1  0.75307483  0.08325020  0.09961278  1
