# generated using pymatgen
data_NaDyH2S2O9
_symmetry_space_group_name_H-M   'P 1'
_cell_length_a   6.90980432
_cell_length_b   6.90980433
_cell_length_c   12.89626457
_cell_angle_alpha   90.00000000
_cell_angle_beta   90.00000000
_cell_angle_gamma   119.99999535
_symmetry_Int_Tables_number   1
_chemical_formula_structural   NaDyH2S2O9
_chemical_formula_sum   'Na3 Dy3 H6 S6 O27'
_cell_volume   533.24413096
_cell_formula_units_Z   3
loop_
 _symmetry_equiv_pos_site_id
 _symmetry_equiv_pos_as_xyz
  1  'x, y, z'
loop_
 _atom_site_type_symbol
 _atom_site_label
 _atom_site_symmetry_multiplicity
 _atom_site_fract_x
 _atom_site_fract_y
 _atom_site_fract_z
 _atom_site_occupancy
  Na  Na0  1  0.48816023  0.00000326  0.00000530  1
  Na  Na1  1  0.99999674  0.48815698  0.33333930  1
  Na  Na2  1  0.51184302  0.51183977  0.66667230  1
  Dy  Dy3  1  0.44305712  0.00000147  0.50001035  1
  Dy  Dy4  1  -0.00000147  0.44305566  0.83334435  1
  Dy  Dy5  1  0.55694434  0.55694288  0.16667735  1
  H  H6  1  0.03561944  0.04674106  0.55659258  1
  H  H7  1  0.95325894  0.98887838  0.88992658  1
  H  H8  1  0.01112162  0.96438056  0.22325958  1
  H  H9  1  0.96441508  0.01119487  0.10999795  1
  H  H10  1  0.98880513  0.95322021  0.44333195  1
  H  H11  1  0.04677979  0.03558492  0.77666495  1
  S  S12  1  0.44147537  0.98483407  0.73814402  1
  S  S13  1  0.01516593  0.45664129  0.07147802  1
  S  S14  1  0.54335871  0.55852463  0.40481102  1
  S  S15  1  0.55851225  0.54335919  0.92854761  1
  S  S16  1  0.45664081  0.01515305  0.26188161  1
  S  S17  1  0.98484695  0.44148775  0.59521461  1
  O  O18  1  0.37641195  0.11466607  0.66601886  1
  O  O19  1  0.88533393  0.26174588  0.99935286  1
  O  O20  1  0.73825412  0.62358805  0.33268586  1
  O  O21  1  0.62358233  0.73826064  0.00066813  1
  O  O22  1  0.26173936  0.88532169  0.33400213  1
  O  O23  1  0.11467831  0.37641767  0.66733513  1
  O  O24  1  0.61494871  0.13664050  0.81204825  1
  O  O25  1  0.86335950  0.47830821  0.14538225  1
  O  O26  1  0.52169179  0.38505129  0.47871525  1
  O  O27  1  0.38504127  0.52168541  0.85464668  1
  O  O28  1  0.47831459  0.86335586  0.18798068  1
  O  O29  1  0.13664414  0.61495873  0.52131368  1
  O  O30  1  0.24157353  0.82622631  0.79888260  1
  O  O31  1  0.17377369  0.41534722  0.13221660  1
  O  O32  1  0.58465278  0.75842647  0.46554960  1
  O  O33  1  0.75842500  0.58465492  0.86780885  1
  O  O34  1  0.41534508  0.17377008  0.20114285  1
  O  O35  1  0.82622992  0.24157500  0.53447585  1
  O  O36  1  0.52179914  0.86718810  0.66832154  1
  O  O37  1  0.13281190  0.65461104  0.00165554  1
  O  O38  1  0.34538896  0.47820086  0.33498854  1
  O  O39  1  0.47820797  0.34539831  0.99837404  1
  O  O40  1  0.65460169  0.13280966  0.33170804  1
  O  O41  1  0.86719034  0.52179203  0.66504104  1
  O  O42  1  0.09613153  0.00003316  0.50002825  1
  O  O43  1  -0.00003316  0.09609838  0.83336225  1
  O  O44  1  0.90390162  0.90386847  0.16669525  1
