# generated using pymatgen
data_Tb7RhI12
_symmetry_space_group_name_H-M   'P 1'
_cell_length_a   9.81494021
_cell_length_b   9.81494021
_cell_length_c   9.81494051
_cell_angle_alpha   106.92112906
_cell_angle_beta   106.92112909
_cell_angle_gamma   106.92113421
_symmetry_Int_Tables_number   1
_chemical_formula_structural   Tb7RhI12
_chemical_formula_sum   'Tb7 Rh1 I12'
_cell_volume   789.11207261
_cell_formula_units_Z   1
loop_
 _symmetry_equiv_pos_site_id
 _symmetry_equiv_pos_as_xyz
  1  'x, y, z'
loop_
 _atom_site_type_symbol
 _atom_site_label
 _atom_site_symmetry_multiplicity
 _atom_site_fract_x
 _atom_site_fract_y
 _atom_site_fract_z
 _atom_site_occupancy
  Tb  Tb0  1  0.50000000  0.50000000  0.50000000  1
  Tb  Tb1  1  0.02383215  0.29619451  0.09458829  1
  Tb  Tb2  1  0.29619451  0.09458829  0.02383215  1
  Tb  Tb3  1  0.09458829  0.02383215  0.29619451  1
  Tb  Tb4  1  0.97616785  0.70380549  0.90541171  1
  Tb  Tb5  1  0.70380549  0.90541171  0.97616785  1
  Tb  Tb6  1  0.90541171  0.97616785  0.70380549  1
  Rh  Rh7  1  -0.00000000  -0.00000000  -0.00000000  1
  I  I8  1  0.16296150  0.38835723  0.46584728  1
  I  I9  1  0.38835723  0.46584728  0.16296150  1
  I  I10  1  0.46584728  0.16296150  0.38835723  1
  I  I11  1  0.83703850  0.61164277  0.53415272  1
  I  I12  1  0.61164277  0.53415272  0.83703850  1
  I  I13  1  0.53415272  0.83703850  0.61164277  1
  I  I14  1  0.77573874  0.92920398  0.32277511  1
  I  I15  1  0.92920398  0.32277511  0.77573874  1
  I  I16  1  0.32277511  0.77573874  0.92920398  1
  I  I17  1  0.22426126  0.07079602  0.67722489  1
  I  I18  1  0.07079602  0.67722489  0.22426126  1
  I  I19  1  0.67722489  0.22426126  0.07079602  1
