# generated using pymatgen
data_Eu2ZnP3Pt7
_symmetry_space_group_name_H-M   'P 1'
_cell_length_a   4.11636115
_cell_length_b   4.11636115
_cell_length_c   13.89276839
_cell_angle_alpha   81.48040423
_cell_angle_beta   81.48040423
_cell_angle_gamma   90.00000000
_symmetry_Int_Tables_number   1
_chemical_formula_structural   Eu2ZnP3Pt7
_chemical_formula_sum   'Eu2 Zn1 P3 Pt7'
_cell_volume   230.18044648
_cell_formula_units_Z   1
loop_
 _symmetry_equiv_pos_site_id
 _symmetry_equiv_pos_as_xyz
  1  'x, y, z'
loop_
 _atom_site_type_symbol
 _atom_site_label
 _atom_site_symmetry_multiplicity
 _atom_site_fract_x
 _atom_site_fract_y
 _atom_site_fract_z
 _atom_site_occupancy
  Eu  Eu0  1  0.33544688  0.33544688  0.32910624  1
  Eu  Eu1  1  0.66455312  0.66455312  0.67089376  1
  Zn  Zn2  1  0.50000000  0.50000000  -0.00000000  1
  P  P3  1  0.11933992  0.11933992  0.76132016  1
  P  P4  1  0.88066008  0.88066008  0.23867984  1
  P  P5  1  0.75000000  0.25000000  0.50000000  1
  Pt  Pt6  1  0.57105350  0.07105350  0.85789300  1
  Pt  Pt7  1  0.07161851  0.57161851  0.85676298  1
  Pt  Pt8  1  0.42838149  0.92838149  0.14323702  1
  Pt  Pt9  1  0.92894650  0.42894650  0.14210700  1
  Pt  Pt10  1  0.20699663  0.20699663  0.58600673  1
  Pt  Pt11  1  0.79300337  0.79300337  0.41399327  1
  Pt  Pt12  1  0.00000000  0.00000000  -0.00000000  1
