# generated using pymatgen
data_LiTiV3O8
_symmetry_space_group_name_H-M   'P 1'
_cell_length_a   6.05673183
_cell_length_b   5.91641771
_cell_length_c   6.11024778
_cell_angle_alpha   60.97946042
_cell_angle_beta   89.97431755
_cell_angle_gamma   120.55519852
_symmetry_Int_Tables_number   1
_chemical_formula_structural   LiTiV3O8
_chemical_formula_sum   'Li1 Ti1 V3 O8'
_cell_volume   155.75053390
_cell_formula_units_Z   1
loop_
 _symmetry_equiv_pos_site_id
 _symmetry_equiv_pos_as_xyz
  1  'x, y, z'
loop_
 _atom_site_type_symbol
 _atom_site_label
 _atom_site_symmetry_multiplicity
 _atom_site_fract_x
 _atom_site_fract_y
 _atom_site_fract_z
 _atom_site_occupancy
  Li  Li0  1  0.49997800  0.49999724  0.50000683  1
  Ti  Ti1  1  0.00001578  0.99999095  0.00004557  1
  V  V2  1  0.00002000  0.49999331  -0.00003221  1
  V  V3  1  0.49998065  0.49999209  -0.00000499  1
  V  V4  1  0.50000778  0.00002317  0.99997178  1
  O  O5  1  0.76355014  0.53736574  0.19922561  1
  O  O6  1  0.28697835  0.54925998  0.20114709  1
  O  O7  1  0.76336758  0.02044609  0.20028093  1
  O  O8  1  0.27202904  0.04613365  0.19476759  1
  O  O9  1  0.72796395  0.95385941  0.80523230  1
  O  O10  1  0.23663503  0.97955795  0.79971539  1
  O  O11  1  0.71302705  0.45074862  0.79885606  1
  O  O12  1  0.23644665  0.46263078  0.80078807  1
