# generated using pymatgen
data_CrGeSbO6
_symmetry_space_group_name_H-M   'P 1'
_cell_length_a   4.60414205
_cell_length_b   4.60414205
_cell_length_c   9.12888195
_cell_angle_alpha   90.00000000
_cell_angle_beta   90.00000000
_cell_angle_gamma   90.00000000
_symmetry_Int_Tables_number   1
_chemical_formula_structural   CrGeSbO6
_chemical_formula_sum   'Cr2 Ge2 Sb2 O12'
_cell_volume   193.51517171
_cell_formula_units_Z   2
loop_
 _symmetry_equiv_pos_site_id
 _symmetry_equiv_pos_as_xyz
  1  'x, y, z'
loop_
 _atom_site_type_symbol
 _atom_site_label
 _atom_site_symmetry_multiplicity
 _atom_site_fract_x
 _atom_site_fract_y
 _atom_site_fract_z
 _atom_site_occupancy
  Cr  Cr0  1  0.50000000  0.50000000  0.16677634  1
  Cr  Cr1  1  0.00000000  0.00000000  0.66677634  1
  Ge  Ge2  1  0.50000000  0.50000000  0.49961499  1
  Ge  Ge3  1  0.00000000  0.00000000  0.99961499  1
  Sb  Sb4  1  0.50000000  0.50000000  0.83366683  1
  Sb  Sb5  1  0.00000000  -0.00000000  0.33366683  1
  O  O6  1  0.19040444  0.80959556  0.16106846  1
  O  O7  1  0.20122485  0.79877515  0.49943865  1
  O  O8  1  0.18971733  0.81028267  0.83946381  1
  O  O9  1  0.80959556  0.19040444  0.16106846  1
  O  O10  1  0.79877515  0.20122485  0.49943865  1
  O  O11  1  0.81028267  0.18971733  0.83946381  1
  O  O12  1  0.31028267  0.31028267  0.33946381  1
  O  O13  1  0.30959556  0.30959556  0.66106846  1
  O  O14  1  0.29877515  0.29877515  0.99943865  1
  O  O15  1  0.68971733  0.68971733  0.33946381  1
  O  O16  1  0.69040444  0.69040444  0.66106846  1
  O  O17  1  0.70122485  0.70122485  0.99943865  1
