# generated using pymatgen
data_Sm(Al2Cu)4
_symmetry_space_group_name_H-M   'P 1'
_cell_length_a   5.16105672
_cell_length_b   6.75667866
_cell_length_c   6.75667866
_cell_angle_alpha   81.61263426
_cell_angle_beta   67.54717530
_cell_angle_gamma   67.54717544
_symmetry_Int_Tables_number   1
_chemical_formula_structural   Sm(Al2Cu)4
_chemical_formula_sum   'Sm1 Al8 Cu4'
_cell_volume   201.24807727
_cell_formula_units_Z   1
loop_
 _symmetry_equiv_pos_site_id
 _symmetry_equiv_pos_as_xyz
  1  'x, y, z'
loop_
 _atom_site_type_symbol
 _atom_site_label
 _atom_site_symmetry_multiplicity
 _atom_site_fract_x
 _atom_site_fract_y
 _atom_site_fract_z
 _atom_site_occupancy
  Al  Al0  1  0.34858995  0.65141005  0.65141005  1
  Al  Al1  1  0.00000000  0.34858995  0.65141005  1
  Al  Al2  1  1.00000000  0.65141005  0.34858995  1
  Al  Al3  1  0.65141005  0.34858995  0.34858995  1
  Al  Al4  1  0.72015927  0.77984073  0.77984073  1
  Al  Al5  1  0.50000000  0.22015927  0.77984073  1
  Al  Al6  1  0.50000000  0.77984073  0.22015927  1
  Al  Al7  1  0.27984073  0.22015927  0.22015927  1
  Cu  Cu8  1  0.50000000  0.00000000  0.50000000  1
  Cu  Cu9  1  0.00000000  0.50000000  0.00000000  1
  Cu  Cu10  1  0.50000000  0.50000000  0.00000000  1
  Cu  Cu11  1  0.00000000  0.00000000  0.50000000  1
  Sm  Sm12  1  0.00000000  0.00000000  0.00000000  1
