# generated using pymatgen
data_Ti2CdO5
_symmetry_space_group_name_H-M   'P 1'
_cell_length_a   5.47321536
_cell_length_b   5.47321536
_cell_length_c   10.74472340
_cell_angle_alpha   90.00000000
_cell_angle_beta   90.00000000
_cell_angle_gamma   39.83525404
_symmetry_Int_Tables_number   1
_chemical_formula_structural   Ti2CdO5
_chemical_formula_sum   'Ti4 Cd2 O10'
_cell_volume   206.18413711
_cell_formula_units_Z   2
loop_
 _symmetry_equiv_pos_site_id
 _symmetry_equiv_pos_as_xyz
  1  'x, y, z'
loop_
 _atom_site_type_symbol
 _atom_site_label
 _atom_site_symmetry_multiplicity
 _atom_site_fract_x
 _atom_site_fract_y
 _atom_site_fract_z
 _atom_site_occupancy
  Ti  Ti0  1  0.12944836  0.12944836  0.56570778  1
  Ti  Ti1  1  0.12944836  0.12944836  0.93429222  1
  Ti  Ti2  1  0.87055164  0.87055164  0.06570778  1
  Ti  Ti3  1  0.87055164  0.87055164  0.43429222  1
  Cd  Cd4  1  0.19030966  0.19030966  0.25000000  1
  Cd  Cd5  1  0.80969034  0.80969034  0.75000000  1
  O  O6  1  0.04381067  0.04381067  0.10337229  1
  O  O7  1  0.04381067  0.04381067  0.39662771  1
  O  O8  1  0.31486433  0.31486433  0.05247479  1
  O  O9  1  0.31486433  0.31486433  0.44752521  1
  O  O10  1  0.81488226  0.81488226  0.25000000  1
  O  O11  1  0.18511774  0.18511774  0.75000000  1
  O  O12  1  0.68513567  0.68513567  0.55247479  1
  O  O13  1  0.95618933  0.95618933  0.60337229  1
  O  O14  1  0.68513567  0.68513567  0.94752521  1
  O  O15  1  0.95618933  0.95618933  0.89662771  1
