# generated using pymatgen
data_LiV2CrO6
_symmetry_space_group_name_H-M   'P 1'
_cell_length_a   7.94014813
_cell_length_b   7.94014807
_cell_length_c   6.06632511
_cell_angle_alpha   102.33024610
_cell_angle_beta   102.33024597
_cell_angle_gamma   68.10580937
_symmetry_Int_Tables_number   1
_chemical_formula_structural   LiV2CrO6
_chemical_formula_sum   'Li3 V6 Cr3 O18'
_cell_volume   342.88219387
_cell_formula_units_Z   3
loop_
 _symmetry_equiv_pos_site_id
 _symmetry_equiv_pos_as_xyz
  1  'x, y, z'
loop_
 _atom_site_type_symbol
 _atom_site_label
 _atom_site_symmetry_multiplicity
 _atom_site_fract_x
 _atom_site_fract_y
 _atom_site_fract_z
 _atom_site_occupancy
  Li  Li0  1  0.33655114  0.66988414  0.50932382  1
  Li  Li1  1  0.66666700  0.00000000  0.16666700  1
  Li  Li2  1  0.99678186  0.33011586  0.82401018  1
  V  V3  1  0.00159122  0.99486057  0.99912021  1
  V  V4  1  0.67180643  0.66507578  0.33421379  1
  V  V5  1  0.32651167  0.65984467  0.00050418  1
  V  V6  1  0.66152657  0.33492422  0.99912021  1
  V  V7  1  0.00682133  0.34015533  0.33282882  1
  V  V8  1  0.33174278  0.00513943  0.33421379  1
  Cr  Cr9  1  0.99482097  0.67184603  0.66666700  1
  Cr  Cr10  1  0.33851303  0.32815397  0.66666700  1
  Cr  Cr11  1  0.66666700  0.00000000  0.66666700  1
  O  O12  1  0.81444861  0.82334111  0.43368775  1
  O  O13  1  0.48725242  0.82058542  0.11330425  1
  O  O14  1  0.82418921  0.48934831  0.10857908  1
  O  O15  1  0.84332489  0.85221839  0.89964525  1
  O  O16  1  0.50385995  0.83719395  0.54084137  1
  O  O17  1  0.84265993  0.50716813  0.55173205  1
  O  O18  1  0.17731769  0.84247679  0.22475392  1
  O  O19  1  0.50914379  0.51065169  0.22475392  1
  O  O20  1  0.84608058  0.17941458  0.22002875  1
  O  O21  1  0.15949887  0.82400707  0.78160195  1
  O  O22  1  0.49067307  0.49283187  0.78160195  1
  O  O23  1  0.82947305  0.16280605  0.79249163  1
  O  O24  1  0.15373554  0.48706954  0.43832760  1
  O  O25  1  0.49000811  0.14778161  0.43368775  1
  O  O26  1  0.15601531  0.15752321  0.10857908  1
  O  O27  1  0.17959746  0.51293046  0.89500540  1
  O  O28  1  0.51888539  0.17665889  0.89964525  1
  O  O29  1  0.17383513  0.17599293  0.55173205  1
