# generated using pymatgen
data_Na4CrO3
_symmetry_space_group_name_H-M   'P 1'
_cell_length_a   5.83888061
_cell_length_b   6.40568532
_cell_length_c   8.26074947
_cell_angle_alpha   69.51986449
_cell_angle_beta   90.00000000
_cell_angle_gamma   62.88630439
_symmetry_Int_Tables_number   1
_chemical_formula_structural   Na4CrO3
_chemical_formula_sum   'Na8 Cr2 O6'
_cell_volume   252.87678788
_cell_formula_units_Z   2
loop_
 _symmetry_equiv_pos_site_id
 _symmetry_equiv_pos_as_xyz
  1  'x, y, z'
loop_
 _atom_site_type_symbol
 _atom_site_label
 _atom_site_symmetry_multiplicity
 _atom_site_fract_x
 _atom_site_fract_y
 _atom_site_fract_z
 _atom_site_occupancy
  Na  Na0  1  0.97096930  0.77251265  0.93720458  1
  Na  Na1  1  0.25651805  0.77251265  0.43720458  1
  Na  Na2  1  0.87331714  0.56681933  0.63801235  1
  Na  Na3  1  0.51503276  0.39414414  0.84429328  1
  Na  Na4  1  0.55986452  0.56681933  0.13801235  1
  Na  Na5  1  0.09082310  0.39414414  0.34429328  1
  Na  Na6  1  0.72169815  0.24385561  0.53210942  1
  Na  Na7  1  0.03444624  0.24385561  0.03210942  1
  Cr  Cr8  1  0.34630051  0.03132109  0.75091572  1
  Cr  Cr9  1  0.62237840  0.03132109  0.25091572  1
  O  O10  1  0.65001343  0.69525131  0.84964436  1
  O  O11  1  0.65473426  0.69525131  0.34964436  1
  O  O12  1  0.30630615  0.37366970  0.60559428  1
  O  O13  1  0.98441034  0.13730617  0.79459500  1
  O  O14  1  0.32002415  0.37366970  0.10559428  1
  O  O15  1  0.87828450  0.13730617  0.29459500  1
