# generated using pymatgen
data_Li5Co2(SiO5)2
_symmetry_space_group_name_H-M   'P 1'
_cell_length_a   4.92931913
_cell_length_b   5.51249306
_cell_length_c   15.88022548
_cell_angle_alpha   90.00000000
_cell_angle_beta   89.64968641
_cell_angle_gamma   90.00000000
_symmetry_Int_Tables_number   1
_chemical_formula_structural   Li5Co2(SiO5)2
_chemical_formula_sum   'Li10 Co4 Si4 O20'
_cell_volume   431.50272065
_cell_formula_units_Z   2
loop_
 _symmetry_equiv_pos_site_id
 _symmetry_equiv_pos_as_xyz
  1  'x, y, z'
loop_
 _atom_site_type_symbol
 _atom_site_label
 _atom_site_symmetry_multiplicity
 _atom_site_fract_x
 _atom_site_fract_y
 _atom_site_fract_z
 _atom_site_occupancy
  Li  Li0  1  0.00037150  0.66952885  0.59259809  1
  Li  Li1  1  0.99829121  0.16701872  0.90520001  1
  Li  Li2  1  0.00918080  0.67552353  0.19702020  1
  Li  Li3  1  0.00209646  0.66095382  0.00413228  1
  Li  Li4  1  0.99573882  0.16149459  0.49291291  1
  Li  Li5  1  0.49829121  0.33298128  0.40520001  1
  Li  Li6  1  0.50037150  0.83047115  0.09259809  1
  Li  Li7  1  0.50918080  0.82447647  0.69702020  1
  Li  Li8  1  0.49573882  0.33850541  0.99291291  1
  Li  Li9  1  0.50209646  0.83904618  0.50413228  1
  Co  Co10  1  0.49900187  0.32840165  0.20088571  1
  Co  Co11  1  0.49900820  0.82372808  0.30309949  1
  Co  Co12  1  0.99900187  0.17159835  0.70088571  1
  Co  Co13  1  0.99900820  0.67627192  0.80309949  1
  Si  Si14  1  0.00864647  0.16496628  0.09574256  1
  Si  Si15  1  0.01272653  0.66330244  0.40423729  1
  Si  Si16  1  0.50864647  0.33503372  0.59574256  1
  Si  Si17  1  0.51272653  0.83669756  0.90423829  1
  O  O18  1  0.06436553  0.33967112  0.79494637  1
  O  O19  1  0.09986946  0.85235401  0.70396265  1
  O  O20  1  0.11111016  0.38629114  0.41161015  1
  O  O21  1  0.10135409  0.88208522  0.10074147  1
  O  O22  1  0.09711704  0.31201798  0.01209375  1
  O  O23  1  0.10142612  0.82493744  0.48527996  1
  O  O24  1  0.13548296  0.32514426  0.17740427  1
  O  O25  1  0.13068619  0.77605625  0.31201243  1
  O  O26  1  0.16682197  0.32004273  0.60959864  1
  O  O27  1  0.17270463  0.81816738  0.89367476  1
  O  O28  1  0.59986946  0.64764599  0.20396265  1
  O  O29  1  0.56436553  0.16032888  0.29494637  1
  O  O30  1  0.60135409  0.61791478  0.60074147  1
  O  O31  1  0.61111016  0.11370886  0.91161015  1
  O  O32  1  0.59711704  0.18798202  0.51209375  1
  O  O33  1  0.60142612  0.67506256  0.98527996  1
  O  O34  1  0.63548296  0.17485574  0.67740427  1
  O  O35  1  0.63068619  0.72394375  0.81201243  1
  O  O36  1  0.66682197  0.17995727  0.10959864  1
  O  O37  1  0.67270463  0.68183262  0.39367476  1
