# generated using pymatgen
data_Co6O7F5
_symmetry_space_group_name_H-M   'P 1'
_cell_length_a   4.63506482
_cell_length_b   7.46039173
_cell_length_c   5.48031420
_cell_angle_alpha   96.22942892
_cell_angle_beta   96.47259402
_cell_angle_gamma   85.36716131
_symmetry_Int_Tables_number   1
_chemical_formula_structural   Co6O7F5
_chemical_formula_sum   'Co6 O7 F5'
_cell_volume   186.73504968
_cell_formula_units_Z   1
loop_
 _symmetry_equiv_pos_site_id
 _symmetry_equiv_pos_as_xyz
  1  'x, y, z'
loop_
 _atom_site_type_symbol
 _atom_site_label
 _atom_site_symmetry_multiplicity
 _atom_site_fract_x
 _atom_site_fract_y
 _atom_site_fract_z
 _atom_site_occupancy
  Co  Co0  1  0.54315449  0.01632151  0.46771681  1
  Co  Co1  1  0.49929182  0.33061486  0.83384508  1
  Co  Co2  1  0.49444905  0.66406336  0.17155728  1
  Co  Co3  1  0.00127376  0.66925267  0.66645117  1
  Co  Co4  1  0.99116351  0.32373039  0.33297665  1
  Co  Co5  1  0.99264111  0.00193434  0.01153802  1
  O  O6  1  0.81507488  0.10676120  0.28666158  1
  O  O7  1  0.69110421  0.77317988  0.46199232  1
  O  O8  1  0.69434132  0.10444679  0.79518236  1
  O  O9  1  0.69096502  0.43030289  0.12698823  1
  O  O10  1  0.31213276  0.56057156  0.87131397  1
  O  O11  1  0.30519265  0.22959070  0.53450553  1
  O  O12  1  0.30487237  0.90024506  0.21212671  1
  F  F13  1  0.81038125  0.42730370  0.61528152  1
  F  F14  1  0.81032443  0.77841076  0.97329530  1
  F  F15  1  0.18030662  0.22818109  0.04658181  1
  F  F16  1  0.18068250  0.90582797  0.72836044  1
  F  F17  1  0.18264624  0.54926127  0.36362323  1
