# generated using pymatgen
data_LiMn2(P2O7)2
_symmetry_space_group_name_H-M   'P 1'
_cell_length_a   9.65879153
_cell_length_b   9.70381703
_cell_length_c   11.21858021
_cell_angle_alpha   89.10861095
_cell_angle_beta   99.88165201
_cell_angle_gamma   89.74967977
_symmetry_Int_Tables_number   1
_chemical_formula_structural   LiMn2(P2O7)2
_chemical_formula_sum   'Li4 Mn8 P16 O56'
_cell_volume   1035.73420937
_cell_formula_units_Z   4
loop_
 _symmetry_equiv_pos_site_id
 _symmetry_equiv_pos_as_xyz
  1  'x, y, z'
loop_
 _atom_site_type_symbol
 _atom_site_label
 _atom_site_symmetry_multiplicity
 _atom_site_fract_x
 _atom_site_fract_y
 _atom_site_fract_z
 _atom_site_occupancy
  Li  Li0  1  0.59917866  0.02993878  0.49613043  1
  Li  Li1  1  0.91484727  0.91058089  0.98573787  1
  Li  Li2  1  0.84646966  0.57448409  0.47029249  1
  Li  Li3  1  0.89999112  0.28712299  0.54787335  1
  Mn  Mn4  1  0.20147066  0.92928789  0.66150044  1
  Mn  Mn5  1  0.28071653  0.23081903  0.83966785  1
  Mn  Mn6  1  0.22127455  0.72617816  0.16314825  1
  Mn  Mn7  1  0.30425148  0.42960910  0.34064422  1
  Mn  Mn8  1  0.69642090  0.57534453  0.67636842  1
  Mn  Mn9  1  0.77037809  0.28124228  0.83156931  1
  Mn  Mn10  1  0.71236571  0.76815372  0.16563272  1
  Mn  Mn11  1  0.80691838  0.06656577  0.32900111  1
  P  P12  1  0.02241119  0.44694452  0.75064120  1
  P  P13  1  0.11910476  0.71528994  0.87835776  1
  P  P14  1  0.07297243  0.92857709  0.24812371  1
  P  P15  1  0.13293206  0.15178909  0.42725263  1
  P  P16  1  0.37470089  0.65059061  0.57748004  1
  P  P17  1  0.42703592  0.42369448  0.75449079  1
  P  P18  1  0.52922037  0.06306775  0.76037458  1
  P  P19  1  0.38197684  0.21486699  0.12357228  1
  P  P20  1  0.61069208  0.79160295  0.89093033  1
  P  P21  1  0.47415739  0.94061593  0.25139379  1
  P  P22  1  0.56712028  0.56683805  0.24223604  1
  P  P23  1  0.62881390  0.34054137  0.41518967  1
  P  P24  1  0.87419712  0.85153712  0.57593918  1
  P  P25  1  0.93358633  0.06951174  0.75665625  1
  P  P26  1  0.88596798  0.28955570  0.11428229  1
  P  P27  1  0.97310489  0.56026681  0.23861887  1
  O  O28  1  0.02064515  0.42967114  0.61836334  1
  O  O29  1  0.02739023  0.84240438  0.56375163  1
  O  O30  1  0.08484342  0.07307905  0.72789742  1
  O  O31  1  0.09652608  0.33630874  0.83750961  1
  O  O32  1  0.09900407  0.58958150  0.78684547  1
  O  O33  1  0.19555635  0.82466106  0.81286634  1
  O  O34  1  0.21305625  0.66619880  0.99684405  1
  O  O35  1  0.03046327  0.25033428  0.08804644  1
  O  O36  1  0.13774923  0.07025136  0.30163530  1
  O  O37  1  0.07803881  0.91880061  0.11421756  1
  O  O38  1  0.12491498  0.55216454  0.20674536  1
  O  O39  1  0.18754645  0.29588686  0.40516940  1
  O  O40  1  0.16831027  0.80808113  0.30743697  1
  O  O41  1  0.21907786  0.06825046  0.53053626  1
  O  O42  1  0.29287311  0.57375039  0.47101883  1
  O  O43  1  0.33238971  0.30664308  0.69142097  1
  O  O44  1  0.32446738  0.79570356  0.59869125  1
  O  O45  1  0.37802498  0.05332037  0.79114967  1
  O  O46  1  0.36094383  0.56683825  0.70185628  1
  O  O47  1  0.40850509  0.40452980  0.88585804  1
  O  O48  1  0.46452061  0.75901835  0.91731369  1
  O  O49  1  0.28979507  0.16719444  0.00558183  1
  O  O50  1  0.31099635  0.32667971  0.18697354  1
  O  O51  1  0.39992760  0.08789650  0.21624098  1
  O  O52  1  0.41547564  0.57077428  0.26917274  1
  O  O53  1  0.39065240  0.83615721  0.16657663  1
  O  O54  1  0.53864607  0.09042708  0.63181274  1
  O  O55  1  0.47909376  0.33855085  0.43707139  1
  O  O56  1  0.53492552  0.65062255  0.57313717  1
  O  O57  1  0.47825313  0.92361043  0.38415855  1
  O  O58  1  0.61495389  0.16214369  0.85183086  1
  O  O59  1  0.58178145  0.42062793  0.73119131  1
  O  O60  1  0.59984245  0.91236302  0.79218242  1
  O  O61  1  0.67540937  0.67067604  0.83522129  1
  O  O62  1  0.71407519  0.84429591  0.00365586  1
  O  O63  1  0.52622146  0.25555039  0.09727466  1
  O  O64  1  0.58231556  0.59622203  0.11190511  1
  O  O65  1  0.63133075  0.41840870  0.28582140  1
  O  O66  1  0.62582349  0.94622651  0.21636662  1
  O  O67  1  0.68099384  0.19170131  0.39744140  1
  O  O68  1  0.66810995  0.67613615  0.31280526  1
  O  O69  1  0.73183125  0.41826443  0.50898214  1
  O  O70  1  0.78295948  0.93660488  0.47449155  1
  O  O71  1  0.84181883  0.19200535  0.69208344  1
  O  O72  1  0.81621331  0.70565297  0.59486228  1
  O  O73  1  0.86411922  0.45958303  0.77811384  1
  O  O74  1  0.91731001  0.07512424  0.88735768  1
  O  O75  1  0.86175730  0.93028331  0.70012495  1
  O  O76  1  0.97547929  0.76031458  0.89884932  1
  O  O77  1  0.79120289  0.34308665  0.99782343  1
  O  O78  1  0.81789828  0.17177901  0.17568008  1
  O  O79  1  0.90105939  0.41164600  0.20914315  1
  O  O80  1  0.88722446  0.66506688  0.15096244  1
  O  O81  1  0.91999768  0.92256675  0.27596434  1
  O  O82  1  0.97586538  0.16349212  0.43640309  1
  O  O83  1  0.97294670  0.58150898  0.36953979  1
