# generated using pymatgen
data_ZrBe13
_symmetry_space_group_name_H-M   'P 1'
_cell_length_a   7.06804040
_cell_length_b   7.06804040
_cell_length_c   7.06804040
_cell_angle_alpha   59.99999999
_cell_angle_beta   59.99999999
_cell_angle_gamma   60.00000002
_symmetry_Int_Tables_number   1
_chemical_formula_structural   ZrBe13
_chemical_formula_sum   'Zr2 Be26'
_cell_volume   249.67903186
_cell_formula_units_Z   2
loop_
 _symmetry_equiv_pos_site_id
 _symmetry_equiv_pos_as_xyz
  1  'x, y, z'
loop_
 _atom_site_type_symbol
 _atom_site_label
 _atom_site_symmetry_multiplicity
 _atom_site_fract_x
 _atom_site_fract_y
 _atom_site_fract_z
 _atom_site_occupancy
  Be  Be0  1  0.00000000  0.00000000  0.00000000  1
  Be  Be1  1  0.50000000  0.50000000  0.50000000  1
  Be  Be2  1  0.29301197  0.06192159  0.93807841  1
  Be  Be3  1  0.43807841  0.56192159  0.79301197  1
  Be  Be4  1  0.79301197  0.20698803  0.43807841  1
  Be  Be5  1  0.43807841  0.79301197  0.20698803  1
  Be  Be6  1  0.56192159  0.20698803  0.79301197  1
  Be  Be7  1  0.56192159  0.79301197  0.43807841  1
  Be  Be8  1  0.79301197  0.56192159  0.20698803  1
  Be  Be9  1  0.93807841  0.29301197  0.06192159  1
  Be  Be10  1  0.06192159  0.93807841  0.29301197  1
  Be  Be11  1  0.70698803  0.29301197  0.93807841  1
  Be  Be12  1  0.06192159  0.70698803  0.93807841  1
  Be  Be13  1  0.70698803  0.06192159  0.29301197  1
  Be  Be14  1  0.93807841  0.06192159  0.70698803  1
  Be  Be15  1  0.29301197  0.93807841  0.70698803  1
  Be  Be16  1  0.29301197  0.70698803  0.06192159  1
  Be  Be17  1  0.79301197  0.43807841  0.56192159  1
  Be  Be18  1  0.20698803  0.79301197  0.56192159  1
  Be  Be19  1  0.20698803  0.43807841  0.79301197  1
  Be  Be20  1  0.43807841  0.20698803  0.56192159  1
  Be  Be21  1  0.56192159  0.43807841  0.20698803  1
  Be  Be22  1  0.20698803  0.56192159  0.43807841  1
  Be  Be23  1  0.93807841  0.70698803  0.29301197  1
  Be  Be24  1  0.70698803  0.93807841  0.06192159  1
  Be  Be25  1  0.06192159  0.29301197  0.70698803  1
  Zr  Zr26  1  0.25000000  0.25000000  0.25000000  1
  Zr  Zr27  1  0.75000000  0.75000000  0.75000000  1
