# generated using pymatgen
data_LiV2OF5
_symmetry_space_group_name_H-M   'P 1'
_cell_length_a   5.52917106
_cell_length_b   7.66805587
_cell_length_c   8.89063537
_cell_angle_alpha   113.70574292
_cell_angle_beta   74.61049548
_cell_angle_gamma   85.33261069
_symmetry_Int_Tables_number   1
_chemical_formula_structural   LiV2OF5
_chemical_formula_sum   'Li3 V6 O3 F15'
_cell_volume   325.12538778
_cell_formula_units_Z   3
loop_
 _symmetry_equiv_pos_site_id
 _symmetry_equiv_pos_as_xyz
  1  'x, y, z'
loop_
 _atom_site_type_symbol
 _atom_site_label
 _atom_site_symmetry_multiplicity
 _atom_site_fract_x
 _atom_site_fract_y
 _atom_site_fract_z
 _atom_site_occupancy
  Li  Li0  1  0.42549071  0.72442244  0.00535140  1
  Li  Li1  1  0.90293458  0.46372486  0.34800121  1
  Li  Li2  1  0.43710953  0.20942005  0.98340672  1
  V  V3  1  0.00620574  0.00229167  0.00913198  1
  V  V4  1  0.35545480  0.66698614  0.34270426  1
  V  V5  1  0.32489569  0.14876602  0.32540163  1
  V  V6  1  0.66549164  0.82585140  0.65509628  1
  V  V7  1  0.64492710  0.33075776  0.67377056  1
  V  V8  1  0.01878588  0.49462991  0.98554533  1
  O  O9  1  0.22854097  0.02001729  0.13646148  1
  O  O10  1  0.57065922  0.68179448  0.46952059  1
  O  O11  1  0.37022833  0.38273752  0.87355859  1
  F  F12  1  0.10474400  0.65685109  0.20270392  1
  F  F13  1  0.63020303  0.62715365  0.11698159  1
  F  F14  1  0.28315700  0.95455684  0.41737733  1
  F  F15  1  0.95095651  0.30521883  0.09722748  1
  F  F16  1  0.36711787  0.36888877  0.24006038  1
  F  F17  1  0.03387438  0.68199734  0.52555475  1
  F  F18  1  0.69593909  0.03460559  0.20432648  1
  F  F19  1  0.42870173  0.32167403  0.52658015  1
  F  F20  1  0.30545199  0.98354443  0.80920788  1
  F  F21  1  0.94836815  0.30085755  0.46158049  1
  F  F22  1  0.61744164  0.63208056  0.76214332  1
  F  F23  1  0.74754474  0.00300805  0.87876195  1
  F  F24  1  0.71507506  0.04135721  0.58719668  1
  F  F25  1  0.05794031  0.71171633  0.91535410  1
  F  F26  1  0.90459232  0.33388319  0.79029145  1
