# generated using pymatgen
data_H12PtC6(N3O4)2
_symmetry_space_group_name_H-M   'P 1'
_cell_length_a   3.62186513
_cell_length_b   14.94923201
_cell_length_c   12.43221692
_cell_angle_alpha   90.00000000
_cell_angle_beta   94.96215404
_cell_angle_gamma   90.00000000
_symmetry_Int_Tables_number   1
_chemical_formula_structural   H12PtC6(N3O4)2
_chemical_formula_sum   'H24 Pt2 C12 N12 O16'
_cell_volume   670.60836043
_cell_formula_units_Z   2
loop_
 _symmetry_equiv_pos_site_id
 _symmetry_equiv_pos_as_xyz
  1  'x, y, z'
loop_
 _atom_site_type_symbol
 _atom_site_label
 _atom_site_symmetry_multiplicity
 _atom_site_fract_x
 _atom_site_fract_y
 _atom_site_fract_z
 _atom_site_occupancy
  H  H0  1  0.35732507  0.56328457  0.94713239  1
  H  H1  1  0.23816499  0.90973189  0.57843890  1
  H  H2  1  0.30932934  0.76423049  0.63892735  1
  H  H3  1  0.36180542  0.28151034  0.61610203  1
  H  H4  1  0.35732507  0.93671543  0.44713239  1
  H  H5  1  0.23816499  0.59026811  0.07843890  1
  H  H6  1  0.41012501  0.16904953  0.66023521  1
  H  H7  1  0.52206300  0.18080641  0.94263330  1
  H  H8  1  0.30932934  0.73576951  0.13892735  1
  H  H9  1  0.47793700  0.68080641  0.55736670  1
  H  H10  1  0.58987499  0.66904953  0.83976479  1
  H  H11  1  0.36180542  0.21848966  0.11610203  1
  H  H12  1  0.63819458  0.78151034  0.88389797  1
  H  H13  1  0.41012501  0.33095047  0.16023521  1
  H  H14  1  0.52206300  0.31919359  0.44263330  1
  H  H15  1  0.69067066  0.26423049  0.86107265  1
  H  H16  1  0.47793700  0.81919359  0.05736670  1
  H  H17  1  0.58987499  0.83095047  0.33976479  1
  H  H18  1  0.76183501  0.40973189  0.92156110  1
  H  H19  1  0.64267493  0.06328457  0.55286761  1
  H  H20  1  0.63819458  0.71848966  0.38389797  1
  H  H21  1  0.69067066  0.23576951  0.36107265  1
  H  H22  1  0.76183501  0.09026811  0.42156110  1
  H  H23  1  0.64267493  0.43671543  0.05286761  1
  Pt  Pt24  1  0.00000000  0.50000000  0.50000000  1
  Pt  Pt25  1  0.00000000  0.00000000  0.00000000  1
  C  C26  1  0.16166886  0.01527739  0.78276064  1
  C  C27  1  0.16166886  0.48472261  0.28276064  1
  C  C28  1  0.83833114  0.51527739  0.71723936  1
  C  C29  1  0.83833114  0.98472261  0.21723936  1
  C  C30  1  0.02198299  0.91857303  0.79537380  1
  C  C31  1  0.02198299  0.58142697  0.29537380  1
  C  C32  1  0.43262035  0.69357986  0.99024047  1
  C  C33  1  0.43262035  0.80642014  0.49024047  1
  C  C34  1  0.56737965  0.19357986  0.50975953  1
  C  C35  1  0.56737965  0.30642014  0.00975953  1
  C  C36  1  0.97801701  0.41857303  0.70462620  1
  C  C37  1  0.97801701  0.08142697  0.20462620  1
  N  N38  1  0.33847621  0.89151519  0.50724671  1
  N  N39  1  0.40421150  0.74547496  0.56783964  1
  N  N40  1  0.44774411  0.21752227  0.60428720  1
  N  N41  1  0.55225589  0.71752227  0.89571280  1
  N  N42  1  0.33847621  0.60848481  0.00724671  1
  N  N43  1  0.59578850  0.24547496  0.93216036  1
  N  N44  1  0.40421150  0.75452504  0.06783964  1
  N  N45  1  0.66152379  0.39151519  0.99275329  1
  N  N46  1  0.44774411  0.28247773  0.10428720  1
  N  N47  1  0.55225589  0.78247773  0.39571280  1
  N  N48  1  0.59578850  0.25452504  0.43216036  1
  N  N49  1  0.66152379  0.10848481  0.49275329  1
  O  O50  1  0.01948183  0.86392604  0.72070357  1
  O  O51  1  0.14801093  0.06606296  0.86753078  1
  O  O52  1  0.09740627  0.40053595  0.61033523  1
  O  O53  1  0.01948183  0.63607396  0.22070357  1
  O  O54  1  0.14801093  0.43393704  0.36753078  1
  O  O55  1  0.09740627  0.09946405  0.11033523  1
  O  O56  1  0.27409581  0.04054365  0.69615791  1
  O  O57  1  0.27409581  0.45945635  0.19615791  1
  O  O58  1  0.72590419  0.54054365  0.80384209  1
  O  O59  1  0.72590419  0.95945635  0.30384209  1
  O  O60  1  0.90259373  0.90053595  0.88966477  1
  O  O61  1  0.85198907  0.56606296  0.63246922  1
  O  O62  1  0.98051817  0.36392604  0.77929643  1
  O  O63  1  0.90259373  0.59946405  0.38966477  1
  O  O64  1  0.85198907  0.93393704  0.13246922  1
  O  O65  1  0.98051817  0.13607396  0.27929643  1
