# generated using pymatgen
data_ZrMn(CuS2)2
_symmetry_space_group_name_H-M   'P 1'
_cell_length_a   4.73491483
_cell_length_b   6.52175790
_cell_length_c   6.21481382
_cell_angle_alpha   64.95204847
_cell_angle_beta   90.05401438
_cell_angle_gamma   68.71975321
_symmetry_Int_Tables_number   1
_chemical_formula_structural   ZrMn(CuS2)2
_chemical_formula_sum   'Zr1 Mn1 Cu2 S4'
_cell_volume   159.26990128
_cell_formula_units_Z   1
loop_
 _symmetry_equiv_pos_site_id
 _symmetry_equiv_pos_as_xyz
  1  'x, y, z'
loop_
 _atom_site_type_symbol
 _atom_site_label
 _atom_site_symmetry_multiplicity
 _atom_site_fract_x
 _atom_site_fract_y
 _atom_site_fract_z
 _atom_site_occupancy
  Zr  Zr0  1  0.47798683  0.04381713  0.81748805  1
  Mn  Mn1  1  0.25877385  0.48261887  0.23181539  1
  Cu  Cu2  1  0.08570598  0.82806418  0.70573791  1
  Cu  Cu3  1  0.67484427  0.65503685  0.40969655  1
  S  S4  1  0.72024726  0.55884657  0.10114482  1
  S  S5  1  0.24356694  0.51030589  0.61276728  1
  S  S6  1  0.49095376  0.01715607  0.44421695  1
  S  S7  1  0.00112112  -0.00234556  0.96373305  1
