# generated using pymatgen
data_LiCoOF2
_symmetry_space_group_name_H-M   'P 1'
_cell_length_a   5.28853032
_cell_length_b   5.41435052
_cell_length_c   5.05052166
_cell_angle_alpha   114.26694268
_cell_angle_beta   58.42931906
_cell_angle_gamma   119.22974717
_symmetry_Int_Tables_number   1
_chemical_formula_structural   LiCoOF2
_chemical_formula_sum   'Li2 Co2 O2 F4'
_cell_volume   105.15095213
_cell_formula_units_Z   2
loop_
 _symmetry_equiv_pos_site_id
 _symmetry_equiv_pos_as_xyz
  1  'x, y, z'
loop_
 _atom_site_type_symbol
 _atom_site_label
 _atom_site_symmetry_multiplicity
 _atom_site_fract_x
 _atom_site_fract_y
 _atom_site_fract_z
 _atom_site_occupancy
  Li  Li0  1  0.42290662  0.34314166  0.46052941  1
  Li  Li1  1  0.96327970  0.84499629  0.95993874  1
  Co  Co2  1  0.72883676  0.21184357  0.74515057  1
  Co  Co3  1  0.23854179  0.71096610  0.24571994  1
  O  O4  1  0.37802517  0.98331211  0.00266143  1
  O  O5  1  0.10475250  0.48652545  0.50526294  1
  F  F6  1  0.02745948  0.00701754  0.63759947  1
  F  F7  1  0.64284349  0.98569923  0.34236984  1
  F  F8  1  0.49730221  0.48144224  0.84436882  1
  F  F9  1  0.84141427  0.50773781  0.13966383  1
