# generated using pymatgen
data_Na7Cr2O6
_symmetry_space_group_name_H-M   'P 1'
_cell_length_a   5.84670152
_cell_length_b   8.07495646
_cell_length_c   10.61940107
_cell_angle_alpha   76.00978507
_cell_angle_beta   90.00000003
_cell_angle_gamma   68.77528208
_symmetry_Int_Tables_number   1
_chemical_formula_structural   Na7Cr2O6
_chemical_formula_sum   'Na14 Cr4 O12'
_cell_volume   451.36213372
_cell_formula_units_Z   2
loop_
 _symmetry_equiv_pos_site_id
 _symmetry_equiv_pos_as_xyz
  1  'x, y, z'
loop_
 _atom_site_type_symbol
 _atom_site_label
 _atom_site_symmetry_multiplicity
 _atom_site_fract_x
 _atom_site_fract_y
 _atom_site_fract_z
 _atom_site_occupancy
  Na  Na0  1  0.70037861  0.88138308  0.64919489  1
  Na  Na1  1  0.57840404  0.66412734  0.90535249  1
  Na  Na2  1  0.41823832  0.88138308  0.14919489  1
  Na  Na3  1  0.18666371  0.54798962  0.80902463  1
  Na  Na4  1  0.75746862  0.66412734  0.40535249  1
  Na  Na5  1  0.73465333  0.45201038  0.69097537  1
  Na  Na6  1  0.26534667  0.54798962  0.30902463  1
  Na  Na7  1  0.24253138  0.33587266  0.59464751  1
  Na  Na8  1  0.81333629  0.45201038  0.19097537  1
  Na  Na9  1  0.58176168  0.11861692  0.85080511  1
  Na  Na10  1  0.42159596  0.33587266  0.09464751  1
  Na  Na11  1  0.07415375  0.00000000  0.75000000  1
  Na  Na12  1  0.29962139  0.11861692  0.35080511  1
  Na  Na13  1  0.92584625  1.00000000  0.25000000  1
  Cr  Cr14  1  0.22613700  0.76232953  0.53978730  1
  Cr  Cr15  1  0.01153347  0.76232953  0.03978730  1
  Cr  Cr16  1  0.98846653  0.23767047  0.96021270  1
  Cr  Cr17  1  0.77386300  0.23767047  0.46021270  1
  O  O18  1  0.86627295  0.80575029  0.87538925  1
  O  O19  1  0.39950021  0.75494243  0.68652440  1
  O  O20  1  0.32797676  0.80575029  0.37538925  1
  O  O21  1  0.00635254  0.64901478  0.58013654  1
  O  O22  1  0.84555636  0.75494243  0.18652440  1
  O  O23  1  0.65536733  0.35098522  0.91986346  1
  O  O24  1  0.34463267  0.64901478  0.08013654  1
  O  O25  1  0.15444364  0.24505757  0.81347560  1
  O  O26  1  0.99364746  0.35098522  0.41986346  1
  O  O27  1  0.67202324  0.19424971  0.62461075  1
  O  O28  1  0.60049979  0.24505757  0.31347560  1
  O  O29  1  0.13372705  0.19424971  0.12461075  1
