# generated using pymatgen
data_Tl(WO3)3
_symmetry_space_group_name_H-M   'P 1'
_cell_length_a   7.52745662
_cell_length_b   7.52915781
_cell_length_c   3.87397579
_cell_angle_alpha   89.99673918
_cell_angle_beta   90.00652311
_cell_angle_gamma   119.99252599
_symmetry_Int_Tables_number   1
_chemical_formula_structural   Tl(WO3)3
_chemical_formula_sum   'Tl1 W3 O9'
_cell_volume   190.15812885
_cell_formula_units_Z   1
loop_
 _symmetry_equiv_pos_site_id
 _symmetry_equiv_pos_as_xyz
  1  'x, y, z'
loop_
 _atom_site_type_symbol
 _atom_site_label
 _atom_site_symmetry_multiplicity
 _atom_site_fract_x
 _atom_site_fract_y
 _atom_site_fract_z
 _atom_site_occupancy
  Tl  Tl0  1  0.99896892  0.00000000  0.93353735  1
  W  W1  1  0.99815139  0.50077157  0.49870054  1
  W  W2  1  0.49737982  0.49922843  0.49870054  1
  W  W3  1  0.49931012  0.00000000  0.49871748  1
  O  O4  1  0.99817242  0.50101299  0.99913082  1
  O  O5  1  0.20892969  0.78963171  0.49986076  1
  O  O6  1  0.20802303  0.42102223  0.49990915  1
  O  O7  1  0.57716186  0.78930706  0.49990599  1
  O  O8  1  0.49715943  0.49898701  0.99913082  1
  O  O9  1  0.41929798  0.21036829  0.49986076  1
  O  O10  1  0.49905175  0.00000000  0.99908765  1
  O  O11  1  0.78700080  0.57897777  0.49990915  1
  O  O12  1  0.78785479  0.21069294  0.49990599  1
