# generated using pymatgen
data_Li6Co6O5F11
_symmetry_space_group_name_H-M   'P 1'
_cell_length_a   5.94424985
_cell_length_b   6.04564625
_cell_length_c   10.44886495
_cell_angle_alpha   106.22259966
_cell_angle_beta   106.35870502
_cell_angle_gamma   60.27589956
_symmetry_Int_Tables_number   1
_chemical_formula_structural   Li6Co6O5F11
_chemical_formula_sum   'Li6 Co6 O5 F11'
_cell_volume   308.46095421
_cell_formula_units_Z   1
loop_
 _symmetry_equiv_pos_site_id
 _symmetry_equiv_pos_as_xyz
  1  'x, y, z'
loop_
 _atom_site_type_symbol
 _atom_site_label
 _atom_site_symmetry_multiplicity
 _atom_site_fract_x
 _atom_site_fract_y
 _atom_site_fract_z
 _atom_site_occupancy
  Li  Li0  1  0.62912445  0.61931236  0.87381702  1
  Li  Li1  1  0.80726292  0.82776753  0.44532691  1
  Li  Li2  1  0.50236588  0.50395636  0.50623470  1
  Li  Li3  1  0.13450960  0.10502009  0.37540959  1
  Li  Li4  1  0.56357591  0.06454036  0.19053258  1
  Li  Li5  1  0.99589476  0.00395151  0.99326888  1
  Co  Co6  1  0.07335785  0.54159094  0.68789068  1
  Co  Co7  1  0.31297562  0.29822372  0.91714455  1
  Co  Co8  1  0.02983750  0.57153188  0.18349018  1
  Co  Co9  1  0.52440488  0.07856919  0.68898175  1
  Co  Co10  1  0.08312724  0.07424063  0.68767604  1
  Co  Co11  1  0.58205877  0.57033431  0.18404770  1
  O  O12  1  0.42478277  0.95615388  0.81273450  1
  O  O13  1  0.42888590  0.41917141  0.81213663  1
  O  O14  1  0.96561895  0.41543616  0.80989508  1
  O  O15  1  0.70028038  0.68439072  0.07769867  1
  O  O16  1  0.18892195  0.18622951  0.56883058  1
  F  F17  1  0.92934997  0.93430557  0.79624881  1
  F  F18  1  0.69582768  0.70666500  0.56952140  1
  F  F19  1  0.16874207  0.70340278  0.56855274  1
  F  F20  1  0.92992964  0.91374131  0.30836458  1
  F  F21  1  0.46331224  0.91425009  0.30764352  1
  F  F22  1  0.93662986  0.44534339  0.31610887  1
  F  F23  1  0.19748338  0.67081976  0.06633388  1
  F  F24  1  0.41744716  0.45469052  0.29009966  1
  F  F25  1  0.69878801  0.16850899  0.56980747  1
  F  F26  1  0.19542947  0.20946993  0.07129856  1
  F  F27  1  0.67007520  0.20838310  0.07090247  1
