# generated using pymatgen
data_Y2Pb2O7
_symmetry_space_group_name_H-M   'P 1'
_cell_length_a   7.63430568
_cell_length_b   7.63361624
_cell_length_c   7.63395268
_cell_angle_alpha   60.00226143
_cell_angle_beta   60.00484782
_cell_angle_gamma   60.00654073
_symmetry_Int_Tables_number   1
_chemical_formula_structural   Y2Pb2O7
_chemical_formula_sum   'Y4 Pb4 O14'
_cell_volume   314.61478697
_cell_formula_units_Z   2
loop_
 _symmetry_equiv_pos_site_id
 _symmetry_equiv_pos_as_xyz
  1  'x, y, z'
loop_
 _atom_site_type_symbol
 _atom_site_label
 _atom_site_symmetry_multiplicity
 _atom_site_fract_x
 _atom_site_fract_y
 _atom_site_fract_z
 _atom_site_occupancy
  Y  Y0  1  0.49999149  0.99996694  0.50002698  1
  Y  Y1  1  0.50004582  0.49996408  0.99994154  1
  Y  Y2  1  0.99997589  0.49995774  0.50001075  1
  Y  Y3  1  0.50006101  0.49995204  0.50002682  1
  Pb  Pb4  1  0.99998778  0.00004996  0.00001026  1
  Pb  Pb5  1  0.49992142  0.00006109  0.00003207  1
  Pb  Pb6  1  0.99996924  0.00006208  0.49998647  1
  Pb  Pb7  1  0.99998602  0.50004578  0.00001242  1
  O  O8  1  0.65119778  0.09878758  0.09879290  1
  O  O9  1  0.90128572  0.34876022  0.34870438  1
  O  O10  1  0.09876594  0.09875414  0.65121192  1
  O  O11  1  0.65113766  0.65124256  0.09880034  1
  O  O12  1  0.37502426  0.37499195  0.37499094  1
  O  O13  1  0.65116005  0.09875506  0.65129008  1
  O  O14  1  0.09878176  0.65127121  0.09878188  1
  O  O15  1  0.34878748  0.90117880  0.34883654  1
  O  O16  1  0.90122834  0.90116073  0.34877627  1
  O  O17  1  0.34878008  0.34880274  0.90120289  1
  O  O18  1  0.62500056  0.62500003  0.62498464  1
  O  O19  1  0.90125435  0.34882795  0.90121915  1
  O  O20  1  0.09882442  0.65119369  0.65116495  1
  O  O21  1  0.34883292  0.90121364  0.90119582  1
