# generated using pymatgen
data_Fe3O5F
_symmetry_space_group_name_H-M   'P 1'
_cell_length_a   7.08063339
_cell_length_b   5.51490091
_cell_length_c   5.54850555
_cell_angle_alpha   74.68558180
_cell_angle_beta   73.44575197
_cell_angle_gamma   72.93768095
_symmetry_Int_Tables_number   1
_chemical_formula_structural   Fe3O5F
_chemical_formula_sum   'Fe6 O10 F2'
_cell_volume   194.65158789
_cell_formula_units_Z   2
loop_
 _symmetry_equiv_pos_site_id
 _symmetry_equiv_pos_as_xyz
  1  'x, y, z'
loop_
 _atom_site_type_symbol
 _atom_site_label
 _atom_site_symmetry_multiplicity
 _atom_site_fract_x
 _atom_site_fract_y
 _atom_site_fract_z
 _atom_site_occupancy
  Fe  Fe0  1  0.84049332  0.66391650  0.65500327  1
  Fe  Fe1  1  0.66689183  0.30494291  0.36031174  1
  Fe  Fe2  1  0.33310817  0.69505709  0.63968826  1
  Fe  Fe3  1  0.15950668  0.33608350  0.34499673  1
  Fe  Fe4  1  0.50000000  0.00000000  0.00000000  1
  Fe  Fe5  1  0.00000000  0.00000000  0.00000000  1
  O  O6  1  0.66457603  0.01107818  0.65574443  1
  O  O7  1  0.29693765  0.90684644  0.89125687  1
  O  O8  1  0.96242110  0.22467902  0.23723518  1
  O  O9  1  0.62701673  0.56247037  0.56524468  1
  O  O10  1  0.03757890  0.77532098  0.76276482  1
  O  O11  1  0.37298327  0.43752963  0.43475532  1
  O  O12  1  0.70306235  0.09315356  0.10874313  1
  O  O13  1  0.33542397  0.98892182  0.34425557  1
  O  O14  1  0.99425315  0.31132173  0.69845776  1
  O  O15  1  0.00574685  0.68867827  0.30154224  1
  F  F16  1  0.33142714  0.37485217  0.96461913  1
  F  F17  1  0.66857286  0.62514783  0.03538087  1
