# generated using pymatgen
data_LiSbRh2
_symmetry_space_group_name_H-M   'P 1'
_cell_length_a   4.38239119
_cell_length_b   4.38239153
_cell_length_c   4.38239188
_cell_angle_alpha   60.00000219
_cell_angle_beta   60.00001110
_cell_angle_gamma   60.00000272
_symmetry_Int_Tables_number   1
_chemical_formula_structural   LiSbRh2
_chemical_formula_sum   'Li1 Sb1 Rh2'
_cell_volume   59.51392343
_cell_formula_units_Z   1
loop_
 _symmetry_equiv_pos_site_id
 _symmetry_equiv_pos_as_xyz
  1  'x, y, z'
loop_
 _atom_site_type_symbol
 _atom_site_label
 _atom_site_symmetry_multiplicity
 _atom_site_fract_x
 _atom_site_fract_y
 _atom_site_fract_z
 _atom_site_occupancy
  Li  Li0  1  0.25000000  0.24999993  0.24999998  1
  Sb  Sb1  1  0.74999919  0.74999906  0.74999910  1
  Rh  Rh2  1  -0.00000037  0.00000003  0.00000016  1
  Rh  Rh3  1  0.49999918  0.49999898  0.49999876  1
