# generated using pymatgen
data_Li2CoOF3
_symmetry_space_group_name_H-M   'P 1'
_cell_length_a   5.71349995
_cell_length_b   5.71349995
_cell_length_c   5.16196696
_cell_angle_alpha   88.57446208
_cell_angle_beta   91.42553792
_cell_angle_gamma   117.81582788
_symmetry_Int_Tables_number   1
_chemical_formula_structural   Li2CoOF3
_chemical_formula_sum   'Li4 Co2 O2 F6'
_cell_volume   148.97405880
_cell_formula_units_Z   2
loop_
 _symmetry_equiv_pos_site_id
 _symmetry_equiv_pos_as_xyz
  1  'x, y, z'
loop_
 _atom_site_type_symbol
 _atom_site_label
 _atom_site_symmetry_multiplicity
 _atom_site_fract_x
 _atom_site_fract_y
 _atom_site_fract_z
 _atom_site_occupancy
  Li  Li0  1  0.34252531  0.96283353  0.75586506  1
  Li  Li1  1  0.06721693  0.65673927  0.27653001  1
  Li  Li2  1  0.96283353  0.34252531  0.74413494  1
  Li  Li3  1  0.65673927  0.06721693  0.22346999  1
  Co  Co4  1  0.61901721  0.61901721  0.75000000  1
  Co  Co5  1  0.35315962  0.35315962  0.25000000  1
  O  O6  1  0.29749046  0.49424991  0.94712041  1
  O  O7  1  0.49424991  0.29749046  0.55287959  1
  F  F8  1  0.71525099  0.98725606  0.87109756  1
  F  F9  1  -0.00555386  0.27832380  0.38429528  1
  F  F10  1  0.48630710  0.74518568  0.44513628  1
  F  F11  1  0.74518568  0.48630710  0.05486372  1
  F  F12  1  0.98725606  0.71525099  0.62890244  1
  F  F13  1  0.27832380  -0.00555386  0.11570472  1
