# generated using pymatgen
data_Li4Fe3Sn2Sb3O16
_symmetry_space_group_name_H-M   'P 1'
_cell_length_a   6.24816375
_cell_length_b   6.23920048
_cell_length_c   9.93564972
_cell_angle_alpha   90.01643823
_cell_angle_beta   90.66744001
_cell_angle_gamma   119.98743722
_symmetry_Int_Tables_number   1
_chemical_formula_structural   Li4Fe3Sn2Sb3O16
_chemical_formula_sum   'Li4 Fe3 Sn2 Sb3 O16'
_cell_volume   335.44624887
_cell_formula_units_Z   1
loop_
 _symmetry_equiv_pos_site_id
 _symmetry_equiv_pos_as_xyz
  1  'x, y, z'
loop_
 _atom_site_type_symbol
 _atom_site_label
 _atom_site_symmetry_multiplicity
 _atom_site_fract_x
 _atom_site_fract_y
 _atom_site_fract_z
 _atom_site_occupancy
  Li  Li0  1  0.32443412  0.66233256  0.88720760  1
  Li  Li1  1  0.97441645  0.98705220  0.98368708  1
  Li  Li2  1  0.98782830  0.99375655  0.50074514  1
  Li  Li3  1  0.65219498  0.32588873  0.40560677  1
  Fe  Fe4  1  0.66047164  0.83025760  0.21430938  1
  Fe  Fe5  1  0.83848001  0.66309142  0.71243704  1
  Fe  Fe6  1  0.83830987  0.17540311  0.71249475  1
  Sn  Sn7  1  0.35616470  0.67783015  0.50177649  1
  Sn  Sn8  1  0.68597849  0.34369599  0.97919128  1
  Sb  Sb9  1  0.16890012  0.83120576  0.21528299  1
  Sb  Sb10  1  0.16879227  0.33747872  0.21508821  1
  Sb  Sb11  1  0.34639814  0.17330973  0.71444664  1
  O  O12  1  0.18018968  0.85048917  0.59325536  1
  O  O13  1  0.03246749  0.51537503  0.33861368  1
  O  O14  1  0.32512633  0.66147236  0.10677829  1
  O  O15  1  0.00166171  0.00200989  0.31342279  1
  O  O16  1  0.02556743  0.01302114  0.80421889  1
  O  O17  1  0.18003531  0.32938343  0.59329883  1
  O  O18  1  0.47162549  0.95804230  0.33849675  1
  O  O19  1  0.47110103  0.51290293  0.33782085  1
  O  O20  1  0.32219318  0.16195140  0.10371800  1
  O  O21  1  0.68383709  0.84176311  0.59576219  1
  O  O22  1  0.50163569  0.46925000  0.84515866  1
  O  O23  1  0.50162046  0.03302906  0.84551893  1
  O  O24  1  0.64340200  0.32161286  0.60288029  1
  O  O25  1  0.84471238  0.67901857  0.10111574  1
  O  O26  1  0.96640850  0.48351676  0.84419190  1
  O  O27  1  0.84604916  0.16616147  0.10131448  1
