# generated using pymatgen
data_LiAc2Ru
_symmetry_space_group_name_H-M   'P 1'
_cell_length_a   5.35978880
_cell_length_b   5.35980137
_cell_length_c   5.35980304
_cell_angle_alpha   59.99982028
_cell_angle_beta   60.00001859
_cell_angle_gamma   59.99981356
_symmetry_Int_Tables_number   1
_chemical_formula_structural   LiAc2Ru
_chemical_formula_sum   'Li1 Ac2 Ru1'
_cell_volume   108.87522467
_cell_formula_units_Z   1
loop_
 _symmetry_equiv_pos_site_id
 _symmetry_equiv_pos_as_xyz
  1  'x, y, z'
loop_
 _atom_site_type_symbol
 _atom_site_label
 _atom_site_symmetry_multiplicity
 _atom_site_fract_x
 _atom_site_fract_y
 _atom_site_fract_z
 _atom_site_occupancy
  Li  Li0  1  0.24999984  0.25000015  0.24999951  1
  Ac  Ac1  1  0.50000010  0.49999961  0.49999965  1
  Ac  Ac2  1  0.00000015  0.00000123  0.99999966  1
  Ru  Ru3  1  0.75000091  0.75000002  0.75000218  1
