# generated using pymatgen
data_LiGd2Ir
_symmetry_space_group_name_H-M   'P 1'
_cell_length_a   4.96327891
_cell_length_b   4.96759558
_cell_length_c   4.96332753
_cell_angle_alpha   59.90244684
_cell_angle_beta   59.87913803
_cell_angle_gamma   59.76785519
_symmetry_Int_Tables_number   1
_chemical_formula_structural   LiGd2Ir
_chemical_formula_sum   'Li1 Gd2 Ir1'
_cell_volume   86.23602662
_cell_formula_units_Z   1
loop_
 _symmetry_equiv_pos_site_id
 _symmetry_equiv_pos_as_xyz
  1  'x, y, z'
loop_
 _atom_site_type_symbol
 _atom_site_label
 _atom_site_symmetry_multiplicity
 _atom_site_fract_x
 _atom_site_fract_y
 _atom_site_fract_z
 _atom_site_occupancy
  Li  Li0  1  0.75003126  0.75001577  0.74995188  1
  Gd  Gd1  1  0.99971090  0.00007549  0.99985627  1
  Gd  Gd2  1  0.50026182  0.50007899  0.50003276  1
  Ir  Ir3  1  0.24999602  0.24982974  0.25015909  1
