# generated using pymatgen
data_LiScAu2
_symmetry_space_group_name_H-M   'P 1'
_cell_length_a   4.66221118
_cell_length_b   4.66221076
_cell_length_c   4.66220707
_cell_angle_alpha   59.99999819
_cell_angle_beta   59.99988706
_cell_angle_gamma   59.99982756
_symmetry_Int_Tables_number   1
_chemical_formula_structural   LiScAu2
_chemical_formula_sum   'Li1 Sc1 Au2'
_cell_volume   71.65713863
_cell_formula_units_Z   1
loop_
 _symmetry_equiv_pos_site_id
 _symmetry_equiv_pos_as_xyz
  1  'x, y, z'
loop_
 _atom_site_type_symbol
 _atom_site_label
 _atom_site_symmetry_multiplicity
 _atom_site_fract_x
 _atom_site_fract_y
 _atom_site_fract_z
 _atom_site_occupancy
  Li  Li0  1  0.25000002  0.25000005  0.24999971  1
  Sc  Sc1  1  0.74999887  0.74999885  0.74999997  1
  Au  Au2  1  0.49999920  0.49999904  0.49999900  1
  Au  Au3  1  -0.00000009  0.00000006  -0.00000068  1
