# generated using pymatgen
data_Li4VF6
_symmetry_space_group_name_H-M   'P 1'
_cell_length_a   5.29732788
_cell_length_b   5.49930578
_cell_length_c   11.38887074
_cell_angle_alpha   97.93056087
_cell_angle_beta   76.55140869
_cell_angle_gamma   61.20782007
_symmetry_Int_Tables_number   1
_chemical_formula_structural   Li4VF6
_chemical_formula_sum   'Li8 V2 F12'
_cell_volume   270.35026179
_cell_formula_units_Z   2
loop_
 _symmetry_equiv_pos_site_id
 _symmetry_equiv_pos_as_xyz
  1  'x, y, z'
loop_
 _atom_site_type_symbol
 _atom_site_label
 _atom_site_symmetry_multiplicity
 _atom_site_fract_x
 _atom_site_fract_y
 _atom_site_fract_z
 _atom_site_occupancy
  Li  Li0  1  0.19711034  0.80338261  0.07472435  1
  Li  Li1  1  0.83224660  0.53580550  0.17497040  1
  Li  Li2  1  0.47805069  0.35745740  0.30441365  1
  Li  Li3  1  0.36005546  0.85750654  0.80439278  1
  Li  Li4  1  0.80430838  0.65131520  0.44669866  1
  Li  Li5  1  0.42477999  0.30336167  0.57472945  1
  Li  Li6  1  0.59767868  0.15134257  0.94667931  1
  Li  Li7  1  0.95698629  0.03579410  0.67496433  1
  V  V8  1  0.01156183  0.03077906  0.35290254  1
  V  V9  1  0.10479023  0.53080690  0.85290956  1
  F  F10  1  0.15264610  0.46215058  0.03074690  1
  F  F11  1  0.40787820  0.64818687  0.21286237  1
  F  F12  1  0.80182073  0.80480724  0.30782960  1
  F  F13  1  0.01533418  0.94112459  0.94737777  1
  F  F14  1  0.18362367  0.29403651  0.40312089  1
  F  F15  1  0.18571305  0.66904690  0.69686087  1
  F  F16  1  0.85448629  0.96212430  0.53073794  1
  F  F17  1  0.59623935  0.44107970  0.44735702  1
  F  F18  1  0.94825377  0.16906966  0.19686540  1
  F  F19  1  0.61919626  0.79408754  0.90309851  1
  F  F20  1  0.23109311  0.14819251  0.71281571  1
  F  F21  1  0.58556879  0.30484008  0.80780298  1
