# generated using pymatgen
data_Li6V(OF)3
_symmetry_space_group_name_H-M   'P 1'
_cell_length_a   5.21866018
_cell_length_b   7.87553531
_cell_length_c   6.64960898
_cell_angle_alpha   90.13008220
_cell_angle_beta   106.58087230
_cell_angle_gamma   88.52284682
_symmetry_Int_Tables_number   1
_chemical_formula_structural   Li6V(OF)3
_chemical_formula_sum   'Li12 V2 O6 F6'
_cell_volume   261.84220973
_cell_formula_units_Z   2
loop_
 _symmetry_equiv_pos_site_id
 _symmetry_equiv_pos_as_xyz
  1  'x, y, z'
loop_
 _atom_site_type_symbol
 _atom_site_label
 _atom_site_symmetry_multiplicity
 _atom_site_fract_x
 _atom_site_fract_y
 _atom_site_fract_z
 _atom_site_occupancy
  Li  Li0  1  0.88444997  0.65921072  0.08653806  1
  Li  Li1  1  0.75102714  0.77743790  0.66388577  1
  Li  Li2  1  0.71422202  0.24256890  0.17332797  1
  Li  Li3  1  0.07216546  0.86038115  0.45478440  1
  Li  Li4  1  0.39539843  0.08903010  0.80293434  1
  Li  Li5  1  0.44313216  0.58689697  0.32348051  1
  Li  Li6  1  0.56606022  0.39318841  0.67797921  1
  Li  Li7  1  0.61074199  0.89401229  0.19590345  1
  Li  Li8  1  0.93193640  0.14710593  0.54396571  1
  Li  Li9  1  0.27956627  0.23744098  0.34878131  1
  Li  Li10  1  0.31477071  0.76739610  0.83327513  1
  Li  Li11  1  0.10136948  0.34372441  0.90889691  1
  V  V12  1  0.96861485  0.48961313  0.49383568  1
  V  V13  1  0.97777873  0.98988125  0.99420913  1
  O  O14  1  0.78420750  0.70213838  0.36782127  1
  O  O15  1  0.96724322  0.05767907  0.27646352  1
  O  O16  1  0.65395295  0.35450270  0.41615989  1
  O  O17  1  0.66063313  0.86068682  0.92028545  1
  O  O18  1  0.06147133  0.94953727  0.72665115  1
  O  O19  1  0.21928067  0.30929373  0.64667409  1
  F  F20  1  0.89677169  0.55107930  0.78706464  1
  F  F21  1  0.23334872  0.77197434  0.11778550  1
  F  F22  1  0.34430404  0.14914535  0.07606652  1
  F  F23  1  0.33187113  0.65312776  0.57355820  1
  F  F24  1  0.76393969  0.22075845  0.88250058  1
  F  F25  1  0.07174110  0.44218758  0.20717361  1
