# generated using pymatgen
data_PmPd2Pb
_symmetry_space_group_name_H-M   'P 1'
_cell_length_a   4.95254313
_cell_length_b   4.95279471
_cell_length_c   4.95235921
_cell_angle_alpha   60.00174651
_cell_angle_beta   60.00532746
_cell_angle_gamma   59.99955300
_symmetry_Int_Tables_number   1
_chemical_formula_structural   PmPd2Pb
_chemical_formula_sum   'Pm1 Pd2 Pb1'
_cell_volume   85.90085417
_cell_formula_units_Z   1
loop_
 _symmetry_equiv_pos_site_id
 _symmetry_equiv_pos_as_xyz
  1  'x, y, z'
loop_
 _atom_site_type_symbol
 _atom_site_label
 _atom_site_symmetry_multiplicity
 _atom_site_fract_x
 _atom_site_fract_y
 _atom_site_fract_z
 _atom_site_occupancy
  Pm  Pm0  1  0.74998869  0.75000623  0.75001717  1
  Pd  Pd1  1  0.00004572  0.00000838  0.99987840  1
  Pd  Pd2  1  0.49993946  0.50002023  0.50007940  1
  Pb  Pb3  1  0.25002713  0.24996617  0.25002602  1
