# generated using pymatgen
data_CsVGa(PO5)2
_symmetry_space_group_name_H-M   'P 1'
_cell_length_a   8.09472380
_cell_length_b   8.20560696
_cell_length_c   14.46262769
_cell_angle_alpha   90.03006716
_cell_angle_beta   106.68171670
_cell_angle_gamma   89.98886722
_symmetry_Int_Tables_number   1
_chemical_formula_structural   CsVGa(PO5)2
_chemical_formula_sum   'Cs4 V4 Ga4 P8 O40'
_cell_volume   920.20900193
_cell_formula_units_Z   4
loop_
 _symmetry_equiv_pos_site_id
 _symmetry_equiv_pos_as_xyz
  1  'x, y, z'
loop_
 _atom_site_type_symbol
 _atom_site_label
 _atom_site_symmetry_multiplicity
 _atom_site_fract_x
 _atom_site_fract_y
 _atom_site_fract_z
 _atom_site_occupancy
  Cs  Cs0  1  0.32035485  0.97261744  0.20453426  1
  Cs  Cs1  1  0.67963321  0.47236207  0.29537829  1
  Cs  Cs2  1  0.67972344  0.02734611  0.79547115  1
  Cs  Cs3  1  0.32035151  0.52769687  0.70460835  1
  V  V4  1  0.79944327  0.95229280  0.13298645  1
  V  V5  1  0.20056760  0.45234982  0.36701506  1
  V  V6  1  0.20061390  0.04767606  0.86701593  1
  V  V7  1  0.79943460  0.54766485  0.63299960  1
  Ga  Ga8  1  0.72376754  0.03977945  0.47303373  1
  Ga  Ga9  1  0.27618449  0.53990812  0.02695185  1
  Ga  Ga10  1  0.27621499  0.96022597  0.52696444  1
  Ga  Ga11  1  0.72381474  0.46007980  0.97304597  1
  P  P12  1  0.00106329  0.10292285  0.35071731  1
  P  P13  1  0.99900244  0.60282480  0.14929247  1
  P  P14  1  0.99893967  0.89706467  0.64925324  1
  P  P15  1  0.00099363  0.39720252  0.85067964  1
  P  P16  1  0.49665600  0.77661295  0.96102186  1
  P  P17  1  0.50324791  0.27683094  0.53899593  1
  P  P18  1  0.50343731  0.22336435  0.03901990  1
  P  P19  1  0.49678114  0.72317495  0.46104230  1
  O  O20  1  0.95871206  0.07163099  0.24179147  1
  O  O21  1  0.04138206  0.57163270  0.25825468  1
  O  O22  1  0.04129945  0.92836867  0.75823076  1
  O  O23  1  0.95862269  0.42835482  0.74177014  1
  O  O24  1  0.65585064  0.88468919  0.00785370  1
  O  O25  1  0.34412353  0.38496256  0.49210457  1
  O  O26  1  0.34415579  0.11528460  0.99214824  1
  O  O27  1  0.65583887  0.61505985  0.50788315  1
  O  O28  1  0.92896238  0.09505329  0.07153088  1
  O  O29  1  0.07090382  0.59548424  0.42827938  1
  O  O30  1  0.07099546  0.90492706  0.92845626  1
  O  O31  1  0.92909215  0.40452031  0.57171843  1
  O  O32  1  0.97459059  0.78643925  0.12653252  1
  O  O33  1  0.02547961  0.28655893  0.37359068  1
  O  O34  1  0.02544191  0.21352266  0.87348816  1
  O  O35  1  0.97450425  0.71347570  0.62640504  1
  O  O36  1  0.62215088  0.13409566  0.12586825  1
  O  O37  1  0.37795588  0.63379041  0.37419391  1
  O  O38  1  0.37785314  0.86592878  0.87412394  1
  O  O39  1  0.62200786  0.36620648  0.62578072  1
  O  O40  1  0.85346727  0.03891688  0.38907696  1
  O  O41  1  0.14651292  0.53867465  0.11095139  1
  O  O42  1  0.14650047  0.96109273  0.61093099  1
  O  O43  1  0.85349470  0.46133311  0.88905527  1
  O  O44  1  0.17052630  0.00739865  0.39946635  1
  O  O45  1  0.82949256  0.50732412  0.10055755  1
  O  O46  1  0.82944544  0.99262336  0.60052565  1
  O  O47  1  0.17050615  0.49267246  0.89943909  1
  O  O48  1  0.55781955  0.61867277  0.92083192  1
  O  O49  1  0.44189158  0.11908370  0.57924565  1
  O  O50  1  0.44218211  0.38131480  0.07916899  1
  O  O51  1  0.55809450  0.88093546  0.42074647  1
  O  O52  1  0.71810131  0.83954330  0.20403288  1
  O  O53  1  0.28154114  0.33930331  0.29590009  1
  O  O54  1  0.28185413  0.16043085  0.79596245  1
  O  O55  1  0.71844951  0.66070511  0.70409449  1
  O  O56  1  0.40497080  0.72958948  0.03879228  1
  O  O57  1  0.59476795  0.22935649  0.46115753  1
  O  O58  1  0.59501710  0.27040276  0.96120549  1
  O  O59  1  0.40521595  0.77064251  0.53882592  1
