# generated using pymatgen
data_PmInPd2
_symmetry_space_group_name_H-M   'P 1'
_cell_length_a   4.89145294
_cell_length_b   4.89138888
_cell_length_c   4.89156175
_cell_angle_alpha   59.99983788
_cell_angle_beta   60.00178787
_cell_angle_gamma   59.99942435
_symmetry_Int_Tables_number   1
_chemical_formula_structural   PmInPd2
_chemical_formula_sum   'Pm1 In1 Pd2'
_cell_volume   82.75725184
_cell_formula_units_Z   1
loop_
 _symmetry_equiv_pos_site_id
 _symmetry_equiv_pos_as_xyz
  1  'x, y, z'
loop_
 _atom_site_type_symbol
 _atom_site_label
 _atom_site_symmetry_multiplicity
 _atom_site_fract_x
 _atom_site_fract_y
 _atom_site_fract_z
 _atom_site_occupancy
  Pm  Pm0  1  0.75000470  0.74999139  0.75000053  1
  In  In1  1  0.25000251  0.25000031  0.25000349  1
  Pd  Pd2  1  0.00000983  0.00001573  -0.00001121  1
  Pd  Pd3  1  0.49998296  0.49999257  0.50000719  1
