# generated using pymatgen
data_ZrMn(CuSe2)2
_symmetry_space_group_name_H-M   'P 1'
_cell_length_a   4.67321613
_cell_length_b   6.84297739
_cell_length_c   6.61393678
_cell_angle_alpha   66.14975767
_cell_angle_beta   90.04797992
_cell_angle_gamma   70.07452702
_symmetry_Int_Tables_number   1
_chemical_formula_structural   ZrMn(CuSe2)2
_chemical_formula_sum   'Zr1 Mn1 Cu2 Se4'
_cell_volume   179.48413222
_cell_formula_units_Z   1
loop_
 _symmetry_equiv_pos_site_id
 _symmetry_equiv_pos_as_xyz
  1  'x, y, z'
loop_
 _atom_site_type_symbol
 _atom_site_label
 _atom_site_symmetry_multiplicity
 _atom_site_fract_x
 _atom_site_fract_y
 _atom_site_fract_z
 _atom_site_occupancy
  Zr  Zr0  1  0.47024898  0.05980755  0.79771594  1
  Mn  Mn1  1  0.27260414  0.45448033  0.24454897  1
  Cu  Cu2  1  0.10523671  0.78828292  0.77183091  1
  Cu  Cu3  1  0.68085701  0.63761411  0.39811014  1
  Se  Se4  1  0.71235285  0.57460655  0.06264005  1
  Se  Se5  1  0.23994995  0.51992785  0.60146989  1
  Se  Se6  1  0.49476290  0.01276173  0.43862637  1
  Se  Se7  1  0.99308745  0.01421896  0.98755773  1
