# generated using pymatgen
data_Pm2AgRu
_symmetry_space_group_name_H-M   'P 1'
_cell_length_a   5.09867623
_cell_length_b   5.09866647
_cell_length_c   5.09867612
_cell_angle_alpha   60.00000968
_cell_angle_beta   60.00000968
_cell_angle_gamma   59.99992339
_symmetry_Int_Tables_number   1
_chemical_formula_structural   Pm2AgRu
_chemical_formula_sum   'Pm2 Ag1 Ru1'
_cell_volume   93.72517880
_cell_formula_units_Z   1
loop_
 _symmetry_equiv_pos_site_id
 _symmetry_equiv_pos_as_xyz
  1  'x, y, z'
loop_
 _atom_site_type_symbol
 _atom_site_label
 _atom_site_symmetry_multiplicity
 _atom_site_fract_x
 _atom_site_fract_y
 _atom_site_fract_z
 _atom_site_occupancy
  Pm  Pm0  1  0.99999995  0.00000041  0.00000051  1
  Pm  Pm1  1  0.50000030  0.50000008  0.49999939  1
  Ag  Ag2  1  0.25000077  0.25000081  0.25000108  1
  Ru  Ru3  1  0.75000099  0.75000070  0.75000102  1
