# generated using pymatgen
data_GdGaRh2
_symmetry_space_group_name_H-M   'P 1'
_cell_length_a   4.60848619
_cell_length_b   4.61151731
_cell_length_c   4.60278784
_cell_angle_alpha   59.97219561
_cell_angle_beta   60.08641845
_cell_angle_gamma   59.93372638
_symmetry_Int_Tables_number   1
_chemical_formula_structural   GdGaRh2
_chemical_formula_sum   'Gd1 Ga1 Rh2'
_cell_volume   69.16418789
_cell_formula_units_Z   1
loop_
 _symmetry_equiv_pos_site_id
 _symmetry_equiv_pos_as_xyz
  1  'x, y, z'
loop_
 _atom_site_type_symbol
 _atom_site_label
 _atom_site_symmetry_multiplicity
 _atom_site_fract_x
 _atom_site_fract_y
 _atom_site_fract_z
 _atom_site_occupancy
  Gd  Gd0  1  0.75000009  0.75000474  0.75000470  1
  Ga  Ga1  1  0.25000042  0.24999772  0.25000375  1
  Rh  Rh2  1  0.00001778  0.99992721  0.00008089  1
  Rh  Rh3  1  0.49998371  0.50007233  0.49991267  1
