# generated using pymatgen
data_La3MnW(SO2)3
_symmetry_space_group_name_H-M   'P 1'
_cell_length_a   9.53248487
_cell_length_b   9.53176892
_cell_length_c   5.61762459
_cell_angle_alpha   90.00000000
_cell_angle_beta   90.00000000
_cell_angle_gamma   119.99133617
_symmetry_Int_Tables_number   1
_chemical_formula_structural   La3MnW(SO2)3
_chemical_formula_sum   'La6 Mn2 W2 S6 O12'
_cell_volume   442.08001568
_cell_formula_units_Z   2
loop_
 _symmetry_equiv_pos_site_id
 _symmetry_equiv_pos_as_xyz
  1  'x, y, z'
loop_
 _atom_site_type_symbol
 _atom_site_label
 _atom_site_symmetry_multiplicity
 _atom_site_fract_x
 _atom_site_fract_y
 _atom_site_fract_z
 _atom_site_occupancy
  La  La0  1  0.68108574  0.59254493  0.25000100  1
  La  La1  1  0.31891426  0.40745507  0.75000000  1
  La  La2  1  0.59249204  0.91137696  0.75000000  1
  La  La3  1  0.08857822  0.68106447  0.75000000  1
  La  La4  1  0.91142278  0.31893653  0.25000100  1
  La  La5  1  0.40750596  0.08862104  0.25000100  1
  Mn  Mn6  1  0.00000000  0.00000000  0.00000000  1
  Mn  Mn7  1  0.00000000  0.00000000  0.49999900  1
  W  W8  1  0.33330055  0.66662949  0.25000100  1
  W  W9  1  0.66669945  0.33337051  0.75000000  1
  S  S10  1  0.76877254  0.95397604  0.25000100  1
  S  S11  1  0.23122846  0.04602396  0.75000000  1
  S  S12  1  0.04597947  0.81503982  0.25000100  1
  S  S13  1  0.18513314  0.23116495  0.25000100  1
  S  S14  1  0.81486786  0.76883505  0.75000000  1
  S  S15  1  0.95402053  0.18496018  0.75000000  1
  O  O16  1  0.47296175  0.63406326  0.02441348  1
  O  O17  1  0.52703925  0.36593674  0.52441248  1
  O  O18  1  0.36585442  0.83885194  0.02444037  1
  O  O19  1  0.16106974  0.52698751  0.02442282  1
  O  O20  1  0.83893026  0.47301249  0.52442382  1
  O  O21  1  0.63414458  0.16114806  0.52443937  1
  O  O22  1  0.52703925  0.36593674  0.97558752  1
  O  O23  1  0.47296175  0.63406326  0.47558852  1
  O  O24  1  0.63414458  0.16114806  0.97556063  1
  O  O25  1  0.83893026  0.47301249  0.97557818  1
  O  O26  1  0.16106974  0.52698751  0.47557618  1
  O  O27  1  0.36585442  0.83885194  0.47556063  1
