# generated using pymatgen
data_HoCdAg2
_symmetry_space_group_name_H-M   'P 1'
_cell_length_a   4.94573146
_cell_length_b   4.94573031
_cell_length_c   4.94573071
_cell_angle_alpha   59.99998496
_cell_angle_beta   59.99985348
_cell_angle_gamma   59.99998203
_symmetry_Int_Tables_number   1
_chemical_formula_structural   HoCdAg2
_chemical_formula_sum   'Ho1 Cd1 Ag2'
_cell_volume   85.54129884
_cell_formula_units_Z   1
loop_
 _symmetry_equiv_pos_site_id
 _symmetry_equiv_pos_as_xyz
  1  'x, y, z'
loop_
 _atom_site_type_symbol
 _atom_site_label
 _atom_site_symmetry_multiplicity
 _atom_site_fract_x
 _atom_site_fract_y
 _atom_site_fract_z
 _atom_site_occupancy
  Ho  Ho0  1  0.75000008  0.74999986  0.74999985  1
  Cd  Cd1  1  0.24999995  0.25000009  0.25000004  1
  Ag  Ag2  1  0.50000074  0.50000099  0.50000125  1
  Ag  Ag3  1  0.00000024  0.00000006  -0.00000014  1
