# generated using pymatgen
data_HfScRh2
_symmetry_space_group_name_H-M   'P 1'
_cell_length_a   4.60465779
_cell_length_b   4.60466310
_cell_length_c   4.60465841
_cell_angle_alpha   59.99993340
_cell_angle_beta   60.00005634
_cell_angle_gamma   60.00009926
_symmetry_Int_Tables_number   1
_chemical_formula_structural   HfScRh2
_chemical_formula_sum   'Hf1 Sc1 Rh2'
_cell_volume   69.03636767
_cell_formula_units_Z   1
loop_
 _symmetry_equiv_pos_site_id
 _symmetry_equiv_pos_as_xyz
  1  'x, y, z'
loop_
 _atom_site_type_symbol
 _atom_site_label
 _atom_site_symmetry_multiplicity
 _atom_site_fract_x
 _atom_site_fract_y
 _atom_site_fract_z
 _atom_site_occupancy
  Hf  Hf0  1  0.24999943  0.24999993  0.24999967  1
  Sc  Sc1  1  0.75000039  0.75000000  0.74999985  1
  Rh  Rh2  1  0.00000028  0.99999955  0.00000044  1
  Rh  Rh3  1  0.49999890  0.49999952  0.49999904  1
