# generated using pymatgen
data_YbTaRu2
_symmetry_space_group_name_H-M   'P 1'
_cell_length_a   4.53089628
_cell_length_b   4.53089628
_cell_length_c   4.53089628
_cell_angle_alpha   60.40192691
_cell_angle_beta   60.40192691
_cell_angle_gamma   60.40192691
_symmetry_Int_Tables_number   1
_chemical_formula_structural   YbTaRu2
_chemical_formula_sum   'Yb1 Ta1 Ru2'
_cell_volume   66.36925848
_cell_formula_units_Z   1
loop_
 _symmetry_equiv_pos_site_id
 _symmetry_equiv_pos_as_xyz
  1  'x, y, z'
loop_
 _atom_site_type_symbol
 _atom_site_label
 _atom_site_symmetry_multiplicity
 _atom_site_fract_x
 _atom_site_fract_y
 _atom_site_fract_z
 _atom_site_occupancy
  Yb  Yb0  1  0.75004181  0.75004181  0.75004181  1
  Ta  Ta1  1  0.24995682  0.24995682  0.24995682  1
  Ru  Ru2  1  0.50030501  0.50030501  0.50030501  1
  Ru  Ru3  1  0.99969636  0.99969636  0.99969636  1
