# generated using pymatgen
data_V16FeO41
_symmetry_space_group_name_H-M   'P 1'
_cell_length_a   11.71014592
_cell_length_b   14.63760644
_cell_length_c   4.55702122
_cell_angle_alpha   90.00000000
_cell_angle_beta   90.00000000
_cell_angle_gamma   90.00000000
_symmetry_Int_Tables_number   1
_chemical_formula_structural   V16FeO41
_chemical_formula_sum   'V16 Fe1 O41'
_cell_volume   781.11220520
_cell_formula_units_Z   1
loop_
 _symmetry_equiv_pos_site_id
 _symmetry_equiv_pos_as_xyz
  1  'x, y, z'
loop_
 _atom_site_type_symbol
 _atom_site_label
 _atom_site_symmetry_multiplicity
 _atom_site_fract_x
 _atom_site_fract_y
 _atom_site_fract_z
 _atom_site_occupancy
  V  V0  1  0.10242657  0.31250000  0.89977015  1
  V  V1  1  0.10252660  0.06471922  0.89955537  1
  V  V2  1  0.10252660  0.56028078  0.89955537  1
  V  V3  1  0.10042121  0.81250000  0.90212513  1
  V  V4  1  0.39747340  0.06471922  0.89955537  1
  V  V5  1  0.39757343  0.31250000  0.89977015  1
  V  V6  1  0.39747340  0.56028078  0.89955537  1
  V  V7  1  0.39957879  0.81250000  0.90212513  1
  V  V8  1  0.59430230  0.94486707  0.11392299  1
  V  V9  1  0.60102551  0.18909258  0.09636576  1
  V  V10  1  0.60102551  0.43590742  0.09636576  1
  V  V11  1  0.59430230  0.68013293  0.11392299  1
  V  V12  1  0.90569770  0.94486707  0.11392299  1
  V  V13  1  0.89897449  0.18909258  0.09636576  1
  V  V14  1  0.89897449  0.43590742  0.09636576  1
  V  V15  1  0.90569770  0.68013293  0.11392299  1
  Fe  Fe16  1  0.75000000  0.81250000  0.03671033  1
  O  O17  1  0.07040969  0.18890907  0.00221770  1
  O  O18  1  0.07040969  0.43609093  0.00221770  1
  O  O19  1  0.06992961  0.93828364  0.99787192  1
  O  O20  1  0.06992961  0.68671636  0.99787192  1
  O  O21  1  0.10892373  0.31250000  0.54778244  1
  O  O22  1  0.11097251  0.55986236  0.54772089  1
  O  O23  1  0.11097251  0.06513764  0.54772089  1
  O  O24  1  0.10636311  0.81250000  0.55048611  1
  O  O25  1  0.25000000  0.56125404  0.01984060  1
  O  O26  1  0.25000000  0.06374596  0.01984060  1
  O  O27  1  0.25000000  0.31250000  0.01695710  1
  O  O28  1  0.25000000  0.81250000  0.01151717  1
  O  O29  1  0.38902749  0.06513764  0.54772089  1
  O  O30  1  0.39107627  0.31250000  0.54778244  1
  O  O31  1  0.38902749  0.55986236  0.54772089  1
  O  O32  1  0.39363689  0.81250000  0.55048611  1
  O  O33  1  0.42959031  0.43609093  0.00221770  1
  O  O34  1  0.42959031  0.18890907  0.00221770  1
  O  O35  1  0.43007039  0.68671636  0.99787192  1
  O  O36  1  0.43007039  0.93828364  0.99787192  1
  O  O37  1  0.57326100  0.81250000  0.00897627  1
  O  O38  1  0.56607875  0.06690082  0.98994425  1
  O  O39  1  0.56793328  0.31250000  0.99529135  1
  O  O40  1  0.56607875  0.55809918  0.98994425  1
  O  O41  1  0.59326116  0.95196576  0.46500307  1
  O  O42  1  0.60763882  0.18848897  0.44863509  1
  O  O43  1  0.60763882  0.43651103  0.44863509  1
  O  O44  1  0.59326116  0.67303424  0.46500307  1
  O  O45  1  0.75000000  0.81250000  0.44393129  1
  O  O46  1  0.75000000  0.94923647  0.99699739  1
  O  O47  1  0.75000000  0.18864150  0.98369752  1
  O  O48  1  0.75000000  0.43635850  0.98369752  1
  O  O49  1  0.75000000  0.67576353  0.99699739  1
  O  O50  1  0.90673884  0.95196576  0.46500307  1
  O  O51  1  0.89236118  0.18848897  0.44863509  1
  O  O52  1  0.89236118  0.43651103  0.44863509  1
  O  O53  1  0.90673884  0.67303424  0.46500307  1
  O  O54  1  0.92673900  0.81250000  0.00897627  1
  O  O55  1  0.93392125  0.06690082  0.98994425  1
  O  O56  1  0.93206672  0.31250000  0.99529135  1
  O  O57  1  0.93392125  0.55809918  0.98994425  1
