# generated using pymatgen
data_Ho2InAg
_symmetry_space_group_name_H-M   'P 1'
_cell_length_a   5.23194150
_cell_length_b   5.23193329
_cell_length_c   5.23194099
_cell_angle_alpha   59.99997644
_cell_angle_beta   59.99989994
_cell_angle_gamma   59.99993996
_symmetry_Int_Tables_number   1
_chemical_formula_structural   Ho2InAg
_chemical_formula_sum   'Ho2 In1 Ag1'
_cell_volume   101.26801856
_cell_formula_units_Z   1
loop_
 _symmetry_equiv_pos_site_id
 _symmetry_equiv_pos_as_xyz
  1  'x, y, z'
loop_
 _atom_site_type_symbol
 _atom_site_label
 _atom_site_symmetry_multiplicity
 _atom_site_fract_x
 _atom_site_fract_y
 _atom_site_fract_z
 _atom_site_occupancy
  Ho  Ho0  1  0.00000049  0.99999934  0.99999991  1
  Ho  Ho1  1  0.50000068  0.50000056  0.50000130  1
  In  In2  1  0.74999981  0.75000130  0.74999963  1
  Ag  Ag3  1  0.25000003  0.24999980  0.25000017  1
