# generated using pymatgen
data_Li7(CoO3)2
_symmetry_space_group_name_H-M   'P 1'
_cell_length_a   5.12532958
_cell_length_b   6.55240178
_cell_length_c   9.97988717
_cell_angle_alpha   74.85065129
_cell_angle_beta   90.00000017
_cell_angle_gamma   66.97684849
_symmetry_Int_Tables_number   1
_chemical_formula_structural   Li7(CoO3)2
_chemical_formula_sum   'Li14 Co4 O12'
_cell_volume   295.76360082
_cell_formula_units_Z   2
loop_
 _symmetry_equiv_pos_site_id
 _symmetry_equiv_pos_as_xyz
  1  'x, y, z'
loop_
 _atom_site_type_symbol
 _atom_site_label
 _atom_site_symmetry_multiplicity
 _atom_site_fract_x
 _atom_site_fract_y
 _atom_site_fract_z
 _atom_site_occupancy
  Li  Li0  1  0.67263234  0.87618688  0.66938163  1
  Li  Li1  1  0.56300907  0.66337863  0.90739820  1
  Li  Li2  1  0.45117978  0.87618688  0.16938163  1
  Li  Li3  1  0.17854490  0.54857074  0.79586509  1
  Li  Li4  1  0.77361230  0.66337863  0.40739820  1
  Li  Li5  1  0.72711564  0.45142926  0.70413491  1
  Li  Li6  1  0.27288436  0.54857074  0.29586509  1
  Li  Li7  1  0.22638770  0.33662137  0.59260180  1
  Li  Li8  1  0.82145510  0.45142926  0.20413491  1
  Li  Li9  1  0.54882022  0.12381312  0.83061837  1
  Li  Li10  1  0.43699093  0.33662137  0.09260180  1
  Li  Li11  1  0.04544913  0.00000000  0.75000000  1
  Li  Li12  1  0.32736766  0.12381312  0.33061837  1
  Li  Li13  1  0.95455087  1.00000000  0.25000000  1
  Co  Co14  1  0.17448563  0.81150213  0.53142673  1
  Co  Co15  1  0.01401224  0.81150213  0.03142673  1
  Co  Co16  1  0.98598776  0.18849787  0.96857327  1
  Co  Co17  1  0.82551437  0.18849787  0.46857327  1
  O  O18  1  0.85626896  0.79825231  0.86982717  1
  O  O19  1  0.37300185  0.77068442  0.69855327  1
  O  O20  1  0.34547873  0.79825231  0.36982717  1
  O  O21  1  0.94526169  0.65699553  0.58563373  1
  O  O22  1  0.85631373  0.77068442  0.19855327  1
  O  O23  1  0.60225722  0.34300447  0.91436627  1
  O  O24  1  0.39774278  0.65699553  0.08563373  1
  O  O25  1  0.14368627  0.22931558  0.80144673  1
  O  O26  1  0.05473831  0.34300447  0.41436627  1
  O  O27  1  0.65452127  0.20174769  0.63017283  1
  O  O28  1  0.62699815  0.22931558  0.30144673  1
  O  O29  1  0.14373104  0.20174769  0.13017283  1
