# generated using pymatgen
data_U
_symmetry_space_group_name_H-M   'P 1'
_cell_length_a   5.65326863
_cell_length_b   10.43395516
_cell_length_c   10.43395516
_cell_angle_alpha   90.00000000
_cell_angle_beta   90.00000000
_cell_angle_gamma   90.00000000
_symmetry_Int_Tables_number   1
_chemical_formula_structural   U
_chemical_formula_sum   U30
_cell_volume   615.45677190
_cell_formula_units_Z   30
loop_
 _symmetry_equiv_pos_site_id
 _symmetry_equiv_pos_as_xyz
  1  'x, y, z'
loop_
 _atom_site_type_symbol
 _atom_site_label
 _atom_site_symmetry_multiplicity
 _atom_site_fract_x
 _atom_site_fract_y
 _atom_site_fract_z
 _atom_site_occupancy
  U  U0  1  0.50000000  0.50000000  0.50000000  1
  U  U1  1  -0.00000000  -0.00000000  0.00000000  1
  U  U2  1  0.50000000  0.11095374  0.88904626  1
  U  U3  1  0.50000000  0.88904626  0.11095374  1
  U  U4  1  -0.00000000  0.38904626  0.38904626  1
  U  U5  1  -0.00000000  0.61095374  0.61095374  1
  U  U6  1  0.50000000  0.36196980  0.95290019  1
  U  U7  1  0.50000000  0.63803020  0.04709981  1
  U  U8  1  -0.00000000  0.13803020  0.45290019  1
  U  U9  1  -0.00000000  0.86196980  0.54709981  1
  U  U10  1  0.50000000  0.95290019  0.36196980  1
  U  U11  1  0.50000000  0.04709981  0.63803020  1
  U  U12  1  -0.00000000  0.45290019  0.13803020  1
  U  U13  1  -0.00000000  0.54709981  0.86196980  1
  U  U14  1  0.50000000  0.44396225  0.23421166  1
  U  U15  1  0.50000000  0.55603775  0.76578834  1
  U  U16  1  -0.00000000  0.05603775  0.73421166  1
  U  U17  1  -0.00000000  0.94396225  0.26578834  1
  U  U18  1  0.50000000  0.23421166  0.44396225  1
  U  U19  1  0.50000000  0.76578834  0.55603775  1
  U  U20  1  -0.00000000  0.73421166  0.05603775  1
  U  U21  1  -0.00000000  0.26578834  0.94396225  1
  U  U22  1  0.22569493  0.32027692  0.67972308  1
  U  U23  1  0.22569493  0.67972308  0.32027692  1
  U  U24  1  0.72569493  0.17972308  0.17972308  1
  U  U25  1  0.72569493  0.82027692  0.82027692  1
  U  U26  1  0.77430507  0.67972308  0.32027692  1
  U  U27  1  0.77430507  0.32027692  0.67972308  1
  U  U28  1  0.27430507  0.82027692  0.82027692  1
  U  U29  1  0.27430507  0.17972308  0.17972308  1
