# generated using pymatgen
data_LuZrCo2
_symmetry_space_group_name_H-M   'P 1'
_cell_length_a   4.57523238
_cell_length_b   4.57524181
_cell_length_c   4.57521802
_cell_angle_alpha   60.00029867
_cell_angle_beta   59.99913169
_cell_angle_gamma   59.99950746
_symmetry_Int_Tables_number   1
_chemical_formula_structural   LuZrCo2
_chemical_formula_sum   'Lu1 Zr1 Co2'
_cell_volume   67.72055670
_cell_formula_units_Z   1
loop_
 _symmetry_equiv_pos_site_id
 _symmetry_equiv_pos_as_xyz
  1  'x, y, z'
loop_
 _atom_site_type_symbol
 _atom_site_label
 _atom_site_symmetry_multiplicity
 _atom_site_fract_x
 _atom_site_fract_y
 _atom_site_fract_z
 _atom_site_occupancy
  Lu  Lu0  1  0.25000855  0.24999876  0.24999689  1
  Zr  Zr1  1  0.74999313  0.74999875  0.75000196  1
  Co  Co2  1  0.49999948  0.49999921  0.49999935  1
  Co  Co3  1  -0.00000216  0.00000227  0.00000080  1
