# generated using pymatgen
data_Li2GdIn
_symmetry_space_group_name_H-M   'P 1'
_cell_length_a   4.87011408
_cell_length_b   4.87011623
_cell_length_c   4.87011433
_cell_angle_alpha   59.99961024
_cell_angle_beta   59.99974213
_cell_angle_gamma   59.99991739
_symmetry_Int_Tables_number   1
_chemical_formula_structural   Li2GdIn
_chemical_formula_sum   'Li2 Gd1 In1'
_cell_volume   81.67708358
_cell_formula_units_Z   1
loop_
 _symmetry_equiv_pos_site_id
 _symmetry_equiv_pos_as_xyz
  1  'x, y, z'
loop_
 _atom_site_type_symbol
 _atom_site_label
 _atom_site_symmetry_multiplicity
 _atom_site_fract_x
 _atom_site_fract_y
 _atom_site_fract_z
 _atom_site_occupancy
  Li  Li0  1  0.49999919  0.49999889  0.49999886  1
  Li  Li1  1  0.00000000  0.00000001  0.00000033  1
  Gd  Gd2  1  0.24999967  0.25000039  0.24999980  1
  In  In3  1  0.75000014  0.74999971  0.75000001  1
