# generated using pymatgen
data_Li2ErIn
_symmetry_space_group_name_H-M   'P 1'
_cell_length_a   4.84036646
_cell_length_b   4.84037744
_cell_length_c   4.84039435
_cell_angle_alpha   59.99999130
_cell_angle_beta   59.99991282
_cell_angle_gamma   60.00013589
_symmetry_Int_Tables_number   1
_chemical_formula_structural   Li2ErIn
_chemical_formula_sum   'Li2 Er1 In1'
_cell_volume   80.19057919
_cell_formula_units_Z   1
loop_
 _symmetry_equiv_pos_site_id
 _symmetry_equiv_pos_as_xyz
  1  'x, y, z'
loop_
 _atom_site_type_symbol
 _atom_site_label
 _atom_site_symmetry_multiplicity
 _atom_site_fract_x
 _atom_site_fract_y
 _atom_site_fract_z
 _atom_site_occupancy
  Li  Li0  1  0.50000065  0.49999565  0.50001549  1
  Li  Li1  1  0.99999767  0.99999613  0.00001828  1
  Er  Er2  1  0.24999983  0.25001480  0.24995112  1
  In  In3  1  0.75000185  0.74999343  0.75001510  1
