# generated using pymatgen
data_ZrO2
_symmetry_space_group_name_H-M   'P 1'
_cell_length_a   3.38795353
_cell_length_b   5.63273575
_cell_length_c   6.58922144
_cell_angle_alpha   90.00000000
_cell_angle_beta   90.00000000
_cell_angle_gamma   90.00000000
_symmetry_Int_Tables_number   1
_chemical_formula_structural   ZrO2
_chemical_formula_sum   'Zr4 O8'
_cell_volume   125.74505791
_cell_formula_units_Z   4
loop_
 _symmetry_equiv_pos_site_id
 _symmetry_equiv_pos_as_xyz
  1  'x, y, z'
loop_
 _atom_site_type_symbol
 _atom_site_label
 _atom_site_symmetry_multiplicity
 _atom_site_fract_x
 _atom_site_fract_y
 _atom_site_fract_z
 _atom_site_occupancy
  O  O0  1  0.75000000  0.47802154  0.15923709  1
  O  O1  1  0.25000000  0.52197846  0.84076291  1
  O  O2  1  0.75000000  0.97802154  0.34076291  1
  O  O3  1  0.25000000  0.02197846  0.65923709  1
  O  O4  1  0.75000000  0.36073731  0.57650162  1
  O  O5  1  0.25000000  0.63926269  0.42349838  1
  O  O6  1  0.75000000  0.86073731  0.92349838  1
  O  O7  1  0.25000000  0.13926269  0.07650162  1
  Zr  Zr8  1  0.25000000  0.25153674  0.39158405  1
  Zr  Zr9  1  0.75000000  0.74846326  0.60841595  1
  Zr  Zr10  1  0.25000000  0.75153674  0.10841595  1
  Zr  Zr11  1  0.75000000  0.24846326  0.89158405  1
