# generated using pymatgen
data_LiPrHg2
_symmetry_space_group_name_H-M   'P 1'
_cell_length_a   5.18694202
_cell_length_b   5.18694277
_cell_length_c   5.18694417
_cell_angle_alpha   59.99991892
_cell_angle_beta   59.99995481
_cell_angle_gamma   59.99993145
_symmetry_Int_Tables_number   1
_chemical_formula_structural   LiPrHg2
_chemical_formula_sum   'Li1 Pr1 Hg2'
_cell_volume   98.67764710
_cell_formula_units_Z   1
loop_
 _symmetry_equiv_pos_site_id
 _symmetry_equiv_pos_as_xyz
  1  'x, y, z'
loop_
 _atom_site_type_symbol
 _atom_site_label
 _atom_site_symmetry_multiplicity
 _atom_site_fract_x
 _atom_site_fract_y
 _atom_site_fract_z
 _atom_site_occupancy
  Li  Li0  1  0.25000093  0.25000097  0.25000096  1
  Pr  Pr1  1  0.74999996  0.74999993  0.74999990  1
  Hg  Hg2  1  0.00000000  1.00000000  0.00000000  1
  Hg  Hg3  1  0.49999910  0.49999910  0.49999914  1
