# generated using pymatgen
data_LiSiRu2
_symmetry_space_group_name_H-M   'P 1'
_cell_length_a   4.11303014
_cell_length_b   4.11303030
_cell_length_c   4.11303064
_cell_angle_alpha   60.00001336
_cell_angle_beta   60.00001388
_cell_angle_gamma   60.00000756
_symmetry_Int_Tables_number   1
_chemical_formula_structural   LiSiRu2
_chemical_formula_sum   'Li1 Si1 Ru2'
_cell_volume   49.20065244
_cell_formula_units_Z   1
loop_
 _symmetry_equiv_pos_site_id
 _symmetry_equiv_pos_as_xyz
  1  'x, y, z'
loop_
 _atom_site_type_symbol
 _atom_site_label
 _atom_site_symmetry_multiplicity
 _atom_site_fract_x
 _atom_site_fract_y
 _atom_site_fract_z
 _atom_site_occupancy
  Li  Li0  1  0.25000005  0.25000004  0.25000002  1
  Si  Si1  1  0.75000093  0.75000092  0.75000091  1
  Ru  Ru2  1  0.00000009  0.00000013  0.00000011  1
  Ru  Ru3  1  0.50000093  0.50000090  0.50000096  1
