# generated using pymatgen
data_TiSnRu2
_symmetry_space_group_name_H-M   'P 1'
_cell_length_a   4.45741499
_cell_length_b   4.45757138
_cell_length_c   4.45740207
_cell_angle_alpha   59.99642891
_cell_angle_beta   59.99849037
_cell_angle_gamma   59.99709300
_symmetry_Int_Tables_number   1
_chemical_formula_structural   TiSnRu2
_chemical_formula_sum   'Ti1 Sn1 Ru2'
_cell_volume   62.62128426
_cell_formula_units_Z   1
loop_
 _symmetry_equiv_pos_site_id
 _symmetry_equiv_pos_as_xyz
  1  'x, y, z'
loop_
 _atom_site_type_symbol
 _atom_site_label
 _atom_site_symmetry_multiplicity
 _atom_site_fract_x
 _atom_site_fract_y
 _atom_site_fract_z
 _atom_site_occupancy
  Ti  Ti0  1  0.75000483  0.75001496  0.75000369  1
  Sn  Sn1  1  0.25000078  0.24998557  0.25000840  1
  Ru  Ru2  1  0.00001299  -0.00000105  0.99998679  1
  Ru  Ru3  1  0.49998240  0.50000152  0.50000212  1
