# generated using pymatgen
data_YbRh2Pb
_symmetry_space_group_name_H-M   'P 1'
_cell_length_a   4.69504080
_cell_length_b   4.69502899
_cell_length_c   4.69503253
_cell_angle_alpha   60.00013217
_cell_angle_beta   60.00009017
_cell_angle_gamma   60.00014652
_symmetry_Int_Tables_number   1
_chemical_formula_structural   YbRh2Pb
_chemical_formula_sum   'Yb1 Rh2 Pb1'
_cell_volume   73.18169556
_cell_formula_units_Z   1
loop_
 _symmetry_equiv_pos_site_id
 _symmetry_equiv_pos_as_xyz
  1  'x, y, z'
loop_
 _atom_site_type_symbol
 _atom_site_label
 _atom_site_symmetry_multiplicity
 _atom_site_fract_x
 _atom_site_fract_y
 _atom_site_fract_z
 _atom_site_occupancy
  Yb  Yb0  1  0.75000081  0.74999982  0.75000030  1
  Rh  Rh1  1  0.00000008  0.00000137  0.99999922  1
  Rh  Rh2  1  0.49999939  0.49999803  0.49999911  1
  Pb  Pb3  1  0.24999972  0.25000078  0.25000137  1
