# generated using pymatgen
data_Pm2SiNi
_symmetry_space_group_name_H-M   'P 1'
_cell_length_a   5.02841393
_cell_length_b   5.02842566
_cell_length_c   5.02842861
_cell_angle_alpha   60.00003703
_cell_angle_beta   60.00004070
_cell_angle_gamma   59.99993641
_symmetry_Int_Tables_number   1
_chemical_formula_structural   Pm2SiNi
_chemical_formula_sum   'Pm2 Si1 Ni1'
_cell_volume   89.90428498
_cell_formula_units_Z   1
loop_
 _symmetry_equiv_pos_site_id
 _symmetry_equiv_pos_as_xyz
  1  'x, y, z'
loop_
 _atom_site_type_symbol
 _atom_site_label
 _atom_site_symmetry_multiplicity
 _atom_site_fract_x
 _atom_site_fract_y
 _atom_site_fract_z
 _atom_site_occupancy
  Pm  Pm0  1  0.49999921  0.49999915  0.49999932  1
  Pm  Pm1  1  0.99999946  -0.00000036  0.99999959  1
  Si  Si2  1  0.74999999  0.74999985  0.74999957  1
  Ni  Ni3  1  0.25000034  0.25000035  0.25000051  1
