# generated using pymatgen
data_TiInRh2
_symmetry_space_group_name_H-M   'P 1'
_cell_length_a   4.48843631
_cell_length_b   4.48846025
_cell_length_c   4.48846816
_cell_angle_alpha   60.00015478
_cell_angle_beta   60.00020835
_cell_angle_gamma   59.99993163
_symmetry_Int_Tables_number   1
_chemical_formula_structural   TiInRh2
_chemical_formula_sum   'Ti1 In1 Rh2'
_cell_volume   63.94057952
_cell_formula_units_Z   1
loop_
 _symmetry_equiv_pos_site_id
 _symmetry_equiv_pos_as_xyz
  1  'x, y, z'
loop_
 _atom_site_type_symbol
 _atom_site_label
 _atom_site_symmetry_multiplicity
 _atom_site_fract_x
 _atom_site_fract_y
 _atom_site_fract_z
 _atom_site_occupancy
  Ti  Ti0  1  0.74999891  0.74999872  0.74999883  1
  In  In1  1  0.24999990  0.24999989  0.24999995  1
  Rh  Rh2  1  0.99999897  0.00000125  0.00000033  1
  Rh  Rh3  1  0.50000223  0.50000015  0.50000090  1
