# generated using pymatgen
data_CeCdHg2
_symmetry_space_group_name_H-M   'P 1'
_cell_length_a   5.21532936
_cell_length_b   5.21505924
_cell_length_c   5.21543415
_cell_angle_alpha   60.00896045
_cell_angle_beta   60.01156101
_cell_angle_gamma   60.00907916
_symmetry_Int_Tables_number   1
_chemical_formula_structural   CeCdHg2
_chemical_formula_sum   'Ce1 Cd1 Hg2'
_cell_volume   100.32602179
_cell_formula_units_Z   1
loop_
 _symmetry_equiv_pos_site_id
 _symmetry_equiv_pos_as_xyz
  1  'x, y, z'
loop_
 _atom_site_type_symbol
 _atom_site_label
 _atom_site_symmetry_multiplicity
 _atom_site_fract_x
 _atom_site_fract_y
 _atom_site_fract_z
 _atom_site_occupancy
  Ce  Ce0  1  0.74999964  0.75000150  0.75000023  1
  Cd  Cd1  1  0.24999974  0.24999925  0.24999988  1
  Hg  Hg2  1  0.00002492  0.00001996  0.00002579  1
  Hg  Hg3  1  0.49997471  0.49997829  0.49997310  1
