# generated using pymatgen
data_AuS
_symmetry_space_group_name_H-M   'P 1'
_cell_length_a   3.93311477
_cell_length_b   3.93311477
_cell_length_c   6.81817479
_cell_angle_alpha   90.00000000
_cell_angle_beta   90.00000000
_cell_angle_gamma   119.99995280
_symmetry_Int_Tables_number   1
_chemical_formula_structural   AuS
_chemical_formula_sum   'Au2 S2'
_cell_volume   91.34235589
_cell_formula_units_Z   2
loop_
 _symmetry_equiv_pos_site_id
 _symmetry_equiv_pos_as_xyz
  1  'x, y, z'
loop_
 _atom_site_type_symbol
 _atom_site_label
 _atom_site_symmetry_multiplicity
 _atom_site_fract_x
 _atom_site_fract_y
 _atom_site_fract_z
 _atom_site_occupancy
  Au  Au0  1  0.00000000  0.00000000  0.01031380  1
  Au  Au1  1  0.33333400  0.66666700  0.51031480  1
  S  S2  1  0.00000000  0.00000000  0.36468520  1
  S  S3  1  0.33333400  0.66666700  0.86468620  1
