# generated using pymatgen
data_Sc2ZnGa
_symmetry_space_group_name_H-M   'P 1'
_cell_length_a   4.74922536
_cell_length_b   4.74924735
_cell_length_c   4.74924018
_cell_angle_alpha   59.99979467
_cell_angle_beta   59.99959323
_cell_angle_gamma   59.99964913
_symmetry_Int_Tables_number   1
_chemical_formula_structural   Sc2ZnGa
_chemical_formula_sum   'Sc2 Zn1 Ga1'
_cell_volume   75.74492549
_cell_formula_units_Z   1
loop_
 _symmetry_equiv_pos_site_id
 _symmetry_equiv_pos_as_xyz
  1  'x, y, z'
loop_
 _atom_site_type_symbol
 _atom_site_label
 _atom_site_symmetry_multiplicity
 _atom_site_fract_x
 _atom_site_fract_y
 _atom_site_fract_z
 _atom_site_occupancy
  Sc  Sc0  1  0.00000027  0.99999900  -0.00000048  1
  Sc  Sc1  1  0.49999958  0.50000102  0.49999923  1
  Zn  Zn2  1  0.74999915  0.74999883  0.74999960  1
  Ga  Ga3  1  0.24999901  0.24999915  0.24999965  1
