# generated using pymatgen
data_TaSnRu2
_symmetry_space_group_name_H-M   'P 1'
_cell_length_a   4.51802805
_cell_length_b   4.52899714
_cell_length_c   4.51958642
_cell_angle_alpha   59.82265895
_cell_angle_beta   59.83718171
_cell_angle_gamma   59.79450370
_symmetry_Int_Tables_number   1
_chemical_formula_structural   TaSnRu2
_chemical_formula_sum   'Ta1 Sn1 Ru2'
_cell_volume   65.12351767
_cell_formula_units_Z   1
loop_
 _symmetry_equiv_pos_site_id
 _symmetry_equiv_pos_as_xyz
  1  'x, y, z'
loop_
 _atom_site_type_symbol
 _atom_site_label
 _atom_site_symmetry_multiplicity
 _atom_site_fract_x
 _atom_site_fract_y
 _atom_site_fract_z
 _atom_site_occupancy
  Ta  Ta0  1  0.74991358  0.74995001  0.74991907  1
  Sn  Sn1  1  0.24996414  0.24999062  0.25001514  1
  Ru  Ru2  1  -0.00002980  0.00013102  0.00008811  1
  Ru  Ru3  1  0.50015108  0.49992736  0.49997668  1
