# generated using pymatgen
data_PuI2
_symmetry_space_group_name_H-M   'P 1'
_cell_length_a   7.79038043
_cell_length_b   7.79409950
_cell_length_c   4.57503997
_cell_angle_alpha   90.15524037
_cell_angle_beta   89.96825918
_cell_angle_gamma   90.15331763
_symmetry_Int_Tables_number   1
_chemical_formula_structural   PuI2
_chemical_formula_sum   'Pu2 I4'
_cell_volume   277.78979702
_cell_formula_units_Z   2
loop_
 _symmetry_equiv_pos_site_id
 _symmetry_equiv_pos_as_xyz
  1  'x, y, z'
loop_
 _atom_site_type_symbol
 _atom_site_label
 _atom_site_symmetry_multiplicity
 _atom_site_fract_x
 _atom_site_fract_y
 _atom_site_fract_z
 _atom_site_occupancy
  Pu  Pu0  1  0.00000293  0.00000136  0.00000446  1
  Pu  Pu1  1  0.50000001  0.49999809  0.49998992  1
  I  I2  1  0.29519310  0.29519422  0.99986251  1
  I  I3  1  0.70480559  0.70480663  0.00013875  1
  I  I4  1  0.79529976  0.20469579  0.50025173  1
  I  I5  1  0.20469861  0.79530391  0.49975563  1
