# generated using pymatgen
data_Zn2FeS3
_symmetry_space_group_name_H-M   'P 1'
_cell_length_a   3.83808972
_cell_length_b   5.43029002
_cell_length_c   6.65027026
_cell_angle_alpha   65.90342514
_cell_angle_beta   73.22784917
_cell_angle_gamma   90.00000000
_symmetry_Int_Tables_number   1
_chemical_formula_structural   Zn2FeS3
_chemical_formula_sum   'Zn2 Fe1 S3'
_cell_volume   120.03826612
_cell_formula_units_Z   1
loop_
 _symmetry_equiv_pos_site_id
 _symmetry_equiv_pos_as_xyz
  1  'x, y, z'
loop_
 _atom_site_type_symbol
 _atom_site_label
 _atom_site_symmetry_multiplicity
 _atom_site_fract_x
 _atom_site_fract_y
 _atom_site_fract_z
 _atom_site_occupancy
  Zn  Zn0  1  0.00013716  0.00046558  0.99972568  1
  Zn  Zn1  1  0.33319584  0.33352426  0.33360732  1
  Fe  Fe2  1  0.66666700  0.66808941  0.66666700  1
  S  S3  1  0.50139101  0.74877364  0.99721797  1
  S  S4  1  0.83194199  0.07932461  0.33611503  1
  S  S5  1  0.16666700  0.41982251  0.66666700  1
