# generated using pymatgen
data_DyCdRh2
_symmetry_space_group_name_H-M   'P 1'
_cell_length_a   4.70470751
_cell_length_b   4.70471278
_cell_length_c   4.70469966
_cell_angle_alpha   60.00013538
_cell_angle_beta   60.00002536
_cell_angle_gamma   60.00011550
_symmetry_Int_Tables_number   1
_chemical_formula_structural   DyCdRh2
_chemical_formula_sum   'Dy1 Cd1 Rh2'
_cell_volume   73.63487553
_cell_formula_units_Z   1
loop_
 _symmetry_equiv_pos_site_id
 _symmetry_equiv_pos_as_xyz
  1  'x, y, z'
loop_
 _atom_site_type_symbol
 _atom_site_label
 _atom_site_symmetry_multiplicity
 _atom_site_fract_x
 _atom_site_fract_y
 _atom_site_fract_z
 _atom_site_occupancy
  Dy  Dy0  1  0.75000029  0.75000019  0.74999965  1
  Cd  Cd1  1  0.25000075  0.25000095  0.25000074  1
  Rh  Rh2  1  0.49999796  0.49999957  0.50000014  1
  Rh  Rh3  1  0.00000101  -0.00000071  -0.00000053  1
