# generated using pymatgen
data_ScBe13
_symmetry_space_group_name_H-M   'P 1'
_cell_length_a   7.09203075
_cell_length_b   7.09203075
_cell_length_c   7.09203075
_cell_angle_alpha   59.99674929
_cell_angle_beta   59.99674929
_cell_angle_gamma   59.99674929
_symmetry_Int_Tables_number   1
_chemical_formula_structural   ScBe13
_chemical_formula_sum   'Sc2 Be26'
_cell_volume   252.21146370
_cell_formula_units_Z   2
loop_
 _symmetry_equiv_pos_site_id
 _symmetry_equiv_pos_as_xyz
  1  'x, y, z'
loop_
 _atom_site_type_symbol
 _atom_site_label
 _atom_site_symmetry_multiplicity
 _atom_site_fract_x
 _atom_site_fract_y
 _atom_site_fract_z
 _atom_site_occupancy
  Sc  Sc0  1  0.24999864  0.24999864  0.24999864  1
  Sc  Sc1  1  0.75000108  0.75000108  0.75000108  1
  Be  Be2  1  0.29246864  0.06273302  0.93731642  1
  Be  Be3  1  0.06266702  0.29230042  0.70761273  1
  Be  Be4  1  0.70753251  0.93726399  0.06268295  1
  Be  Be5  1  0.93733319  0.70769788  0.29238784  1
  Be  Be6  1  0.93731642  0.29246864  0.06273302  1
  Be  Be7  1  0.06273302  0.93731642  0.29246864  1
  Be  Be8  1  0.29238784  0.93733319  0.70769788  1
  Be  Be9  1  0.29230042  0.70761273  0.06266702  1
  Be  Be10  1  0.70761273  0.06266702  0.29230042  1
  Be  Be11  1  0.93726399  0.06268295  0.70753251  1
  Be  Be12  1  0.06268295  0.70753251  0.93726399  1
  Be  Be13  1  0.70769788  0.29238784  0.93733319  1
  Be  Be14  1  0.43726514  0.20753304  0.56268367  1
  Be  Be15  1  0.20769801  0.43733426  0.79238752  1
  Be  Be16  1  0.56273344  0.79246816  0.43731720  1
  Be  Be17  1  0.79229972  0.56266754  0.20761301  1
  Be  Be18  1  0.20753304  0.56268367  0.43726514  1
  Be  Be19  1  0.56268367  0.43726514  0.20753304  1
  Be  Be20  1  0.56266754  0.20761301  0.79229972  1
  Be  Be21  1  0.79238752  0.20769801  0.43733426  1
  Be  Be22  1  0.43733426  0.79238752  0.20769801  1
  Be  Be23  1  0.43731720  0.56273344  0.79246816  1
  Be  Be24  1  0.79246816  0.43731720  0.56273344  1
  Be  Be25  1  0.20761301  0.79229972  0.56266754  1
  Be  Be26  1  0.00000064  0.00000064  0.00000064  1
  Be  Be27  1  0.49999934  0.49999934  0.49999934  1
