# generated using pymatgen
data_NpSnAu2
_symmetry_space_group_name_H-M   'P 1'
_cell_length_a   5.03314844
_cell_length_b   5.03062055
_cell_length_c   5.03469609
_cell_angle_alpha   59.88508618
_cell_angle_beta   60.01714602
_cell_angle_gamma   60.00414653
_symmetry_Int_Tables_number   1
_chemical_formula_structural   NpSnAu2
_chemical_formula_sum   'Np1 Sn1 Au2'
_cell_volume   90.07633541
_cell_formula_units_Z   1
loop_
 _symmetry_equiv_pos_site_id
 _symmetry_equiv_pos_as_xyz
  1  'x, y, z'
loop_
 _atom_site_type_symbol
 _atom_site_label
 _atom_site_symmetry_multiplicity
 _atom_site_fract_x
 _atom_site_fract_y
 _atom_site_fract_z
 _atom_site_occupancy
  Np  Np0  1  0.25000068  0.25000076  0.25000119  1
  Sn  Sn1  1  0.75000004  0.75000022  0.74999980  1
  Au  Au2  1  0.49998779  0.50001567  0.50000439  1
  Au  Au3  1  0.00001250  -0.00001565  -0.00000438  1
