# generated using pymatgen
data_Li4Fe3(CoO4)3
_symmetry_space_group_name_H-M   'P 1'
_cell_length_a   6.60989380
_cell_length_b   5.90282104
_cell_length_c   5.72661678
_cell_angle_alpha   91.01779180
_cell_angle_beta   102.72223683
_cell_angle_gamma   74.38081110
_symmetry_Int_Tables_number   1
_chemical_formula_structural   Li4Fe3(CoO4)3
_chemical_formula_sum   'Li4 Fe3 Co3 O12'
_cell_volume   209.69641253
_cell_formula_units_Z   1
loop_
 _symmetry_equiv_pos_site_id
 _symmetry_equiv_pos_as_xyz
  1  'x, y, z'
loop_
 _atom_site_type_symbol
 _atom_site_label
 _atom_site_symmetry_multiplicity
 _atom_site_fract_x
 _atom_site_fract_y
 _atom_site_fract_z
 _atom_site_occupancy
  Li  Li0  1  0.98568731  0.01421484  0.01185181  1
  Li  Li1  1  0.68097869  0.31911816  0.65481519  1
  Li  Li2  1  0.33333300  0.66666700  0.33333300  1
  Li  Li3  1  0.33333300  0.66666700  0.83333300  1
  Fe  Fe4  1  0.33333300  0.16666700  0.83333300  1
  Fe  Fe5  1  0.99782784  0.49828752  0.49758087  1
  Fe  Fe6  1  0.66883916  0.83504548  0.16908613  1
  Co  Co7  1  0.33333300  0.16666700  0.33333300  1
  Co  Co8  1  0.99562557  0.49975026  0.00037849  1
  Co  Co9  1  0.67104143  0.83358274  0.66628851  1
  O  O10  1  0.02259757  0.27605437  0.25073582  1
  O  O11  1  0.00537040  0.27808046  0.75272935  1
  O  O12  1  0.64406943  0.05727863  0.41593018  1
  O  O13  1  0.30396942  0.40650600  0.08699163  1
  O  O14  1  0.66129660  0.05525354  0.91393765  1
  O  O15  1  0.31518816  0.40741338  0.57308919  1
  O  O16  1  0.68677076  0.60702557  0.42298846  1
  O  O17  1  0.35147884  0.92591962  0.09357781  1
  O  O18  1  0.68022456  0.61406185  0.91514209  1
  O  O19  1  0.36269658  0.92682700  0.57967437  1
  O  O20  1  0.97989624  0.72630843  0.24367754  1
  O  O21  1  0.98644244  0.71927215  0.75152491  1
