# generated using pymatgen
data_Ta2NbRh
_symmetry_space_group_name_H-M   'P 1'
_cell_length_a   4.58435621
_cell_length_b   4.58433769
_cell_length_c   4.58433615
_cell_angle_alpha   60.00014904
_cell_angle_beta   60.00023910
_cell_angle_gamma   60.00032823
_symmetry_Int_Tables_number   1
_chemical_formula_structural   Ta2NbRh
_chemical_formula_sum   'Ta2 Nb1 Rh1'
_cell_volume   68.12692145
_cell_formula_units_Z   1
loop_
 _symmetry_equiv_pos_site_id
 _symmetry_equiv_pos_as_xyz
  1  'x, y, z'
loop_
 _atom_site_type_symbol
 _atom_site_label
 _atom_site_symmetry_multiplicity
 _atom_site_fract_x
 _atom_site_fract_y
 _atom_site_fract_z
 _atom_site_occupancy
  Ta  Ta0  1  0.99999966  0.00000061  0.99999938  1
  Ta  Ta1  1  0.50000151  0.50000047  0.49999965  1
  Nb  Nb2  1  0.24999924  0.24999919  0.24999988  1
  Rh  Rh3  1  0.74999959  0.74999973  0.75000109  1
