# generated using pymatgen
data_CaCu2(GeO3)4
_symmetry_space_group_name_H-M   'P 1'
_cell_length_a   5.29021104
_cell_length_b   9.15010544
_cell_length_c   10.21065107
_cell_angle_alpha   90.00000000
_cell_angle_beta   104.64715931
_cell_angle_gamma   90.00000000
_symmetry_Int_Tables_number   1
_chemical_formula_structural   CaCu2(GeO3)4
_chemical_formula_sum   'Ca2 Cu4 Ge8 O24'
_cell_volume   478.19399655
_cell_formula_units_Z   2
loop_
 _symmetry_equiv_pos_site_id
 _symmetry_equiv_pos_as_xyz
  1  'x, y, z'
loop_
 _atom_site_type_symbol
 _atom_site_label
 _atom_site_symmetry_multiplicity
 _atom_site_fract_x
 _atom_site_fract_y
 _atom_site_fract_z
 _atom_site_occupancy
  Ca  Ca0  1  0.48351781  0.44883707  0.28892812  1
  Ca  Ca1  1  0.01648219  0.94883707  0.71107188  1
  Cu  Cu2  1  0.99022541  0.66017109  0.23011810  1
  Cu  Cu3  1  0.50977459  0.16017109  0.76988190  1
  Cu  Cu4  1  0.99793645  0.34906482  0.76684902  1
  Cu  Cu5  1  0.50206355  0.84906482  0.23315098  1
  Ge  Ge6  1  0.85964584  0.34715125  0.05258010  1
  Ge  Ge7  1  0.64035416  0.84715125  0.94741990  1
  Ge  Ge8  1  0.13830364  0.64701939  0.94598197  1
  Ge  Ge9  1  0.36169636  0.14701939  0.05401803  1
  Ge  Ge10  1  0.08434022  0.35300253  0.49073893  1
  Ge  Ge11  1  0.41565978  0.85300253  0.50926107  1
  Ge  Ge12  1  0.91835734  0.65204250  0.51351958  1
  Ge  Ge13  1  0.58164266  0.15204250  0.48648042  1
  O  O14  1  0.31774459  0.26643088  0.40803564  1
  O  O15  1  0.18225541  0.76643088  0.59196436  1
  O  O16  1  0.69855604  0.75203865  0.59815475  1
  O  O17  1  0.80144396  0.25203865  0.40184525  1
  O  O18  1  0.20109372  0.30271775  0.10715854  1
  O  O19  1  0.29890628  0.80271775  0.89284146  1
  O  O20  1  0.80776713  0.69941773  0.89475706  1
  O  O21  1  0.69223287  0.19941773  0.10524294  1
  O  O22  1  0.65044500  0.97395632  0.43220232  1
  O  O23  1  0.84955500  0.47395632  0.56779768  1
  O  O24  1  0.34812755  0.02844719  0.58055910  1
  O  O25  1  0.15187245  0.52844719  0.41944090  1
  O  O26  1  0.28366449  0.99428135  0.13872571  1
  O  O27  1  0.21633551  0.49428135  0.86127429  1
  O  O28  1  0.71896932  0.99702309  0.85478611  1
  O  O29  1  0.78103068  0.49702309  0.14521389  1
  O  O30  1  0.76248041  0.35502009  0.87326977  1
  O  O31  1  0.73751959  0.85502009  0.12673023  1
  O  O32  1  0.23602741  0.63101445  0.12776507  1
  O  O33  1  0.26397259  0.13101445  0.87223493  1
  O  O34  1  0.25091073  0.30761472  0.66912067  1
  O  O35  1  0.24908927  0.80761472  0.33087933  1
  O  O36  1  0.73512320  0.68831413  0.33234896  1
  O  O37  1  0.76487680  0.18831413  0.66765104  1
