# generated using pymatgen
data_Al(CoO2)2
_symmetry_space_group_name_H-M   'P 1'
_cell_length_a   5.83773668
_cell_length_b   5.83773626
_cell_length_c   5.83773683
_cell_angle_alpha   60.22815166
_cell_angle_beta   60.22815718
_cell_angle_gamma   60.22815486
_symmetry_Int_Tables_number   1
_chemical_formula_structural   Al(CoO2)2
_chemical_formula_sum   'Al2 Co4 O8'
_cell_volume   141.40214341
_cell_formula_units_Z   2
loop_
 _symmetry_equiv_pos_site_id
 _symmetry_equiv_pos_as_xyz
  1  'x, y, z'
loop_
 _atom_site_type_symbol
 _atom_site_label
 _atom_site_symmetry_multiplicity
 _atom_site_fract_x
 _atom_site_fract_y
 _atom_site_fract_z
 _atom_site_occupancy
  Al  Al0  1  0.62607702  0.62607702  0.62607702  1
  Al  Al1  1  0.37392298  0.37392298  0.37392298  1
  Co  Co2  1  0.00000000  0.50000000  0.00000000  1
  Co  Co3  1  0.00000000  0.00000000  0.00000000  1
  Co  Co4  1  0.50000000  0.00000000  0.00000000  1
  Co  Co5  1  0.00000000  0.00000000  0.50000000  1
  O  O6  1  0.24704436  0.75237979  0.75237979  1
  O  O7  1  0.24762021  0.24762021  0.75295564  1
  O  O8  1  0.24762021  0.75295564  0.24762021  1
  O  O9  1  0.24836033  0.24836033  0.24836033  1
  O  O10  1  0.75237979  0.75237979  0.24704436  1
  O  O11  1  0.75295564  0.24762021  0.24762021  1
  O  O12  1  0.75237979  0.24704436  0.75237979  1
  O  O13  1  0.75163967  0.75163967  0.75163967  1
