# generated using pymatgen
data_Ca8Bi12O25
_symmetry_space_group_name_H-M   'P 1'
_cell_length_a   12.01247018
_cell_length_b   9.34649376
_cell_length_c   27.97260943
_cell_angle_alpha   101.69952777
_cell_angle_beta   108.39409269
_cell_angle_gamma   50.01260591
_symmetry_Int_Tables_number   1
_chemical_formula_structural   Ca8Bi12O25
_chemical_formula_sum   'Ca24 Bi36 O75'
_cell_volume   2283.35012285
_cell_formula_units_Z   3
loop_
 _symmetry_equiv_pos_site_id
 _symmetry_equiv_pos_as_xyz
  1  'x, y, z'
loop_
 _atom_site_type_symbol
 _atom_site_label
 _atom_site_symmetry_multiplicity
 _atom_site_fract_x
 _atom_site_fract_y
 _atom_site_fract_z
 _atom_site_occupancy
  Ca  Ca0  1  0.19840518  0.25327671  0.80997638  1
  Ca  Ca1  1  0.19847815  0.25174828  0.47634388  1
  Ca  Ca2  1  0.48273711  0.25146917  0.85660499  1
  Ca  Ca3  1  0.23420628  0.74853083  0.85660499  1
  Ca  Ca4  1  0.20038025  0.25017716  0.14305936  1
  Ca  Ca5  1  0.23472634  0.74971280  0.52328372  1
  Ca  Ca6  1  0.48443914  0.25028720  0.52328372  1
  Ca  Ca7  1  0.70037494  0.25018277  0.80973898  1
  Ca  Ca8  1  0.45055770  0.74981723  0.80973898  1
  Ca  Ca9  1  0.48409550  0.25175400  0.18985180  1
  Ca  Ca10  1  0.23584949  0.74824600  0.18985180  1
  Ca  Ca11  1  0.70031268  0.25169868  0.47669672  1
  Ca  Ca12  1  0.45201136  0.74830132  0.47669672  1
  Ca  Ca13  1  0.98406687  0.25176561  0.85650512  1
  Ca  Ca14  1  0.73583247  0.74823439  0.85650512  1
  Ca  Ca15  1  0.69841383  0.25328307  0.14332096  1
  Ca  Ca16  1  0.45169691  0.74671693  0.14332096  1
  Ca  Ca17  1  0.98241928  0.25295179  0.52314730  1
  Ca  Ca18  1  0.73537107  0.74704821  0.52314730  1
  Ca  Ca19  1  0.95168189  0.74672329  0.80997638  1
  Ca  Ca20  1  0.98272695  0.25147975  0.18993213  1
  Ca  Ca21  1  0.73420671  0.74852025  0.18993213  1
  Ca  Ca22  1  0.95022644  0.74825172  0.47634388  1
  Ca  Ca23  1  0.95055741  0.74982284  0.14305936  1
  Bi  Bi24  1  0.05446999  0.00014869  0.74125514  1
  Bi  Bi25  1  0.05459133  0.99983751  0.40791487  1
  Bi  Bi26  1  0.11920749  0.26918804  0.66570531  1
  Bi  Bi27  1  0.18592181  0.50000000  0.92656869  1
  Bi  Bi28  1  0.43984915  0.99957136  0.92553709  1
  Bi  Bi29  1  0.11936605  0.26916677  0.33234008  1
  Bi  Bi30  1  0.19159400  0.50000000  0.59298687  1
  Bi  Bi31  1  0.43941642  0.00045277  0.59219858  1
  Bi  Bi32  1  0.30550881  0.50000000  0.74041900  1
  Bi  Bi33  1  0.55461868  0.99985131  0.74125514  1
  Bi  Bi34  1  0.14526479  0.21771866  0.99890319  1
  Bi  Bi35  1  0.19141406  0.50000000  0.25965037  1
  Bi  Bi36  1  0.43939812  0.00044638  0.25887266  1
  Bi  Bi37  1  0.30559321  0.50000000  0.40717096  1
  Bi  Bi38  1  0.55442884  0.00016249  0.40791487  1
  Bi  Bi39  1  0.64552128  0.21760235  0.66566521  1
  Bi  Bi40  1  0.36312362  0.78239765  0.66566521  1
  Bi  Bi41  1  0.69132362  0.50000000  0.92629978  1
  Bi  Bi42  1  0.93942051  0.00042864  0.92553709  1
  Bi  Bi43  1  0.29961250  0.50000000  0.07392021  1
  Bi  Bi44  1  0.05459385  0.99988322  0.07458955  1
  Bi  Bi45  1  0.64519922  0.21783512  0.33236534  1
  Bi  Bi46  1  0.36303434  0.78216488  0.33236534  1
  Bi  Bi47  1  0.68576628  0.50000000  0.59318962  1
  Bi  Bi48  1  0.93986918  0.99954723  0.59219858  1
  Bi  Bi49  1  0.79964557  0.50000000  0.74057461  1
  Bi  Bi50  1  0.61934896  0.26919018  0.99911208  1
  Bi  Bi51  1  0.38853914  0.73080982  0.99911208  1
  Bi  Bi52  1  0.68586662  0.50000000  0.25989237  1
  Bi  Bi53  1  0.93984451  0.99955362  0.25887266  1
  Bi  Bi54  1  0.79952103  0.50000000  0.40714165  1
  Bi  Bi55  1  0.88839553  0.73081196  0.66570531  1
  Bi  Bi56  1  0.80556285  0.50000000  0.07374338  1
  Bi  Bi57  1  0.55447707  0.00011678  0.07458955  1
  Bi  Bi58  1  0.88853282  0.73083323  0.33234008  1
  Bi  Bi59  1  0.86298346  0.78228134  0.99890319  1
  O  O60  1  0.18116652  0.99885171  0.81343955  1
  O  O61  1  0.06554862  0.23923742  0.72698825  1
  O  O62  1  0.18922549  0.25261534  0.89946977  1
  O  O63  1  0.18058604  0.00002388  0.48009736  1
  O  O64  1  0.06579932  0.23853745  0.39352272  1
  O  O65  1  0.18780946  0.25796212  0.56682054  1
  O  O66  1  0.45915516  0.00006660  0.85337421  1
  O  O67  1  0.21415680  0.50000000  0.85485419  1
  O  O68  1  0.09973017  0.74200621  0.76716204  1
  O  O69  1  0.34173637  0.25799379  0.76716204  1
  O  O70  1  0.18000700  0.00118190  0.14677062  1
  O  O71  1  0.47262087  0.23835477  0.93996356  1
  O  O72  1  0.21097564  0.76164523  0.93996356  1
  O  O73  1  0.06737794  0.23461945  0.05986969  1
  O  O74  1  0.18725863  0.25810804  0.23326123  1
  O  O75  1  0.45825747  0.00187392  0.52003770  1
  O  O76  1  0.21738438  0.50000000  0.52213670  1
  O  O77  1  0.09980395  0.74167616  0.43404663  1
  O  O78  1  0.34148011  0.25832384  0.43404663  1
  O  O79  1  0.68001822  0.00114829  0.81343955  1
  O  O80  1  0.43596520  0.50000000  0.81109603  1
  O  O81  1  0.05653879  0.50000000  0.99939309  1
  O  O82  1  0.47316101  0.23684087  0.60703425  1
  O  O83  1  0.21000188  0.76315913  0.60703425  1
  O  O84  1  0.56742700  0.23457700  0.72655597  1
  O  O85  1  0.30200400  0.76542300  0.72655597  1
  O  O86  1  0.68725499  0.25811754  0.89989969  1
  O  O87  1  0.44537253  0.74188246  0.89989969  1
  O  O88  1  0.45921431  0.99995733  0.18671124  1
  O  O89  1  0.21693019  0.50000000  0.18884685  1
  O  O90  1  0.09759960  0.74653625  0.10187047  1
  O  O91  1  0.34413585  0.25346375  0.10187047  1
  O  O92  1  0.68060992  -0.00002388  0.48009736  1
  O  O93  1  0.43555276  0.50000000  0.47791118  1
  O  O94  1  0.47274780  0.23740159  0.27367647  1
  O  O95  1  0.21014939  0.76259841  0.27367647  1
  O  O96  1  0.55642100  0.50000000  0.66604616  1
  O  O97  1  0.56718722  0.23525042  0.39334854  1
  O  O98  1  0.30243764  0.76474958  0.39334854  1
  O  O99  1  0.44149665  0.74723741  0.56589387  1
  O  O100  1  0.68873405  0.25276259  0.56589387  1
  O  O101  1  0.95922176  0.99993340  0.85337421  1
  O  O102  1  0.71694265  0.50000000  0.85551629  1
  O  O103  1  0.84410198  0.25345160  0.76851972  1
  O  O104  1  0.59755358  0.74654840  0.76851972  1
  O  O105  1  0.68118891  0.99881810  0.14677062  1
  O  O106  1  0.43348759  0.50000000  0.14534448  1
  O  O107  1  0.55663372  0.50000000  0.33268401  1
  O  O108  1  0.97274831  0.23734416  0.94030244  1
  O  O109  1  0.71009246  0.76265584  0.94030244  1
  O  O110  1  0.56561001  0.23920692  0.06033423  1
  O  O111  1  0.30481693  0.76079308  0.06033423  1
  O  O112  1  0.68924099  0.25262224  0.23278664  1
  O  O113  1  0.44186323  0.74737776  0.23278664  1
  O  O114  1  0.96013139  0.99812608  0.52003770  1
  O  O115  1  0.71375325  0.50000000  0.52154806  1
  O  O116  1  0.84431860  0.25311823  0.43495880  1
  O  O117  1  0.59743683  0.74688177  0.43495880  1
  O  O118  1  0.93348076  0.50000000  0.81201211  1
  O  O119  1  0.97223322  0.23889141  0.60656504  1
  O  O120  1  0.71112464  0.76110859  0.60656504  1
  O  O121  1  0.80478604  0.76076258  0.72698825  1
  O  O122  1  0.94184083  0.74738466  0.89946977  1
  O  O123  1  0.95917163  0.00004267  0.18671124  1
  O  O124  1  0.71417503  0.50000000  0.18818809  1
  O  O125  1  0.84172137  0.25798172  0.10048203  1
  O  O126  1  0.59970310  0.74201828  0.10048203  1
  O  O127  1  0.93386546  0.50000000  0.47852615  1
  O  O128  1  0.71096750  0.76167923  0.27326772  1
  O  O129  1  0.97264672  0.23832077  0.27326772  1
  O  O130  1  0.80433677  0.76146255  0.39352272  1
  O  O131  1  0.94577158  0.74203788  0.56682054  1
  O  O132  1  0.93598053  0.50000000  0.14443619  1
  O  O133  1  0.80199739  0.76538055  0.05986969  1
  O  O134  1  0.94536667  0.74189196  0.23326123  1
