# generated using pymatgen
data_Zr(CuCl3)2
_symmetry_space_group_name_H-M   'P 1'
_cell_length_a   11.62492047
_cell_length_b   11.12353226
_cell_length_c   6.13916569
_cell_angle_alpha   90.44522119
_cell_angle_beta   90.60974556
_cell_angle_gamma   120.62941356
_symmetry_Int_Tables_number   1
_chemical_formula_structural   Zr(CuCl3)2
_chemical_formula_sum   'Zr3 Cu6 Cl18'
_cell_volume   682.97923088
_cell_formula_units_Z   3
loop_
 _symmetry_equiv_pos_site_id
 _symmetry_equiv_pos_as_xyz
  1  'x, y, z'
loop_
 _atom_site_type_symbol
 _atom_site_label
 _atom_site_symmetry_multiplicity
 _atom_site_fract_x
 _atom_site_fract_y
 _atom_site_fract_z
 _atom_site_occupancy
  Zr  Zr0  1  0.33566246  0.67019311  0.03384986  1
  Zr  Zr1  1  0.00013871  0.99758904  0.49084030  1
  Zr  Zr2  1  0.65644256  0.32509549  0.97445259  1
  Cu  Cu3  1  0.41747583  0.83729731  0.62787532  1
  Cu  Cu4  1  0.10205549  0.20671140  0.88950366  1
  Cu  Cu5  1  0.23801292  0.47353171  0.40989621  1
  Cu  Cu6  1  0.76713647  0.53406367  0.58648929  1
  Cu  Cu7  1  0.90045121  0.80055832  0.11036971  1
  Cu  Cu8  1  0.76816474  0.23173148  0.57315064  1
  Cl  Cl9  1  0.10561843  0.89434701  0.26841955  1
  Cl  Cl10  1  0.22615409  0.76982618  0.79908804  1
  Cl  Cl11  1  0.12354667  0.56179767  0.24736189  1
  Cl  Cl12  1  0.10720995  0.21804076  0.26701332  1
  Cl  Cl13  1  0.22364087  0.44730786  0.78302734  1
  Cl  Cl14  1  0.44097163  0.88277578  0.26792758  1
  Cl  Cl15  1  0.20334838  0.10127361  0.73086038  1
  Cl  Cl16  1  0.43768344  0.55785871  0.25328146  1
  Cl  Cl17  1  0.54087390  0.76567945  0.80415575  1
  Cl  Cl18  1  0.46618474  0.23065538  0.19893093  1
  Cl  Cl19  1  0.56561533  0.44065324  0.74172577  1
  Cl  Cl20  1  0.78937971  0.89501059  0.26810192  1
  Cl  Cl21  1  0.56137049  0.11504009  0.72670369  1
  Cl  Cl22  1  0.77904011  0.55354020  0.21243750  1
  Cl  Cl23  1  0.89023231  0.78178656  0.73107510  1
  Cl  Cl24  1  0.88489814  0.44473361  0.75409834  1
  Cl  Cl25  1  0.77176223  0.22942417  0.20470464  1
  Cl  Cl26  1  0.89322919  0.10977760  0.71925923  1
