# generated using pymatgen
data_Yb3GdSb3
_symmetry_space_group_name_H-M   'P 1'
_cell_length_a   16.48226420
_cell_length_b   9.51603964
_cell_length_c   9.51603973
_cell_angle_alpha   90.00000000
_cell_angle_beta   54.73561006
_cell_angle_gamma   54.73561044
_symmetry_Int_Tables_number   1
_chemical_formula_structural   Yb3GdSb3
_chemical_formula_sum   'Yb12 Gd4 Sb12'
_cell_volume   861.72507714
_cell_formula_units_Z   4
loop_
 _symmetry_equiv_pos_site_id
 _symmetry_equiv_pos_as_xyz
  1  'x, y, z'
loop_
 _atom_site_type_symbol
 _atom_site_label
 _atom_site_symmetry_multiplicity
 _atom_site_fract_x
 _atom_site_fract_y
 _atom_site_fract_z
 _atom_site_occupancy
  Yb  Yb0  1  0.07401139  0.00000000  0.35197722  1
  Yb  Yb1  1  0.17629976  0.50000000  0.00000000  1
  Yb  Yb2  1  0.07446916  0.35106168  0.50000000  1
  Yb  Yb3  1  0.42598861  0.14802278  0.14802278  1
  Yb  Yb4  1  0.42553084  0.50000000  1.00000000  1
  Yb  Yb5  1  0.57446916  0.00000000  0.35106168  1
  Yb  Yb6  1  0.32370024  0.85259953  0.50000000  1
  Yb  Yb7  1  0.57401139  0.35197722  0.50000000  1
  Yb  Yb8  1  0.92553084  0.14893832  0.14893832  1
  Yb  Yb9  1  0.92598861  0.50000000  1.00000000  1
  Yb  Yb10  1  0.82370024  0.00000000  0.85259953  1
  Yb  Yb11  1  0.67629976  0.64740047  0.64740047  1
  Gd  Gd12  1  0.32307862  0.00000000  0.85384276  1
  Gd  Gd13  1  0.17692138  0.64615724  0.64615724  1
  Gd  Gd14  1  0.67692138  0.50000000  0.00000000  1
  Gd  Gd15  1  0.82307862  0.85384276  0.50000000  1
  Sb  Sb16  1  0.00105334  0.37474955  0.24864077  1
  Sb  Sb17  1  0.12419710  0.62610879  0.37685624  1
  Sb  Sb18  1  0.24969411  0.25135923  0.62610879  1
  Sb  Sb19  1  0.37580290  0.87450299  0.12314376  1
  Sb  Sb20  1  0.49894666  0.37685624  0.25135923  1
  Sb  Sb21  1  0.50105334  0.12314376  0.74925254  1
  Sb  Sb22  1  0.25030589  0.75074746  0.87389121  1
  Sb  Sb23  1  0.62419710  0.62549701  0.37474955  1
  Sb  Sb24  1  0.75030589  0.24864077  0.62549701  1
  Sb  Sb25  1  0.87580290  0.87389121  0.12525045  1
  Sb  Sb26  1  0.99894666  0.12525045  0.75074746  1
  Sb  Sb27  1  0.74969411  0.74925254  0.87450299  1
