# generated using pymatgen
data_SmCo3
_symmetry_space_group_name_H-M   'P 1'
_cell_length_a   5.03593476
_cell_length_b   5.03593476
_cell_length_c   8.74618950
_cell_angle_alpha   73.26813867
_cell_angle_beta   73.26813867
_cell_angle_gamma   59.99999626
_symmetry_Int_Tables_number   1
_chemical_formula_structural   SmCo3
_chemical_formula_sum   'Sm3 Co9'
_cell_volume   181.16748061
_cell_formula_units_Z   3
loop_
 _symmetry_equiv_pos_site_id
 _symmetry_equiv_pos_as_xyz
  1  'x, y, z'
loop_
 _atom_site_type_symbol
 _atom_site_label
 _atom_site_symmetry_multiplicity
 _atom_site_fract_x
 _atom_site_fract_y
 _atom_site_fract_z
 _atom_site_occupancy
  Sm  Sm0  1  0.13963464  0.13963464  0.58109607  1
  Sm  Sm1  1  0.86036536  0.86036536  0.41890393  1
  Sm  Sm2  1  -0.00000000  0.00000000  -0.00000000  1
  Co  Co3  1  0.08015751  0.58015809  0.75952632  1
  Co  Co4  1  0.58015809  0.58015809  0.75952632  1
  Co  Co5  1  0.58015809  0.08015751  0.75952632  1
  Co  Co6  1  0.91984249  0.41984191  0.24047368  1
  Co  Co7  1  0.41984191  0.41984191  0.24047368  1
  Co  Co8  1  0.41984191  0.91984249  0.24047368  1
  Co  Co9  1  0.33450463  0.33450463  0.99648610  1
  Co  Co10  1  0.66549537  0.66549537  0.00351390  1
  Co  Co11  1  0.50000000  0.50000000  0.50000000  1
