# generated using pymatgen
data_Ti3VSn2(PO4)6
_symmetry_space_group_name_H-M   'P 1'
_cell_length_a   9.16174307
_cell_length_b   8.61928959
_cell_length_c   8.61928936
_cell_angle_alpha   59.99999900
_cell_angle_beta   61.94001049
_cell_angle_gamma   61.94001007
_symmetry_Int_Tables_number   1
_chemical_formula_structural   Ti3VSn2(PO4)6
_chemical_formula_sum   'Ti3 V1 Sn2 P6 O24'
_cell_volume   494.92241074
_cell_formula_units_Z   1
loop_
 _symmetry_equiv_pos_site_id
 _symmetry_equiv_pos_as_xyz
  1  'x, y, z'
loop_
 _atom_site_type_symbol
 _atom_site_label
 _atom_site_symmetry_multiplicity
 _atom_site_fract_x
 _atom_site_fract_y
 _atom_site_fract_z
 _atom_site_occupancy
  Ti  Ti0  1  0.05950988  0.64683037  0.64683037  1
  Ti  Ti1  1  0.43555104  0.85481599  0.85481599  1
  Ti  Ti2  1  0.96586093  0.34471336  0.34471336  1
  V  V3  1  0.55029309  0.14990264  0.14990264  1
  Sn  Sn4  1  0.95644590  0.01451803  0.01451803  1
  Sn  Sn5  1  0.54098319  0.48633894  0.48633894  1
  P  P6  1  0.25316907  0.25050836  0.53944847  1
  P  P7  1  0.25316907  0.95687310  0.25050836  1
  P  P8  1  0.25316907  0.53944847  0.95687310  1
  P  P9  1  0.75016621  0.46994345  0.03604565  1
  P  P10  1  0.75016621  0.03604565  0.74384469  1
  P  P11  1  0.75016621  0.74384469  0.46994345  1
  O  O12  1  0.08796406  0.13386085  0.27265861  1
  O  O13  1  0.08796406  0.50551647  0.13386085  1
  O  O14  1  0.08796406  0.27265861  0.50551647  1
  O  O15  1  0.27853664  0.06694280  0.71304854  1
  O  O16  1  0.41207130  0.24875143  0.36899743  1
  O  O17  1  0.20869024  0.41676477  0.59411188  1
  O  O18  1  0.27853664  0.94147101  0.06694280  1
  O  O19  1  0.20869024  0.78043210  0.41676477  1
  O  O20  1  0.58262493  0.63141792  0.00584490  1
  O  O21  1  0.20869024  0.59411188  0.78043210  1
  O  O22  1  0.74364724  0.28439929  0.05498948  1
  O  O23  1  0.58262493  0.00584490  0.78011224  1
  O  O24  1  0.41207130  0.97017983  0.24875143  1
  O  O25  1  0.27853664  0.71304854  0.94147101  1
  O  O26  1  0.76504878  0.44264994  0.22331039  1
  O  O27  1  0.41207130  0.36899743  0.97017983  1
  O  O28  1  0.76504878  0.22331039  0.56899090  1
  O  O29  1  0.74364724  0.05498948  0.91696399  1
  O  O30  1  0.76504878  0.56899090  0.44264994  1
  O  O31  1  0.58262493  0.78011224  0.63141792  1
  O  O32  1  0.74364724  0.91696399  0.28439929  1
  O  O33  1  0.91519983  0.69708832  0.50919591  1
  O  O34  1  0.91519983  0.50919591  0.87851594  1
  O  O35  1  0.91519983  0.87851594  0.69708832  1
