# generated using pymatgen
data_Yb4PbS8
_symmetry_space_group_name_H-M   'P 1'
_cell_length_a   4.90685677
_cell_length_b   7.49238978
_cell_length_c   16.90025884
_cell_angle_alpha   77.36500393
_cell_angle_beta   90.00000000
_cell_angle_gamma   90.00000000
_symmetry_Int_Tables_number   1
_chemical_formula_structural   Yb4PbS8
_chemical_formula_sum   'Yb8 Pb2 S16'
_cell_volume   606.27617005
_cell_formula_units_Z   2
loop_
 _symmetry_equiv_pos_site_id
 _symmetry_equiv_pos_as_xyz
  1  'x, y, z'
loop_
 _atom_site_type_symbol
 _atom_site_label
 _atom_site_symmetry_multiplicity
 _atom_site_fract_x
 _atom_site_fract_y
 _atom_site_fract_z
 _atom_site_occupancy
  Yb  Yb0  1  0.25000000  0.11837609  0.75758526  1
  Yb  Yb1  1  0.25000000  0.65299277  0.05134306  1
  Yb  Yb2  1  0.25000000  0.52490529  0.74856656  1
  Yb  Yb3  1  0.25000000  0.37251671  0.44381657  1
  Yb  Yb4  1  0.75000000  0.34150839  0.94814103  1
  Yb  Yb5  1  0.75000000  0.87659400  0.24207040  1
  Yb  Yb6  1  0.75000000  0.62034539  0.55472329  1
  Yb  Yb7  1  0.75000000  0.46913474  0.24988819  1
  Pb  Pb8  1  0.25000000  0.88799294  0.39837651  1
  Pb  Pb9  1  0.75000000  0.10407763  0.60123216  1
  S  S10  1  0.25000000  0.09182405  0.59636719  1
  S  S11  1  0.25000000  0.63734792  0.29128103  1
  S  S12  1  0.25000000  0.56695532  0.89982836  1
  S  S13  1  0.25000000  0.75508594  0.59656391  1
  S  S14  1  0.25000000  0.09351496  0.13716556  1
  S  S15  1  0.25000000  0.23290488  0.89500099  1
  S  S16  1  0.25000000  0.43182810  0.59623868  1
  S  S17  1  0.25000000  0.89256995  0.89681201  1
  S  S18  1  0.75000000  0.11120973  0.10443113  1
  S  S19  1  0.75000000  0.23765489  0.40225212  1
  S  S20  1  0.75000000  0.43754201  0.09799738  1
  S  S21  1  0.75000000  0.91948902  0.86585513  1
  S  S22  1  0.75000000  0.56099149  0.40238126  1
  S  S23  1  0.75000000  0.76954860  0.10339551  1
  S  S24  1  0.75000000  0.35816477  0.70680221  1
  S  S25  1  0.75000000  0.90062441  0.40318449  1
