# generated using pymatgen
data_Y2Th8O19
_symmetry_space_group_name_H-M   'P 1'
_cell_length_a   4.05227843
_cell_length_b   39.04893810
_cell_length_c   37.36346809
_cell_angle_alpha   5.08016540
_cell_angle_beta   57.20724091
_cell_angle_gamma   58.78676265
_symmetry_Int_Tables_number   1
_chemical_formula_structural   Y2Th8O19
_chemical_formula_sum   'Y2 Th8 O19'
_cell_volume   421.78418479
_cell_formula_units_Z   1
loop_
 _symmetry_equiv_pos_site_id
 _symmetry_equiv_pos_as_xyz
  1  'x, y, z'
loop_
 _atom_site_type_symbol
 _atom_site_label
 _atom_site_symmetry_multiplicity
 _atom_site_fract_x
 _atom_site_fract_y
 _atom_site_fract_z
 _atom_site_occupancy
  Y  Y0  1  0.02762136  0.01545131  0.97913887  1
  Y  Y1  1  0.96939830  0.07974095  0.02493910  1
  Th  Th2  1  0.00473129  0.20199312  0.99681251  1
  Th  Th3  1  0.00646047  0.30168846  0.99720892  1
  Th  Th4  1  0.00327664  0.39963516  0.00012179  1
  Th  Th5  1  0.00222427  0.49926357  0.00082655  1
  Th  Th6  1  0.00085484  0.59901536  0.00140517  1
  Th  Th7  1  0.99718892  0.69829823  0.00267760  1
  Th  Th8  1  0.99385420  0.79577150  0.00559922  1
  Th  Th9  1  0.97983934  0.88132992  0.02271505  1
  O  O10  1  0.25714968  0.00265396  0.24591863  1
  O  O11  1  0.24953970  0.09645483  0.25398991  1
  O  O12  1  0.25010952  0.19778224  0.25265822  1
  O  O13  1  0.24884244  0.29688920  0.25394022  1
  O  O14  1  0.24594949  0.39618656  0.25525143  1
  O  O15  1  0.24507017  0.49728564  0.25398181  1
  O  O16  1  0.22505785  0.57913808  0.27580010  1
  O  O17  1  0.24971424  0.69500539  0.25507650  1
  O  O18  1  0.75360187  0.10352748  0.74566346  1
  O  O19  1  0.71948263  0.17100006  0.78515841  1
  O  O20  1  0.77067701  0.31389268  0.73272377  1
  O  O21  1  0.24147686  0.89352413  0.25748872  1
  O  O22  1  0.78360143  0.42823936  0.71423674  1
  O  O23  1  0.75880532  0.50347876  0.74484265  1
  O  O24  1  0.76509567  0.60816907  0.73917069  1
  O  O25  1  0.76029418  0.70541272  0.74300061  1
  O  O26  1  0.75971127  0.80505472  0.74360590  1
  O  O27  1  0.75864139  0.90570209  0.74316412  1
  O  O28  1  0.75181268  0.00309445  0.74676031  1
