# generated using pymatgen
data_TmInNi
_symmetry_space_group_name_H-M   'P 1'
_cell_length_a   3.66149972
_cell_length_b   7.47936188
_cell_length_c   7.50351018
_cell_angle_alpha   119.89359140
_cell_angle_beta   90.00000000
_cell_angle_gamma   90.00000000
_symmetry_Int_Tables_number   1
_chemical_formula_structural   TmInNi
_chemical_formula_sum   'Tm3 In3 Ni3'
_cell_volume   178.14897639
_cell_formula_units_Z   3
loop_
 _symmetry_equiv_pos_site_id
 _symmetry_equiv_pos_as_xyz
  1  'x, y, z'
loop_
 _atom_site_type_symbol
 _atom_site_label
 _atom_site_symmetry_multiplicity
 _atom_site_fract_x
 _atom_site_fract_y
 _atom_site_fract_z
 _atom_site_occupancy
  Tm  Tm0  1  0.50000000  0.59009122  0.00000000  1
  Tm  Tm1  1  0.50000000  0.41018321  0.41058932  1
  Tm  Tm2  1  0.50000000  0.99959388  0.58941068  1
  In  In3  1  -0.00000000  0.25781568  1.00000000  1
  In  In4  1  0.00000000  0.74220426  0.74216920  1
  In  In5  1  0.00000000  0.00003507  0.25783080  1
  Ni  Ni6  1  0.00000000  0.33321312  0.66680490  1
  Ni  Ni7  1  0.00000000  0.66640821  0.33319510  1
  Ni  Ni8  1  0.50000000  0.00035535  1.00000000  1
