# generated using pymatgen
data_VPHO5
_symmetry_space_group_name_H-M   'P 1'
_cell_length_a   5.24604899
_cell_length_b   7.35850181
_cell_length_c   5.18444364
_cell_angle_alpha   109.44590313
_cell_angle_beta   97.68289438
_cell_angle_gamma   106.47388579
_symmetry_Int_Tables_number   1
_chemical_formula_structural   VPHO5
_chemical_formula_sum   'V2 P2 H2 O10'
_cell_volume   175.11948230
_cell_formula_units_Z   2
loop_
 _symmetry_equiv_pos_site_id
 _symmetry_equiv_pos_as_xyz
  1  'x, y, z'
loop_
 _atom_site_type_symbol
 _atom_site_label
 _atom_site_symmetry_multiplicity
 _atom_site_fract_x
 _atom_site_fract_y
 _atom_site_fract_z
 _atom_site_occupancy
  V  V0  1  0.00000000  0.50000000  -0.00000000  1
  V  V1  1  0.00000000  -0.00000000  -0.00000000  1
  P  P2  1  0.35056103  0.22879473  0.67435692  1
  P  P3  1  0.64943897  0.77120527  0.32564308  1
  H  H4  1  0.02227231  0.33554564  0.35049448  1
  H  H5  1  0.97772769  0.66445436  0.64950552  1
  O  O6  1  0.03345391  0.72250192  0.85899138  1
  O  O7  1  0.19649237  0.38576159  0.72498070  1
  O  O8  1  0.34116272  0.65656753  0.28172117  1
  O  O9  1  0.23656043  0.07093044  0.36718285  1
  O  O10  1  0.31433276  0.11722353  0.88019479  1
  O  O11  1  0.68566724  0.88277647  0.11980521  1
  O  O12  1  0.76343957  0.92906956  0.63281715  1
  O  O13  1  0.65883728  0.34343247  0.71827883  1
  O  O14  1  0.80350763  0.61423841  0.27501930  1
  O  O15  1  0.96654609  0.27749808  0.14100862  1
