# generated using pymatgen
data_TeO3
_symmetry_space_group_name_H-M   'P 1'
_cell_length_a   5.24199441
_cell_length_b   5.24199441
_cell_length_c   10.66831215
_cell_angle_alpha   83.47867464
_cell_angle_beta   96.52132536
_cell_angle_gamma   59.96467375
_symmetry_Int_Tables_number   1
_chemical_formula_structural   TeO3
_chemical_formula_sum   'Te4 O12'
_cell_volume   247.14337041
_cell_formula_units_Z   4
loop_
 _symmetry_equiv_pos_site_id
 _symmetry_equiv_pos_as_xyz
  1  'x, y, z'
loop_
 _atom_site_type_symbol
 _atom_site_label
 _atom_site_symmetry_multiplicity
 _atom_site_fract_x
 _atom_site_fract_y
 _atom_site_fract_z
 _atom_site_occupancy
  Te  Te0  1  0.16682658  0.66657457  0.50035645  1
  Te  Te1  1  0.33342543  0.83317342  0.00035645  1
  Te  Te2  1  0.66657457  0.16682658  0.99964355  1
  Te  Te3  1  0.83317342  0.33342543  0.49964355  1
  O  O4  1  0.16996981  0.95115121  0.60645382  1
  O  O5  1  0.57204110  0.92745750  0.89361259  1
  O  O6  1  0.32873508  0.54951383  0.89387721  1
  O  O7  1  0.04884879  0.83003019  0.10645382  1
  O  O8  1  0.07254250  0.42795890  0.39361259  1
  O  O9  1  0.45048617  0.67126492  0.39387721  1
  O  O10  1  0.54951383  0.32873508  0.60612279  1
  O  O11  1  0.92745750  0.57204110  0.60638741  1
  O  O12  1  0.95115121  0.16996981  0.89354618  1
  O  O13  1  0.67126492  0.45048617  0.10612279  1
  O  O14  1  0.42795890  0.07254250  0.10638741  1
  O  O15  1  0.83003019  0.04884879  0.39354618  1
