# generated using pymatgen
data_Ca2CuIrO6
_symmetry_space_group_name_H-M   'P 1'
_cell_length_a   6.48700341
_cell_length_b   6.50047745
_cell_length_c   6.50047679
_cell_angle_alpha   92.10614195
_cell_angle_beta   91.60384048
_cell_angle_gamma   91.60383331
_symmetry_Int_Tables_number   1
_chemical_formula_structural   Ca2CuIrO6
_chemical_formula_sum   'Ca4 Cu2 Ir2 O12'
_cell_volume   273.70809111
_cell_formula_units_Z   2
loop_
 _symmetry_equiv_pos_site_id
 _symmetry_equiv_pos_as_xyz
  1  'x, y, z'
loop_
 _atom_site_type_symbol
 _atom_site_label
 _atom_site_symmetry_multiplicity
 _atom_site_fract_x
 _atom_site_fract_y
 _atom_site_fract_z
 _atom_site_occupancy
  Ca  Ca0  1  0.75000000  0.60068695  0.39931305  1
  Ca  Ca1  1  0.25000000  0.40574901  0.59425099  1
  Ca  Ca2  1  0.62461518  0.74013265  0.88895312  1
  Ca  Ca3  1  0.87538482  0.11104688  0.25986735  1
  Cu  Cu4  1  0.25000000  0.83638250  0.16361750  1
  Cu  Cu5  1  0.75000000  0.18665270  0.81334730  1
  Ir  Ir6  1  0.01202467  0.49751947  0.99970613  1
  Ir  Ir7  1  0.48797533  0.00029387  0.50248053  1
  O  O8  1  0.54487110  0.88144620  0.21053777  1
  O  O9  1  0.95512890  0.78946223  0.11855380  1
  O  O10  1  0.46324696  0.10688546  0.78753990  1
  O  O11  1  0.03675304  0.21246010  0.89311454  1
  O  O12  1  0.20723612  0.02718349  0.38609825  1
  O  O13  1  0.29276388  0.61390175  0.97281651  1
  O  O14  1  0.78202821  0.97102003  0.60840186  1
  O  O15  1  0.71797179  0.39159814  0.02897997  1
  O  O16  1  0.44939195  0.70864542  0.57319405  1
  O  O17  1  0.05060805  0.42680595  0.29135458  1
  O  O18  1  0.57157655  0.27733072  0.43486851  1
  O  O19  1  0.92842345  0.56513149  0.72266928  1
