# generated using pymatgen
data_Zn3Hg
_symmetry_space_group_name_H-M   'P 1'
_cell_length_a   2.87353242
_cell_length_b   2.86300255
_cell_length_c   10.47984786
_cell_angle_alpha   90.00000000
_cell_angle_beta   90.00000000
_cell_angle_gamma   59.87826085
_symmetry_Int_Tables_number   1
_chemical_formula_structural   Zn3Hg
_chemical_formula_sum   'Zn3 Hg1'
_cell_volume   74.57433292
_cell_formula_units_Z   1
loop_
 _symmetry_equiv_pos_site_id
 _symmetry_equiv_pos_as_xyz
  1  'x, y, z'
loop_
 _atom_site_type_symbol
 _atom_site_label
 _atom_site_symmetry_multiplicity
 _atom_site_fract_x
 _atom_site_fract_y
 _atom_site_fract_z
 _atom_site_occupancy
  Zn  Zn0  1  0.66453042  0.67093915  0.62500000  1
  Zn  Zn1  1  0.34248753  0.31502495  0.41467442  1
  Zn  Zn2  1  0.34248753  0.31502495  0.83532558  1
  Hg  Hg3  1  0.65049452  0.69901096  0.12500000  1
