# generated using pymatgen
data_SbOsSe
_symmetry_space_group_name_H-M   'P 1'
_cell_length_a   6.37581381
_cell_length_b   6.45422125
_cell_length_c   6.49828247
_cell_angle_alpha   112.91481264
_cell_angle_beta   90.00000000
_cell_angle_gamma   90.00000000
_symmetry_Int_Tables_number   1
_chemical_formula_structural   SbOsSe
_chemical_formula_sum   'Sb4 Os4 Se4'
_cell_volume   246.30751573
_cell_formula_units_Z   4
loop_
 _symmetry_equiv_pos_site_id
 _symmetry_equiv_pos_as_xyz
  1  'x, y, z'
loop_
 _atom_site_type_symbol
 _atom_site_label
 _atom_site_symmetry_multiplicity
 _atom_site_fract_x
 _atom_site_fract_y
 _atom_site_fract_z
 _atom_site_occupancy
  Sb  Sb0  1  0.13538439  0.85603546  0.12064719  1
  Sb  Sb1  1  0.63538439  0.14396454  0.37935281  1
  Sb  Sb2  1  0.86461561  0.14396454  0.87935281  1
  Sb  Sb3  1  0.36461561  0.85603546  0.62064719  1
  Os  Os4  1  0.50459573  0.71317579  0.19982385  1
  Os  Os5  1  0.00459573  0.28682421  0.30017615  1
  Os  Os6  1  0.49540427  0.28682421  0.80017615  1
  Os  Os7  1  0.99540427  0.71317579  0.69982385  1
  Se  Se8  1  0.86550446  0.65047111  0.31778616  1
  Se  Se9  1  0.36550446  0.34952889  0.18221384  1
  Se  Se10  1  0.13449554  0.34952889  0.68221384  1
  Se  Se11  1  0.63449554  0.65047111  0.81778616  1
