# generated using pymatgen
data_Ni(BiO3)2
_symmetry_space_group_name_H-M   'P 1'
_cell_length_a   4.91306202
_cell_length_b   4.91306202
_cell_length_c   9.87659393
_cell_angle_alpha   90.00000000
_cell_angle_beta   90.00000000
_cell_angle_gamma   90.00000000
_symmetry_Int_Tables_number   1
_chemical_formula_structural   Ni(BiO3)2
_chemical_formula_sum   'Ni2 Bi4 O12'
_cell_volume   238.40298639
_cell_formula_units_Z   2
loop_
 _symmetry_equiv_pos_site_id
 _symmetry_equiv_pos_as_xyz
  1  'x, y, z'
loop_
 _atom_site_type_symbol
 _atom_site_label
 _atom_site_symmetry_multiplicity
 _atom_site_fract_x
 _atom_site_fract_y
 _atom_site_fract_z
 _atom_site_occupancy
  Ni  Ni0  1  0.00000000  -0.00000000  -0.00000000  1
  Ni  Ni1  1  0.50000000  0.50000000  0.50000000  1
  Bi  Bi2  1  0.00000000  0.00000000  0.33284677  1
  Bi  Bi3  1  0.00000000  0.00000000  0.66715323  1
  Bi  Bi4  1  0.50000000  0.50000000  0.16715323  1
  Bi  Bi5  1  0.50000000  0.50000000  0.83284677  1
  O  O6  1  0.18966884  0.81033116  0.16206082  1
  O  O7  1  0.18966884  0.81033116  0.83793918  1
  O  O8  1  0.19965911  0.80034089  0.50000000  1
  O  O9  1  0.30034089  0.30034089  0.00000000  1
  O  O10  1  0.31033116  0.31033116  0.33793918  1
  O  O11  1  0.31033116  0.31033116  0.66206082  1
  O  O12  1  0.68966884  0.68966884  0.33793918  1
  O  O13  1  0.68966884  0.68966884  0.66206082  1
  O  O14  1  0.69965911  0.69965911  0.00000000  1
  O  O15  1  0.80034089  0.19965911  0.50000000  1
  O  O16  1  0.81033116  0.18966884  0.16206082  1
  O  O17  1  0.81033116  0.18966884  0.83793918  1
