# generated using pymatgen
data_Pr(CuO2)2
_symmetry_space_group_name_H-M   'P 1'
_cell_length_a   6.43015480
_cell_length_b   6.42295924
_cell_length_c   6.43015480
_cell_angle_alpha   125.37783661
_cell_angle_beta   80.86256548
_cell_angle_gamma   125.53045020
_symmetry_Int_Tables_number   1
_chemical_formula_structural   Pr(CuO2)2
_chemical_formula_sum   'Pr2 Cu4 O8'
_cell_volume   169.78229362
_cell_formula_units_Z   2
loop_
 _symmetry_equiv_pos_site_id
 _symmetry_equiv_pos_as_xyz
  1  'x, y, z'
loop_
 _atom_site_type_symbol
 _atom_site_label
 _atom_site_symmetry_multiplicity
 _atom_site_fract_x
 _atom_site_fract_y
 _atom_site_fract_z
 _atom_site_occupancy
  Pr  Pr0  1  0.87509720  0.75000000  0.62509720  1
  Pr  Pr1  1  0.12490280  0.25000000  0.37490280  1
  Cu  Cu2  1  0.50000000  0.00000000  0.00000000  1
  Cu  Cu3  1  0.50000000  0.50000000  0.00000000  1
  Cu  Cu4  1  0.50000000  0.00000000  0.50000000  1
  Cu  Cu5  1  0.00000000  0.50000000  0.00000000  1
  O  O6  1  0.81896101  0.67368284  0.20443924  1
  O  O7  1  0.46924460  0.17368284  0.35472182  1
  O  O8  1  0.70570462  0.88534073  0.02945022  1
  O  O9  1  0.85589052  0.38534073  0.67963612  1
  O  O10  1  0.14410848  0.61465927  0.32036388  1
  O  O11  1  0.29429538  0.11465927  0.97054978  1
  O  O12  1  0.53075540  0.82631716  0.64527818  1
  O  O13  1  0.18103899  0.32631716  0.79556076  1
