# generated using pymatgen
data_SmHO2
_symmetry_space_group_name_H-M   'P 1'
_cell_length_a   6.22348253
_cell_length_b   3.79135223
_cell_length_c   4.42980675
_cell_angle_alpha   90.00000000
_cell_angle_beta   109.98124669
_cell_angle_gamma   90.00000000
_symmetry_Int_Tables_number   1
_chemical_formula_structural   SmHO2
_chemical_formula_sum   'Sm2 H2 O4'
_cell_volume   98.23130561
_cell_formula_units_Z   2
loop_
 _symmetry_equiv_pos_site_id
 _symmetry_equiv_pos_as_xyz
  1  'x, y, z'
loop_
 _atom_site_type_symbol
 _atom_site_label
 _atom_site_symmetry_multiplicity
 _atom_site_fract_x
 _atom_site_fract_y
 _atom_site_fract_z
 _atom_site_occupancy
  Sm  Sm0  1  0.19015190  0.25000000  0.33906342  1
  Sm  Sm1  1  0.80984810  0.75000000  0.66093658  1
  H  H2  1  0.39694693  0.75000000  0.02015751  1
  H  H3  1  0.60305307  0.25000000  0.97984249  1
  O  O4  1  0.04848343  0.25000000  0.76573821  1
  O  O5  1  0.43071166  0.75000000  0.25076318  1
  O  O6  1  0.56928834  0.25000000  0.74923682  1
  O  O7  1  0.95151657  0.75000000  0.23426179  1
