# generated using pymatgen
data_MgV2O5
_symmetry_space_group_name_H-M   'P 1'
_cell_length_a   3.43080349
_cell_length_b   4.90130130
_cell_length_c   11.60194941
_cell_angle_alpha   89.99379712
_cell_angle_beta   89.99979909
_cell_angle_gamma   89.99952630
_symmetry_Int_Tables_number   1
_chemical_formula_structural   MgV2O5
_chemical_formula_sum   'Mg2 V4 O10'
_cell_volume   195.09143743
_cell_formula_units_Z   2
loop_
 _symmetry_equiv_pos_site_id
 _symmetry_equiv_pos_as_xyz
  1  'x, y, z'
loop_
 _atom_site_type_symbol
 _atom_site_label
 _atom_site_symmetry_multiplicity
 _atom_site_fract_x
 _atom_site_fract_y
 _atom_site_fract_z
 _atom_site_occupancy
  Mg  Mg0  1  0.74998842  0.82398645  0.24997983  1
  Mg  Mg1  1  0.25001104  0.17602578  0.74993564  1
  V  V2  1  0.24999872  0.39324220  0.09946258  1
  V  V3  1  0.75000476  0.60689531  0.90053127  1
  V  V4  1  0.74999791  0.60644526  0.59941722  1
  V  V5  1  0.25000023  0.39327942  0.40055434  1
  O  O6  1  0.75000239  0.42536241  0.74999810  1
  O  O7  1  0.24999863  0.57464347  0.24998818  1
  O  O8  1  0.74999633  0.56638478  0.07492078  1
  O  O9  1  0.24999909  0.43363378  0.92510857  1
  O  O10  1  0.75000025  0.56637814  0.42510966  1
  O  O11  1  0.25000339  0.43361735  0.57493167  1
  O  O12  1  0.25000689  0.05998708  0.36505739  1
  O  O13  1  0.74999199  0.94027433  0.63497769  1
  O  O14  1  0.74999175  0.93987940  0.86506191  1
  O  O15  1  0.24999922  0.05996384  0.13496519  1
