# generated using pymatgen
data_La3(ZnPd)4
_symmetry_space_group_name_H-M   'P 1'
_cell_length_a   4.21598566
_cell_length_b   7.53696909
_cell_length_c   8.44992810
_cell_angle_alpha   116.48595047
_cell_angle_beta   104.44607335
_cell_angle_gamma   90.00000000
_symmetry_Int_Tables_number   1
_chemical_formula_structural   La3(ZnPd)4
_chemical_formula_sum   'La3 Zn4 Pd4'
_cell_volume   230.79824612
_cell_formula_units_Z   1
loop_
 _symmetry_equiv_pos_site_id
 _symmetry_equiv_pos_as_xyz
  1  'x, y, z'
loop_
 _atom_site_type_symbol
 _atom_site_label
 _atom_site_symmetry_multiplicity
 _atom_site_fract_x
 _atom_site_fract_y
 _atom_site_fract_z
 _atom_site_occupancy
  La  La0  1  0.00000000  0.50000000  -0.00000000  1
  La  La1  1  0.86981859  0.86981859  0.73963717  1
  La  La2  1  0.13018141  0.13018141  0.26036283  1
  Zn  Zn3  1  0.67297987  0.48159302  0.34595974  1
  Zn  Zn4  1  0.67297987  0.86436672  0.34595974  1
  Zn  Zn5  1  0.32702013  0.13563328  0.65404026  1
  Zn  Zn6  1  0.32702013  0.51840698  0.65404026  1
  Pd  Pd7  1  0.78409386  0.28409386  0.56818772  1
  Pd  Pd8  1  0.21590614  0.71590614  0.43181228  1
  Pd  Pd9  1  0.50000000  0.80428157  1.00000000  1
  Pd  Pd10  1  0.50000000  0.19571843  0.00000000  1
