# generated using pymatgen
data_Sr4(NiO3)3
_symmetry_space_group_name_H-M   'P 1'
_cell_length_a   9.54319838
_cell_length_b   9.54317863
_cell_length_c   7.83384228
_cell_angle_alpha   90.00013033
_cell_angle_beta   90.00000000
_cell_angle_gamma   120.00006845
_symmetry_Int_Tables_number   1
_chemical_formula_structural   Sr4(NiO3)3
_chemical_formula_sum   'Sr12 Ni9 O27'
_cell_volume   617.86296027
_cell_formula_units_Z   3
loop_
 _symmetry_equiv_pos_site_id
 _symmetry_equiv_pos_as_xyz
  1  'x, y, z'
loop_
 _atom_site_type_symbol
 _atom_site_label
 _atom_site_symmetry_multiplicity
 _atom_site_fract_x
 _atom_site_fract_y
 _atom_site_fract_z
 _atom_site_occupancy
  Sr  Sr0  1  0.02419139  0.69143725  0.25072292  1
  Sr  Sr1  1  0.00000121  0.35925740  0.99999699  1
  Sr  Sr2  1  0.99999834  0.33209017  0.49999910  1
  Sr  Sr3  1  0.30856238  0.33275814  0.25072482  1
  Sr  Sr4  1  0.33275414  0.30856275  0.74927708  1
  Sr  Sr5  1  0.66723817  0.97580213  0.25072053  1
  Sr  Sr6  1  0.64074381  0.64074260  0.00000301  1
  Sr  Sr7  1  0.33208146  0.00000000  0.50000000  1
  Sr  Sr8  1  0.66790817  0.66790983  0.50000090  1
  Sr  Sr9  1  0.35925100  0.00000000  -0.00000000  1
  Sr  Sr10  1  0.97580424  0.66724186  0.74927518  1
  Sr  Sr11  1  0.69143604  0.02419787  0.74927947  1
  Ni  Ni12  1  0.33333090  0.66667064  0.42124303  1
  Ni  Ni13  1  0.33333568  0.66667071  0.10031617  1
  Ni  Ni14  1  -0.00000289  0.00000000  -0.00000000  1
  Ni  Ni15  1  0.99999466  0.00000181  0.34057726  1
  Ni  Ni16  1  0.99999385  -0.00000181  0.65942274  1
  Ni  Ni17  1  0.33334979  0.66666801  0.75996669  1
  Ni  Ni18  1  0.66666026  0.33332936  0.57875697  1
  Ni  Ni19  1  0.66666397  0.33332929  0.89968383  1
  Ni  Ni20  1  0.66668179  0.33333199  0.24003331  1
  O  O21  1  0.99999491  0.84991819  0.49999987  1
  O  O22  1  0.15310250  0.98918969  0.80075795  1
  O  O23  1  0.18405516  0.68334078  0.95872104  1
  O  O24  1  0.18114414  0.67221087  0.56152403  1
  O  O25  1  0.17323223  0.51951648  0.25894081  1
  O  O26  1  0.01080741  0.16392184  0.80075732  1
  O  O27  1  0.34627568  0.82676829  0.25894119  1
  O  O28  1  0.31666523  0.50071594  0.95872752  1
  O  O29  1  0.32779025  0.50894029  0.56152363  1
  O  O30  1  0.15007572  0.15008181  0.50000013  1
  O  O31  1  0.49105609  0.81885608  0.56152861  1
  O  O32  1  0.49928881  0.81594868  0.95872890  1
  O  O33  1  0.48048572  0.65372383  0.25894297  1
  O  O34  1  0.16391381  0.01081031  0.19924205  1
  O  O35  1  0.50071539  0.31665922  0.04127896  1
  O  O36  1  0.50893327  0.32778913  0.43847597  1
  O  O37  1  0.65371575  0.48048352  0.74105919  1
  O  O38  1  0.83607664  0.84689025  0.80075579  1
  O  O39  1  0.84688457  0.83607816  0.19924268  1
  O  O40  1  0.51950739  0.17323171  0.74105881  1
  O  O41  1  0.81594828  0.49928406  0.04127248  1
  O  O42  1  0.81884996  0.49105971  0.43847637  1
  O  O43  1  0.67220002  0.18114392  0.43847139  1
  O  O44  1  0.68334013  0.18405132  0.04127110  1
  O  O45  1  0.82676188  0.34627617  0.74105703  1
  O  O46  1  0.84991228  0.00000000  0.50000000  1
  O  O47  1  0.98918639  0.15310975  0.19924421  1
