# generated using pymatgen
data_ThReB4
_symmetry_space_group_name_H-M   'P 1'
_cell_length_a   3.74786973
_cell_length_b   6.08595994
_cell_length_c   6.08595994
_cell_angle_alpha   104.06519326
_cell_angle_beta   90.00000000
_cell_angle_gamma   90.00000000
_symmetry_Int_Tables_number   1
_chemical_formula_structural   ThReB4
_chemical_formula_sum   'Th2 Re2 B8'
_cell_volume   134.65524640
_cell_formula_units_Z   2
loop_
 _symmetry_equiv_pos_site_id
 _symmetry_equiv_pos_as_xyz
  1  'x, y, z'
loop_
 _atom_site_type_symbol
 _atom_site_label
 _atom_site_symmetry_multiplicity
 _atom_site_fract_x
 _atom_site_fract_y
 _atom_site_fract_z
 _atom_site_occupancy
  Th  Th0  1  0.00000000  0.30062919  0.69937081  1
  Th  Th1  1  -0.00000000  0.69937081  0.30062919  1
  Re  Re2  1  -0.00000000  0.81756066  0.81756066  1
  Re  Re3  1  -0.00000000  0.18243934  0.18243934  1
  B  B4  1  0.50000000  0.93570782  0.62545881  1
  B  B5  1  0.50000000  0.06429218  0.37454119  1
  B  B6  1  0.50000000  0.62545881  0.93570782  1
  B  B7  1  0.50000000  0.37454119  0.06429218  1
  B  B8  1  0.50000000  0.62806885  0.62806885  1
  B  B9  1  0.50000000  0.37193115  0.37193115  1
  B  B10  1  0.50000000  0.08907765  0.91092235  1
  B  B11  1  0.50000000  0.91092235  0.08907765  1
