# generated using pymatgen
data_GdH2ClO2
_symmetry_space_group_name_H-M   'P 1'
_cell_length_a   3.78451122
_cell_length_b   6.20782267
_cell_length_c   6.80450488
_cell_angle_alpha   111.49302062
_cell_angle_beta   90.00000000
_cell_angle_gamma   90.00000000
_symmetry_Int_Tables_number   1
_chemical_formula_structural   GdH2ClO2
_chemical_formula_sum   'Gd2 H4 Cl2 O4'
_cell_volume   148.74568198
_cell_formula_units_Z   2
loop_
 _symmetry_equiv_pos_site_id
 _symmetry_equiv_pos_as_xyz
  1  'x, y, z'
loop_
 _atom_site_type_symbol
 _atom_site_label
 _atom_site_symmetry_multiplicity
 _atom_site_fract_x
 _atom_site_fract_y
 _atom_site_fract_z
 _atom_site_occupancy
  Gd  Gd0  1  0.75000000  0.69647007  0.87355054  1
  Gd  Gd1  1  0.25000000  0.30352993  0.12644946  1
  H  H2  1  0.25000000  0.88528252  0.22052494  1
  H  H3  1  0.75000000  0.11471748  0.77947506  1
  H  H4  1  0.25000000  0.30693705  0.70020577  1
  H  H5  1  0.75000000  0.69306295  0.29979423  1
  Cl  Cl6  1  0.25000000  0.75347679  0.56367993  1
  Cl  Cl7  1  0.75000000  0.24652321  0.43632007  1
  O  O8  1  0.25000000  0.89933166  0.08191822  1
  O  O9  1  0.75000000  0.10066834  0.91808178  1
  O  O10  1  0.25000000  0.43249399  0.83876892  1
  O  O11  1  0.75000000  0.56750601  0.16123108  1
