# generated using pymatgen
data_BaLaAgSe3
_symmetry_space_group_name_H-M   'P 1'
_cell_length_a   4.40774504
_cell_length_b   7.51277010
_cell_length_c   11.29294719
_cell_angle_alpha   90.00000000
_cell_angle_beta   90.00000000
_cell_angle_gamma   107.05862997
_symmetry_Int_Tables_number   1
_chemical_formula_structural   BaLaAgSe3
_chemical_formula_sum   'Ba2 La2 Ag2 Se6'
_cell_volume   357.50659654
_cell_formula_units_Z   2
loop_
 _symmetry_equiv_pos_site_id
 _symmetry_equiv_pos_as_xyz
  1  'x, y, z'
loop_
 _atom_site_type_symbol
 _atom_site_label
 _atom_site_symmetry_multiplicity
 _atom_site_fract_x
 _atom_site_fract_y
 _atom_site_fract_z
 _atom_site_occupancy
  Ba  Ba0  1  0.74744072  0.49488144  0.25000000  1
  Ba  Ba1  1  0.25255928  0.50511856  0.75000000  1
  La  La2  1  -0.00000000  -0.00000000  0.50000000  1
  La  La3  1  -0.00000000  -0.00000000  -0.00000000  1
  Ag  Ag4  1  0.46778181  0.93556361  0.25000000  1
  Ag  Ag5  1  0.53221819  0.06443639  0.75000000  1
  Se  Se6  1  0.35987150  0.71974300  0.44142643  1
  Se  Se7  1  0.64012850  0.28025700  0.55857357  1
  Se  Se8  1  0.35987150  0.71974300  0.05857357  1
  Se  Se9  1  0.64012850  0.28025700  0.94142643  1
  Se  Se10  1  0.07888517  0.15777033  0.25000000  1
  Se  Se11  1  0.92111483  0.84222967  0.75000000  1
