# generated using pymatgen
data_Ca(FeO2)2
_symmetry_space_group_name_H-M   'P 1'
_cell_length_a   6.22535115
_cell_length_b   6.23294935
_cell_length_c   6.31279050
_cell_angle_alpha   93.24609701
_cell_angle_beta   118.31359903
_cell_angle_gamma   118.85342902
_symmetry_Int_Tables_number   1
_chemical_formula_structural   Ca(FeO2)2
_chemical_formula_sum   'Ca2 Fe4 O8'
_cell_volume   175.45054101
_cell_formula_units_Z   2
loop_
 _symmetry_equiv_pos_site_id
 _symmetry_equiv_pos_as_xyz
  1  'x, y, z'
loop_
 _atom_site_type_symbol
 _atom_site_label
 _atom_site_symmetry_multiplicity
 _atom_site_fract_x
 _atom_site_fract_y
 _atom_site_fract_z
 _atom_site_occupancy
  Ca  Ca0  1  0.25697475  0.13744006  0.87806572  1
  Ca  Ca1  1  0.74314804  0.86227566  0.12170539  1
  Fe  Fe2  1  0.49951636  -0.00045590  0.49984899  1
  Fe  Fe3  1  0.49815796  0.49951535  0.49942870  1
  Fe  Fe4  1  -0.00005599  0.50027798  0.00075853  1
  Fe  Fe5  1  0.00067144  0.49991354  0.49947393  1
  O  O6  1  0.03294701  0.72043722  0.26210789  1
  O  O7  1  0.46774448  0.75336016  0.69918197  1
  O  O8  1  0.44028860  0.70469492  0.25101460  1
  O  O9  1  0.94963705  0.71368212  0.69886177  1
  O  O10  1  0.55999552  0.29533008  0.74881683  1
  O  O11  1  0.53229007  0.24688504  0.30023360  1
  O  O12  1  0.05177880  0.28778996  0.30301305  1
  O  O13  1  0.96690691  0.27885681  0.73748804  1
