# generated using pymatgen
data_SrCdGe
_symmetry_space_group_name_H-M   'P 1'
_cell_length_a   4.66424539
_cell_length_b   7.83942150
_cell_length_c   8.62694115
_cell_angle_alpha   90.00000000
_cell_angle_beta   90.00000000
_cell_angle_gamma   90.00000000
_symmetry_Int_Tables_number   1
_chemical_formula_structural   SrCdGe
_chemical_formula_sum   'Sr4 Cd4 Ge4'
_cell_volume   315.44397885
_cell_formula_units_Z   4
loop_
 _symmetry_equiv_pos_site_id
 _symmetry_equiv_pos_as_xyz
  1  'x, y, z'
loop_
 _atom_site_type_symbol
 _atom_site_label
 _atom_site_symmetry_multiplicity
 _atom_site_fract_x
 _atom_site_fract_y
 _atom_site_fract_z
 _atom_site_occupancy
  Sr  Sr0  1  0.75000000  0.98631025  0.18570626  1
  Sr  Sr1  1  0.75000000  0.48631025  0.31429374  1
  Sr  Sr2  1  0.25000000  0.01368975  0.81429374  1
  Sr  Sr3  1  0.25000000  0.51368975  0.68570626  1
  Cd  Cd4  1  0.75000000  0.85087275  0.56656705  1
  Cd  Cd5  1  0.75000000  0.35087275  0.93343295  1
  Cd  Cd6  1  0.25000000  0.14912725  0.43343295  1
  Cd  Cd7  1  0.25000000  0.64912725  0.06656705  1
  Ge  Ge8  1  0.75000000  0.22444666  0.61148460  1
  Ge  Ge9  1  0.75000000  0.72444666  0.88851540  1
  Ge  Ge10  1  0.25000000  0.77555334  0.38851540  1
  Ge  Ge11  1  0.25000000  0.27555334  0.11148460  1
