# generated using pymatgen
data_DyFe3
_symmetry_space_group_name_H-M   'P 1'
_cell_length_a   5.11554812
_cell_length_b   5.11554812
_cell_length_c   8.62439951
_cell_angle_alpha   72.74804498
_cell_angle_beta   72.74804498
_cell_angle_gamma   60.00000026
_symmetry_Int_Tables_number   1
_chemical_formula_structural   DyFe3
_chemical_formula_sum   'Dy3 Fe9'
_cell_volume   183.63546804
_cell_formula_units_Z   3
loop_
 _symmetry_equiv_pos_site_id
 _symmetry_equiv_pos_as_xyz
  1  'x, y, z'
loop_
 _atom_site_type_symbol
 _atom_site_label
 _atom_site_symmetry_multiplicity
 _atom_site_fract_x
 _atom_site_fract_y
 _atom_site_fract_z
 _atom_site_occupancy
  Dy  Dy0  1  0.14168907  0.14168907  0.57493278  1
  Dy  Dy1  1  0.85831093  0.85831093  0.42506722  1
  Dy  Dy2  1  -0.00000000  -0.00000000  0.00000000  1
  Fe  Fe3  1  0.08273701  0.58056887  0.75612525  1
  Fe  Fe4  1  0.58056887  0.58056887  0.75612525  1
  Fe  Fe5  1  0.58056887  0.08273701  0.75612525  1
  Fe  Fe6  1  0.91726299  0.41943113  0.24387475  1
  Fe  Fe7  1  0.41943113  0.41943113  0.24387475  1
  Fe  Fe8  1  0.41943113  0.91726299  0.24387475  1
  Fe  Fe9  1  0.33286150  0.33286150  0.00141551  1
  Fe  Fe10  1  0.66713850  0.66713850  0.99858449  1
  Fe  Fe11  1  0.50000000  0.50000000  0.50000000  1
