# generated using pymatgen
data_EuSbPd
_symmetry_space_group_name_H-M   'P 1'
_cell_length_a   4.76396425
_cell_length_b   7.70080399
_cell_length_c   8.04227096
_cell_angle_alpha   90.00000000
_cell_angle_beta   90.00000000
_cell_angle_gamma   90.00000000
_symmetry_Int_Tables_number   1
_chemical_formula_structural   EuSbPd
_chemical_formula_sum   'Eu4 Sb4 Pd4'
_cell_volume   295.04160668
_cell_formula_units_Z   4
loop_
 _symmetry_equiv_pos_site_id
 _symmetry_equiv_pos_as_xyz
  1  'x, y, z'
loop_
 _atom_site_type_symbol
 _atom_site_label
 _atom_site_symmetry_multiplicity
 _atom_site_fract_x
 _atom_site_fract_y
 _atom_site_fract_z
 _atom_site_occupancy
  Eu  Eu0  1  0.75000000  0.49265314  0.19921566  1
  Eu  Eu1  1  0.75000000  0.99265314  0.30078434  1
  Eu  Eu2  1  0.25000000  0.50734686  0.80078434  1
  Eu  Eu3  1  0.25000000  0.00734686  0.69921566  1
  Sb  Sb4  1  0.75000000  0.80659181  0.90781902  1
  Sb  Sb5  1  0.75000000  0.30659181  0.59218098  1
  Sb  Sb6  1  0.25000000  0.19340819  0.09218098  1
  Sb  Sb7  1  0.25000000  0.69340819  0.40781902  1
  Pd  Pd8  1  0.75000000  0.18495402  0.91874386  1
  Pd  Pd9  1  0.75000000  0.68495402  0.58125614  1
  Pd  Pd10  1  0.25000000  0.81504598  0.08125614  1
  Pd  Pd11  1  0.25000000  0.31504598  0.41874386  1
