# generated using pymatgen
data_ErH2ClO2
_symmetry_space_group_name_H-M   'P 1'
_cell_length_a   3.59158571
_cell_length_b   6.22372941
_cell_length_c   6.65099164
_cell_angle_alpha   105.91433045
_cell_angle_beta   90.00000000
_cell_angle_gamma   90.00000000
_symmetry_Int_Tables_number   1
_chemical_formula_structural   ErH2ClO2
_chemical_formula_sum   'Er2 H4 Cl2 O4'
_cell_volume   142.97188851
_cell_formula_units_Z   2
loop_
 _symmetry_equiv_pos_site_id
 _symmetry_equiv_pos_as_xyz
  1  'x, y, z'
loop_
 _atom_site_type_symbol
 _atom_site_label
 _atom_site_symmetry_multiplicity
 _atom_site_fract_x
 _atom_site_fract_y
 _atom_site_fract_z
 _atom_site_occupancy
  Er  Er0  1  0.75000000  0.71662676  0.88972378  1
  Er  Er1  1  0.25000000  0.28337324  0.11027622  1
  H  H2  1  0.25000000  0.87164197  0.22947243  1
  H  H3  1  0.75000000  0.12835803  0.77052757  1
  H  H4  1  0.25000000  0.35007180  0.69902304  1
  H  H5  1  0.75000000  0.64992820  0.30097696  1
  Cl  Cl6  1  0.25000000  0.76867435  0.57644932  1
  Cl  Cl7  1  0.75000000  0.23132565  0.42355068  1
  O  O8  1  0.25000000  0.89375992  0.08939595  1
  O  O9  1  0.75000000  0.10624008  0.91060405  1
  O  O10  1  0.25000000  0.45121568  0.84059786  1
  O  O11  1  0.75000000  0.54878432  0.15940214  1
