# generated using pymatgen
data_TmGaNi
_symmetry_space_group_name_H-M   'P 1'
_cell_length_a   4.27660829
_cell_length_b   6.75626494
_cell_length_c   7.23208707
_cell_angle_alpha   90.00000000
_cell_angle_beta   90.00000000
_cell_angle_gamma   90.00000000
_symmetry_Int_Tables_number   1
_chemical_formula_structural   TmGaNi
_chemical_formula_sum   'Tm4 Ga4 Ni4'
_cell_volume   208.96319084
_cell_formula_units_Z   4
loop_
 _symmetry_equiv_pos_site_id
 _symmetry_equiv_pos_as_xyz
  1  'x, y, z'
loop_
 _atom_site_type_symbol
 _atom_site_label
 _atom_site_symmetry_multiplicity
 _atom_site_fract_x
 _atom_site_fract_y
 _atom_site_fract_z
 _atom_site_occupancy
  Tm  Tm0  1  0.75000000  0.48165129  0.69759684  1
  Tm  Tm1  1  0.75000000  0.98165129  0.80240316  1
  Tm  Tm2  1  0.25000000  0.51834871  0.30240316  1
  Tm  Tm3  1  0.25000000  0.01834871  0.19759684  1
  Ga  Ga4  1  0.75000000  0.31790820  0.07951557  1
  Ga  Ga5  1  0.75000000  0.81790820  0.42048443  1
  Ga  Ga6  1  0.25000000  0.68209180  0.92048443  1
  Ga  Ga7  1  0.25000000  0.18209180  0.57951557  1
  Ni  Ni8  1  0.75000000  0.70733654  0.09162927  1
  Ni  Ni9  1  0.75000000  0.20733654  0.40837073  1
  Ni  Ni10  1  0.25000000  0.29266346  0.90837073  1
  Ni  Ni11  1  0.25000000  0.79266346  0.59162927  1
