# generated using pymatgen
data_Li4Mg(HN)3
_symmetry_space_group_name_H-M   'P 1'
_cell_length_a   3.68944974
_cell_length_b   4.80392319
_cell_length_c   6.14959640
_cell_angle_alpha   112.99111840
_cell_angle_beta   107.45609854
_cell_angle_gamma   90.00000000
_symmetry_Int_Tables_number   1
_chemical_formula_structural   Li4Mg(HN)3
_chemical_formula_sum   'Li4 Mg1 H3 N3'
_cell_volume   94.85994920
_cell_formula_units_Z   1
loop_
 _symmetry_equiv_pos_site_id
 _symmetry_equiv_pos_as_xyz
  1  'x, y, z'
loop_
 _atom_site_type_symbol
 _atom_site_label
 _atom_site_symmetry_multiplicity
 _atom_site_fract_x
 _atom_site_fract_y
 _atom_site_fract_z
 _atom_site_occupancy
  Li  Li0  1  0.67206885  0.67070715  0.34413769  1
  Li  Li1  1  0.32793115  0.32656946  0.65586231  1
  Li  Li2  1  0.31916702  0.81820693  0.63833404  1
  Li  Li3  1  0.68083298  0.17987290  0.36166596  1
  Mg  Mg4  1  1.00000000  0.47491535  1.00000000  1
  H  H5  1  0.50000000  0.05897374  1.00000000  1
  H  H6  1  0.10672007  0.00912109  0.21344014  1
  H  H7  1  0.89327993  0.79568095  0.78655986  1
  N  N8  1  0.50000000  0.27307753  0.00000000  1
  N  N9  1  0.16724779  0.90168524  0.33449559  1
  N  N10  1  0.83275221  0.56718965  0.66550441  1
