# generated using pymatgen
data_Y3(CuSi)4
_symmetry_space_group_name_H-M   'P 1'
_cell_length_a   4.13839763
_cell_length_b   6.54563612
_cell_length_c   7.84686320
_cell_angle_alpha   114.65076095
_cell_angle_beta   105.28957996
_cell_angle_gamma   90.00000000
_symmetry_Int_Tables_number   1
_chemical_formula_structural   Y3(CuSi)4
_chemical_formula_sum   'Y3 Cu4 Si4'
_cell_volume   184.87806885
_cell_formula_units_Z   1
loop_
 _symmetry_equiv_pos_site_id
 _symmetry_equiv_pos_as_xyz
  1  'x, y, z'
loop_
 _atom_site_type_symbol
 _atom_site_label
 _atom_site_symmetry_multiplicity
 _atom_site_fract_x
 _atom_site_fract_y
 _atom_site_fract_z
 _atom_site_occupancy
  Y  Y0  1  -0.00000000  0.50000000  -0.00000000  1
  Y  Y1  1  0.87085912  0.87085912  0.74171825  1
  Y  Y2  1  0.12914088  0.12914088  0.25828175  1
  Cu  Cu3  1  0.66852813  0.47934850  0.33705626  1
  Cu  Cu4  1  0.66852813  0.85770776  0.33705626  1
  Cu  Cu5  1  0.33147187  0.14229224  0.66294374  1
  Cu  Cu6  1  0.33147187  0.52065150  0.66294374  1
  Si  Si7  1  0.78371578  0.28371578  0.56743155  1
  Si  Si8  1  0.21628422  0.71628422  0.43256845  1
  Si  Si9  1  0.50000000  0.81559648  -0.00000000  1
  Si  Si10  1  0.50000000  0.18440352  -0.00000000  1
