# generated using pymatgen
data_DyRu2
_symmetry_space_group_name_H-M   'P 1'
_cell_length_a   5.26089043
_cell_length_b   5.26089043
_cell_length_c   8.96529300
_cell_angle_alpha   90.00000000
_cell_angle_beta   90.00000000
_cell_angle_gamma   119.91882562
_symmetry_Int_Tables_number   1
_chemical_formula_structural   DyRu2
_chemical_formula_sum   'Dy4 Ru8'
_cell_volume   215.06428286
_cell_formula_units_Z   4
loop_
 _symmetry_equiv_pos_site_id
 _symmetry_equiv_pos_as_xyz
  1  'x, y, z'
loop_
 _atom_site_type_symbol
 _atom_site_label
 _atom_site_symmetry_multiplicity
 _atom_site_fract_x
 _atom_site_fract_y
 _atom_site_fract_z
 _atom_site_occupancy
  Dy  Dy0  1  0.66672948  0.33327052  0.56664356  1
  Dy  Dy1  1  0.33327052  0.66672948  0.43335644  1
  Dy  Dy2  1  0.33327052  0.66672948  0.06664356  1
  Dy  Dy3  1  0.66672948  0.33327052  0.93335644  1
  Ru  Ru4  1  -0.00000000  -0.00000000  0.50000000  1
  Ru  Ru5  1  -0.00000000  -0.00000000  -0.00000000  1
  Ru  Ru6  1  0.17126961  0.34227482  0.75000000  1
  Ru  Ru7  1  0.17100193  0.82899807  0.75000000  1
  Ru  Ru8  1  0.65772518  0.82873039  0.75000000  1
  Ru  Ru9  1  0.82873039  0.65772518  0.25000000  1
  Ru  Ru10  1  0.82899807  0.17100193  0.25000000  1
  Ru  Ru11  1  0.34227482  0.17126961  0.25000000  1
