# generated using pymatgen
data_LaSb2
_symmetry_space_group_name_H-M   'P 1'
_cell_length_a   4.48334471
_cell_length_b   4.48334471
_cell_length_c   18.67147843
_cell_angle_alpha   90.00000000
_cell_angle_beta   90.00000000
_cell_angle_gamma   90.37795777
_symmetry_Int_Tables_number   1
_chemical_formula_structural   LaSb2
_chemical_formula_sum   'La4 Sb8'
_cell_volume   375.29564249
_cell_formula_units_Z   4
loop_
 _symmetry_equiv_pos_site_id
 _symmetry_equiv_pos_as_xyz
  1  'x, y, z'
loop_
 _atom_site_type_symbol
 _atom_site_label
 _atom_site_symmetry_multiplicity
 _atom_site_fract_x
 _atom_site_fract_y
 _atom_site_fract_z
 _atom_site_occupancy
  La  La0  1  0.36396927  0.36396927  0.89022319  1
  La  La1  1  0.63603073  0.63603073  0.10977681  1
  La  La2  1  0.13603073  0.13603073  0.39022319  1
  La  La3  1  0.86396927  0.86396927  0.60977681  1
  Sb  Sb4  1  0.37040913  0.37040913  0.56318938  1
  Sb  Sb5  1  0.62959087  0.62959087  0.43681062  1
  Sb  Sb6  1  0.12959087  0.12959087  0.06318938  1
  Sb  Sb7  1  0.87040913  0.87040913  0.93681062  1
  Sb  Sb8  1  0.87274076  0.37274076  0.75000000  1
  Sb  Sb9  1  0.62725924  0.12725924  0.25000000  1
  Sb  Sb10  1  0.12725924  0.62725924  0.25000000  1
  Sb  Sb11  1  0.37274076  0.87274076  0.75000000  1
