# generated using pymatgen
data_Ca2Fe2(SiO4)3
_symmetry_space_group_name_H-M   'P 1'
_cell_length_a   10.54848409
_cell_length_b   10.54848437
_cell_length_c   10.54848403
_cell_angle_alpha   109.40212369
_cell_angle_beta   109.60950741
_cell_angle_gamma   109.40212009
_symmetry_Int_Tables_number   1
_chemical_formula_structural   Ca2Fe2(SiO4)3
_chemical_formula_sum   'Ca8 Fe8 Si12 O48'
_cell_volume   903.53789807
_cell_formula_units_Z   4
loop_
 _symmetry_equiv_pos_site_id
 _symmetry_equiv_pos_as_xyz
  1  'x, y, z'
loop_
 _atom_site_type_symbol
 _atom_site_label
 _atom_site_symmetry_multiplicity
 _atom_site_fract_x
 _atom_site_fract_y
 _atom_site_fract_z
 _atom_site_occupancy
  Ca  Ca0  1  0.37141501  0.12141501  0.25000000  1
  Ca  Ca1  1  0.12858499  0.37858499  0.75000000  1
  Ca  Ca2  1  0.75000000  0.12141501  0.37141501  1
  Ca  Ca3  1  0.75000000  0.62141501  0.87141501  1
  Ca  Ca4  1  0.25000000  0.87858499  0.62858499  1
  Ca  Ca5  1  0.87141501  0.62141501  0.25000000  1
  Ca  Ca6  1  0.62858499  0.87858499  0.75000000  1
  Ca  Ca7  1  0.25000000  0.37858499  0.12858499  1
  Fe  Fe8  1  0.00000000  0.00000000  0.00000000  1
  Fe  Fe9  1  0.00000000  0.50000000  0.00000000  1
  Fe  Fe10  1  0.00000000  0.00000000  0.50000000  1
  Fe  Fe11  1  0.00000000  0.50000000  0.50000000  1
  Fe  Fe12  1  0.50000000  0.00000000  0.50000000  1
  Fe  Fe13  1  0.50000000  0.50000000  0.00000000  1
  Fe  Fe14  1  0.50000000  0.50000000  0.50000000  1
  Fe  Fe15  1  0.50000000  0.00000000  0.00000000  1
  Si  Si16  1  0.25000000  0.12764328  0.87764328  1
  Si  Si17  1  0.75000000  0.87235672  0.12235672  1
  Si  Si18  1  0.37500000  0.25000000  0.62500000  1
  Si  Si19  1  0.62235672  0.37235672  0.25000000  1
  Si  Si20  1  0.12500000  0.75000000  0.87500000  1
  Si  Si21  1  0.87764328  0.12764328  0.75000000  1
  Si  Si22  1  0.75000000  0.37235672  0.62235672  1
  Si  Si23  1  0.37764328  0.62764328  0.75000000  1
  Si  Si24  1  0.12235672  0.87235672  0.25000000  1
  Si  Si25  1  0.87500000  0.25000000  0.12500000  1
  Si  Si26  1  0.62500000  0.75000000  0.37500000  1
  Si  Si27  1  0.25000000  0.62764328  0.37764328  1
  O  O28  1  0.30736368  0.50169063  0.38801108  1
  O  O29  1  0.01081908  0.30810012  0.89223274  1
  O  O30  1  0.11270901  0.60549878  0.90923486  1
  O  O31  1  0.19263632  0.58064740  0.19432695  1
  O  O32  1  0.20271896  0.11858634  0.01081908  1
  O  O33  1  0.58413262  0.19189988  0.20271896  1
  O  O34  1  0.60776726  0.19189988  0.48918092  1
  O  O35  1  0.19626391  0.20347415  0.59076514  1
  O  O36  1  0.89223274  0.38141366  0.58413262  1
  O  O37  1  0.30567305  0.91935260  0.30736368  1
  O  O38  1  0.90923486  0.29652585  0.30373609  1
  O  O39  1  0.00721023  0.20347415  0.11270901  1
  O  O40  1  0.19432695  0.50169063  0.61367955  1
  O  O41  1  0.59076514  0.89450122  0.38729099  1
  O  O42  1  0.11198892  0.99830937  0.19263632  1
  O  O43  1  0.49278977  0.60549878  0.19626391  1
  O  O44  1  0.38801108  0.58064740  0.88632045  1
  O  O45  1  0.88632045  0.99830937  0.30567305  1
  O  O46  1  0.61367955  0.91935260  0.11198892  1
  O  O47  1  0.10776726  0.61858634  0.41586738  1
  O  O48  1  0.91586738  0.11858634  0.60776726  1
  O  O49  1  0.38729099  0.29652585  0.49278977  1
  O  O50  1  0.30373609  0.89450122  0.00721023  1
  O  O51  1  0.29728104  0.30810012  0.91586738  1
  O  O52  1  0.69263632  0.49830937  0.61198892  1
  O  O53  1  0.98918092  0.69189988  0.10776726  1
  O  O54  1  0.88729099  0.39450122  0.09076514  1
  O  O55  1  0.80736368  0.41935260  0.80567305  1
  O  O56  1  0.79728104  0.88141366  0.98918092  1
  O  O57  1  0.41586738  0.80810012  0.79728104  1
  O  O58  1  0.39223274  0.80810012  0.51081908  1
  O  O59  1  0.80373609  0.79652585  0.40923486  1
  O  O60  1  0.70271896  0.69189988  0.08413262  1
  O  O61  1  0.69626391  0.10549878  0.99278977  1
  O  O62  1  0.61270901  0.70347415  0.50721023  1
  O  O63  1  0.51081908  0.61858634  0.70271896  1
  O  O64  1  0.08413262  0.88141366  0.39223274  1
  O  O65  1  0.38632045  0.08064740  0.88801108  1
  O  O66  1  0.11367955  0.00169063  0.69432695  1
  O  O67  1  0.61198892  0.41935260  0.11367955  1
  O  O68  1  0.50721023  0.39450122  0.80373609  1
  O  O69  1  0.88801108  0.00169063  0.80736368  1
  O  O70  1  0.40923486  0.10549878  0.61270901  1
  O  O71  1  0.80567305  0.49830937  0.38632045  1
  O  O72  1  0.99278977  0.79652585  0.88729099  1
  O  O73  1  0.09076514  0.70347415  0.69626391  1
  O  O74  1  0.69432695  0.08064740  0.69263632  1
  O  O75  1  0.48918092  0.38141366  0.29728104  1
