# generated using pymatgen
data_TbAsPd
_symmetry_space_group_name_H-M   'P 1'
_cell_length_a   4.17731775
_cell_length_b   7.07956095
_cell_length_c   7.98060000
_cell_angle_alpha   90.00000000
_cell_angle_beta   90.00000000
_cell_angle_gamma   90.00000000
_symmetry_Int_Tables_number   1
_chemical_formula_structural   TbAsPd
_chemical_formula_sum   'Tb4 As4 Pd4'
_cell_volume   236.01487758
_cell_formula_units_Z   4
loop_
 _symmetry_equiv_pos_site_id
 _symmetry_equiv_pos_as_xyz
  1  'x, y, z'
loop_
 _atom_site_type_symbol
 _atom_site_label
 _atom_site_symmetry_multiplicity
 _atom_site_fract_x
 _atom_site_fract_y
 _atom_site_fract_z
 _atom_site_occupancy
  Tb  Tb0  1  0.75000000  0.97048328  0.19141630  1
  Tb  Tb1  1  0.75000000  0.47048328  0.30858370  1
  Tb  Tb2  1  0.25000000  0.02951672  0.80858370  1
  Tb  Tb3  1  0.25000000  0.52951672  0.69141630  1
  As  As4  1  0.75000000  0.24967223  0.61965814  1
  As  As5  1  0.75000000  0.74967223  0.88034186  1
  As  As6  1  0.25000000  0.75032777  0.38034186  1
  As  As7  1  0.25000000  0.25032777  0.11965814  1
  Pd  Pd8  1  0.75000000  0.85511318  0.56263249  1
  Pd  Pd9  1  0.75000000  0.35511318  0.93736751  1
  Pd  Pd10  1  0.25000000  0.14488682  0.43736751  1
  Pd  Pd11  1  0.25000000  0.64488682  0.06263249  1
