# generated using pymatgen
data_ZrCuSn
_symmetry_space_group_name_H-M   'P 1'
_cell_length_a   4.44164923
_cell_length_b   6.62692860
_cell_length_c   7.81274503
_cell_angle_alpha   90.00000000
_cell_angle_beta   90.00000000
_cell_angle_gamma   90.00000000
_symmetry_Int_Tables_number   1
_chemical_formula_structural   ZrCuSn
_chemical_formula_sum   'Zr4 Cu4 Sn4'
_cell_volume   229.96418353
_cell_formula_units_Z   4
loop_
 _symmetry_equiv_pos_site_id
 _symmetry_equiv_pos_as_xyz
  1  'x, y, z'
loop_
 _atom_site_type_symbol
 _atom_site_label
 _atom_site_symmetry_multiplicity
 _atom_site_fract_x
 _atom_site_fract_y
 _atom_site_fract_z
 _atom_site_occupancy
  Zr  Zr0  1  0.75000000  0.99939846  0.77947751  1
  Zr  Zr1  1  0.75000000  0.49939846  0.72052249  1
  Zr  Zr2  1  0.25000000  0.00060154  0.22052249  1
  Zr  Zr3  1  0.25000000  0.50060154  0.27947751  1
  Cu  Cu4  1  0.75000000  0.30277404  0.08449845  1
  Cu  Cu5  1  0.75000000  0.80277404  0.41550155  1
  Cu  Cu6  1  0.25000000  0.69722596  0.91550155  1
  Cu  Cu7  1  0.25000000  0.19722596  0.58449845  1
  Sn  Sn8  1  0.75000000  0.72600462  0.08692204  1
  Sn  Sn9  1  0.75000000  0.22600462  0.41307796  1
  Sn  Sn10  1  0.25000000  0.27399538  0.91307796  1
  Sn  Sn11  1  0.25000000  0.77399538  0.58692204  1
