# generated using pymatgen
data_LuCo3
_symmetry_space_group_name_H-M   'P 1'
_cell_length_a   4.92042769
_cell_length_b   4.92042769
_cell_length_c   8.54166176
_cell_angle_alpha   73.26023720
_cell_angle_beta   73.26023720
_cell_angle_gamma   60.00000122
_symmetry_Int_Tables_number   1
_chemical_formula_structural   LuCo3
_chemical_formula_sum   'Lu3 Co9'
_cell_volume   168.89800119
_cell_formula_units_Z   3
loop_
 _symmetry_equiv_pos_site_id
 _symmetry_equiv_pos_as_xyz
  1  'x, y, z'
loop_
 _atom_site_type_symbol
 _atom_site_label
 _atom_site_symmetry_multiplicity
 _atom_site_fract_x
 _atom_site_fract_y
 _atom_site_fract_z
 _atom_site_occupancy
  Lu  Lu0  1  0.13973553  0.13973553  0.58079341  1
  Lu  Lu1  1  0.86026447  0.86026447  0.41920659  1
  Lu  Lu2  1  -0.00000000  0.00000000  -0.00000000  1
  Co  Co3  1  0.07890752  0.58340743  0.75427762  1
  Co  Co4  1  0.58340743  0.58340743  0.75427762  1
  Co  Co5  1  0.58340743  0.07890752  0.75427762  1
  Co  Co6  1  0.92109248  0.41659257  0.24572238  1
  Co  Co7  1  0.41659257  0.41659257  0.24572238  1
  Co  Co8  1  0.41659257  0.92109248  0.24572238  1
  Co  Co9  1  0.33458135  0.33458135  0.99625596  1
  Co  Co10  1  0.66541865  0.66541865  0.00374404  1
  Co  Co11  1  0.50000000  0.50000000  0.50000000  1
