# generated using pymatgen
data_BaSiPt
_symmetry_space_group_name_H-M   'P 1'
_cell_length_a   6.72667347
_cell_length_b   6.72667347
_cell_length_c   6.72667347
_cell_angle_alpha   90.00000000
_cell_angle_beta   90.00000000
_cell_angle_gamma   90.00000000
_symmetry_Int_Tables_number   1
_chemical_formula_structural   BaSiPt
_chemical_formula_sum   'Ba4 Si4 Pt4'
_cell_volume   304.36943581
_cell_formula_units_Z   4
loop_
 _symmetry_equiv_pos_site_id
 _symmetry_equiv_pos_as_xyz
  1  'x, y, z'
loop_
 _atom_site_type_symbol
 _atom_site_label
 _atom_site_symmetry_multiplicity
 _atom_site_fract_x
 _atom_site_fract_y
 _atom_site_fract_z
 _atom_site_occupancy
  Ba  Ba0  1  0.88670430  0.88670430  0.88670430  1
  Ba  Ba1  1  0.61329570  0.11329570  0.38670430  1
  Ba  Ba2  1  0.11329570  0.38670430  0.61329570  1
  Ba  Ba3  1  0.38670430  0.61329570  0.11329570  1
  Si  Si4  1  0.59714570  0.59714570  0.59714570  1
  Si  Si5  1  0.90285430  0.40285430  0.09714570  1
  Si  Si6  1  0.40285430  0.09714570  0.90285430  1
  Si  Si7  1  0.09714570  0.90285430  0.40285430  1
  Pt  Pt8  1  0.15565627  0.15565627  0.15565627  1
  Pt  Pt9  1  0.34434373  0.84434373  0.65565627  1
  Pt  Pt10  1  0.84434373  0.65565627  0.34434373  1
  Pt  Pt11  1  0.65565627  0.34434373  0.84434373  1
