# generated using pymatgen
data_TiCuGe
_symmetry_space_group_name_H-M   'P 1'
_cell_length_a   3.80473596
_cell_length_b   6.29771406
_cell_length_c   7.34017803
_cell_angle_alpha   90.00000000
_cell_angle_beta   90.00000000
_cell_angle_gamma   90.00000000
_symmetry_Int_Tables_number   1
_chemical_formula_structural   TiCuGe
_chemical_formula_sum   'Ti4 Cu4 Ge4'
_cell_volume   175.87902716
_cell_formula_units_Z   4
loop_
 _symmetry_equiv_pos_site_id
 _symmetry_equiv_pos_as_xyz
  1  'x, y, z'
loop_
 _atom_site_type_symbol
 _atom_site_label
 _atom_site_symmetry_multiplicity
 _atom_site_fract_x
 _atom_site_fract_y
 _atom_site_fract_z
 _atom_site_occupancy
  Ti  Ti0  1  0.75000000  0.47503102  0.68071592  1
  Ti  Ti1  1  0.75000000  0.97503102  0.81928408  1
  Ti  Ti2  1  0.25000000  0.52496898  0.31928408  1
  Ti  Ti3  1  0.25000000  0.02496898  0.18071592  1
  Cu  Cu4  1  0.75000000  0.35061285  0.06267234  1
  Cu  Cu5  1  0.75000000  0.85061285  0.43732766  1
  Cu  Cu6  1  0.25000000  0.64938715  0.93732766  1
  Cu  Cu7  1  0.25000000  0.14938715  0.56267234  1
  Ge  Ge8  1  0.75000000  0.73891818  0.12344301  1
  Ge  Ge9  1  0.75000000  0.23891818  0.37655699  1
  Ge  Ge10  1  0.25000000  0.26108182  0.87655699  1
  Ge  Ge11  1  0.25000000  0.76108182  0.62344301  1
