# generated using pymatgen
data_V4ZnO8
_symmetry_space_group_name_H-M   'P 1'
_cell_length_a   3.01946024
_cell_length_b   7.37595396
_cell_length_c   7.50303241
_cell_angle_alpha   79.90930257
_cell_angle_beta   78.25275714
_cell_angle_gamma   78.07996817
_symmetry_Int_Tables_number   1
_chemical_formula_structural   V4ZnO8
_chemical_formula_sum   'V4 Zn1 O8'
_cell_volume   158.52133170
_cell_formula_units_Z   1
loop_
 _symmetry_equiv_pos_site_id
 _symmetry_equiv_pos_as_xyz
  1  'x, y, z'
loop_
 _atom_site_type_symbol
 _atom_site_label
 _atom_site_symmetry_multiplicity
 _atom_site_fract_x
 _atom_site_fract_y
 _atom_site_fract_z
 _atom_site_occupancy
  V  V0  1  0.62104987  0.17794142  0.56667860  1
  V  V1  1  0.13484558  0.51228300  0.20168219  1
  V  V2  1  0.83349352  0.48242989  0.83524049  1
  V  V3  1  0.35108589  0.80194459  0.49285101  1
  Zn  Zn4  1  0.33439026  0.13164090  0.20196811  1
  O  O5  1  0.85184254  0.66643332  0.62074579  1
  O  O6  1  0.45688246  0.32364272  0.74646940  1
  O  O7  1  0.52763187  0.64025723  0.28680987  1
  O  O8  1  0.13146476  0.30982636  0.41378970  1
  O  O9  1  0.16562389  0.01601771  0.64279948  1
  O  O10  1  0.77939445  0.32715766  0.09963958  1
  O  O11  1  0.83379384  0.98474546  0.34656355  1
  O  O12  1  0.20653806  0.60726474  0.96119423  1
