# generated using pymatgen
data_DyAsPd
_symmetry_space_group_name_H-M   'P 1'
_cell_length_a   4.14923795
_cell_length_b   7.05347155
_cell_length_c   7.95879430
_cell_angle_alpha   90.00000000
_cell_angle_beta   90.00000000
_cell_angle_gamma   90.00000000
_symmetry_Int_Tables_number   1
_chemical_formula_structural   DyAsPd
_chemical_formula_sum   'Dy4 As4 Pd4'
_cell_volume   232.92630675
_cell_formula_units_Z   4
loop_
 _symmetry_equiv_pos_site_id
 _symmetry_equiv_pos_as_xyz
  1  'x, y, z'
loop_
 _atom_site_type_symbol
 _atom_site_label
 _atom_site_symmetry_multiplicity
 _atom_site_fract_x
 _atom_site_fract_y
 _atom_site_fract_z
 _atom_site_occupancy
  Dy  Dy0  1  0.75000000  0.97021361  0.19142270  1
  Dy  Dy1  1  0.75000000  0.47021361  0.30857730  1
  Dy  Dy2  1  0.25000000  0.02978639  0.80857730  1
  Dy  Dy3  1  0.25000000  0.52978639  0.69142270  1
  As  As4  1  0.75000000  0.25007617  0.61985932  1
  As  As5  1  0.75000000  0.75007617  0.88014068  1
  As  As6  1  0.25000000  0.74992383  0.38014068  1
  As  As7  1  0.25000000  0.24992383  0.11985932  1
  Pd  Pd8  1  0.75000000  0.85516398  0.56281490  1
  Pd  Pd9  1  0.75000000  0.35516398  0.93718510  1
  Pd  Pd10  1  0.25000000  0.14483602  0.43718510  1
  Pd  Pd11  1  0.25000000  0.64483602  0.06281490  1
