# generated using pymatgen
data_GdNi3
_symmetry_space_group_name_H-M   'P 1'
_cell_length_a   4.93883736
_cell_length_b   4.93883736
_cell_length_c   8.67270205
_cell_angle_alpha   73.45701396
_cell_angle_beta   73.45701396
_cell_angle_gamma   59.99999863
_symmetry_Int_Tables_number   1
_chemical_formula_structural   GdNi3
_chemical_formula_sum   'Gd3 Ni9'
_cell_volume   173.01867146
_cell_formula_units_Z   3
loop_
 _symmetry_equiv_pos_site_id
 _symmetry_equiv_pos_as_xyz
  1  'x, y, z'
loop_
 _atom_site_type_symbol
 _atom_site_label
 _atom_site_symmetry_multiplicity
 _atom_site_fract_x
 _atom_site_fract_y
 _atom_site_fract_z
 _atom_site_occupancy
  Gd  Gd0  1  0.00000000  0.00000000  -0.00000000  1
  Gd  Gd1  1  0.13884419  0.13884419  0.58346744  1
  Gd  Gd2  1  0.86115581  0.86115581  0.41653256  1
  Ni  Ni3  1  0.50000000  0.50000000  0.50000000  1
  Ni  Ni4  1  0.33284666  0.33284666  0.00146001  1
  Ni  Ni5  1  0.66715334  0.66715334  0.99853999  1
  Ni  Ni6  1  0.08212140  0.58139826  0.75508208  1
  Ni  Ni7  1  0.58139826  0.58139826  0.75508208  1
  Ni  Ni8  1  0.58139826  0.08212140  0.75508208  1
  Ni  Ni9  1  0.91787860  0.41860174  0.24491792  1
  Ni  Ni10  1  0.41860174  0.41860174  0.24491792  1
  Ni  Ni11  1  0.41860174  0.91787860  0.24491792  1
