# generated using pymatgen
data_TbRu2
_symmetry_space_group_name_H-M   'P 1'
_cell_length_a   5.27105483
_cell_length_b   5.27105483
_cell_length_c   9.00059508
_cell_angle_alpha   90.00000000
_cell_angle_beta   90.00000000
_cell_angle_gamma   120.01207026
_symmetry_Int_Tables_number   1
_chemical_formula_structural   TbRu2
_chemical_formula_sum   'Tb4 Ru8'
_cell_volume   216.54296958
_cell_formula_units_Z   4
loop_
 _symmetry_equiv_pos_site_id
 _symmetry_equiv_pos_as_xyz
  1  'x, y, z'
loop_
 _atom_site_type_symbol
 _atom_site_label
 _atom_site_symmetry_multiplicity
 _atom_site_fract_x
 _atom_site_fract_y
 _atom_site_fract_z
 _atom_site_occupancy
  Tb  Tb0  1  0.66670355  0.33329645  0.56676694  1
  Tb  Tb1  1  0.33329645  0.66670355  0.43323306  1
  Tb  Tb2  1  0.33329645  0.66670355  0.06676694  1
  Tb  Tb3  1  0.66670355  0.33329645  0.93323306  1
  Ru  Ru4  1  -0.00000000  -0.00000000  0.50000000  1
  Ru  Ru5  1  -0.00000000  -0.00000000  -0.00000000  1
  Ru  Ru6  1  0.17135921  0.34255474  0.75000000  1
  Ru  Ru7  1  0.17118622  0.82881378  0.75000000  1
  Ru  Ru8  1  0.65744526  0.82864079  0.75000000  1
  Ru  Ru9  1  0.82864079  0.65744526  0.25000000  1
  Ru  Ru10  1  0.82881378  0.17118622  0.25000000  1
  Ru  Ru11  1  0.34255474  0.17135921  0.25000000  1
