# generated using pymatgen
data_NbNiGe
_symmetry_space_group_name_H-M   'P 1'
_cell_length_a   3.76452170
_cell_length_b   6.33835193
_cell_length_c   7.26310926
_cell_angle_alpha   90.00000000
_cell_angle_beta   90.00000000
_cell_angle_gamma   90.00000000
_symmetry_Int_Tables_number   1
_chemical_formula_structural   NbNiGe
_chemical_formula_sum   'Nb4 Ni4 Ge4'
_cell_volume   173.30405779
_cell_formula_units_Z   4
loop_
 _symmetry_equiv_pos_site_id
 _symmetry_equiv_pos_as_xyz
  1  'x, y, z'
loop_
 _atom_site_type_symbol
 _atom_site_label
 _atom_site_symmetry_multiplicity
 _atom_site_fract_x
 _atom_site_fract_y
 _atom_site_fract_z
 _atom_site_occupancy
  Nb  Nb0  1  0.75000000  0.47797326  0.67111704  1
  Nb  Nb1  1  0.75000000  0.97797326  0.82888296  1
  Nb  Nb2  1  0.25000000  0.52202674  0.32888296  1
  Nb  Nb3  1  0.25000000  0.02202674  0.17111704  1
  Ni  Ni4  1  0.75000000  0.34525227  0.06296250  1
  Ni  Ni5  1  0.75000000  0.84525227  0.43703750  1
  Ni  Ni6  1  0.25000000  0.65474773  0.93703750  1
  Ni  Ni7  1  0.25000000  0.15474773  0.56296250  1
  Ge  Ge8  1  0.75000000  0.72001180  0.12402093  1
  Ge  Ge9  1  0.75000000  0.22001180  0.37597907  1
  Ge  Ge10  1  0.25000000  0.27998820  0.87597907  1
  Ge  Ge11  1  0.25000000  0.77998820  0.62402093  1
