# generated using pymatgen
data_ThTlCuSe3
_symmetry_space_group_name_H-M   'P 1'
_cell_length_a   4.21505898
_cell_length_b   7.54876261
_cell_length_c   10.97762400
_cell_angle_alpha   90.00000000
_cell_angle_beta   90.00000000
_cell_angle_gamma   106.21178751
_symmetry_Int_Tables_number   1
_chemical_formula_structural   ThTlCuSe3
_chemical_formula_sum   'Th2 Tl2 Cu2 Se6'
_cell_volume   335.40217966
_cell_formula_units_Z   2
loop_
 _symmetry_equiv_pos_site_id
 _symmetry_equiv_pos_as_xyz
  1  'x, y, z'
loop_
 _atom_site_type_symbol
 _atom_site_label
 _atom_site_symmetry_multiplicity
 _atom_site_fract_x
 _atom_site_fract_y
 _atom_site_fract_z
 _atom_site_occupancy
  Th  Th0  1  0.00000000  0.00000000  0.50000000  1
  Th  Th1  1  0.00000000  0.00000000  0.00000000  1
  Tl  Tl2  1  0.74847572  0.49695144  0.25000000  1
  Tl  Tl3  1  0.25152428  0.50304856  0.75000000  1
  Cu  Cu4  1  0.46535774  0.93071548  0.25000000  1
  Cu  Cu5  1  0.53464226  0.06928452  0.75000000  1
  Se  Se6  1  0.36954650  0.73909299  0.43482812  1
  Se  Se7  1  0.63045350  0.26090701  0.56517188  1
  Se  Se8  1  0.36954650  0.73909299  0.06517188  1
  Se  Se9  1  0.63045350  0.26090701  0.93482812  1
  Se  Se10  1  0.06647251  0.13294502  0.25000000  1
  Se  Se11  1  0.93352749  0.86705498  0.75000000  1
