# generated using pymatgen
data_LaAs2
_symmetry_space_group_name_H-M   'P 1'
_cell_length_a   4.23862051
_cell_length_b   6.98826874
_cell_length_c   10.37395175
_cell_angle_alpha   90.00000000
_cell_angle_beta   96.10042066
_cell_angle_gamma   90.00000000
_symmetry_Int_Tables_number   1
_chemical_formula_structural   LaAs2
_chemical_formula_sum   'La4 As8'
_cell_volume   305.54278207
_cell_formula_units_Z   4
loop_
 _symmetry_equiv_pos_site_id
 _symmetry_equiv_pos_as_xyz
  1  'x, y, z'
loop_
 _atom_site_type_symbol
 _atom_site_label
 _atom_site_symmetry_multiplicity
 _atom_site_fract_x
 _atom_site_fract_y
 _atom_site_fract_z
 _atom_site_occupancy
  La  La0  1  0.72748555  0.81467233  0.63893166  1
  La  La1  1  0.77251445  0.31467233  0.86106834  1
  La  La2  1  0.27251445  0.18532767  0.36106834  1
  La  La3  1  0.22748555  0.68532767  0.13893166  1
  As  As4  1  0.20788348  0.14742093  0.67102061  1
  As  As5  1  0.29211652  0.64742093  0.82897939  1
  As  As6  1  0.79211652  0.85257907  0.32897939  1
  As  As7  1  0.70788348  0.35257907  0.17102061  1
  As  As8  1  0.67224041  0.87698522  0.94965893  1
  As  As9  1  0.82775959  0.37698522  0.55034107  1
  As  As10  1  0.32775959  0.12301478  0.05034107  1
  As  As11  1  0.17224041  0.62301478  0.44965893  1
