# generated using pymatgen
data_NdSiIr
_symmetry_space_group_name_H-M   'P 1'
_cell_length_a   6.36526566
_cell_length_b   6.36526566
_cell_length_c   6.36526566
_cell_angle_alpha   90.00000000
_cell_angle_beta   90.00000000
_cell_angle_gamma   90.00000000
_symmetry_Int_Tables_number   1
_chemical_formula_structural   NdSiIr
_chemical_formula_sum   'Nd4 Si4 Ir4'
_cell_volume   257.89896670
_cell_formula_units_Z   4
loop_
 _symmetry_equiv_pos_site_id
 _symmetry_equiv_pos_as_xyz
  1  'x, y, z'
loop_
 _atom_site_type_symbol
 _atom_site_label
 _atom_site_symmetry_multiplicity
 _atom_site_fract_x
 _atom_site_fract_y
 _atom_site_fract_z
 _atom_site_occupancy
  Nd  Nd0  1  0.86804753  0.86804753  0.86804753  1
  Nd  Nd1  1  0.63195247  0.13195247  0.36804753  1
  Nd  Nd2  1  0.13195247  0.36804753  0.63195247  1
  Nd  Nd3  1  0.36804753  0.63195247  0.13195247  1
  Si  Si4  1  0.58371854  0.58371854  0.58371854  1
  Si  Si5  1  0.91628146  0.41628146  0.08371854  1
  Si  Si6  1  0.41628146  0.08371854  0.91628146  1
  Si  Si7  1  0.08371854  0.91628146  0.41628146  1
  Ir  Ir8  1  0.18200636  0.18200636  0.18200636  1
  Ir  Ir9  1  0.31799364  0.81799364  0.68200636  1
  Ir  Ir10  1  0.81799364  0.68200636  0.31799364  1
  Ir  Ir11  1  0.68200636  0.31799364  0.81799364  1
