# generated using pymatgen
data_YbAlPt
_symmetry_space_group_name_H-M   'P 1'
_cell_length_a   4.21060469
_cell_length_b   7.16715488
_cell_length_c   7.86925860
_cell_angle_alpha   90.00000000
_cell_angle_beta   90.00000000
_cell_angle_gamma   90.00000000
_symmetry_Int_Tables_number   1
_chemical_formula_structural   YbAlPt
_chemical_formula_sum   'Yb4 Al4 Pt4'
_cell_volume   237.47892633
_cell_formula_units_Z   4
loop_
 _symmetry_equiv_pos_site_id
 _symmetry_equiv_pos_as_xyz
  1  'x, y, z'
loop_
 _atom_site_type_symbol
 _atom_site_label
 _atom_site_symmetry_multiplicity
 _atom_site_fract_x
 _atom_site_fract_y
 _atom_site_fract_z
 _atom_site_occupancy
  Yb  Yb0  1  0.75000000  0.47183419  0.17344824  1
  Yb  Yb1  1  0.75000000  0.97183419  0.32655176  1
  Yb  Yb2  1  0.25000000  0.52816581  0.82655176  1
  Yb  Yb3  1  0.25000000  0.02816581  0.67344824  1
  Al  Al4  1  0.75000000  0.36125501  0.56214247  1
  Al  Al5  1  0.75000000  0.86125501  0.93785753  1
  Al  Al6  1  0.25000000  0.63874499  0.43785753  1
  Al  Al7  1  0.25000000  0.13874499  0.06214247  1
  Pt  Pt8  1  0.75000000  0.21843465  0.87700885  1
  Pt  Pt9  1  0.75000000  0.71843465  0.62299115  1
  Pt  Pt10  1  0.25000000  0.78156535  0.12299115  1
  Pt  Pt11  1  0.25000000  0.28156535  0.37700885  1
