# generated using pymatgen
data_U2Co3Si
_symmetry_space_group_name_H-M   'P 1'
_cell_length_a   5.13048010
_cell_length_b   5.13002182
_cell_length_c   7.50793545
_cell_angle_alpha   90.00000000
_cell_angle_beta   90.00000000
_cell_angle_gamma   120.02563996
_symmetry_Int_Tables_number   1
_chemical_formula_structural   U2Co3Si
_chemical_formula_sum   'U4 Co6 Si2'
_cell_volume   171.08664760
_cell_formula_units_Z   2
loop_
 _symmetry_equiv_pos_site_id
 _symmetry_equiv_pos_as_xyz
  1  'x, y, z'
loop_
 _atom_site_type_symbol
 _atom_site_label
 _atom_site_symmetry_multiplicity
 _atom_site_fract_x
 _atom_site_fract_y
 _atom_site_fract_z
 _atom_site_occupancy
  U  U0  1  0.66678241  0.33313942  0.57084948  1
  U  U1  1  0.33321759  0.66686058  0.42915052  1
  U  U2  1  0.33321759  0.66686058  0.07084948  1
  U  U3  1  0.66678241  0.33313942  0.92915052  1
  Co  Co4  1  0.16734933  0.33380012  0.75000000  1
  Co  Co5  1  0.16704070  0.83280029  0.75000000  1
  Co  Co6  1  0.66613616  0.83257772  0.75000000  1
  Co  Co7  1  0.83265067  0.66619988  0.25000000  1
  Co  Co8  1  0.83295930  0.16719971  0.25000000  1
  Co  Co9  1  0.33386384  0.16742228  0.25000000  1
  Si  Si10  1  -0.00000000  -0.00000000  0.50000000  1
  Si  Si11  1  -0.00000000  -0.00000000  0.00000000  1
