# generated using pymatgen
data_NaFe(SO4)2
_symmetry_space_group_name_H-M   'P 1'
_cell_length_a   4.85617484
_cell_length_b   4.85617484
_cell_length_c   7.42596314
_cell_angle_alpha   89.50238536
_cell_angle_beta   89.50238536
_cell_angle_gamma   64.72957140
_symmetry_Int_Tables_number   1
_chemical_formula_structural   NaFe(SO4)2
_chemical_formula_sum   'Na1 Fe1 S2 O8'
_cell_volume   158.35523655
_cell_formula_units_Z   1
loop_
 _symmetry_equiv_pos_site_id
 _symmetry_equiv_pos_as_xyz
  1  'x, y, z'
loop_
 _atom_site_type_symbol
 _atom_site_label
 _atom_site_symmetry_multiplicity
 _atom_site_fract_x
 _atom_site_fract_y
 _atom_site_fract_z
 _atom_site_occupancy
  Na  Na0  1  -0.00000000  -0.00000000  0.50000000  1
  Fe  Fe1  1  -0.00000000  -0.00000000  0.00000000  1
  S  S2  1  0.64437996  0.64437996  0.21579312  1
  S  S3  1  0.35562004  0.35562004  0.78420688  1
  O  O4  1  0.76296372  0.76296372  0.06253055  1
  O  O5  1  0.23703628  0.23703628  0.93746945  1
  O  O6  1  0.71887485  0.71887485  0.39242275  1
  O  O7  1  0.28112515  0.28112515  0.60757725  1
  O  O8  1  0.77143784  0.30338844  0.19707427  1
  O  O9  1  0.30338844  0.77143784  0.19707427  1
  O  O10  1  0.22856216  0.69661156  0.80292573  1
  O  O11  1  0.69661156  0.22856216  0.80292573  1
