# generated using pymatgen
data_CaCr4O8
_symmetry_space_group_name_H-M   'P 1'
_cell_length_a   3.03184830
_cell_length_b   7.09524346
_cell_length_c   7.13777639
_cell_angle_alpha   80.63932731
_cell_angle_beta   77.73769236
_cell_angle_gamma   77.66240260
_symmetry_Int_Tables_number   1
_chemical_formula_structural   CaCr4O8
_chemical_formula_sum   'Ca1 Cr4 O8'
_cell_volume   145.46735027
_cell_formula_units_Z   1
loop_
 _symmetry_equiv_pos_site_id
 _symmetry_equiv_pos_as_xyz
  1  'x, y, z'
loop_
 _atom_site_type_symbol
 _atom_site_label
 _atom_site_symmetry_multiplicity
 _atom_site_fract_x
 _atom_site_fract_y
 _atom_site_fract_z
 _atom_site_occupancy
  Ca  Ca0  1  0.41141815  0.07836693  0.09898807  1
  Cr  Cr1  1  0.63477331  0.17232757  0.55828442  1
  Cr  Cr2  1  0.14012256  0.50422654  0.21564281  1
  Cr  Cr3  1  0.83374120  0.48988719  0.84277502  1
  Cr  Cr4  1  0.34361187  0.81123875  0.50162604  1
  O  O5  1  0.85187685  0.67081757  0.62550761  1
  O  O6  1  0.44808434  0.32336872  0.78063101  1
  O  O7  1  0.53074257  0.65559073  0.28297229  1
  O  O8  1  0.12506310  0.31966170  0.43036081  1
  O  O9  1  0.15507793  0.01273185  0.67731108  1
  O  O10  1  0.77864770  0.33767291  0.10513471  1
  O  O11  1  0.83426415  0.97570742  0.35593891  1
  O  O12  1  0.21005727  0.62451112  0.95547322  1
