# generated using pymatgen
data_CsDyZnSe3
_symmetry_space_group_name_H-M   'P 1'
_cell_length_a   4.32258415
_cell_length_b   8.37790097
_cell_length_c   10.98138949
_cell_angle_alpha   90.00000000
_cell_angle_beta   90.00000000
_cell_angle_gamma   104.94995908
_symmetry_Int_Tables_number   1
_chemical_formula_structural   CsDyZnSe3
_chemical_formula_sum   'Cs2 Dy2 Zn2 Se6'
_cell_volume   384.22109873
_cell_formula_units_Z   2
loop_
 _symmetry_equiv_pos_site_id
 _symmetry_equiv_pos_as_xyz
  1  'x, y, z'
loop_
 _atom_site_type_symbol
 _atom_site_label
 _atom_site_symmetry_multiplicity
 _atom_site_fract_x
 _atom_site_fract_y
 _atom_site_fract_z
 _atom_site_occupancy
  Cs  Cs0  1  0.74134678  0.48269356  0.25000000  1
  Cs  Cs1  1  0.25865322  0.51730644  0.75000000  1
  Dy  Dy2  1  -0.00000000  -0.00000000  0.50000000  1
  Dy  Dy3  1  -0.00000000  -0.00000000  0.00000000  1
  Zn  Zn4  1  0.46087520  0.92175040  0.25000000  1
  Zn  Zn5  1  0.53912480  0.07824960  0.75000000  1
  Se  Se6  1  0.38588040  0.77176080  0.44270685  1
  Se  Se7  1  0.61411960  0.22823920  0.55729315  1
  Se  Se8  1  0.38588040  0.77176080  0.05729315  1
  Se  Se9  1  0.61411960  0.22823920  0.94270685  1
  Se  Se10  1  0.05295740  0.10591480  0.25000000  1
  Se  Se11  1  0.94704260  0.89408520  0.75000000  1
