# generated using pymatgen
data_EuI2
_symmetry_space_group_name_H-M   'P 1'
_cell_length_a   4.93951116
_cell_length_b   8.44439536
_cell_length_c   12.45722142
_cell_angle_alpha   90.00000000
_cell_angle_beta   90.00000000
_cell_angle_gamma   90.00000000
_symmetry_Int_Tables_number   1
_chemical_formula_structural   EuI2
_chemical_formula_sum   'Eu4 I8'
_cell_volume   519.60546873
_cell_formula_units_Z   4
loop_
 _symmetry_equiv_pos_site_id
 _symmetry_equiv_pos_as_xyz
  1  'x, y, z'
loop_
 _atom_site_type_symbol
 _atom_site_label
 _atom_site_symmetry_multiplicity
 _atom_site_fract_x
 _atom_site_fract_y
 _atom_site_fract_z
 _atom_site_occupancy
  Eu  Eu0  1  0.75000000  0.87223081  0.82834995  1
  Eu  Eu1  1  0.75000000  0.62776919  0.32834995  1
  Eu  Eu2  1  0.25000000  0.12776919  0.17165005  1
  Eu  Eu3  1  0.25000000  0.37223081  0.67165005  1
  I  I4  1  0.25000000  0.12492625  0.89196153  1
  I  I5  1  0.25000000  0.37507375  0.39196153  1
  I  I6  1  0.75000000  0.87507375  0.10803847  1
  I  I7  1  0.75000000  0.62492625  0.60803847  1
  I  I8  1  0.25000000  0.62313427  0.87736269  1
  I  I9  1  0.25000000  0.87686573  0.37736269  1
  I  I10  1  0.75000000  0.37686573  0.12263731  1
  I  I11  1  0.75000000  0.12313427  0.62263731  1
