# generated using pymatgen
data_TmAlAu
_symmetry_space_group_name_H-M   'P 1'
_cell_length_a   4.40020584
_cell_length_b   7.09697497
_cell_length_c   7.81476601
_cell_angle_alpha   90.00000000
_cell_angle_beta   90.00000000
_cell_angle_gamma   90.00000000
_symmetry_Int_Tables_number   1
_chemical_formula_structural   TmAlAu
_chemical_formula_sum   'Tm4 Al4 Au4'
_cell_volume   244.04069072
_cell_formula_units_Z   4
loop_
 _symmetry_equiv_pos_site_id
 _symmetry_equiv_pos_as_xyz
  1  'x, y, z'
loop_
 _atom_site_type_symbol
 _atom_site_label
 _atom_site_symmetry_multiplicity
 _atom_site_fract_x
 _atom_site_fract_y
 _atom_site_fract_z
 _atom_site_occupancy
  Tm  Tm0  1  0.75000000  0.48936346  0.19185666  1
  Tm  Tm1  1  0.75000000  0.98936346  0.30814334  1
  Tm  Tm2  1  0.25000000  0.51063654  0.80814334  1
  Tm  Tm3  1  0.25000000  0.01063654  0.69185666  1
  Al  Al4  1  0.75000000  0.33315289  0.57368611  1
  Al  Al5  1  0.75000000  0.83315289  0.92631389  1
  Al  Al6  1  0.25000000  0.66684711  0.42631389  1
  Al  Al7  1  0.25000000  0.16684711  0.07368611  1
  Au  Au8  1  0.75000000  0.21673331  0.89701828  1
  Au  Au9  1  0.75000000  0.71673331  0.60298172  1
  Au  Au10  1  0.25000000  0.78326669  0.10298172  1
  Au  Au11  1  0.25000000  0.28326669  0.39701828  1
