# generated using pymatgen
data_TiNiP
_symmetry_space_group_name_H-M   'P 1'
_cell_length_a   3.55657300
_cell_length_b   6.04928587
_cell_length_c   6.94421951
_cell_angle_alpha   90.00000000
_cell_angle_beta   90.00000000
_cell_angle_gamma   90.00000000
_symmetry_Int_Tables_number   1
_chemical_formula_structural   TiNiP
_chemical_formula_sum   'Ti4 Ni4 P4'
_cell_volume   149.40298556
_cell_formula_units_Z   4
loop_
 _symmetry_equiv_pos_site_id
 _symmetry_equiv_pos_as_xyz
  1  'x, y, z'
loop_
 _atom_site_type_symbol
 _atom_site_label
 _atom_site_symmetry_multiplicity
 _atom_site_fract_x
 _atom_site_fract_y
 _atom_site_fract_z
 _atom_site_occupancy
  Ti  Ti0  1  0.75000000  0.47279290  0.67418018  1
  Ti  Ti1  1  0.75000000  0.97279290  0.82581982  1
  Ti  Ti2  1  0.25000000  0.52720710  0.32581982  1
  Ti  Ti3  1  0.25000000  0.02720710  0.17418018  1
  Ni  Ni4  1  0.75000000  0.35276172  0.06308945  1
  Ni  Ni5  1  0.75000000  0.85276172  0.43691055  1
  Ni  Ni6  1  0.25000000  0.64723828  0.93691055  1
  Ni  Ni7  1  0.25000000  0.14723828  0.56308945  1
  P  P8  1  0.75000000  0.73074312  0.12441779  1
  P  P9  1  0.75000000  0.23074312  0.37558221  1
  P  P10  1  0.25000000  0.26925688  0.87558221  1
  P  P11  1  0.25000000  0.76925688  0.62441779  1
