# generated using pymatgen
data_Mg2V2(SiO4)3
_symmetry_space_group_name_H-M   'P 1'
_cell_length_a   10.20290026
_cell_length_b   10.20290095
_cell_length_c   10.20290060
_cell_angle_alpha   109.89024477
_cell_angle_beta   109.89024600
_cell_angle_gamma   108.63638545
_symmetry_Int_Tables_number   1
_chemical_formula_structural   Mg2V2(SiO4)3
_chemical_formula_sum   'Mg8 V8 Si12 O48'
_cell_volume   817.48544052
_cell_formula_units_Z   4
loop_
 _symmetry_equiv_pos_site_id
 _symmetry_equiv_pos_as_xyz
  1  'x, y, z'
loop_
 _atom_site_type_symbol
 _atom_site_label
 _atom_site_symmetry_multiplicity
 _atom_site_fract_x
 _atom_site_fract_y
 _atom_site_fract_z
 _atom_site_occupancy
  Mg  Mg0  1  0.25000000  0.37057808  0.12057808  1
  Mg  Mg1  1  0.37057808  0.75000000  0.12057808  1
  Mg  Mg2  1  0.12942192  0.25000000  0.37942192  1
  Mg  Mg3  1  0.75000000  0.12942192  0.37942192  1
  Mg  Mg4  1  0.75000000  0.62942192  0.87942192  1
  Mg  Mg5  1  0.62942192  0.25000000  0.87942192  1
  Mg  Mg6  1  0.87057808  0.75000000  0.62057808  1
  Mg  Mg7  1  0.25000000  0.87057808  0.62057808  1
  V  V8  1  0.50000000  0.50000000  0.50000000  1
  V  V9  1  0.50000000  0.50000000  0.00000000  1
  V  V10  1  0.50000000  0.00000000  0.50000000  1
  V  V11  1  0.50000000  0.00000000  0.00000000  1
  V  V12  1  0.00000000  0.00000000  0.50000000  1
  V  V13  1  0.00000000  0.50000000  0.00000000  1
  V  V14  1  0.00000000  0.00000000  0.00000000  1
  V  V15  1  0.00000000  0.50000000  0.50000000  1
  Si  Si16  1  0.75000000  0.87418667  0.12418667  1
  Si  Si17  1  0.37418667  0.25000000  0.62418667  1
  Si  Si18  1  0.62500000  0.37500000  0.25000000  1
  Si  Si19  1  0.12581333  0.75000000  0.87581333  1
  Si  Si20  1  0.12500000  0.87500000  0.25000000  1
  Si  Si21  1  0.87500000  0.12500000  0.75000000  1
  Si  Si22  1  0.75000000  0.37418667  0.62418667  1
  Si  Si23  1  0.37500000  0.62500000  0.75000000  1
  Si  Si24  1  0.25000000  0.62581333  0.37581333  1
  Si  Si25  1  0.62581333  0.75000000  0.37581333  1
  Si  Si26  1  0.87418667  0.25000000  0.12418667  1
  Si  Si27  1  0.25000000  0.12581333  0.87581333  1
  O  O28  1  0.69895309  0.68746009  0.07680002  1
  O  O29  1  0.68746009  0.11065907  0.98850600  1
  O  O30  1  0.62215308  0.69895309  0.51149400  1
  O  O31  1  0.51172695  0.60751949  0.70421864  1
  O  O32  1  0.09669915  0.89248051  0.40420746  1
  O  O33  1  0.39242481  0.08123002  0.87493282  1
  O  O34  1  0.10757519  0.98250801  0.68880622  1
  O  O35  1  0.60751949  0.40330085  0.09579254  1
  O  O36  1  0.51749199  0.39242481  0.81119378  1
  O  O37  1  0.89248051  0.98827305  0.79578136  1
  O  O38  1  0.41876998  0.10757519  0.62506718  1
  O  O39  1  0.80750731  0.51172695  0.40420746  1
  O  O40  1  0.98250801  0.79370280  0.87493282  1
  O  O41  1  0.08123002  0.70629720  0.68880622  1
  O  O42  1  0.69249269  0.09669915  0.70421864  1
  O  O43  1  0.11065907  0.62215308  0.42319998  1
  O  O44  1  0.81253991  0.80104691  0.42319998  1
  O  O45  1  0.38934093  0.81253991  0.51149400  1
  O  O46  1  0.40330085  0.80750731  0.79578136  1
  O  O47  1  0.80104691  0.87784692  0.98850600  1
  O  O48  1  0.79370280  0.41876998  0.81119378  1
  O  O49  1  0.87784692  0.38934093  0.07680002  1
  O  O50  1  0.98827305  0.69249269  0.09579254  1
  O  O51  1  0.70629720  0.51749199  0.62506718  1
  O  O52  1  0.30104691  0.31253991  0.92319998  1
  O  O53  1  0.31253991  0.88934093  0.01149400  1
  O  O54  1  0.37784692  0.30104691  0.48850600  1
  O  O55  1  0.48827305  0.39248051  0.29578136  1
  O  O56  1  0.90330085  0.10751949  0.59579254  1
  O  O57  1  0.60757519  0.91876998  0.12506718  1
  O  O58  1  0.89242481  0.01749199  0.31119378  1
  O  O59  1  0.39248051  0.59669915  0.90420746  1
  O  O60  1  0.48250801  0.60757519  0.18880622  1
  O  O61  1  0.10751949  0.01172695  0.20421864  1
  O  O62  1  0.58123002  0.89242481  0.37493282  1
  O  O63  1  0.19249269  0.48827305  0.59579254  1
  O  O64  1  0.01749199  0.20629720  0.12506718  1
  O  O65  1  0.91876998  0.29370280  0.31119378  1
  O  O66  1  0.30750731  0.90330085  0.29578136  1
  O  O67  1  0.88934093  0.37784692  0.57680002  1
  O  O68  1  0.18746009  0.19895309  0.57680002  1
  O  O69  1  0.61065907  0.18746009  0.48850600  1
  O  O70  1  0.59669915  0.19249269  0.20421864  1
  O  O71  1  0.19895309  0.12215308  0.01149400  1
  O  O72  1  0.20629720  0.58123002  0.18880622  1
  O  O73  1  0.12215308  0.61065907  0.92319998  1
  O  O74  1  0.01172695  0.30750731  0.90420746  1
  O  O75  1  0.29370280  0.48250801  0.37493282  1
