# generated using pymatgen
data_NdRu2
_symmetry_space_group_name_H-M   'P 1'
_cell_length_a   5.33165610
_cell_length_b   5.33165610
_cell_length_c   9.18197470
_cell_angle_alpha   90.00000000
_cell_angle_beta   90.00000000
_cell_angle_gamma   120.02147101
_symmetry_Int_Tables_number   1
_chemical_formula_structural   NdRu2
_chemical_formula_sum   'Nd4 Ru8'
_cell_volume   225.99403598
_cell_formula_units_Z   4
loop_
 _symmetry_equiv_pos_site_id
 _symmetry_equiv_pos_as_xyz
  1  'x, y, z'
loop_
 _atom_site_type_symbol
 _atom_site_label
 _atom_site_symmetry_multiplicity
 _atom_site_fract_x
 _atom_site_fract_y
 _atom_site_fract_z
 _atom_site_occupancy
  Nd  Nd0  1  0.66668558  0.33331442  0.56643743  1
  Nd  Nd1  1  0.33331442  0.66668558  0.43356257  1
  Nd  Nd2  1  0.33331442  0.66668558  0.06643743  1
  Nd  Nd3  1  0.66668558  0.33331442  0.93356257  1
  Ru  Ru4  1  -0.00000000  -0.00000000  0.50000000  1
  Ru  Ru5  1  -0.00000000  -0.00000000  0.00000000  1
  Ru  Ru6  1  0.17018016  0.34037949  0.75000000  1
  Ru  Ru7  1  0.17008021  0.82991979  0.75000000  1
  Ru  Ru8  1  0.65962051  0.82981984  0.75000000  1
  Ru  Ru9  1  0.82981984  0.65962051  0.25000000  1
  Ru  Ru10  1  0.82991979  0.17008021  0.25000000  1
  Ru  Ru11  1  0.34037949  0.17018016  0.25000000  1
