# generated using pymatgen
data_TbTc2
_symmetry_space_group_name_H-M   'P 1'
_cell_length_a   5.39019673
_cell_length_b   5.39019673
_cell_length_c   8.93058177
_cell_angle_alpha   90.00000000
_cell_angle_beta   90.00000000
_cell_angle_gamma   119.99286907
_symmetry_Int_Tables_number   1
_chemical_formula_structural   TbTc2
_chemical_formula_sum   'Tb4 Tc8'
_cell_volume   224.72470461
_cell_formula_units_Z   4
loop_
 _symmetry_equiv_pos_site_id
 _symmetry_equiv_pos_as_xyz
  1  'x, y, z'
loop_
 _atom_site_type_symbol
 _atom_site_label
 _atom_site_symmetry_multiplicity
 _atom_site_fract_x
 _atom_site_fract_y
 _atom_site_fract_z
 _atom_site_occupancy
  Tb  Tb0  1  0.66668979  0.33331021  0.56331955  1
  Tb  Tb1  1  0.33331021  0.66668979  0.43668045  1
  Tb  Tb2  1  0.33331021  0.66668979  0.06331955  1
  Tb  Tb3  1  0.66668979  0.33331021  0.93668045  1
  Tc  Tc4  1  0.00000000  0.00000000  0.50000000  1
  Tc  Tc5  1  0.00000000  0.00000000  0.00000000  1
  Tc  Tc6  1  0.17117718  0.34232882  0.75000000  1
  Tc  Tc7  1  0.17111552  0.82888448  0.75000000  1
  Tc  Tc8  1  0.65767118  0.82882282  0.75000000  1
  Tc  Tc9  1  0.82882282  0.65767118  0.25000000  1
  Tc  Tc10  1  0.82888448  0.17111552  0.25000000  1
  Tc  Tc11  1  0.34232882  0.17117718  0.25000000  1
