# generated using pymatgen
data_DyAlAu
_symmetry_space_group_name_H-M   'P 1'
_cell_length_a   4.46868337
_cell_length_b   7.21289657
_cell_length_c   7.79687449
_cell_angle_alpha   90.00000000
_cell_angle_beta   90.00000000
_cell_angle_gamma   90.00000000
_symmetry_Int_Tables_number   1
_chemical_formula_structural   DyAlAu
_chemical_formula_sum   'Dy4 Al4 Au4'
_cell_volume   251.31003551
_cell_formula_units_Z   4
loop_
 _symmetry_equiv_pos_site_id
 _symmetry_equiv_pos_as_xyz
  1  'x, y, z'
loop_
 _atom_site_type_symbol
 _atom_site_label
 _atom_site_symmetry_multiplicity
 _atom_site_fract_x
 _atom_site_fract_y
 _atom_site_fract_z
 _atom_site_occupancy
  Dy  Dy0  1  0.75000000  0.49078749  0.19434848  1
  Dy  Dy1  1  0.75000000  0.99078749  0.30565152  1
  Dy  Dy2  1  0.25000000  0.50921251  0.80565152  1
  Dy  Dy3  1  0.25000000  0.00921251  0.69434848  1
  Al  Al4  1  0.75000000  0.33140922  0.57632703  1
  Al  Al5  1  0.75000000  0.83140922  0.92367297  1
  Al  Al6  1  0.25000000  0.66859078  0.42367297  1
  Al  Al7  1  0.25000000  0.16859078  0.07632703  1
  Au  Au8  1  0.75000000  0.21458303  0.90219235  1
  Au  Au9  1  0.75000000  0.71458303  0.59780765  1
  Au  Au10  1  0.25000000  0.78541697  0.09780765  1
  Au  Au11  1  0.25000000  0.28541697  0.40219235  1
