# generated using pymatgen
data_Re2Cl5O4
_symmetry_space_group_name_H-M   'P 1'
_cell_length_a   6.48843822
_cell_length_b   6.56472257
_cell_length_c   8.47681544
_cell_angle_alpha   69.44942287
_cell_angle_beta   81.69123796
_cell_angle_gamma   84.57942474
_symmetry_Int_Tables_number   1
_chemical_formula_structural   Re2Cl5O4
_chemical_formula_sum   'Re2 Cl5 O4'
_cell_volume   334.16914703
_cell_formula_units_Z   1
loop_
 _symmetry_equiv_pos_site_id
 _symmetry_equiv_pos_as_xyz
  1  'x, y, z'
loop_
 _atom_site_type_symbol
 _atom_site_label
 _atom_site_symmetry_multiplicity
 _atom_site_fract_x
 _atom_site_fract_y
 _atom_site_fract_z
 _atom_site_occupancy
  Re  Re0  1  0.36709599  0.45825382  0.56471399  1
  Re  Re1  1  0.00905487  0.99207357  0.00337898  1
  Cl  Cl2  1  0.95672367  0.97345390  0.74646298  1
  Cl  Cl3  1  0.15019663  0.12416141  0.17853491  1
  Cl  Cl4  1  0.31194951  0.78786730  0.98838483  1
  Cl  Cl5  1  0.80457003  0.30911688  0.93280251  1
  Cl  Cl6  1  0.58382745  0.29935688  0.41023302  1
  O  O7  1  0.30793868  0.28262860  0.77134588  1
  O  O8  1  0.84778019  0.80571000  0.14110544  1
  O  O9  1  0.13855054  0.54045101  0.47452867  1
  O  O10  1  0.48031244  0.68342664  0.56760878  1
