# generated using pymatgen
data_SmFe3
_symmetry_space_group_name_H-M   'P 1'
_cell_length_a   5.18314796
_cell_length_b   5.18314796
_cell_length_c   8.70360850
_cell_angle_alpha   72.67697364
_cell_angle_beta   72.67697364
_cell_angle_gamma   60.00000362
_symmetry_Int_Tables_number   1
_chemical_formula_structural   SmFe3
_chemical_formula_sum   'Sm3 Fe9'
_cell_volume   190.15113366
_cell_formula_units_Z   3
loop_
 _symmetry_equiv_pos_site_id
 _symmetry_equiv_pos_as_xyz
  1  'x, y, z'
loop_
 _atom_site_type_symbol
 _atom_site_label
 _atom_site_symmetry_multiplicity
 _atom_site_fract_x
 _atom_site_fract_y
 _atom_site_fract_z
 _atom_site_occupancy
  Sm  Sm0  1  0.14205096  0.14205096  0.57384711  1
  Sm  Sm1  1  0.85794904  0.85794904  0.42615289  1
  Sm  Sm2  1  0.00000000  0.00000000  -0.00000000  1
  Fe  Fe3  1  0.08368794  0.57857108  0.75916990  1
  Fe  Fe4  1  0.57857108  0.57857108  0.75916990  1
  Fe  Fe5  1  0.57857108  0.08368794  0.75916990  1
  Fe  Fe6  1  0.91631206  0.42142892  0.24083010  1
  Fe  Fe7  1  0.42142892  0.42142892  0.24083010  1
  Fe  Fe8  1  0.42142892  0.91631206  0.24083010  1
  Fe  Fe9  1  0.33271712  0.33271712  0.00184863  1
  Fe  Fe10  1  0.66728288  0.66728288  0.99815137  1
  Fe  Fe11  1  0.50000000  0.50000000  0.50000000  1
