# generated using pymatgen
data_VCo2Ni
_symmetry_space_group_name_H-M   'P 1'
_cell_length_a   5.01273870
_cell_length_b   5.01273870
_cell_length_c   6.69910581
_cell_angle_alpha   68.02914200
_cell_angle_beta   68.02914200
_cell_angle_gamma   59.99999659
_symmetry_Int_Tables_number   1
_chemical_formula_structural   VCo2Ni
_chemical_formula_sum   'V3 Co6 Ni3'
_cell_volume   131.47405992
_cell_formula_units_Z   3
loop_
 _symmetry_equiv_pos_site_id
 _symmetry_equiv_pos_as_xyz
  1  'x, y, z'
loop_
 _atom_site_type_symbol
 _atom_site_label
 _atom_site_symmetry_multiplicity
 _atom_site_fract_x
 _atom_site_fract_y
 _atom_site_fract_z
 _atom_site_occupancy
  V  V0  1  -0.00000000  -0.00000000  0.00000000  1
  V  V1  1  0.21621661  0.21621661  0.35135016  1
  V  V2  1  0.78378339  0.78378339  0.64864984  1
  Co  Co3  1  0.77024515  0.28149388  0.66676710  1
  Co  Co4  1  0.28149388  0.28149388  0.66676710  1
  Co  Co5  1  0.28149388  0.77024515  0.66676710  1
  Co  Co6  1  0.22975485  0.71850612  0.33323290  1
  Co  Co7  1  0.71850612  0.71850612  0.33323290  1
  Co  Co8  1  0.71850612  0.22975485  0.33323290  1
  Ni  Ni9  1  0.50000000  0.50000000  0.00000000  1
  Ni  Ni10  1  0.50000000  -0.00000000  0.00000000  1
  Ni  Ni11  1  -0.00000000  0.50000000  0.00000000  1
