# generated using pymatgen
data_TbRe2
_symmetry_space_group_name_H-M   'P 1'
_cell_length_a   5.44960712
_cell_length_b   5.44960712
_cell_length_c   8.85886085
_cell_angle_alpha   90.00000000
_cell_angle_beta   90.00000000
_cell_angle_gamma   120.03392350
_symmetry_Int_Tables_number   1
_chemical_formula_structural   TbRe2
_chemical_formula_sum   'Tb4 Re8'
_cell_volume   227.76675843
_cell_formula_units_Z   4
loop_
 _symmetry_equiv_pos_site_id
 _symmetry_equiv_pos_as_xyz
  1  'x, y, z'
loop_
 _atom_site_type_symbol
 _atom_site_label
 _atom_site_symmetry_multiplicity
 _atom_site_fract_x
 _atom_site_fract_y
 _atom_site_fract_z
 _atom_site_occupancy
  Tb  Tb0  1  0.66670084  0.33329916  0.56263899  1
  Tb  Tb1  1  0.33329916  0.66670084  0.43736101  1
  Tb  Tb2  1  0.33329916  0.66670084  0.06263899  1
  Tb  Tb3  1  0.66670084  0.33329916  0.93736101  1
  Re  Re4  1  -0.00000000  -0.00000000  0.50000000  1
  Re  Re5  1  -0.00000000  -0.00000000  0.00000000  1
  Re  Re6  1  0.17139235  0.34264411  0.75000000  1
  Re  Re7  1  0.17123453  0.82876547  0.75000000  1
  Re  Re8  1  0.65735589  0.82860765  0.75000000  1
  Re  Re9  1  0.82860765  0.65735589  0.25000000  1
  Re  Re10  1  0.82876547  0.17123453  0.25000000  1
  Re  Re11  1  0.34264411  0.17139235  0.25000000  1
