# generated using pymatgen
data_Mg2CuSbO6
_symmetry_space_group_name_H-M   'P 1'
_cell_length_a   5.43560506
_cell_length_b   5.50906306
_cell_length_c   7.37143179
_cell_angle_alpha   90.00000000
_cell_angle_beta   90.00000000
_cell_angle_gamma   100.93296155
_symmetry_Int_Tables_number   1
_chemical_formula_structural   Mg2CuSbO6
_chemical_formula_sum   'Mg4 Cu2 Sb2 O12'
_cell_volume   216.73174640
_cell_formula_units_Z   2
loop_
 _symmetry_equiv_pos_site_id
 _symmetry_equiv_pos_as_xyz
  1  'x, y, z'
loop_
 _atom_site_type_symbol
 _atom_site_label
 _atom_site_symmetry_multiplicity
 _atom_site_fract_x
 _atom_site_fract_y
 _atom_site_fract_z
 _atom_site_occupancy
  Mg  Mg0  1  0.53556065  0.57905243  0.75000000  1
  Mg  Mg1  1  0.46443935  0.42094757  0.25000000  1
  Mg  Mg2  1  0.06439694  0.02633810  0.75000000  1
  Mg  Mg3  1  0.93560306  0.97366190  0.25000000  1
  Cu  Cu4  1  0.50000000  0.00000000  0.50000000  1
  Cu  Cu5  1  0.50000000  0.00000000  0.00000000  1
  Sb  Sb6  1  0.00000000  0.50000000  0.50000000  1
  Sb  Sb7  1  0.00000000  0.50000000  0.00000000  1
  O  O8  1  0.35377873  0.67452346  0.44537627  1
  O  O9  1  0.13593815  0.20954112  0.07204367  1
  O  O10  1  0.64622127  0.32547654  0.94537627  1
  O  O11  1  0.86406185  0.79045888  0.57204367  1
  O  O12  1  0.13593815  0.20954112  0.42795633  1
  O  O13  1  0.86406185  0.79045888  0.92795633  1
  O  O14  1  0.87426642  0.58919673  0.25000000  1
  O  O15  1  0.35377873  0.67452346  0.05462373  1
  O  O16  1  0.40306649  0.91898833  0.75000000  1
  O  O17  1  0.64622127  0.32547654  0.55462373  1
  O  O18  1  0.12573358  0.41080327  0.75000000  1
  O  O19  1  0.59693351  0.08101167  0.25000000  1
