# generated using pymatgen
data_CeAlIr
_symmetry_space_group_name_H-M   'P 1'
_cell_length_a   4.34513578
_cell_length_b   6.88600758
_cell_length_c   7.96780086
_cell_angle_alpha   90.00000000
_cell_angle_beta   90.00000000
_cell_angle_gamma   90.00000000
_symmetry_Int_Tables_number   1
_chemical_formula_structural   CeAlIr
_chemical_formula_sum   'Ce4 Al4 Ir4'
_cell_volume   238.40168453
_cell_formula_units_Z   4
loop_
 _symmetry_equiv_pos_site_id
 _symmetry_equiv_pos_as_xyz
  1  'x, y, z'
loop_
 _atom_site_type_symbol
 _atom_site_label
 _atom_site_symmetry_multiplicity
 _atom_site_fract_x
 _atom_site_fract_y
 _atom_site_fract_z
 _atom_site_occupancy
  Ce  Ce0  1  0.75000000  0.53535438  0.31693722  1
  Ce  Ce1  1  0.75000000  0.03535438  0.18306278  1
  Ce  Ce2  1  0.25000000  0.46464562  0.68306278  1
  Ce  Ce3  1  0.25000000  0.96464562  0.81693722  1
  Al  Al4  1  0.75000000  0.63779732  0.93758889  1
  Al  Al5  1  0.75000000  0.13779732  0.56241111  1
  Al  Al6  1  0.25000000  0.36220268  0.06241111  1
  Al  Al7  1  0.25000000  0.86220268  0.43758889  1
  Ir  Ir8  1  0.75000000  0.76174411  0.61677050  1
  Ir  Ir9  1  0.75000000  0.26174411  0.88322950  1
  Ir  Ir10  1  0.25000000  0.23825589  0.38322950  1
  Ir  Ir11  1  0.25000000  0.73825589  0.11677050  1
