# generated using pymatgen
data_NbFeO4
_symmetry_space_group_name_H-M   'P 1'
_cell_length_a   3.89818585
_cell_length_b   6.64280555
_cell_length_c   6.76668709
_cell_angle_alpha   106.89806640
_cell_angle_beta   90.00000000
_cell_angle_gamma   107.06246836
_symmetry_Int_Tables_number   1
_chemical_formula_structural   NbFeO4
_chemical_formula_sum   'Nb2 Fe2 O8'
_cell_volume   159.57953640
_cell_formula_units_Z   2
loop_
 _symmetry_equiv_pos_site_id
 _symmetry_equiv_pos_as_xyz
  1  'x, y, z'
loop_
 _atom_site_type_symbol
 _atom_site_label
 _atom_site_symmetry_multiplicity
 _atom_site_fract_x
 _atom_site_fract_y
 _atom_site_fract_z
 _atom_site_occupancy
  Nb  Nb0  1  0.10054608  0.20784765  0.22972174  1
  Nb  Nb1  1  0.89269843  0.79215235  0.77027826  1
  Fe  Fe2  1  0.19763115  0.39761258  0.81361969  1
  Fe  Fe3  1  0.80001856  0.60238742  0.18638031  1
  O  O4  1  0.25446862  0.51187374  0.14491579  1
  O  O5  1  0.74259489  0.48812626  0.85508421  1
  O  O6  1  0.36126667  0.72725745  0.79710071  1
  O  O7  1  0.63400922  0.27274255  0.20289929  1
  O  O8  1  0.04793231  0.10704784  0.86446545  1
  O  O9  1  0.94088448  0.89295216  0.13553455  1
  O  O10  1  0.14010401  0.27521842  0.51196001  1
  O  O11  1  0.86488559  0.72478158  0.48803999  1
