# generated using pymatgen
data_BaGdCuS3
_symmetry_space_group_name_H-M   'P 1'
_cell_length_a   4.05074339
_cell_length_b   7.08408213
_cell_length_c   10.37021477
_cell_angle_alpha   90.00000000
_cell_angle_beta   90.00000000
_cell_angle_gamma   106.61292864
_symmetry_Int_Tables_number   1
_chemical_formula_structural   BaGdCuS3
_chemical_formula_sum   'Ba2 Gd2 Cu2 S6'
_cell_volume   285.15997164
_cell_formula_units_Z   2
loop_
 _symmetry_equiv_pos_site_id
 _symmetry_equiv_pos_as_xyz
  1  'x, y, z'
loop_
 _atom_site_type_symbol
 _atom_site_label
 _atom_site_symmetry_multiplicity
 _atom_site_fract_x
 _atom_site_fract_y
 _atom_site_fract_z
 _atom_site_occupancy
  Ba  Ba0  1  0.74417661  0.48835322  0.25000000  1
  Ba  Ba1  1  0.25582339  0.51164678  0.75000000  1
  Gd  Gd2  1  0.00000000  0.00000000  0.50000000  1
  Gd  Gd3  1  0.00000000  -0.00000000  -0.00000000  1
  Cu  Cu4  1  0.46621473  0.93242947  0.25000000  1
  Cu  Cu5  1  0.53378527  0.06757053  0.75000000  1
  S  S6  1  0.36787507  0.73575013  0.43405067  1
  S  S7  1  0.63212493  0.26424987  0.56594933  1
  S  S8  1  0.36787507  0.73575013  0.06594933  1
  S  S9  1  0.63212493  0.26424987  0.93405067  1
  S  S10  1  0.06657277  0.13314555  0.25000000  1
  S  S11  1  0.93342723  0.86685445  0.75000000  1
