# generated using pymatgen
data_SbRhSe
_symmetry_space_group_name_H-M   'P 1'
_cell_length_a   6.26144919
_cell_length_b   6.26144919
_cell_length_c   6.26144919
_cell_angle_alpha   90.00000000
_cell_angle_beta   90.00000000
_cell_angle_gamma   90.00000000
_symmetry_Int_Tables_number   1
_chemical_formula_structural   SbRhSe
_chemical_formula_sum   'Sb4 Rh4 Se4'
_cell_volume   245.48478628
_cell_formula_units_Z   4
loop_
 _symmetry_equiv_pos_site_id
 _symmetry_equiv_pos_as_xyz
  1  'x, y, z'
loop_
 _atom_site_type_symbol
 _atom_site_label
 _atom_site_symmetry_multiplicity
 _atom_site_fract_x
 _atom_site_fract_y
 _atom_site_fract_z
 _atom_site_occupancy
  Sb  Sb0  1  0.87724401  0.37724401  0.12275599  1
  Sb  Sb1  1  0.37724401  0.12275599  0.87724401  1
  Sb  Sb2  1  0.12275599  0.87724401  0.37724401  1
  Sb  Sb3  1  0.62275599  0.62275599  0.62275599  1
  Rh  Rh4  1  0.50505601  0.00505601  0.49494399  1
  Rh  Rh5  1  0.00505601  0.49494399  0.50505601  1
  Rh  Rh6  1  0.49494399  0.50505601  0.00505601  1
  Rh  Rh7  1  0.99494399  0.99494399  0.99494399  1
  Se  Se8  1  0.12192230  0.62192230  0.87807770  1
  Se  Se9  1  0.62192230  0.87807770  0.12192230  1
  Se  Se10  1  0.87807770  0.12192230  0.62192230  1
  Se  Se11  1  0.37807770  0.37807770  0.37807770  1
