# generated using pymatgen
data_PrGaPd
_symmetry_space_group_name_H-M   'P 1'
_cell_length_a   4.57654505
_cell_length_b   7.10785839
_cell_length_c   7.93066081
_cell_angle_alpha   90.00000000
_cell_angle_beta   90.00000000
_cell_angle_gamma   90.00000000
_symmetry_Int_Tables_number   1
_chemical_formula_structural   PrGaPd
_chemical_formula_sum   'Pr4 Ga4 Pd4'
_cell_volume   257.97990843
_cell_formula_units_Z   4
loop_
 _symmetry_equiv_pos_site_id
 _symmetry_equiv_pos_as_xyz
  1  'x, y, z'
loop_
 _atom_site_type_symbol
 _atom_site_label
 _atom_site_symmetry_multiplicity
 _atom_site_fract_x
 _atom_site_fract_y
 _atom_site_fract_z
 _atom_site_occupancy
  Pr  Pr0  1  0.75000000  0.46893297  0.80982750  1
  Pr  Pr1  1  0.75000000  0.96893297  0.69017250  1
  Pr  Pr2  1  0.25000000  0.53106703  0.19017250  1
  Pr  Pr3  1  0.25000000  0.03106703  0.30982750  1
  Ga  Ga4  1  0.75000000  0.34102978  0.43133305  1
  Ga  Ga5  1  0.75000000  0.84102978  0.06866695  1
  Ga  Ga6  1  0.25000000  0.65897022  0.56866695  1
  Ga  Ga7  1  0.25000000  0.15897022  0.93133305  1
  Pd  Pd8  1  0.75000000  0.21798943  0.10935831  1
  Pd  Pd9  1  0.75000000  0.71798943  0.39064169  1
  Pd  Pd10  1  0.25000000  0.78201057  0.89064169  1
  Pd  Pd11  1  0.25000000  0.28201057  0.60935831  1
