# generated using pymatgen
data_Zn2PN3
_symmetry_space_group_name_H-M   'P 1'
_cell_length_a   4.97771904
_cell_length_b   5.45936598
_cell_length_c   5.45936598
_cell_angle_alpha   119.40380449
_cell_angle_beta   90.00000000
_cell_angle_gamma   90.00000000
_symmetry_Int_Tables_number   1
_chemical_formula_structural   Zn2PN3
_chemical_formula_sum   'Zn4 P2 N6'
_cell_volume   129.24784156
_cell_formula_units_Z   2
loop_
 _symmetry_equiv_pos_site_id
 _symmetry_equiv_pos_as_xyz
  1  'x, y, z'
loop_
 _atom_site_type_symbol
 _atom_site_label
 _atom_site_symmetry_multiplicity
 _atom_site_fract_x
 _atom_site_fract_y
 _atom_site_fract_z
 _atom_site_occupancy
  Zn  Zn0  1  0.46829810  0.82439218  0.49555512  1
  Zn  Zn1  1  0.46829810  0.49555512  0.82439218  1
  Zn  Zn2  1  0.96829810  0.17560782  0.50444488  1
  Zn  Zn3  1  0.96829810  0.50444488  0.17560782  1
  P  P4  1  0.95661642  0.84023825  0.84023825  1
  P  P5  1  0.45661642  0.15976175  0.15976175  1
  N  N6  1  0.87438653  0.83997560  0.55198058  1
  N  N7  1  0.87438653  0.55198058  0.83997560  1
  N  N8  1  0.37438653  0.16002440  0.44801942  1
  N  N9  1  0.37438653  0.44801942  0.16002440  1
  N  N10  1  0.30239431  0.88250300  0.88250300  1
  N  N11  1  0.80239431  0.11749700  0.11749700  1
