# generated using pymatgen
data_SbRuSe
_symmetry_space_group_name_H-M   'P 1'
_cell_length_a   6.36899460
_cell_length_b   6.43342242
_cell_length_c   6.47253020
_cell_angle_alpha   113.02712066
_cell_angle_beta   90.00000000
_cell_angle_gamma   90.00000000
_symmetry_Int_Tables_number   1
_chemical_formula_structural   SbRuSe
_chemical_formula_sum   'Sb4 Ru4 Se4'
_cell_volume   244.07640630
_cell_formula_units_Z   4
loop_
 _symmetry_equiv_pos_site_id
 _symmetry_equiv_pos_as_xyz
  1  'x, y, z'
loop_
 _atom_site_type_symbol
 _atom_site_label
 _atom_site_symmetry_multiplicity
 _atom_site_fract_x
 _atom_site_fract_y
 _atom_site_fract_z
 _atom_site_occupancy
  Sb  Sb0  1  0.13474058  0.85551627  0.12328710  1
  Sb  Sb1  1  0.63474058  0.14448373  0.37671290  1
  Sb  Sb2  1  0.86525942  0.14448373  0.87671290  1
  Sb  Sb3  1  0.36525942  0.85551627  0.62328710  1
  Ru  Ru4  1  0.50462042  0.71261649  0.20002662  1
  Ru  Ru5  1  0.00462042  0.28738351  0.29997338  1
  Ru  Ru6  1  0.49537958  0.28738351  0.79997338  1
  Ru  Ru7  1  0.99537958  0.71261649  0.70002662  1
  Se  Se8  1  0.86509789  0.65119920  0.31938632  1
  Se  Se9  1  0.36509789  0.34880080  0.18061368  1
  Se  Se10  1  0.13490211  0.34880080  0.68061368  1
  Se  Se11  1  0.63490211  0.65119920  0.81938632  1
