# generated using pymatgen
data_Ce2PPt8
_symmetry_space_group_name_H-M   'P 1'
_cell_length_a   4.29628482
_cell_length_b   5.44329610
_cell_length_c   9.16968318
_cell_angle_alpha   107.26606461
_cell_angle_beta   90.00000000
_cell_angle_gamma   90.00000000
_symmetry_Int_Tables_number   1
_chemical_formula_structural   Ce2PPt8
_chemical_formula_sum   'Ce2 P1 Pt8'
_cell_volume   204.77831632
_cell_formula_units_Z   1
loop_
 _symmetry_equiv_pos_site_id
 _symmetry_equiv_pos_as_xyz
  1  'x, y, z'
loop_
 _atom_site_type_symbol
 _atom_site_label
 _atom_site_symmetry_multiplicity
 _atom_site_fract_x
 _atom_site_fract_y
 _atom_site_fract_z
 _atom_site_occupancy
  Ce  Ce0  1  0.50000000  0.61708991  0.24637569  1
  Ce  Ce1  1  0.50000000  0.37071423  0.75362431  1
  P  P2  1  0.00000000  0.22624893  0.00000000  1
  Pt  Pt3  1  -0.00000000  0.10992597  0.21985071  1
  Pt  Pt4  1  -0.00000000  0.89007525  0.78014929  1
  Pt  Pt5  1  0.00000000  0.49083744  0.50491912  1
  Pt  Pt6  1  -0.00000000  0.98591832  0.49508088  1
  Pt  Pt7  1  0.50000000  0.19436649  0.40245870  1
  Pt  Pt8  1  0.50000000  0.79190779  0.59754130  1
  Pt  Pt9  1  0.50000000  0.00079575  0.00000000  1
  Pt  Pt10  1  0.00000000  0.63571992  1.00000000  1
