# generated using pymatgen
data_La2MgBiO6
_symmetry_space_group_name_H-M   'P 1'
_cell_length_a   5.86813307
_cell_length_b   5.86813267
_cell_length_c   5.86813333
_cell_angle_alpha   60.88021065
_cell_angle_beta   60.88021183
_cell_angle_gamma   60.88021498
_symmetry_Int_Tables_number   1
_chemical_formula_structural   La2MgBiO6
_chemical_formula_sum   'La2 Mg1 Bi1 O6'
_cell_volume   145.71962333
_cell_formula_units_Z   1
loop_
 _symmetry_equiv_pos_site_id
 _symmetry_equiv_pos_as_xyz
  1  'x, y, z'
loop_
 _atom_site_type_symbol
 _atom_site_label
 _atom_site_symmetry_multiplicity
 _atom_site_fract_x
 _atom_site_fract_y
 _atom_site_fract_z
 _atom_site_occupancy
  La  La0  1  0.75060126  0.75060126  0.75060126  1
  La  La1  1  0.24939874  0.24939874  0.24939874  1
  Mg  Mg2  1  0.50000000  0.50000000  0.50000000  1
  Bi  Bi3  1  0.00000000  0.00000000  0.00000000  1
  O  O4  1  0.36385484  0.74274222  0.15305755  1
  O  O5  1  0.74274222  0.15305755  0.36385484  1
  O  O6  1  0.15305755  0.36385484  0.74274222  1
  O  O7  1  0.63614516  0.25725778  0.84694245  1
  O  O8  1  0.84694245  0.63614516  0.25725778  1
  O  O9  1  0.25725778  0.84694245  0.63614516  1
