# generated using pymatgen
data_Co2Ge
_symmetry_space_group_name_H-M   'P 1'
_cell_length_a   3.82260237
_cell_length_b   5.06209556
_cell_length_c   7.21645964
_cell_angle_alpha   90.00000000
_cell_angle_beta   90.00000000
_cell_angle_gamma   90.00000000
_symmetry_Int_Tables_number   1
_chemical_formula_structural   Co2Ge
_chemical_formula_sum   'Co8 Ge4'
_cell_volume   139.64122535
_cell_formula_units_Z   4
loop_
 _symmetry_equiv_pos_site_id
 _symmetry_equiv_pos_as_xyz
  1  'x, y, z'
loop_
 _atom_site_type_symbol
 _atom_site_label
 _atom_site_symmetry_multiplicity
 _atom_site_fract_x
 _atom_site_fract_y
 _atom_site_fract_z
 _atom_site_occupancy
  Co  Co0  1  0.75000000  0.17445894  0.56115879  1
  Co  Co1  1  0.75000000  0.67445894  0.93884121  1
  Co  Co2  1  0.25000000  0.82554106  0.43884121  1
  Co  Co3  1  0.25000000  0.32554106  0.06115879  1
  Co  Co4  1  0.75000000  0.53791720  0.28116340  1
  Co  Co5  1  0.75000000  0.03791720  0.21883660  1
  Co  Co6  1  0.25000000  0.46208280  0.71883660  1
  Co  Co7  1  0.25000000  0.96208280  0.78116340  1
  Ge  Ge8  1  0.75000000  0.20661024  0.89081229  1
  Ge  Ge9  1  0.75000000  0.70661024  0.60918771  1
  Ge  Ge10  1  0.25000000  0.79338976  0.10918771  1
  Ge  Ge11  1  0.25000000  0.29338976  0.39081229  1
