# generated using pymatgen
data_TmNiP
_symmetry_space_group_name_H-M   'P 1'
_cell_length_a   3.86572470
_cell_length_b   3.86572470
_cell_length_c   15.04561701
_cell_angle_alpha   90.00000000
_cell_angle_beta   90.00000000
_cell_angle_gamma   119.99466127
_symmetry_Int_Tables_number   1
_chemical_formula_structural   TmNiP
_chemical_formula_sum   'Tm4 Ni4 P4'
_cell_volume   194.72685055
_cell_formula_units_Z   4
loop_
 _symmetry_equiv_pos_site_id
 _symmetry_equiv_pos_as_xyz
  1  'x, y, z'
loop_
 _atom_site_type_symbol
 _atom_site_label
 _atom_site_symmetry_multiplicity
 _atom_site_fract_x
 _atom_site_fract_y
 _atom_site_fract_z
 _atom_site_occupancy
  Tm  Tm0  1  0.00000000  -0.00000000  0.50000000  1
  Tm  Tm1  1  0.00000000  -0.00000000  0.00000000  1
  Tm  Tm2  1  0.00000912  0.99999088  0.75000000  1
  Tm  Tm3  1  0.99999088  0.00000912  0.25000000  1
  Ni  Ni4  1  0.66668072  0.33331928  0.62856356  1
  Ni  Ni5  1  0.33331928  0.66668072  0.37143644  1
  Ni  Ni6  1  0.33331928  0.66668072  0.12856356  1
  Ni  Ni7  1  0.66668072  0.33331928  0.87143644  1
  P  P8  1  0.66666707  0.33333293  0.12160517  1
  P  P9  1  0.33333293  0.66666707  0.87839483  1
  P  P10  1  0.33333293  0.66666707  0.62160517  1
  P  P11  1  0.66666707  0.33333293  0.37839483  1
