# generated using pymatgen
data_EuZnAu
_symmetry_space_group_name_H-M   'P 1'
_cell_length_a   4.69267238
_cell_length_b   7.54551541
_cell_length_c   8.01150331
_cell_angle_alpha   90.00000000
_cell_angle_beta   90.00000000
_cell_angle_gamma   90.00000000
_symmetry_Int_Tables_number   1
_chemical_formula_structural   EuZnAu
_chemical_formula_sum   'Eu4 Zn4 Au4'
_cell_volume   283.67637053
_cell_formula_units_Z   4
loop_
 _symmetry_equiv_pos_site_id
 _symmetry_equiv_pos_as_xyz
  1  'x, y, z'
loop_
 _atom_site_type_symbol
 _atom_site_label
 _atom_site_symmetry_multiplicity
 _atom_site_fract_x
 _atom_site_fract_y
 _atom_site_fract_z
 _atom_site_occupancy
  Eu  Eu0  1  0.75000000  0.49476385  0.19832317  1
  Eu  Eu1  1  0.75000000  0.99476385  0.30167683  1
  Eu  Eu2  1  0.25000000  0.50523615  0.80167683  1
  Eu  Eu3  1  0.25000000  0.00523615  0.69832317  1
  Zn  Zn4  1  0.75000000  0.82341578  0.91953007  1
  Zn  Zn5  1  0.75000000  0.32341578  0.58046993  1
  Zn  Zn6  1  0.25000000  0.17658422  0.08046993  1
  Zn  Zn7  1  0.25000000  0.67658422  0.41953007  1
  Au  Au8  1  0.75000000  0.20390954  0.90602226  1
  Au  Au9  1  0.75000000  0.70390954  0.59397774  1
  Au  Au10  1  0.25000000  0.79609046  0.09397774  1
  Au  Au11  1  0.25000000  0.29609046  0.40602226  1
