# generated using pymatgen
data_La3(ZnPt)4
_symmetry_space_group_name_H-M   'P 1'
_cell_length_a   4.17646477
_cell_length_b   7.57229651
_cell_length_c   8.43334772
_cell_angle_alpha   116.67631258
_cell_angle_beta   104.33649137
_cell_angle_gamma   90.00000000
_symmetry_Int_Tables_number   1
_chemical_formula_structural   La3(ZnPt)4
_chemical_formula_sum   'La3 Zn4 Pt4'
_cell_volume   228.98584143
_cell_formula_units_Z   1
loop_
 _symmetry_equiv_pos_site_id
 _symmetry_equiv_pos_as_xyz
  1  'x, y, z'
loop_
 _atom_site_type_symbol
 _atom_site_label
 _atom_site_symmetry_multiplicity
 _atom_site_fract_x
 _atom_site_fract_y
 _atom_site_fract_z
 _atom_site_occupancy
  La  La0  1  0.00000000  0.50000000  0.00000000  1
  La  La1  1  0.87181442  0.87181442  0.74362883  1
  La  La2  1  0.12818558  0.12818558  0.25637117  1
  Zn  Zn3  1  0.67382904  0.48080979  0.34765808  1
  Zn  Zn4  1  0.67382904  0.86684829  0.34765808  1
  Zn  Zn5  1  0.32617096  0.13315171  0.65234192  1
  Zn  Zn6  1  0.32617096  0.51919021  0.65234192  1
  Pt  Pt7  1  0.78248138  0.28248138  0.56496276  1
  Pt  Pt8  1  0.21751862  0.71751862  0.43503724  1
  Pt  Pt9  1  0.50000000  0.80154055  -0.00000000  1
  Pt  Pt10  1  0.50000000  0.19845945  -0.00000000  1
