# generated using pymatgen
data_Y2Pt
_symmetry_space_group_name_H-M   'P 1'
_cell_length_a   4.78838700
_cell_length_b   7.19731786
_cell_length_c   8.81486028
_cell_angle_alpha   90.00000000
_cell_angle_beta   90.00000000
_cell_angle_gamma   90.00000000
_symmetry_Int_Tables_number   1
_chemical_formula_structural   Y2Pt
_chemical_formula_sum   'Y8 Pt4'
_cell_volume   303.79131873
_cell_formula_units_Z   4
loop_
 _symmetry_equiv_pos_site_id
 _symmetry_equiv_pos_as_xyz
  1  'x, y, z'
loop_
 _atom_site_type_symbol
 _atom_site_label
 _atom_site_symmetry_multiplicity
 _atom_site_fract_x
 _atom_site_fract_y
 _atom_site_fract_z
 _atom_site_occupancy
  Y  Y0  1  0.75000000  0.64490632  0.58028648  1
  Y  Y1  1  0.75000000  0.14490632  0.91971352  1
  Y  Y2  1  0.25000000  0.35509368  0.41971352  1
  Y  Y3  1  0.25000000  0.85509368  0.08028648  1
  Y  Y4  1  0.75000000  0.51173416  0.16846734  1
  Y  Y5  1  0.75000000  0.01173416  0.33153266  1
  Y  Y6  1  0.25000000  0.48826584  0.83153266  1
  Y  Y7  1  0.25000000  0.98826584  0.66846734  1
  Pt  Pt8  1  0.75000000  0.24160807  0.59401539  1
  Pt  Pt9  1  0.75000000  0.74160807  0.90598461  1
  Pt  Pt10  1  0.25000000  0.75839193  0.40598461  1
  Pt  Pt11  1  0.25000000  0.25839193  0.09401539  1
