# generated using pymatgen
data_CsNpAgS3
_symmetry_space_group_name_H-M   'P 1'
_cell_length_a   4.13840878
_cell_length_b   8.12517807
_cell_length_c   10.46054559
_cell_angle_alpha   90.00000000
_cell_angle_beta   90.00000000
_cell_angle_gamma   104.75377889
_symmetry_Int_Tables_number   1
_chemical_formula_structural   CsNpAgS3
_chemical_formula_sum   'Cs2 Np2 Ag2 S6'
_cell_volume   340.14193211
_cell_formula_units_Z   2
loop_
 _symmetry_equiv_pos_site_id
 _symmetry_equiv_pos_as_xyz
  1  'x, y, z'
loop_
 _atom_site_type_symbol
 _atom_site_label
 _atom_site_symmetry_multiplicity
 _atom_site_fract_x
 _atom_site_fract_y
 _atom_site_fract_z
 _atom_site_occupancy
  Cs  Cs0  1  0.73970305  0.47940609  0.25000000  1
  Cs  Cs1  1  0.26029695  0.52059391  0.75000000  1
  Np  Np2  1  0.00000000  -0.00000000  0.50000000  1
  Np  Np3  1  0.00000000  0.00000000  -0.00000000  1
  Ag  Ag4  1  0.45730447  0.91460894  0.25000000  1
  Ag  Ag5  1  0.54269553  0.08539106  0.75000000  1
  S  S6  1  0.05381960  0.10763919  0.25000000  1
  S  S7  1  0.94618040  0.89236081  0.75000000  1
  S  S8  1  0.38840169  0.77680338  0.46512396  1
  S  S9  1  0.61159831  0.22319662  0.53487604  1
  S  S10  1  0.38840169  0.77680338  0.03487604  1
  S  S11  1  0.61159831  0.22319662  0.96512396  1
