# generated using pymatgen
data_UReB4
_symmetry_space_group_name_H-M   'P 1'
_cell_length_a   3.60442976
_cell_length_b   5.92664511
_cell_length_c   5.92664511
_cell_angle_alpha   104.02694526
_cell_angle_beta   90.00000000
_cell_angle_gamma   90.00000000
_symmetry_Int_Tables_number   1
_chemical_formula_structural   UReB4
_chemical_formula_sum   'U2 Re2 B8'
_cell_volume   122.83087799
_cell_formula_units_Z   2
loop_
 _symmetry_equiv_pos_site_id
 _symmetry_equiv_pos_as_xyz
  1  'x, y, z'
loop_
 _atom_site_type_symbol
 _atom_site_label
 _atom_site_symmetry_multiplicity
 _atom_site_fract_x
 _atom_site_fract_y
 _atom_site_fract_z
 _atom_site_occupancy
  U  U0  1  0.00000000  0.30030665  0.69969335  1
  U  U1  1  0.00000000  0.69969335  0.30030665  1
  Re  Re2  1  -0.00000000  0.81282108  0.81282108  1
  Re  Re3  1  0.00000000  0.18717892  0.18717892  1
  B  B4  1  0.50000000  0.93567165  0.61655275  1
  B  B5  1  0.50000000  0.06432835  0.38344725  1
  B  B6  1  0.50000000  0.61655275  0.93567165  1
  B  B7  1  0.50000000  0.38344725  0.06432835  1
  B  B8  1  0.50000000  0.61941547  0.61941547  1
  B  B9  1  0.50000000  0.38058453  0.38058453  1
  B  B10  1  0.50000000  0.09293053  0.90706947  1
  B  B11  1  0.50000000  0.90706947  0.09293053  1
