# generated using pymatgen
data_EuMgSi
_symmetry_space_group_name_H-M   'P 1'
_cell_length_a   4.51918805
_cell_length_b   7.56321418
_cell_length_c   8.42338291
_cell_angle_alpha   90.00000000
_cell_angle_beta   90.00000000
_cell_angle_gamma   90.00000000
_symmetry_Int_Tables_number   1
_chemical_formula_structural   EuMgSi
_chemical_formula_sum   'Eu4 Mg4 Si4'
_cell_volume   287.90775020
_cell_formula_units_Z   4
loop_
 _symmetry_equiv_pos_site_id
 _symmetry_equiv_pos_as_xyz
  1  'x, y, z'
loop_
 _atom_site_type_symbol
 _atom_site_label
 _atom_site_symmetry_multiplicity
 _atom_site_fract_x
 _atom_site_fract_y
 _atom_site_fract_z
 _atom_site_occupancy
  Eu  Eu0  1  0.75000000  0.48186758  0.18576810  1
  Eu  Eu1  1  0.75000000  0.98186758  0.31423190  1
  Eu  Eu2  1  0.25000000  0.51813242  0.81423190  1
  Eu  Eu3  1  0.25000000  0.01813242  0.68576810  1
  Mg  Mg4  1  0.75000000  0.35034357  0.56536652  1
  Mg  Mg5  1  0.75000000  0.85034357  0.93463348  1
  Mg  Mg6  1  0.25000000  0.64965643  0.43463348  1
  Mg  Mg7  1  0.25000000  0.14965643  0.06536652  1
  Si  Si8  1  0.75000000  0.22468075  0.88843945  1
  Si  Si9  1  0.75000000  0.72468075  0.61156055  1
  Si  Si10  1  0.25000000  0.77531925  0.11156055  1
  Si  Si11  1  0.25000000  0.27531925  0.38843945  1
