# generated using pymatgen
data_SmGaPd
_symmetry_space_group_name_H-M   'P 1'
_cell_length_a   4.50704092
_cell_length_b   7.10557464
_cell_length_c   7.77873400
_cell_angle_alpha   90.00000000
_cell_angle_beta   90.00000000
_cell_angle_gamma   90.00000000
_symmetry_Int_Tables_number   1
_chemical_formula_structural   SmGaPd
_chemical_formula_sum   'Sm4 Ga4 Pd4'
_cell_volume   249.11485606
_cell_formula_units_Z   4
loop_
 _symmetry_equiv_pos_site_id
 _symmetry_equiv_pos_as_xyz
  1  'x, y, z'
loop_
 _atom_site_type_symbol
 _atom_site_label
 _atom_site_symmetry_multiplicity
 _atom_site_fract_x
 _atom_site_fract_y
 _atom_site_fract_z
 _atom_site_occupancy
  Sm  Sm0  1  0.75000000  0.48243225  0.20249489  1
  Sm  Sm1  1  0.75000000  0.98243225  0.29750511  1
  Sm  Sm2  1  0.25000000  0.51756775  0.79750511  1
  Sm  Sm3  1  0.25000000  0.01756775  0.70249489  1
  Ga  Ga4  1  0.75000000  0.81718804  0.92036821  1
  Ga  Ga5  1  0.75000000  0.31718804  0.57963179  1
  Ga  Ga6  1  0.25000000  0.18281196  0.07963179  1
  Ga  Ga7  1  0.25000000  0.68281196  0.42036821  1
  Pd  Pd8  1  0.75000000  0.21270600  0.90938208  1
  Pd  Pd9  1  0.75000000  0.71270600  0.59061792  1
  Pd  Pd10  1  0.25000000  0.78729400  0.09061792  1
  Pd  Pd11  1  0.25000000  0.28729400  0.40938208  1
