# generated using pymatgen
data_Sc2Fe3Si
_symmetry_space_group_name_H-M   'P 1'
_cell_length_a   4.98824328
_cell_length_b   4.98824328
_cell_length_c   7.92026234
_cell_angle_alpha   90.00000000
_cell_angle_beta   90.00000000
_cell_angle_gamma   119.96733488
_symmetry_Int_Tables_number   1
_chemical_formula_structural   Sc2Fe3Si
_chemical_formula_sum   'Sc4 Fe6 Si2'
_cell_volume   170.72939738
_cell_formula_units_Z   2
loop_
 _symmetry_equiv_pos_site_id
 _symmetry_equiv_pos_as_xyz
  1  'x, y, z'
loop_
 _atom_site_type_symbol
 _atom_site_label
 _atom_site_symmetry_multiplicity
 _atom_site_fract_x
 _atom_site_fract_y
 _atom_site_fract_z
 _atom_site_occupancy
  Sc  Sc0  1  0.66670153  0.33329847  0.06246235  1
  Sc  Sc1  1  0.33329847  0.66670153  0.93753765  1
  Sc  Sc2  1  0.33329847  0.66670153  0.56246235  1
  Sc  Sc3  1  0.66670153  0.33329847  0.43753765  1
  Fe  Fe4  1  0.82896532  0.65786035  0.75000000  1
  Fe  Fe5  1  0.82894216  0.17105784  0.75000000  1
  Fe  Fe6  1  0.34213965  0.17103468  0.75000000  1
  Fe  Fe7  1  0.17103468  0.34213965  0.25000000  1
  Fe  Fe8  1  0.17105784  0.82894216  0.25000000  1
  Fe  Fe9  1  0.65786035  0.82896532  0.25000000  1
  Si  Si10  1  0.00000000  -0.00000000  0.50000000  1
  Si  Si11  1  0.00000000  -0.00000000  0.00000000  1
