# generated using pymatgen
data_ZnSnO2
_symmetry_space_group_name_H-M   'P 1'
_cell_length_a   3.37422183
_cell_length_b   8.38188440
_cell_length_c   9.27315505
_cell_angle_alpha   87.62671477
_cell_angle_beta   80.85119883
_cell_angle_gamma   85.08881542
_symmetry_Int_Tables_number   1
_chemical_formula_structural   ZnSnO2
_chemical_formula_sum   'Zn4 Sn4 O8'
_cell_volume   257.87647097
_cell_formula_units_Z   4
loop_
 _symmetry_equiv_pos_site_id
 _symmetry_equiv_pos_as_xyz
  1  'x, y, z'
loop_
 _atom_site_type_symbol
 _atom_site_label
 _atom_site_symmetry_multiplicity
 _atom_site_fract_x
 _atom_site_fract_y
 _atom_site_fract_z
 _atom_site_occupancy
  Zn  Zn0  1  0.61332285  0.01812870  0.30343940  1
  Zn  Zn1  1  0.38274810  0.96173924  0.72495530  1
  Zn  Zn2  1  0.20570040  0.75173966  0.10724232  1
  Zn  Zn3  1  0.79116936  0.22800007  0.92091429  1
  Sn  Sn4  1  0.84931033  0.27724441  0.56390998  1
  Sn  Sn5  1  0.13955715  0.36296624  0.17857830  1
  Sn  Sn6  1  0.85717218  0.61660571  0.84978388  1
  Sn  Sn7  1  0.14527281  0.70306247  0.46427069  1
  O  O8  1  0.57991951  0.82445273  0.55195677  1
  O  O9  1  0.25524109  0.35676620  0.94549742  1
  O  O10  1  0.74147915  0.62291721  0.08278551  1
  O  O11  1  0.41489472  0.15607328  0.47593829  1
  O  O12  1  0.84693107  0.09522678  0.74697319  1
  O  O13  1  0.70685293  0.18984259  0.14434018  1
  O  O14  1  0.14918579  0.88470474  0.28115637  1
  O  O15  1  0.28951755  0.78986697  0.88387411  1
