# generated using pymatgen
data_Yb2Pt
_symmetry_space_group_name_H-M   'P 1'
_cell_length_a   4.40739655
_cell_length_b   7.56800821
_cell_length_c   8.91534070
_cell_angle_alpha   90.00000000
_cell_angle_beta   90.00000000
_cell_angle_gamma   90.00000000
_symmetry_Int_Tables_number   1
_chemical_formula_structural   Yb2Pt
_chemical_formula_sum   'Yb8 Pt4'
_cell_volume   297.37309047
_cell_formula_units_Z   4
loop_
 _symmetry_equiv_pos_site_id
 _symmetry_equiv_pos_as_xyz
  1  'x, y, z'
loop_
 _atom_site_type_symbol
 _atom_site_label
 _atom_site_symmetry_multiplicity
 _atom_site_fract_x
 _atom_site_fract_y
 _atom_site_fract_z
 _atom_site_occupancy
  Yb  Yb0  1  0.75000000  0.64403852  0.56996562  1
  Yb  Yb1  1  0.75000000  0.14403852  0.93003438  1
  Yb  Yb2  1  0.25000000  0.35596148  0.43003438  1
  Yb  Yb3  1  0.25000000  0.85596148  0.06996562  1
  Yb  Yb4  1  0.75000000  0.52478854  0.16606078  1
  Yb  Yb5  1  0.75000000  0.02478854  0.33393922  1
  Yb  Yb6  1  0.25000000  0.47521146  0.83393922  1
  Yb  Yb7  1  0.25000000  0.97521146  0.66606078  1
  Pt  Pt8  1  0.75000000  0.25590135  0.61872601  1
  Pt  Pt9  1  0.75000000  0.75590135  0.88127399  1
  Pt  Pt10  1  0.25000000  0.74409865  0.38127399  1
  Pt  Pt11  1  0.25000000  0.24409865  0.11872601  1
