# generated using pymatgen
data_PrSbSe
_symmetry_space_group_name_H-M   'P 1'
_cell_length_a   4.26752254
_cell_length_b   4.24785296
_cell_length_c   18.49294043
_cell_angle_alpha   90.00000000
_cell_angle_beta   90.00000000
_cell_angle_gamma   90.06099944
_symmetry_Int_Tables_number   1
_chemical_formula_structural   PrSbSe
_chemical_formula_sum   'Pr4 Sb4 Se4'
_cell_volume   335.23628800
_cell_formula_units_Z   4
loop_
 _symmetry_equiv_pos_site_id
 _symmetry_equiv_pos_as_xyz
  1  'x, y, z'
loop_
 _atom_site_type_symbol
 _atom_site_label
 _atom_site_symmetry_multiplicity
 _atom_site_fract_x
 _atom_site_fract_y
 _atom_site_fract_z
 _atom_site_occupancy
  Pr  Pr0  1  0.76916862  0.24504086  0.14746609  1
  Pr  Pr1  1  0.73083138  0.25495914  0.64746609  1
  Pr  Pr2  1  0.23083138  0.75495914  0.85253391  1
  Pr  Pr3  1  0.26916862  0.74504086  0.35253391  1
  Sb  Sb4  1  0.77195329  0.74791977  0.49834376  1
  Sb  Sb5  1  0.72804671  0.75208023  0.99834376  1
  Sb  Sb6  1  0.22804671  0.25208023  0.50165624  1
  Sb  Sb7  1  0.27195329  0.24791977  0.00165624  1
  Se  Se8  1  0.76640718  0.24273382  0.31367340  1
  Se  Se9  1  0.73359282  0.25726618  0.81367340  1
  Se  Se10  1  0.23359282  0.75726618  0.68632660  1
  Se  Se11  1  0.26640718  0.74273382  0.18632660  1
