# generated using pymatgen
data_PuOs2
_symmetry_space_group_name_H-M   'P 1'
_cell_length_a   5.34581302
_cell_length_b   5.34581302
_cell_length_c   8.74267146
_cell_angle_alpha   90.00000000
_cell_angle_beta   90.00000000
_cell_angle_gamma   120.00567161
_symmetry_Int_Tables_number   1
_chemical_formula_structural   PuOs2
_chemical_formula_sum   'Pu4 Os8'
_cell_volume   216.36026084
_cell_formula_units_Z   4
loop_
 _symmetry_equiv_pos_site_id
 _symmetry_equiv_pos_as_xyz
  1  'x, y, z'
loop_
 _atom_site_type_symbol
 _atom_site_label
 _atom_site_symmetry_multiplicity
 _atom_site_fract_x
 _atom_site_fract_y
 _atom_site_fract_z
 _atom_site_occupancy
  Pu  Pu0  1  0.66668066  0.33331934  0.56752529  1
  Pu  Pu1  1  0.33331934  0.66668066  0.43247471  1
  Pu  Pu2  1  0.33331934  0.66668066  0.06752529  1
  Pu  Pu3  1  0.66668066  0.33331934  0.93247471  1
  Os  Os4  1  0.00000000  0.00000000  0.50000000  1
  Os  Os5  1  0.00000000  0.00000000  0.00000000  1
  Os  Os6  1  0.17098874  0.34188187  0.75000000  1
  Os  Os7  1  0.17091190  0.82908810  0.75000000  1
  Os  Os8  1  0.65811813  0.82901126  0.75000000  1
  Os  Os9  1  0.82901126  0.65811813  0.25000000  1
  Os  Os10  1  0.82908810  0.17091190  0.25000000  1
  Os  Os11  1  0.34188187  0.17098874  0.25000000  1
