# generated using pymatgen
data_Dy2Al
_symmetry_space_group_name_H-M   'P 1'
_cell_length_a   5.12154242
_cell_length_b   6.53184507
_cell_length_c   9.39522298
_cell_angle_alpha   90.00000000
_cell_angle_beta   90.00000000
_cell_angle_gamma   90.00000000
_symmetry_Int_Tables_number   1
_chemical_formula_structural   Dy2Al
_chemical_formula_sum   'Dy8 Al4'
_cell_volume   314.29953687
_cell_formula_units_Z   4
loop_
 _symmetry_equiv_pos_site_id
 _symmetry_equiv_pos_as_xyz
  1  'x, y, z'
loop_
 _atom_site_type_symbol
 _atom_site_label
 _atom_site_symmetry_multiplicity
 _atom_site_fract_x
 _atom_site_fract_y
 _atom_site_fract_z
 _atom_site_occupancy
  Dy  Dy0  1  0.75000000  0.69143011  0.57218551  1
  Dy  Dy1  1  0.75000000  0.19143011  0.92781449  1
  Dy  Dy2  1  0.25000000  0.30856989  0.42781449  1
  Dy  Dy3  1  0.25000000  0.80856989  0.07218551  1
  Dy  Dy4  1  0.75000000  0.52758884  0.21020636  1
  Dy  Dy5  1  0.75000000  0.02758884  0.28979364  1
  Dy  Dy6  1  0.25000000  0.47241116  0.78979364  1
  Dy  Dy7  1  0.25000000  0.97241116  0.71020636  1
  Al  Al8  1  0.75000000  0.20930478  0.60242179  1
  Al  Al9  1  0.75000000  0.70930478  0.89757821  1
  Al  Al10  1  0.25000000  0.79069522  0.39757821  1
  Al  Al11  1  0.25000000  0.29069522  0.10242179  1
