# generated using pymatgen
data_ZrTl2S3
_symmetry_space_group_name_H-M   'P 1'
_cell_length_a   3.83138379
_cell_length_b   7.99128545
_cell_length_c   10.46438486
_cell_angle_alpha   97.08771756
_cell_angle_beta   90.00000000
_cell_angle_gamma   90.00000000
_symmetry_Int_Tables_number   1
_chemical_formula_structural   ZrTl2S3
_chemical_formula_sum   'Zr2 Tl4 S6'
_cell_volume   317.94687471
_cell_formula_units_Z   2
loop_
 _symmetry_equiv_pos_site_id
 _symmetry_equiv_pos_as_xyz
  1  'x, y, z'
loop_
 _atom_site_type_symbol
 _atom_site_label
 _atom_site_symmetry_multiplicity
 _atom_site_fract_x
 _atom_site_fract_y
 _atom_site_fract_z
 _atom_site_occupancy
  Zr  Zr0  1  0.75000000  0.58937933  0.66414401  1
  Zr  Zr1  1  0.25000000  0.41062067  0.33585599  1
  Tl  Tl2  1  0.75000000  0.93708282  0.33950935  1
  Tl  Tl3  1  0.25000000  0.06291718  0.66049065  1
  Tl  Tl4  1  0.75000000  0.25104819  0.00014931  1
  Tl  Tl5  1  0.25000000  0.74895181  -0.00014931  1
  S  S6  1  0.75000000  0.86250599  0.80627595  1
  S  S7  1  0.25000000  0.13749401  0.19372405  1
  S  S8  1  0.75000000  0.54297251  0.21498412  1
  S  S9  1  0.25000000  0.45702749  0.78501588  1
  S  S10  1  0.75000000  0.31261059  0.48379856  1
  S  S11  1  0.25000000  0.68738941  0.51620144  1
