# generated using pymatgen
data_LuCoSi
_symmetry_space_group_name_H-M   'P 1'
_cell_length_a   4.10328127
_cell_length_b   6.69650301
_cell_length_c   6.95861894
_cell_angle_alpha   90.00000000
_cell_angle_beta   90.00000000
_cell_angle_gamma   90.00000000
_symmetry_Int_Tables_number   1
_chemical_formula_structural   LuCoSi
_chemical_formula_sum   'Lu4 Co4 Si4'
_cell_volume   191.20639395
_cell_formula_units_Z   4
loop_
 _symmetry_equiv_pos_site_id
 _symmetry_equiv_pos_as_xyz
  1  'x, y, z'
loop_
 _atom_site_type_symbol
 _atom_site_label
 _atom_site_symmetry_multiplicity
 _atom_site_fract_x
 _atom_site_fract_y
 _atom_site_fract_z
 _atom_site_occupancy
  Lu  Lu0  1  0.75000000  0.51356779  0.80734183  1
  Lu  Lu1  1  0.75000000  0.01356779  0.69265817  1
  Lu  Lu2  1  0.25000000  0.48643221  0.19265817  1
  Lu  Lu3  1  0.25000000  0.98643221  0.30734183  1
  Co  Co4  1  0.75000000  0.35236089  0.44045750  1
  Co  Co5  1  0.75000000  0.85236089  0.05954250  1
  Co  Co6  1  0.25000000  0.64763911  0.55954250  1
  Co  Co7  1  0.25000000  0.14763911  0.94045750  1
  Si  Si8  1  0.75000000  0.19939397  0.10791976  1
  Si  Si9  1  0.75000000  0.69939397  0.39208024  1
  Si  Si10  1  0.25000000  0.80060603  0.89208024  1
  Si  Si11  1  0.25000000  0.30060603  0.60791976  1
