# generated using pymatgen
data_Zn2FeS3
_symmetry_space_group_name_H-M   'P 1'
_cell_length_a   6.63177270
_cell_length_b   6.63333333
_cell_length_c   7.37947074
_cell_angle_alpha   63.26368196
_cell_angle_beta   90.00087322
_cell_angle_gamma   60.03675491
_symmetry_Int_Tables_number   1
_chemical_formula_structural   Zn2FeS3
_chemical_formula_sum   'Zn4 Fe2 S6'
_cell_volume   240.34610931
_cell_formula_units_Z   2
loop_
 _symmetry_equiv_pos_site_id
 _symmetry_equiv_pos_as_xyz
  1  'x, y, z'
loop_
 _atom_site_type_symbol
 _atom_site_label
 _atom_site_symmetry_multiplicity
 _atom_site_fract_x
 _atom_site_fract_y
 _atom_site_fract_z
 _atom_site_occupancy
  Zn  Zn0  1  0.16657032  0.00031070  0.49955179  1
  Zn  Zn1  1  0.33257909  0.00071138  0.99853925  1
  Zn  Zn2  1  0.66595516  0.33469781  0.99859613  1
  Zn  Zn3  1  0.99994451  0.66740225  0.99853871  1
  Fe  Fe4  1  0.49931336  0.33471954  0.49810081  1
  Fe  Fe5  1  0.83266692  0.66787268  0.49829634  1
  S  S6  1  0.37642843  0.58065175  0.12911382  1
  S  S7  1  0.70958307  0.91419187  0.12865149  1
  S  S8  1  0.04172234  0.24999064  0.12502471  1
  S  S9  1  0.20767383  0.25424730  0.62320093  1
  S  S10  1  0.54412524  0.58148586  0.62313994  1
  S  S11  1  0.87143773  0.91771823  0.62324607  1
