# generated using pymatgen
data_YAsS
_symmetry_space_group_name_H-M   'P 1'
_cell_length_a   3.85285925
_cell_length_b   3.83528256
_cell_length_c   17.06443823
_cell_angle_alpha   90.00000000
_cell_angle_beta   90.00000000
_cell_angle_gamma   89.99586914
_symmetry_Int_Tables_number   1
_chemical_formula_structural   YAsS
_chemical_formula_sum   'Y4 As4 S4'
_cell_volume   252.15785598
_cell_formula_units_Z   4
loop_
 _symmetry_equiv_pos_site_id
 _symmetry_equiv_pos_as_xyz
  1  'x, y, z'
loop_
 _atom_site_type_symbol
 _atom_site_label
 _atom_site_symmetry_multiplicity
 _atom_site_fract_x
 _atom_site_fract_y
 _atom_site_fract_z
 _atom_site_occupancy
  Y  Y0  1  0.21763249  0.25076361  0.85419114  1
  Y  Y1  1  0.28236751  0.24923639  0.35419114  1
  Y  Y2  1  0.78236751  0.74923639  0.14580886  1
  Y  Y3  1  0.71763249  0.75076361  0.64580886  1
  As  As4  1  0.21846366  0.75219976  0.50202382  1
  As  As5  1  0.28153634  0.74780024  0.00202382  1
  As  As6  1  0.78153634  0.24780024  0.49797618  1
  As  As7  1  0.71846366  0.25219976  0.99797618  1
  S  S8  1  0.21829277  0.25078442  0.68673800  1
  S  S9  1  0.28170723  0.24921558  0.18673800  1
  S  S10  1  0.78170723  0.74921558  0.31326200  1
  S  S11  1  0.71829277  0.75078442  0.81326200  1
