# generated using pymatgen
data_HoSiPt
_symmetry_space_group_name_H-M   'P 1'
_cell_length_a   4.30803072
_cell_length_b   6.97485404
_cell_length_c   7.41837379
_cell_angle_alpha   90.00000000
_cell_angle_beta   90.00000000
_cell_angle_gamma   90.00000000
_symmetry_Int_Tables_number   1
_chemical_formula_structural   HoSiPt
_chemical_formula_sum   'Ho4 Si4 Pt4'
_cell_volume   222.90644603
_cell_formula_units_Z   4
loop_
 _symmetry_equiv_pos_site_id
 _symmetry_equiv_pos_as_xyz
  1  'x, y, z'
loop_
 _atom_site_type_symbol
 _atom_site_label
 _atom_site_symmetry_multiplicity
 _atom_site_fract_x
 _atom_site_fract_y
 _atom_site_fract_z
 _atom_site_occupancy
  Ho  Ho0  1  0.75000000  0.00480840  0.79787910  1
  Ho  Ho1  1  0.75000000  0.50480840  0.70212090  1
  Ho  Ho2  1  0.25000000  0.99519160  0.20212090  1
  Ho  Ho3  1  0.25000000  0.49519160  0.29787910  1
  Si  Si4  1  0.75000000  0.68814392  0.08988022  1
  Si  Si5  1  0.75000000  0.18814392  0.41011978  1
  Si  Si6  1  0.25000000  0.31185608  0.91011978  1
  Si  Si7  1  0.25000000  0.81185608  0.58988022  1
  Pt  Pt8  1  0.75000000  0.30190386  0.08243729  1
  Pt  Pt9  1  0.75000000  0.80190386  0.41756271  1
  Pt  Pt10  1  0.25000000  0.69809614  0.91756271  1
  Pt  Pt11  1  0.25000000  0.19809614  0.58243729  1
