# generated using pymatgen
data_DyCoGe
_symmetry_space_group_name_H-M   'P 1'
_cell_length_a   4.26428872
_cell_length_b   6.96740044
_cell_length_c   7.03059299
_cell_angle_alpha   90.00000000
_cell_angle_beta   90.00000000
_cell_angle_gamma   90.00000000
_symmetry_Int_Tables_number   1
_chemical_formula_structural   DyCoGe
_chemical_formula_sum   'Dy4 Co4 Ge4'
_cell_volume   208.88599827
_cell_formula_units_Z   4
loop_
 _symmetry_equiv_pos_site_id
 _symmetry_equiv_pos_as_xyz
  1  'x, y, z'
loop_
 _atom_site_type_symbol
 _atom_site_label
 _atom_site_symmetry_multiplicity
 _atom_site_fract_x
 _atom_site_fract_y
 _atom_site_fract_z
 _atom_site_occupancy
  Dy  Dy0  1  0.75000000  0.51756372  0.69285182  1
  Dy  Dy1  1  0.75000000  0.01756372  0.80714818  1
  Dy  Dy2  1  0.25000000  0.48243628  0.30714818  1
  Dy  Dy3  1  0.25000000  0.98243628  0.19285182  1
  Co  Co4  1  0.75000000  0.35287799  0.06208736  1
  Co  Co5  1  0.75000000  0.85287799  0.43791264  1
  Co  Co6  1  0.25000000  0.64712201  0.93791264  1
  Co  Co7  1  0.25000000  0.14712201  0.56208736  1
  Ge  Ge8  1  0.75000000  0.69997744  0.10839108  1
  Ge  Ge9  1  0.75000000  0.19997744  0.39160892  1
  Ge  Ge10  1  0.25000000  0.30002256  0.89160892  1
  Ge  Ge11  1  0.25000000  0.80002256  0.60839108  1
