# generated using pymatgen
data_YbSiPt
_symmetry_space_group_name_H-M   'P 1'
_cell_length_a   4.35954840
_cell_length_b   7.08089202
_cell_length_c   7.19668856
_cell_angle_alpha   90.00000000
_cell_angle_beta   90.00000000
_cell_angle_gamma   90.00000000
_symmetry_Int_Tables_number   1
_chemical_formula_structural   YbSiPt
_chemical_formula_sum   'Yb4 Si4 Pt4'
_cell_volume   222.15811616
_cell_formula_units_Z   4
loop_
 _symmetry_equiv_pos_site_id
 _symmetry_equiv_pos_as_xyz
  1  'x, y, z'
loop_
 _atom_site_type_symbol
 _atom_site_label
 _atom_site_symmetry_multiplicity
 _atom_site_fract_x
 _atom_site_fract_y
 _atom_site_fract_z
 _atom_site_occupancy
  Yb  Yb0  1  0.75000000  0.01215287  0.81522736  1
  Yb  Yb1  1  0.75000000  0.51215287  0.68477264  1
  Yb  Yb2  1  0.25000000  0.98784713  0.18477264  1
  Yb  Yb3  1  0.25000000  0.48784713  0.31522736  1
  Si  Si4  1  0.75000000  0.66783062  0.07727161  1
  Si  Si5  1  0.75000000  0.16783062  0.42272839  1
  Si  Si6  1  0.25000000  0.33216938  0.92272839  1
  Si  Si7  1  0.25000000  0.83216938  0.57727161  1
  Pt  Pt8  1  0.75000000  0.30415429  0.10499040  1
  Pt  Pt9  1  0.75000000  0.80415429  0.39500960  1
  Pt  Pt10  1  0.25000000  0.69584571  0.89500960  1
  Pt  Pt11  1  0.25000000  0.19584571  0.60499040  1
