# generated using pymatgen
data_Mg2NiSbO6
_symmetry_space_group_name_H-M   'P 1'
_cell_length_a   5.22755228
_cell_length_b   5.32095524
_cell_length_c   7.49876107
_cell_angle_alpha   90.00000000
_cell_angle_beta   90.00000000
_cell_angle_gamma   93.55799949
_symmetry_Int_Tables_number   1
_chemical_formula_structural   Mg2NiSbO6
_chemical_formula_sum   'Mg4 Ni2 Sb2 O12'
_cell_volume   208.18028123
_cell_formula_units_Z   2
loop_
 _symmetry_equiv_pos_site_id
 _symmetry_equiv_pos_as_xyz
  1  'x, y, z'
loop_
 _atom_site_type_symbol
 _atom_site_label
 _atom_site_symmetry_multiplicity
 _atom_site_fract_x
 _atom_site_fract_y
 _atom_site_fract_z
 _atom_site_occupancy
  Mg  Mg0  1  0.52479164  0.57231084  0.75000000  1
  Mg  Mg1  1  0.47520836  0.42768916  0.25000000  1
  Mg  Mg2  1  0.01640271  0.03392974  0.75000000  1
  Mg  Mg3  1  0.98359729  0.96607026  0.25000000  1
  Ni  Ni4  1  0.50000000  0.00000000  0.50000000  1
  Ni  Ni5  1  0.50000000  0.00000000  0.00000000  1
  Sb  Sb6  1  0.00000000  0.50000000  0.50000000  1
  Sb  Sb7  1  0.00000000  0.50000000  0.00000000  1
  O  O8  1  0.32837653  0.68305260  0.43391810  1
  O  O9  1  0.16843883  0.19566550  0.07058292  1
  O  O10  1  0.67162347  0.31694740  0.93391810  1
  O  O11  1  0.83156117  0.80433450  0.57058292  1
  O  O12  1  0.16843883  0.19566550  0.42941708  1
  O  O13  1  0.83156117  0.80433450  0.92941708  1
  O  O14  1  0.86336381  0.57817385  0.25000000  1
  O  O15  1  0.32837653  0.68305260  0.06608190  1
  O  O16  1  0.38108750  0.92508629  0.75000000  1
  O  O17  1  0.67162347  0.31694740  0.56608190  1
  O  O18  1  0.13663619  0.42182615  0.75000000  1
  O  O19  1  0.61891250  0.07491371  0.25000000  1
