# generated using pymatgen
data_NdNiP
_symmetry_space_group_name_H-M   'P 1'
_cell_length_a   3.98687822
_cell_length_b   3.98687822
_cell_length_c   16.14290473
_cell_angle_alpha   90.00000000
_cell_angle_beta   90.00000000
_cell_angle_gamma   119.98077927
_symmetry_Int_Tables_number   1
_chemical_formula_structural   NdNiP
_chemical_formula_sum   'Nd4 Ni4 P4'
_cell_volume   222.26052638
_cell_formula_units_Z   4
loop_
 _symmetry_equiv_pos_site_id
 _symmetry_equiv_pos_as_xyz
  1  'x, y, z'
loop_
 _atom_site_type_symbol
 _atom_site_label
 _atom_site_symmetry_multiplicity
 _atom_site_fract_x
 _atom_site_fract_y
 _atom_site_fract_z
 _atom_site_occupancy
  Nd  Nd0  1  -0.00000000  0.00000000  0.50000000  1
  Nd  Nd1  1  -0.00000000  0.00000000  -0.00000000  1
  Nd  Nd2  1  0.00004749  0.99995251  0.75000000  1
  Nd  Nd3  1  0.99995251  0.00004749  0.25000000  1
  Ni  Ni4  1  0.66681754  0.33318246  0.62641157  1
  Ni  Ni5  1  0.33318246  0.66681754  0.37358843  1
  Ni  Ni6  1  0.33318246  0.66681754  0.12641157  1
  Ni  Ni7  1  0.66681754  0.33318246  0.87358843  1
  P  P8  1  0.66665554  0.33334446  0.12545227  1
  P  P9  1  0.33334446  0.66665554  0.87454773  1
  P  P10  1  0.33334446  0.66665554  0.62545227  1
  P  P11  1  0.66665554  0.33334446  0.37454773  1
