# generated using pymatgen
data_MnTlF4
_symmetry_space_group_name_H-M   'P 1'
_cell_length_a   5.49919263
_cell_length_b   5.57118052
_cell_length_c   7.46346778
_cell_angle_alpha   111.91495488
_cell_angle_beta   111.19369734
_cell_angle_gamma   90.00000000
_symmetry_Int_Tables_number   1
_chemical_formula_structural   MnTlF4
_chemical_formula_sum   'Mn2 Tl2 F8'
_cell_volume   195.36583840
_cell_formula_units_Z   2
loop_
 _symmetry_equiv_pos_site_id
 _symmetry_equiv_pos_as_xyz
  1  'x, y, z'
loop_
 _atom_site_type_symbol
 _atom_site_label
 _atom_site_symmetry_multiplicity
 _atom_site_fract_x
 _atom_site_fract_y
 _atom_site_fract_z
 _atom_site_occupancy
  Mn  Mn0  1  0.50000000  0.00000000  0.50000000  1
  Mn  Mn1  1  0.00000000  0.50000000  0.50000000  1
  Tl  Tl2  1  0.25000000  0.23532627  1.00000000  1
  Tl  Tl3  1  0.75000000  0.76467373  0.00000000  1
  F  F4  1  0.32877137  0.76641555  0.21781564  1
  F  F5  1  0.17122863  0.54859991  0.78218436  1
  F  F6  1  0.67122863  0.23358445  0.78218436  1
  F  F7  1  0.82877137  0.45140009  0.21781564  1
  F  F8  1  0.24405346  0.27971578  0.42491054  1
  F  F9  1  0.25594654  0.85480525  0.57508946  1
  F  F10  1  0.75594654  0.72028422  0.57508946  1
  F  F11  1  0.74405346  0.14519475  0.42491054  1
