# generated using pymatgen
data_ErGaRh
_symmetry_space_group_name_H-M   'P 1'
_cell_length_a   4.35862874
_cell_length_b   6.75933425
_cell_length_c   7.75905769
_cell_angle_alpha   90.00000000
_cell_angle_beta   90.00000000
_cell_angle_gamma   90.00000000
_symmetry_Int_Tables_number   1
_chemical_formula_structural   ErGaRh
_chemical_formula_sum   'Er4 Ga4 Rh4'
_cell_volume   228.59292356
_cell_formula_units_Z   4
loop_
 _symmetry_equiv_pos_site_id
 _symmetry_equiv_pos_as_xyz
  1  'x, y, z'
loop_
 _atom_site_type_symbol
 _atom_site_label
 _atom_site_symmetry_multiplicity
 _atom_site_fract_x
 _atom_site_fract_y
 _atom_site_fract_z
 _atom_site_occupancy
  Er  Er0  1  0.75000000  0.51984408  0.19261132  1
  Er  Er1  1  0.75000000  0.01984408  0.30738868  1
  Er  Er2  1  0.25000000  0.48015592  0.80738868  1
  Er  Er3  1  0.25000000  0.98015592  0.69261132  1
  Ga  Ga4  1  0.75000000  0.16397076  0.92761383  1
  Ga  Ga5  1  0.75000000  0.66397076  0.57238617  1
  Ga  Ga6  1  0.25000000  0.83602924  0.07238617  1
  Ga  Ga7  1  0.25000000  0.33602924  0.42761383  1
  Rh  Rh8  1  0.75000000  0.27083809  0.60452363  1
  Rh  Rh9  1  0.75000000  0.77083809  0.89547637  1
  Rh  Rh10  1  0.25000000  0.72916191  0.39547637  1
  Rh  Rh11  1  0.25000000  0.22916191  0.10452363  1
