# generated using pymatgen
data_ZrPOs
_symmetry_space_group_name_H-M   'P 1'
_cell_length_a   3.93463907
_cell_length_b   6.48870004
_cell_length_c   7.35498936
_cell_angle_alpha   90.00000000
_cell_angle_beta   90.00000000
_cell_angle_gamma   90.00000000
_symmetry_Int_Tables_number   1
_chemical_formula_structural   ZrPOs
_chemical_formula_sum   'Zr4 P4 Os4'
_cell_volume   187.77797309
_cell_formula_units_Z   4
loop_
 _symmetry_equiv_pos_site_id
 _symmetry_equiv_pos_as_xyz
  1  'x, y, z'
loop_
 _atom_site_type_symbol
 _atom_site_label
 _atom_site_symmetry_multiplicity
 _atom_site_fract_x
 _atom_site_fract_y
 _atom_site_fract_z
 _atom_site_occupancy
  Zr  Zr0  1  0.75000000  0.47815652  0.67891584  1
  Zr  Zr1  1  0.75000000  0.97815652  0.82108416  1
  Zr  Zr2  1  0.25000000  0.52184348  0.32108416  1
  Zr  Zr3  1  0.25000000  0.02184348  0.17891584  1
  P  P4  1  0.75000000  0.72268952  0.12294103  1
  P  P5  1  0.75000000  0.22268952  0.37705897  1
  P  P6  1  0.25000000  0.27731048  0.87705897  1
  P  P7  1  0.25000000  0.77731048  0.62294103  1
  Os  Os8  1  0.75000000  0.34729386  0.06040293  1
  Os  Os9  1  0.75000000  0.84729386  0.43959707  1
  Os  Os10  1  0.25000000  0.65270614  0.93959707  1
  Os  Os11  1  0.25000000  0.15270614  0.56040293  1
