# generated using pymatgen
data_MnNb2ZnO8
_symmetry_space_group_name_H-M   'P 1'
_cell_length_a   5.10545083
_cell_length_b   5.78535387
_cell_length_c   10.24450128
_cell_angle_alpha   106.39248807
_cell_angle_beta   86.30197394
_cell_angle_gamma   89.97657143
_symmetry_Int_Tables_number   1
_chemical_formula_structural   MnNb2ZnO8
_chemical_formula_sum   'Mn2 Nb4 Zn2 O16'
_cell_volume   289.63102348
_cell_formula_units_Z   2
loop_
 _symmetry_equiv_pos_site_id
 _symmetry_equiv_pos_as_xyz
  1  'x, y, z'
loop_
 _atom_site_type_symbol
 _atom_site_label
 _atom_site_symmetry_multiplicity
 _atom_site_fract_x
 _atom_site_fract_y
 _atom_site_fract_z
 _atom_site_occupancy
  Mn  Mn0  1  0.74925758  0.64013128  0.99902692  1
  Mn  Mn1  1  0.24936818  0.35014318  0.99902401  1
  Nb  Nb2  1  0.74681554  0.30250894  0.23978084  1
  Nb  Nb3  1  0.75137693  0.06173923  0.75858463  1
  Nb  Nb4  1  0.25890282  0.70404690  0.76799081  1
  Nb  Nb5  1  0.23950130  0.93521619  0.22961600  1
  Zn  Zn6  1  0.19301687  0.56502193  0.45029285  1
  Zn  Zn7  1  0.30466147  0.11320899  0.54730423  1
  O  O8  1  0.09057419  0.18720653  0.11679681  1
  O  O9  1  0.40805612  0.06924653  0.88146639  1
  O  O10  1  0.91854486  0.80398172  0.88041974  1
  O  O11  1  0.58007389  0.92272182  0.11758295  1
  O  O12  1  0.56129850  0.44208540  0.10329804  1
  O  O13  1  0.93725867  0.33769704  0.89472665  1
  O  O14  1  0.43569183  0.55420920  0.89428546  1
  O  O15  1  0.06283739  0.65912777  0.10368963  1
  O  O16  1  0.40738865  0.27063238  0.33512963  1
  O  O17  1  0.09089964  0.93433343  0.66293230  1
  O  O18  1  0.33858434  0.83103175  0.38092454  1
  O  O19  1  0.15975304  0.44884194  0.61667600  1
  O  O20  1  0.63324387  0.20212739  0.63649113  1
  O  O21  1  0.86419498  0.56555460  0.36152967  1
  O  O22  1  0.91694238  0.07555349  0.32368472  1
  O  O23  1  0.58174597  0.75049639  0.67457606  1
