# generated using pymatgen
data_SmGaNi
_symmetry_space_group_name_H-M   'P 1'
_cell_length_a   4.36178453
_cell_length_b   7.01969594
_cell_length_c   7.49364382
_cell_angle_alpha   90.00000000
_cell_angle_beta   90.00000000
_cell_angle_gamma   90.00000000
_symmetry_Int_Tables_number   1
_chemical_formula_structural   SmGaNi
_chemical_formula_sum   'Sm4 Ga4 Ni4'
_cell_volume   229.44339260
_cell_formula_units_Z   4
loop_
 _symmetry_equiv_pos_site_id
 _symmetry_equiv_pos_as_xyz
  1  'x, y, z'
loop_
 _atom_site_type_symbol
 _atom_site_label
 _atom_site_symmetry_multiplicity
 _atom_site_fract_x
 _atom_site_fract_y
 _atom_site_fract_z
 _atom_site_occupancy
  Sm  Sm0  1  0.75000000  0.47972203  0.69907781  1
  Sm  Sm1  1  0.75000000  0.97972203  0.80092219  1
  Sm  Sm2  1  0.25000000  0.52027797  0.30092219  1
  Sm  Sm3  1  0.25000000  0.02027797  0.19907781  1
  Ga  Ga4  1  0.75000000  0.32066020  0.07920922  1
  Ga  Ga5  1  0.75000000  0.82066020  0.42079078  1
  Ga  Ga6  1  0.25000000  0.67933980  0.92079078  1
  Ga  Ga7  1  0.25000000  0.17933980  0.57920922  1
  Ni  Ni8  1  0.75000000  0.70606723  0.09051033  1
  Ni  Ni9  1  0.75000000  0.20606723  0.40948967  1
  Ni  Ni10  1  0.25000000  0.29393277  0.90948967  1
  Ni  Ni11  1  0.25000000  0.79393277  0.59051033  1
