# generated using pymatgen
data_EuIn4Ni
_symmetry_space_group_name_H-M   'P 1'
_cell_length_a   4.53930012
_cell_length_b   7.25953601
_cell_length_c   8.80472313
_cell_angle_alpha   90.08619681
_cell_angle_beta   104.59754518
_cell_angle_gamma   89.98724459
_symmetry_Int_Tables_number   1
_chemical_formula_structural   EuIn4Ni
_chemical_formula_sum   'Eu2 In8 Ni2'
_cell_volume   280.77773752
_cell_formula_units_Z   2
loop_
 _symmetry_equiv_pos_site_id
 _symmetry_equiv_pos_as_xyz
  1  'x, y, z'
loop_
 _atom_site_type_symbol
 _atom_site_label
 _atom_site_symmetry_multiplicity
 _atom_site_fract_x
 _atom_site_fract_y
 _atom_site_fract_z
 _atom_site_occupancy
  Eu  Eu0  1  0.12116740  0.74947621  0.24123026  1
  Eu  Eu1  1  0.88318687  0.24934494  0.75938924  1
  In  In2  1  0.68932076  0.04808197  0.37798593  1
  In  In3  1  0.31384404  0.54625790  0.62154091  1
  In  In4  1  0.92426682  0.75082826  0.85178617  1
  In  In5  1  0.69073424  0.45312643  0.37692282  1
  In  In6  1  0.07203244  0.24753194  0.14703023  1
  In  In7  1  0.50131857  0.49938945  0.99867817  1
  In  In8  1  0.49761551  0.99718893  0.00184614  1
  In  In9  1  0.31481341  0.95210295  0.62272300  1
  Ni  Ni10  1  0.78127954  0.75115948  0.55117537  1
  Ni  Ni11  1  0.22375038  0.24844655  0.44766476  1
