# generated using pymatgen
data_PrPb2
_symmetry_space_group_name_H-M   'P 1'
_cell_length_a   4.80862375
_cell_length_b   4.80862375
_cell_length_c   16.18562212
_cell_angle_alpha   98.54268492
_cell_angle_beta   98.54268492
_cell_angle_gamma   90.00000000
_symmetry_Int_Tables_number   1
_chemical_formula_structural   PrPb2
_chemical_formula_sum   'Pr4 Pb8'
_cell_volume   365.90636761
_cell_formula_units_Z   4
loop_
 _symmetry_equiv_pos_site_id
 _symmetry_equiv_pos_as_xyz
  1  'x, y, z'
loop_
 _atom_site_type_symbol
 _atom_site_label
 _atom_site_symmetry_multiplicity
 _atom_site_fract_x
 _atom_site_fract_y
 _atom_site_fract_z
 _atom_site_occupancy
  Pr  Pr0  1  0.32400640  0.82400640  0.64801279  1
  Pr  Pr1  1  0.92599360  0.92599360  0.85198721  1
  Pr  Pr2  1  0.17599360  0.67599360  0.35198721  1
  Pr  Pr3  1  0.07400640  0.07400640  0.14801279  1
  Pb  Pb4  1  0.50004915  0.00004915  0.00009830  1
  Pb  Pb5  1  0.74995085  0.74995085  0.49990170  1
  Pb  Pb6  1  0.99995085  0.49995085  0.99990170  1
  Pb  Pb7  1  0.25004915  0.25004915  0.50009830  1
  Pb  Pb8  1  0.66279935  0.16279935  0.32559870  1
  Pb  Pb9  1  0.58720065  0.58720065  0.17440130  1
  Pb  Pb10  1  0.83720065  0.33720065  0.67440130  1
  Pb  Pb11  1  0.41279935  0.41279935  0.82559870  1
