# generated using pymatgen
data_Sm(Ge2Rh3)2
_symmetry_space_group_name_H-M   'P 1'
_cell_length_a   3.88055308
_cell_length_b   7.23062288
_cell_length_c   7.23062288
_cell_angle_alpha   120.00000278
_cell_angle_beta   90.00000000
_cell_angle_gamma   90.00000000
_symmetry_Int_Tables_number   1
_chemical_formula_structural   Sm(Ge2Rh3)2
_chemical_formula_sum   'Sm1 Ge4 Rh6'
_cell_volume   175.70158142
_cell_formula_units_Z   1
loop_
 _symmetry_equiv_pos_site_id
 _symmetry_equiv_pos_as_xyz
  1  'x, y, z'
loop_
 _atom_site_type_symbol
 _atom_site_label
 _atom_site_symmetry_multiplicity
 _atom_site_fract_x
 _atom_site_fract_y
 _atom_site_fract_z
 _atom_site_occupancy
  Sm  Sm0  1  -0.00000000  0.00000000  0.00000000  1
  Ge  Ge1  1  0.00000000  0.66666700  0.33333300  1
  Ge  Ge2  1  0.50000000  0.19754856  0.80245144  1
  Ge  Ge3  1  0.50000000  0.60490288  0.80245144  1
  Ge  Ge4  1  0.50000000  0.19754856  0.39509712  1
  Rh  Rh5  1  0.00000000  0.46670532  0.53329468  1
  Rh  Rh6  1  -0.00000000  0.06658936  0.53329468  1
  Rh  Rh7  1  -0.00000000  0.46670532  0.93341064  1
  Rh  Rh8  1  0.50000000  0.80015213  0.19984787  1
  Rh  Rh9  1  0.50000000  0.39969574  0.19984787  1
  Rh  Rh10  1  0.50000000  0.80015213  0.60030426  1
