# generated using pymatgen
data_BiRhS
_symmetry_space_group_name_H-M   'P 1'
_cell_length_a   6.22212413
_cell_length_b   6.22212413
_cell_length_c   6.22212413
_cell_angle_alpha   90.00000000
_cell_angle_beta   90.00000000
_cell_angle_gamma   90.00000000
_symmetry_Int_Tables_number   1
_chemical_formula_structural   BiRhS
_chemical_formula_sum   'Bi4 Rh4 S4'
_cell_volume   240.88846978
_cell_formula_units_Z   4
loop_
 _symmetry_equiv_pos_site_id
 _symmetry_equiv_pos_as_xyz
  1  'x, y, z'
loop_
 _atom_site_type_symbol
 _atom_site_label
 _atom_site_symmetry_multiplicity
 _atom_site_fract_x
 _atom_site_fract_y
 _atom_site_fract_z
 _atom_site_occupancy
  Bi  Bi0  1  0.12736056  0.62736056  0.87263944  1
  Bi  Bi1  1  0.62736056  0.87263944  0.12736056  1
  Bi  Bi2  1  0.87263944  0.12736056  0.62736056  1
  Bi  Bi3  1  0.37263944  0.37263944  0.37263944  1
  Rh  Rh4  1  0.47799323  0.97799323  0.52200677  1
  Rh  Rh5  1  0.97799323  0.52200677  0.47799323  1
  Rh  Rh6  1  0.52200677  0.47799323  0.97799323  1
  Rh  Rh7  1  0.02200677  0.02200677  0.02200677  1
  S  S8  1  0.88110597  0.38110597  0.11889403  1
  S  S9  1  0.38110597  0.11889403  0.88110597  1
  S  S10  1  0.11889403  0.88110597  0.38110597  1
  S  S11  1  0.61889403  0.61889403  0.61889403  1
