# generated using pymatgen
data_Dy5S7
_symmetry_space_group_name_H-M   'P 1'
_cell_length_a   3.81491726
_cell_length_b   6.70366492
_cell_length_c   11.61370131
_cell_angle_alpha   103.97200973
_cell_angle_beta   90.00000000
_cell_angle_gamma   106.53133466
_symmetry_Int_Tables_number   1
_chemical_formula_structural   Dy5S7
_chemical_formula_sum   'Dy5 S7'
_cell_volume   275.55233364
_cell_formula_units_Z   1
loop_
 _symmetry_equiv_pos_site_id
 _symmetry_equiv_pos_as_xyz
  1  'x, y, z'
loop_
 _atom_site_type_symbol
 _atom_site_label
 _atom_site_symmetry_multiplicity
 _atom_site_fract_x
 _atom_site_fract_y
 _atom_site_fract_z
 _atom_site_occupancy
  Dy  Dy0  1  0.00000000  -0.00000000  -0.00000000  1
  Dy  Dy1  1  0.11215417  0.22430835  0.42120033  1
  Dy  Dy2  1  0.88784583  0.77569165  0.57879967  1
  Dy  Dy3  1  0.30068924  0.60137849  0.18782125  1
  Dy  Dy4  1  0.69931076  0.39862151  0.81217875  1
  S  S5  1  0.50000000  -0.00000000  0.50000000  1
  S  S6  1  0.65925488  0.31850976  0.05083224  1
  S  S7  1  0.34074512  0.68149024  0.94916776  1
  S  S8  1  0.95877655  0.91755311  0.21508268  1
  S  S9  1  0.04122345  0.08244689  0.78491732  1
  S  S10  1  0.25921026  0.51842052  0.64794701  1
  S  S11  1  0.74078974  0.48157948  0.35205299  1
