# generated using pymatgen
data_CsTmZnTe3
_symmetry_space_group_name_H-M   'P 1'
_cell_length_a   4.40669685
_cell_length_b   8.93587653
_cell_length_c   11.64172237
_cell_angle_alpha   90.00000000
_cell_angle_beta   90.00000000
_cell_angle_gamma   104.27482906
_symmetry_Int_Tables_number   1
_chemical_formula_structural   CsTmZnTe3
_chemical_formula_sum   'Cs2 Tm2 Zn2 Te6'
_cell_volume   444.26999994
_cell_formula_units_Z   2
loop_
 _symmetry_equiv_pos_site_id
 _symmetry_equiv_pos_as_xyz
  1  'x, y, z'
loop_
 _atom_site_type_symbol
 _atom_site_label
 _atom_site_symmetry_multiplicity
 _atom_site_fract_x
 _atom_site_fract_y
 _atom_site_fract_z
 _atom_site_occupancy
  Cs  Cs0  1  0.74553600  0.49107200  0.25000000  1
  Cs  Cs1  1  0.25446400  0.50892800  0.75000000  1
  Tm  Tm2  1  0.00000000  0.00000000  0.50000000  1
  Tm  Tm3  1  0.00000000  0.00000000  0.00000000  1
  Zn  Zn4  1  0.46113486  0.92226973  0.25000000  1
  Zn  Zn5  1  0.53886514  0.07773027  0.75000000  1
  Te  Te6  1  0.38203396  0.76406792  0.44500839  1
  Te  Te7  1  0.61796604  0.23593208  0.55499161  1
  Te  Te8  1  0.38203396  0.76406792  0.05499161  1
  Te  Te9  1  0.61796604  0.23593208  0.94500839  1
  Te  Te10  1  0.05720395  0.11440791  0.25000000  1
  Te  Te11  1  0.94279605  0.88559209  0.75000000  1
