# generated using pymatgen
data_HoGePt
_symmetry_space_group_name_H-M   'P 1'
_cell_length_a   4.35750089
_cell_length_b   7.02796459
_cell_length_c   7.62019767
_cell_angle_alpha   90.00000000
_cell_angle_beta   90.00000000
_cell_angle_gamma   90.00000000
_symmetry_Int_Tables_number   1
_chemical_formula_structural   HoGePt
_chemical_formula_sum   'Ho4 Ge4 Pt4'
_cell_volume   233.36369162
_cell_formula_units_Z   4
loop_
 _symmetry_equiv_pos_site_id
 _symmetry_equiv_pos_as_xyz
  1  'x, y, z'
loop_
 _atom_site_type_symbol
 _atom_site_label
 _atom_site_symmetry_multiplicity
 _atom_site_fract_x
 _atom_site_fract_y
 _atom_site_fract_z
 _atom_site_occupancy
  Ho  Ho0  1  0.75000000  0.99734436  0.79725895  1
  Ho  Ho1  1  0.75000000  0.49734436  0.70274105  1
  Ho  Ho2  1  0.25000000  0.00265564  0.20274105  1
  Ho  Ho3  1  0.25000000  0.50265564  0.29725895  1
  Ge  Ge4  1  0.75000000  0.68962320  0.09051465  1
  Ge  Ge5  1  0.75000000  0.18962320  0.40948535  1
  Ge  Ge6  1  0.25000000  0.31037680  0.90948535  1
  Ge  Ge7  1  0.25000000  0.81037680  0.59051465  1
  Pt  Pt8  1  0.75000000  0.29557844  0.08348820  1
  Pt  Pt9  1  0.75000000  0.79557844  0.41651180  1
  Pt  Pt10  1  0.25000000  0.70442156  0.91651180  1
  Pt  Pt11  1  0.25000000  0.20442156  0.58348820  1
