# generated using pymatgen
data_TiSiPd
_symmetry_space_group_name_H-M   'P 1'
_cell_length_a   3.78285019
_cell_length_b   6.36849240
_cell_length_c   7.46317733
_cell_angle_alpha   90.00000000
_cell_angle_beta   90.00000000
_cell_angle_gamma   90.00000000
_symmetry_Int_Tables_number   1
_chemical_formula_structural   TiSiPd
_chemical_formula_sum   'Ti4 Si4 Pd4'
_cell_volume   179.79579826
_cell_formula_units_Z   4
loop_
 _symmetry_equiv_pos_site_id
 _symmetry_equiv_pos_as_xyz
  1  'x, y, z'
loop_
 _atom_site_type_symbol
 _atom_site_label
 _atom_site_symmetry_multiplicity
 _atom_site_fract_x
 _atom_site_fract_y
 _atom_site_fract_z
 _atom_site_occupancy
  Ti  Ti0  1  0.75000000  0.47006689  0.17631997  1
  Ti  Ti1  1  0.75000000  0.97006689  0.32368003  1
  Ti  Ti2  1  0.25000000  0.52993311  0.82368003  1
  Ti  Ti3  1  0.25000000  0.02993311  0.67631997  1
  Si  Si4  1  0.75000000  0.24511419  0.87406722  1
  Si  Si5  1  0.75000000  0.74511419  0.62593278  1
  Si  Si6  1  0.25000000  0.75488581  0.12593278  1
  Si  Si7  1  0.25000000  0.25488581  0.37406722  1
  Pd  Pd8  1  0.75000000  0.35374804  0.56260692  1
  Pd  Pd9  1  0.75000000  0.85374804  0.93739308  1
  Pd  Pd10  1  0.25000000  0.64625196  0.43739308  1
  Pd  Pd11  1  0.25000000  0.14625196  0.06260692  1
