# generated using pymatgen
data_YCr3O9
_symmetry_space_group_name_H-M   'P 1'
_cell_length_a   5.57448537
_cell_length_b   16.05674518
_cell_length_c   8.04990372
_cell_angle_alpha   90.17412869
_cell_angle_beta   89.74593681
_cell_angle_gamma   89.92666406
_symmetry_Int_Tables_number   1
_chemical_formula_structural   YCr3O9
_chemical_formula_sum   'Y4 Cr12 O36'
_cell_volume   720.52050182
_cell_formula_units_Z   4
loop_
 _symmetry_equiv_pos_site_id
 _symmetry_equiv_pos_as_xyz
  1  'x, y, z'
loop_
 _atom_site_type_symbol
 _atom_site_label
 _atom_site_symmetry_multiplicity
 _atom_site_fract_x
 _atom_site_fract_y
 _atom_site_fract_z
 _atom_site_occupancy
  Y  Y0  1  0.97945000  0.98257136  0.75582665  1
  Y  Y1  1  0.48141254  0.18339806  0.25182739  1
  Y  Y2  1  0.51787208  0.48362100  0.73616239  1
  Y  Y3  1  0.02070914  0.68330036  0.25904166  1
  Cr  Cr4  1  0.99282315  0.20262784  0.56082251  1
  Cr  Cr5  1  0.01182311  0.46102801  0.43091195  1
  Cr  Cr6  1  0.00829320  0.83447060  0.49764689  1
  Cr  Cr7  1  0.51927920  0.98156879  0.53017195  1
  Cr  Cr8  1  0.50179305  0.33210191  0.49633145  1
  Cr  Cr9  1  0.51356500  0.70707949  0.56710446  1
  Cr  Cr10  1  0.48642860  0.96100009  0.06710933  1
  Cr  Cr11  1  0.49745827  0.33409624  0.99517574  1
  Cr  Cr12  1  0.48209823  0.68380886  0.03002136  1
  Cr  Cr13  1  0.01298910  0.18846479  0.02285920  1
  Cr  Cr14  1  0.98143932  0.48161569  0.96882060  1
  Cr  Cr15  1  0.99306136  0.83219565  0.99822902  1
  O  O16  1  0.48673078  0.06752157  0.42210793  1
  O  O17  1  0.73089764  0.43041073  0.49515965  1
  O  O18  1  0.75326951  0.74560130  0.45326847  1
  O  O19  1  0.99282768  0.10003075  0.57173662  1
  O  O20  1  0.24776400  0.42160696  0.54603738  1
  O  O21  1  0.23518352  0.73719903  0.49728255  1
  O  O22  1  0.74816083  0.24156473  0.04092389  1
  O  O23  1  0.99868806  0.56822600  0.07914040  1
  O  O24  1  0.76228584  0.92856745  0.99548468  1
  O  O25  1  0.27107486  0.23710305  0.97178614  1
  O  O26  1  0.50154571  0.59836437  0.91676127  1
  O  O27  1  0.24383155  0.92393590  0.95505466  1
  O  O28  1  0.27277258  0.23482659  0.49731477  1
  O  O29  1  0.52568888  0.60478934  0.57223251  1
  O  O30  1  0.26059228  0.92566665  0.54971781  1
  O  O31  1  0.75481839  0.24093261  0.44488687  1
  O  O32  1  0.02383708  0.56338635  0.42701005  1
  O  O33  1  0.78176544  0.93356361  0.48492984  1
  O  O34  1  0.98406669  0.09945510  0.92289748  1
  O  O35  1  0.24587794  0.42813947  0.94724739  1
  O  O36  1  0.22409383  0.73449555  0.98887591  1
  O  O37  1  0.48535815  0.06360407  0.07761271  1
  O  O38  1  0.72526396  0.43063414  0.01452900  1
  O  O39  1  0.74371183  0.73830239  0.04980277  1
  O  O40  1  0.06948445  0.16005819  0.21696106  1
  O  O41  1  0.05260223  0.42441965  0.24778240  1
  O  O42  1  0.04915940  0.82024252  0.24612009  1
  O  O43  1  0.56966875  0.01374362  0.72285675  1
  O  O44  1  0.55286417  0.34733201  0.74719226  1
  O  O45  1  0.54641748  0.74437981  0.74987315  1
  O  O46  1  0.44795553  0.31945345  0.24348788  1
  O  O47  1  0.43055728  0.65041708  0.22173970  1
  O  O48  1  0.45366539  0.92315236  0.24940887  1
  O  O49  1  0.94676150  0.23996806  0.74221305  1
  O  O50  1  0.92715504  0.51339775  0.77667658  1
  O  O51  1  0.95310642  0.84589106  0.74582492  1
