# generated using pymatgen
data_EuSiPt
_symmetry_space_group_name_H-M   'P 1'
_cell_length_a   6.47033733
_cell_length_b   6.47033733
_cell_length_c   6.47033733
_cell_angle_alpha   90.00000000
_cell_angle_beta   90.00000000
_cell_angle_gamma   90.00000000
_symmetry_Int_Tables_number   1
_chemical_formula_structural   EuSiPt
_chemical_formula_sum   'Eu4 Si4 Pt4'
_cell_volume   270.88238802
_cell_formula_units_Z   4
loop_
 _symmetry_equiv_pos_site_id
 _symmetry_equiv_pos_as_xyz
  1  'x, y, z'
loop_
 _atom_site_type_symbol
 _atom_site_label
 _atom_site_symmetry_multiplicity
 _atom_site_fract_x
 _atom_site_fract_y
 _atom_site_fract_z
 _atom_site_occupancy
  Eu  Eu0  1  0.37040997  0.87040997  0.62959003  1
  Eu  Eu1  1  0.87040997  0.62959003  0.37040997  1
  Eu  Eu2  1  0.62959003  0.37040997  0.87040997  1
  Eu  Eu3  1  0.12959003  0.12959003  0.12959003  1
  Si  Si4  1  0.66503523  0.16503523  0.33496477  1
  Si  Si5  1  0.16503523  0.33496477  0.66503523  1
  Si  Si6  1  0.33496477  0.66503523  0.16503523  1
  Si  Si7  1  0.83496477  0.83496477  0.83496477  1
  Pt  Pt8  1  0.08377317  0.58377317  0.91622683  1
  Pt  Pt9  1  0.58377317  0.91622683  0.08377317  1
  Pt  Pt10  1  0.91622683  0.08377317  0.58377317  1
  Pt  Pt11  1  0.41622683  0.41622683  0.41622683  1
