# generated using pymatgen
data_MgBiF5
_symmetry_space_group_name_H-M   'P 1'
_cell_length_a   5.78821186
_cell_length_b   5.76173299
_cell_length_c   8.27639633
_cell_angle_alpha   99.10436128
_cell_angle_beta   108.11752045
_cell_angle_gamma   108.74115118
_symmetry_Int_Tables_number   1
_chemical_formula_structural   MgBiF5
_chemical_formula_sum   'Mg2 Bi2 F10'
_cell_volume   237.98748144
_cell_formula_units_Z   2
loop_
 _symmetry_equiv_pos_site_id
 _symmetry_equiv_pos_as_xyz
  1  'x, y, z'
loop_
 _atom_site_type_symbol
 _atom_site_label
 _atom_site_symmetry_multiplicity
 _atom_site_fract_x
 _atom_site_fract_y
 _atom_site_fract_z
 _atom_site_occupancy
  Mg  Mg0  1  0.26026988  0.51398436  0.74558706  1
  Mg  Mg1  1  0.73725788  0.48723328  0.24955408  1
  Bi  Bi2  1  -0.00069073  0.00255757  -0.00409266  1
  Bi  Bi3  1  0.49327114  0.99610976  0.49551934  1
  F  F4  1  0.40948932  0.16264217  0.24687948  1
  F  F5  1  0.58569101  0.83743864  0.74841931  1
  F  F6  1  0.58468260  0.69295451  0.35547229  1
  F  F7  1  0.83836943  0.23249484  0.14054787  1
  F  F8  1  0.77986416  0.67113244  0.07415348  1
  F  F9  1  0.09307291  0.68977880  0.43195851  1
  F  F10  1  0.23836069  0.33851585  0.92889224  1
  F  F11  1  0.89931105  0.29543799  0.57450456  1
  F  F12  1  0.15992104  0.77169179  0.85211233  1
  F  F13  1  0.41009561  0.30568200  0.63957312  1
