# generated using pymatgen
data_Li4Sm3Ge4
_symmetry_space_group_name_H-M   'P 1'
_cell_length_a   4.40098013
_cell_length_b   6.78736564
_cell_length_c   8.34960261
_cell_angle_alpha   113.98192779
_cell_angle_beta   105.28047495
_cell_angle_gamma   90.00000000
_symmetry_Int_Tables_number   1
_chemical_formula_structural   Li4Sm3Ge4
_chemical_formula_sum   'Li4 Sm3 Ge4'
_cell_volume   218.19500610
_cell_formula_units_Z   1
loop_
 _symmetry_equiv_pos_site_id
 _symmetry_equiv_pos_as_xyz
  1  'x, y, z'
loop_
 _atom_site_type_symbol
 _atom_site_label
 _atom_site_symmetry_multiplicity
 _atom_site_fract_x
 _atom_site_fract_y
 _atom_site_fract_z
 _atom_site_occupancy
  Li  Li0  1  0.67115758  0.98119925  0.34231516  1
  Li  Li1  1  0.32884242  0.01880075  0.65768484  1
  Li  Li2  1  0.32884242  0.63888409  0.65768484  1
  Li  Li3  1  0.67115758  0.36111591  0.34231516  1
  Sm  Sm4  1  0.00000000  -0.00000000  0.00000000  1
  Sm  Sm5  1  0.13027269  0.63027269  0.26054538  1
  Sm  Sm6  1  0.86972731  0.36972731  0.73945462  1
  Ge  Ge7  1  0.50000000  0.68741171  0.00000000  1
  Ge  Ge8  1  0.50000000  0.31258829  1.00000000  1
  Ge  Ge9  1  0.78666994  0.78666994  0.57333988  1
  Ge  Ge10  1  0.21333006  0.21333006  0.42666012  1
