# generated using pymatgen
data_ZnPd2
_symmetry_space_group_name_H-M   'P 1'
_cell_length_a   4.22718769
_cell_length_b   5.40772045
_cell_length_c   7.83820903
_cell_angle_alpha   90.00000000
_cell_angle_beta   90.00000000
_cell_angle_gamma   90.00000000
_symmetry_Int_Tables_number   1
_chemical_formula_structural   ZnPd2
_chemical_formula_sum   'Zn4 Pd8'
_cell_volume   179.17714206
_cell_formula_units_Z   4
loop_
 _symmetry_equiv_pos_site_id
 _symmetry_equiv_pos_as_xyz
  1  'x, y, z'
loop_
 _atom_site_type_symbol
 _atom_site_label
 _atom_site_symmetry_multiplicity
 _atom_site_fract_x
 _atom_site_fract_y
 _atom_site_fract_z
 _atom_site_occupancy
  Zn  Zn0  1  0.75000000  0.19071238  0.59930892  1
  Zn  Zn1  1  0.75000000  0.69071238  0.90069108  1
  Zn  Zn2  1  0.25000000  0.80928762  0.40069108  1
  Zn  Zn3  1  0.25000000  0.30928762  0.09930892  1
  Pd  Pd4  1  0.75000000  0.67946347  0.56902488  1
  Pd  Pd5  1  0.75000000  0.17946347  0.93097512  1
  Pd  Pd6  1  0.25000000  0.32053653  0.43097512  1
  Pd  Pd7  1  0.25000000  0.82053653  0.06902488  1
  Pd  Pd8  1  0.75000000  0.53560868  0.22586312  1
  Pd  Pd9  1  0.75000000  0.03560868  0.27413688  1
  Pd  Pd10  1  0.25000000  0.46439132  0.77413688  1
  Pd  Pd11  1  0.25000000  0.96439132  0.72586312  1
