# generated using pymatgen
data_TaFeGe
_symmetry_space_group_name_H-M   'P 1'
_cell_length_a   3.84076548
_cell_length_b   6.23524132
_cell_length_c   7.11895287
_cell_angle_alpha   90.00000000
_cell_angle_beta   90.00000000
_cell_angle_gamma   90.00000000
_symmetry_Int_Tables_number   1
_chemical_formula_structural   TaFeGe
_chemical_formula_sum   'Ta4 Fe4 Ge4'
_cell_volume   170.48539253
_cell_formula_units_Z   4
loop_
 _symmetry_equiv_pos_site_id
 _symmetry_equiv_pos_as_xyz
  1  'x, y, z'
loop_
 _atom_site_type_symbol
 _atom_site_label
 _atom_site_symmetry_multiplicity
 _atom_site_fract_x
 _atom_site_fract_y
 _atom_site_fract_z
 _atom_site_occupancy
  Ta  Ta0  1  0.75000000  0.48414759  0.31138997  1
  Ta  Ta1  1  0.75000000  0.98414759  0.18861003  1
  Ta  Ta2  1  0.25000000  0.51585241  0.68861003  1
  Ta  Ta3  1  0.25000000  0.01585241  0.81138997  1
  Fe  Fe4  1  0.75000000  0.35115390  0.93846511  1
  Fe  Fe5  1  0.75000000  0.85115390  0.56153489  1
  Fe  Fe6  1  0.25000000  0.64884610  0.06153489  1
  Fe  Fe7  1  0.25000000  0.14884610  0.43846511  1
  Ge  Ge8  1  0.75000000  0.72671664  0.88203152  1
  Ge  Ge9  1  0.75000000  0.22671664  0.61796848  1
  Ge  Ge10  1  0.25000000  0.27328336  0.11796848  1
  Ge  Ge11  1  0.25000000  0.77328336  0.38203152  1
