# generated using pymatgen
data_Y3(CuGe)4
_symmetry_space_group_name_H-M   'P 1'
_cell_length_a   4.22442198
_cell_length_b   6.66589085
_cell_length_c   8.02401642
_cell_angle_alpha   114.54269906
_cell_angle_beta   105.26216609
_cell_angle_gamma   90.00000000
_symmetry_Int_Tables_number   1
_chemical_formula_structural   Y3(CuGe)4
_chemical_formula_sum   'Y3 Cu4 Ge4'
_cell_volume   196.74404480
_cell_formula_units_Z   1
loop_
 _symmetry_equiv_pos_site_id
 _symmetry_equiv_pos_as_xyz
  1  'x, y, z'
loop_
 _atom_site_type_symbol
 _atom_site_label
 _atom_site_symmetry_multiplicity
 _atom_site_fract_x
 _atom_site_fract_y
 _atom_site_fract_z
 _atom_site_occupancy
  Y  Y0  1  -0.00000000  0.50000000  0.00000000  1
  Y  Y1  1  0.87054237  0.87054237  0.74108473  1
  Y  Y2  1  0.12945763  0.12945763  0.25891527  1
  Cu  Cu3  1  0.66935787  0.47939573  0.33871575  1
  Cu  Cu4  1  0.66935787  0.85932002  0.33871575  1
  Cu  Cu5  1  0.33064213  0.14067998  0.66128425  1
  Cu  Cu6  1  0.33064213  0.52060427  0.66128425  1
  Ge  Ge7  1  0.78354728  0.28354728  0.56709455  1
  Ge  Ge8  1  0.21645272  0.71645272  0.43290545  1
  Ge  Ge9  1  0.50000000  0.80860940  0.00000000  1
  Ge  Ge10  1  0.50000000  0.19139060  1.00000000  1
