# generated using pymatgen
data_SiPtSe
_symmetry_space_group_name_H-M   'P 1'
_cell_length_a   5.94753455
_cell_length_b   5.99529981
_cell_length_c   6.09495279
_cell_angle_alpha   90.00000000
_cell_angle_beta   90.00000000
_cell_angle_gamma   90.00000000
_symmetry_Int_Tables_number   1
_chemical_formula_structural   SiPtSe
_chemical_formula_sum   'Si4 Pt4 Se4'
_cell_volume   217.32927218
_cell_formula_units_Z   4
loop_
 _symmetry_equiv_pos_site_id
 _symmetry_equiv_pos_as_xyz
  1  'x, y, z'
loop_
 _atom_site_type_symbol
 _atom_site_label
 _atom_site_symmetry_multiplicity
 _atom_site_fract_x
 _atom_site_fract_y
 _atom_site_fract_z
 _atom_site_occupancy
  Si  Si0  1  0.61505023  0.88518545  0.87640361  1
  Si  Si1  1  0.11505023  0.11481455  0.12359639  1
  Si  Si2  1  0.11505023  0.61481455  0.87640361  1
  Si  Si3  1  0.61505023  0.38518545  0.12359639  1
  Pt  Pt4  1  0.99432874  0.48289325  0.22936731  1
  Pt  Pt5  1  0.49432874  0.51710675  0.77063269  1
  Pt  Pt6  1  0.49432874  0.01710675  0.22936731  1
  Pt  Pt7  1  0.99432874  0.98289325  0.77063269  1
  Se  Se8  1  0.38962103  0.11396189  0.64046587  1
  Se  Se9  1  0.88962103  0.88603811  0.35953413  1
  Se  Se10  1  0.88962103  0.38603811  0.64046587  1
  Se  Se11  1  0.38962103  0.61396189  0.35953413  1
