# generated using pymatgen
data_HfCoSi
_symmetry_space_group_name_H-M   'P 1'
_cell_length_a   3.82711284
_cell_length_b   6.38344794
_cell_length_c   7.09872864
_cell_angle_alpha   90.00000000
_cell_angle_beta   90.00000000
_cell_angle_gamma   90.00000000
_symmetry_Int_Tables_number   1
_chemical_formula_structural   HfCoSi
_chemical_formula_sum   'Hf4 Co4 Si4'
_cell_volume   173.42318703
_cell_formula_units_Z   4
loop_
 _symmetry_equiv_pos_site_id
 _symmetry_equiv_pos_as_xyz
  1  'x, y, z'
loop_
 _atom_site_type_symbol
 _atom_site_label
 _atom_site_symmetry_multiplicity
 _atom_site_fract_x
 _atom_site_fract_y
 _atom_site_fract_z
 _atom_site_occupancy
  Hf  Hf0  1  0.75000000  0.48912605  0.19062472  1
  Hf  Hf1  1  0.75000000  0.98912605  0.30937528  1
  Hf  Hf2  1  0.25000000  0.51087395  0.80937528  1
  Hf  Hf3  1  0.25000000  0.01087395  0.69062472  1
  Co  Co4  1  0.75000000  0.35335043  0.56612125  1
  Co  Co5  1  0.75000000  0.85335043  0.93387875  1
  Co  Co6  1  0.25000000  0.64664957  0.43387875  1
  Co  Co7  1  0.25000000  0.14664957  0.06612125  1
  Si  Si8  1  0.75000000  0.21915260  0.89055535  1
  Si  Si9  1  0.75000000  0.71915260  0.60944465  1
  Si  Si10  1  0.25000000  0.78084740  0.10944465  1
  Si  Si11  1  0.25000000  0.28084740  0.39055535  1
