# generated using pymatgen
data_Ce2P2AuO
_symmetry_space_group_name_H-M   'P 1'
_cell_length_a   4.18258903
_cell_length_b   7.83838230
_cell_length_c   7.86074582
_cell_angle_alpha   78.11087444
_cell_angle_beta   74.57107698
_cell_angle_gamma   74.52595633
_symmetry_Int_Tables_number   1
_chemical_formula_structural   Ce2P2AuO
_chemical_formula_sum   'Ce4 P4 Au2 O2'
_cell_volume   236.87700695
_cell_formula_units_Z   2
loop_
 _symmetry_equiv_pos_site_id
 _symmetry_equiv_pos_as_xyz
  1  'x, y, z'
loop_
 _atom_site_type_symbol
 _atom_site_label
 _atom_site_symmetry_multiplicity
 _atom_site_fract_x
 _atom_site_fract_y
 _atom_site_fract_z
 _atom_site_occupancy
  Ce  Ce0  1  0.13040203  0.05060909  0.68858685  1
  Ce  Ce1  1  0.86959797  0.94939091  0.31141315  1
  Ce  Ce2  1  0.17135206  0.38752546  0.26977043  1
  Ce  Ce3  1  0.82864794  0.61247454  0.73022957  1
  P  P4  1  0.54997165  0.35426404  0.54579266  1
  P  P5  1  0.45002835  0.64573596  0.45420734  1
  P  P6  1  0.14953540  0.73615714  0.96477206  1
  P  P7  1  0.85046460  0.26384286  0.03522794  1
  Au  Au8  1  0.41288199  0.29930266  0.87493335  1
  Au  Au9  1  0.58711801  0.70069734  0.12506665  1
  O  O10  1  0.27486897  0.07715726  0.37310481  1
  O  O11  1  0.72513103  0.92284274  0.62689519  1
