# generated using pymatgen
data_ZrSiNi
_symmetry_space_group_name_H-M   'P 1'
_cell_length_a   3.82116077
_cell_length_b   6.47893670
_cell_length_c   7.30105714
_cell_angle_alpha   90.00000000
_cell_angle_beta   90.00000000
_cell_angle_gamma   90.00000000
_symmetry_Int_Tables_number   1
_chemical_formula_structural   ZrSiNi
_chemical_formula_sum   'Zr4 Si4 Ni4'
_cell_volume   180.75270055
_cell_formula_units_Z   4
loop_
 _symmetry_equiv_pos_site_id
 _symmetry_equiv_pos_as_xyz
  1  'x, y, z'
loop_
 _atom_site_type_symbol
 _atom_site_label
 _atom_site_symmetry_multiplicity
 _atom_site_fract_x
 _atom_site_fract_y
 _atom_site_fract_z
 _atom_site_occupancy
  Zr  Zr0  1  0.75000000  0.48376221  0.68540607  1
  Zr  Zr1  1  0.75000000  0.98376221  0.81459393  1
  Zr  Zr2  1  0.25000000  0.51623779  0.31459393  1
  Zr  Zr3  1  0.25000000  0.01623779  0.18540607  1
  Si  Si4  1  0.75000000  0.72557180  0.11382389  1
  Si  Si5  1  0.75000000  0.22557180  0.38617611  1
  Si  Si6  1  0.25000000  0.27442820  0.88617611  1
  Si  Si7  1  0.25000000  0.77442820  0.61382389  1
  Ni  Ni8  1  0.75000000  0.35875894  0.06116181  1
  Ni  Ni9  1  0.75000000  0.85875894  0.43883819  1
  Ni  Ni10  1  0.25000000  0.64124106  0.93883819  1
  Ni  Ni11  1  0.25000000  0.14124106  0.56116181  1
