# generated using pymatgen
data_SbRhS
_symmetry_space_group_name_H-M   'P 1'
_cell_length_a   6.10150621
_cell_length_b   6.10150621
_cell_length_c   6.10150621
_cell_angle_alpha   90.00000000
_cell_angle_beta   90.00000000
_cell_angle_gamma   90.00000000
_symmetry_Int_Tables_number   1
_chemical_formula_structural   SbRhS
_chemical_formula_sum   'Sb4 Rh4 S4'
_cell_volume   227.14917974
_cell_formula_units_Z   4
loop_
 _symmetry_equiv_pos_site_id
 _symmetry_equiv_pos_as_xyz
  1  'x, y, z'
loop_
 _atom_site_type_symbol
 _atom_site_label
 _atom_site_symmetry_multiplicity
 _atom_site_fract_x
 _atom_site_fract_y
 _atom_site_fract_z
 _atom_site_occupancy
  Sb  Sb0  1  0.87867822  0.37867822  0.12132178  1
  Sb  Sb1  1  0.37867822  0.12132178  0.87867822  1
  Sb  Sb2  1  0.12132178  0.87867822  0.37867822  1
  Sb  Sb3  1  0.62132178  0.62132178  0.62132178  1
  Rh  Rh4  1  0.51273242  0.01273242  0.48726758  1
  Rh  Rh5  1  0.01273242  0.48726758  0.51273242  1
  Rh  Rh6  1  0.48726758  0.51273242  0.01273242  1
  Rh  Rh7  1  0.98726758  0.98726758  0.98726758  1
  S  S8  1  0.11765214  0.61765214  0.88234786  1
  S  S9  1  0.61765214  0.88234786  0.11765214  1
  S  S10  1  0.88234786  0.11765214  0.61765214  1
  S  S11  1  0.38234786  0.38234786  0.38234786  1
