# generated using pymatgen
data_NbGePt
_symmetry_space_group_name_H-M   'P 1'
_cell_length_a   3.97487538
_cell_length_b   6.51821424
_cell_length_c   7.57430156
_cell_angle_alpha   90.00000000
_cell_angle_beta   90.00000000
_cell_angle_gamma   90.00000000
_symmetry_Int_Tables_number   1
_chemical_formula_structural   NbGePt
_chemical_formula_sum   'Nb4 Ge4 Pt4'
_cell_volume   196.24325553
_cell_formula_units_Z   4
loop_
 _symmetry_equiv_pos_site_id
 _symmetry_equiv_pos_as_xyz
  1  'x, y, z'
loop_
 _atom_site_type_symbol
 _atom_site_label
 _atom_site_symmetry_multiplicity
 _atom_site_fract_x
 _atom_site_fract_y
 _atom_site_fract_z
 _atom_site_occupancy
  Nb  Nb0  1  0.75000000  0.47208626  0.17164212  1
  Nb  Nb1  1  0.75000000  0.97208626  0.32835788  1
  Nb  Nb2  1  0.25000000  0.52791374  0.82835788  1
  Nb  Nb3  1  0.25000000  0.02791374  0.67164212  1
  Ge  Ge4  1  0.75000000  0.23784242  0.87606338  1
  Ge  Ge5  1  0.75000000  0.73784242  0.62393662  1
  Ge  Ge6  1  0.25000000  0.76215758  0.12393662  1
  Ge  Ge7  1  0.25000000  0.26215758  0.37606338  1
  Pt  Pt8  1  0.75000000  0.34666421  0.56386973  1
  Pt  Pt9  1  0.75000000  0.84666421  0.93613027  1
  Pt  Pt10  1  0.25000000  0.65333579  0.43613027  1
  Pt  Pt11  1  0.25000000  0.15333579  0.06386973  1
