# generated using pymatgen
data_SbRuS
_symmetry_space_group_name_H-M   'P 1'
_cell_length_a   6.18736473
_cell_length_b   6.25493025
_cell_length_c   6.26743196
_cell_angle_alpha   111.65911197
_cell_angle_beta   90.00000000
_cell_angle_gamma   90.00000000
_symmetry_Int_Tables_number   1
_chemical_formula_structural   SbRuS
_chemical_formula_sum   'Sb4 Ru4 S4'
_cell_volume   225.43363190
_cell_formula_units_Z   4
loop_
 _symmetry_equiv_pos_site_id
 _symmetry_equiv_pos_as_xyz
  1  'x, y, z'
loop_
 _atom_site_type_symbol
 _atom_site_label
 _atom_site_symmetry_multiplicity
 _atom_site_fract_x
 _atom_site_fract_y
 _atom_site_fract_z
 _atom_site_occupancy
  Sb  Sb0  1  0.12904634  0.85092673  0.12967946  1
  Sb  Sb1  1  0.62904634  0.14907327  0.37032054  1
  Sb  Sb2  1  0.87095366  0.14907327  0.87032054  1
  Sb  Sb3  1  0.37095366  0.85092673  0.62967946  1
  Ru  Ru4  1  0.51290721  0.70360926  0.19745893  1
  Ru  Ru5  1  0.01290721  0.29639074  0.30254107  1
  Ru  Ru6  1  0.48709279  0.29639074  0.80254107  1
  Ru  Ru7  1  0.98709279  0.70360926  0.69745893  1
  S  S8  1  0.86650436  0.64736764  0.32126087  1
  S  S9  1  0.36650436  0.35263236  0.17873913  1
  S  S10  1  0.13349564  0.35263236  0.67873913  1
  S  S11  1  0.63349564  0.64736764  0.82126087  1
