# generated using pymatgen
data_ErNiP
_symmetry_space_group_name_H-M   'P 1'
_cell_length_a   3.88013644
_cell_length_b   3.88013644
_cell_length_c   15.28881593
_cell_angle_alpha   90.00000000
_cell_angle_beta   90.00000000
_cell_angle_gamma   119.95905583
_symmetry_Int_Tables_number   1
_chemical_formula_structural   ErNiP
_chemical_formula_sum   'Er4 Ni4 P4'
_cell_volume   199.42404127
_cell_formula_units_Z   4
loop_
 _symmetry_equiv_pos_site_id
 _symmetry_equiv_pos_as_xyz
  1  'x, y, z'
loop_
 _atom_site_type_symbol
 _atom_site_label
 _atom_site_symmetry_multiplicity
 _atom_site_fract_x
 _atom_site_fract_y
 _atom_site_fract_z
 _atom_site_occupancy
  Er  Er0  1  -0.00000000  -0.00000000  0.50000000  1
  Er  Er1  1  -0.00000000  -0.00000000  -0.00000000  1
  Er  Er2  1  0.00011828  0.99988172  0.75000000  1
  Er  Er3  1  0.99988172  0.00011828  0.25000000  1
  Ni  Ni4  1  0.66672990  0.33327010  0.62841299  1
  Ni  Ni5  1  0.33327010  0.66672990  0.37158701  1
  Ni  Ni6  1  0.33327010  0.66672990  0.12841299  1
  Ni  Ni7  1  0.66672990  0.33327010  0.87158701  1
  P  P8  1  0.66678147  0.33321853  0.12145725  1
  P  P9  1  0.33321853  0.66678147  0.87854275  1
  P  P10  1  0.33321853  0.66678147  0.62145725  1
  P  P11  1  0.66678147  0.33321853  0.37854275  1
