# generated using pymatgen
data_TmAsSe
_symmetry_space_group_name_H-M   'P 1'
_cell_length_a   3.88647815
_cell_length_b   3.87337907
_cell_length_c   17.40454095
_cell_angle_alpha   90.00000000
_cell_angle_beta   90.00000000
_cell_angle_gamma   90.07047047
_symmetry_Int_Tables_number   1
_chemical_formula_structural   TmAsSe
_chemical_formula_sum   'Tm4 As4 Se4'
_cell_volume   262.00433440
_cell_formula_units_Z   4
loop_
 _symmetry_equiv_pos_site_id
 _symmetry_equiv_pos_as_xyz
  1  'x, y, z'
loop_
 _atom_site_type_symbol
 _atom_site_label
 _atom_site_symmetry_multiplicity
 _atom_site_fract_x
 _atom_site_fract_y
 _atom_site_fract_z
 _atom_site_occupancy
  Tm  Tm0  1  0.75911542  0.24934843  0.13890067  1
  Tm  Tm1  1  0.74088458  0.25065157  0.63890067  1
  Tm  Tm2  1  0.24088458  0.75065157  0.86109933  1
  Tm  Tm3  1  0.25911542  0.74934843  0.36109933  1
  As  As4  1  0.77428707  0.75774318  0.49919187  1
  As  As5  1  0.72571293  0.74225682  0.99919187  1
  As  As6  1  0.22571293  0.24225682  0.50080813  1
  As  As7  1  0.27428707  0.25774318  0.00080813  1
  Se  Se8  1  0.75788050  0.24997781  0.31190766  1
  Se  Se9  1  0.74211950  0.25002219  0.81190766  1
  Se  Se10  1  0.24211950  0.75002219  0.68809234  1
  Se  Se11  1  0.25788050  0.74997781  0.18809234  1
