# generated using pymatgen
data_Dy2(NiB2)3
_symmetry_space_group_name_H-M   'P 1'
_cell_length_a   3.47193834
_cell_length_b   5.78104518
_cell_length_c   5.78104518
_cell_angle_alpha   96.75537481
_cell_angle_beta   90.00000000
_cell_angle_gamma   90.00000000
_symmetry_Int_Tables_number   1
_chemical_formula_structural   Dy2(NiB2)3
_chemical_formula_sum   'Dy2 Ni3 B6'
_cell_volume   115.22828399
_cell_formula_units_Z   1
loop_
 _symmetry_equiv_pos_site_id
 _symmetry_equiv_pos_as_xyz
  1  'x, y, z'
loop_
 _atom_site_type_symbol
 _atom_site_label
 _atom_site_symmetry_multiplicity
 _atom_site_fract_x
 _atom_site_fract_y
 _atom_site_fract_z
 _atom_site_occupancy
  Dy  Dy0  1  -0.00000000  0.27655103  0.72344897  1
  Dy  Dy1  1  -0.00000000  0.72344897  0.27655103  1
  Ni  Ni2  1  0.50000000  -0.00000000  0.00000000  1
  Ni  Ni3  1  -0.00000000  0.77400912  0.77400912  1
  Ni  Ni4  1  -0.00000000  0.22599088  0.22599088  1
  B  B5  1  0.50000000  0.91525090  0.61521715  1
  B  B6  1  0.50000000  0.08474910  0.38478285  1
  B  B7  1  0.50000000  0.61521715  0.91525090  1
  B  B8  1  0.50000000  0.38478285  0.08474910  1
  B  B9  1  0.50000000  0.61349640  0.61349640  1
  B  B10  1  0.50000000  0.38650360  0.38650360  1
