# generated using pymatgen
data_V4ZnO10
_symmetry_space_group_name_H-M   'P 1'
_cell_length_a   3.52853907
_cell_length_b   4.87225996
_cell_length_c   11.72636112
_cell_angle_alpha   90.02490781
_cell_angle_beta   90.00064313
_cell_angle_gamma   90.01376220
_symmetry_Int_Tables_number   1
_chemical_formula_structural   V4ZnO10
_chemical_formula_sum   'V4 Zn1 O10'
_cell_volume   201.59910197
_cell_formula_units_Z   1
loop_
 _symmetry_equiv_pos_site_id
 _symmetry_equiv_pos_as_xyz
  1  'x, y, z'
loop_
 _atom_site_type_symbol
 _atom_site_label
 _atom_site_symmetry_multiplicity
 _atom_site_fract_x
 _atom_site_fract_y
 _atom_site_fract_z
 _atom_site_occupancy
  V  V0  1  0.24999791  0.42053765  0.10402051  1
  V  V1  1  0.75001677  0.59628510  0.89987746  1
  V  V2  1  0.75002726  0.59616524  0.60016498  1
  V  V3  1  0.24998933  0.42061396  0.39597024  1
  Zn  Zn4  1  0.24980029  0.17589109  0.75005498  1
  O  O5  1  0.74988955  0.40588047  0.75000851  1
  O  O6  1  0.25001032  0.54172561  0.24995755  1
  O  O7  1  0.75001787  0.53877966  0.07001628  1
  O  O8  1  0.24997389  0.44584845  0.92675987  1
  O  O9  1  0.75001348  0.53867772  0.42998855  1
  O  O10  1  0.24997913  0.44587377  0.57319364  1
  O  O11  1  0.24993865  0.09184424  0.38209198  1
  O  O12  1  0.75018872  0.93018182  0.63440033  1
  O  O13  1  0.75014202  0.93029037  0.86567648  1
  O  O14  1  0.24995282  0.09205283  0.11776664  1
