# generated using pymatgen
data_ZnCoF4
_symmetry_space_group_name_H-M   'P 1'
_cell_length_a   5.09949277
_cell_length_b   5.07597816
_cell_length_c   6.28805525
_cell_angle_alpha   114.48274703
_cell_angle_beta   114.95417143
_cell_angle_gamma   89.71241272
_symmetry_Int_Tables_number   1
_chemical_formula_structural   ZnCoF4
_chemical_formula_sum   'Zn2 Co2 F8'
_cell_volume   131.42696388
_cell_formula_units_Z   2
loop_
 _symmetry_equiv_pos_site_id
 _symmetry_equiv_pos_as_xyz
  1  'x, y, z'
loop_
 _atom_site_type_symbol
 _atom_site_label
 _atom_site_symmetry_multiplicity
 _atom_site_fract_x
 _atom_site_fract_y
 _atom_site_fract_z
 _atom_site_occupancy
  Zn  Zn0  1  0.24973402  0.24587019  0.49862251  1
  Zn  Zn1  1  0.75163216  0.74786068  0.49898736  1
  Co  Co2  1  0.00253049  0.49882493  0.00070274  1
  Co  Co3  1  0.50324332  -0.00065986  0.99749379  1
  F  F4  1  0.90932075  0.39478535  0.25451049  1
  F  F5  1  0.64709468  0.13119725  0.75377715  1
  F  F6  1  0.09011551  0.61010264  0.74931617  1
  F  F7  1  0.14303433  0.10789689  0.74577206  1
  F  F8  1  0.36537447  0.86116929  0.25290577  1
  F  F9  1  0.40605853  0.35971479  0.24827129  1
  F  F10  1  0.86263438  0.89026238  0.24609414  1
  F  F11  1  0.58807635  0.62709247  0.74512354  1
