# generated using pymatgen
data_CeGaPt
_symmetry_space_group_name_H-M   'P 1'
_cell_length_a   4.42920095
_cell_length_b   7.08650029
_cell_length_c   7.88167957
_cell_angle_alpha   90.00000000
_cell_angle_beta   90.00000000
_cell_angle_gamma   90.00000000
_symmetry_Int_Tables_number   1
_chemical_formula_structural   CeGaPt
_chemical_formula_sum   'Ce4 Ga4 Pt4'
_cell_volume   247.38648404
_cell_formula_units_Z   4
loop_
 _symmetry_equiv_pos_site_id
 _symmetry_equiv_pos_as_xyz
  1  'x, y, z'
loop_
 _atom_site_type_symbol
 _atom_site_label
 _atom_site_symmetry_multiplicity
 _atom_site_fract_x
 _atom_site_fract_y
 _atom_site_fract_z
 _atom_site_occupancy
  Ce  Ce0  1  0.75000000  0.51604215  0.20018943  1
  Ce  Ce1  1  0.75000000  0.01604215  0.29981057  1
  Ce  Ce2  1  0.25000000  0.48395785  0.79981057  1
  Ce  Ce3  1  0.25000000  0.98395785  0.70018943  1
  Ga  Ga4  1  0.75000000  0.17149278  0.92323869  1
  Ga  Ga5  1  0.75000000  0.67149278  0.57676131  1
  Ga  Ga6  1  0.25000000  0.82850722  0.07676131  1
  Ga  Ga7  1  0.25000000  0.32850722  0.42323869  1
  Pt  Pt8  1  0.75000000  0.27657647  0.59595795  1
  Pt  Pt9  1  0.75000000  0.77657647  0.90404205  1
  Pt  Pt10  1  0.25000000  0.72342353  0.40404205  1
  Pt  Pt11  1  0.25000000  0.22342353  0.09595795  1
