# generated using pymatgen
data_Ca5Pt2
_symmetry_space_group_name_H-M   'P 1'
_cell_length_a   6.60704648
_cell_length_b   7.66262087
_cell_length_c   8.80489105
_cell_angle_alpha   97.08507453
_cell_angle_beta   112.03616997
_cell_angle_gamma   90.00000000
_symmetry_Int_Tables_number   1
_chemical_formula_structural   Ca5Pt2
_chemical_formula_sum   'Ca10 Pt4'
_cell_volume   409.52878938
_cell_formula_units_Z   2
loop_
 _symmetry_equiv_pos_site_id
 _symmetry_equiv_pos_as_xyz
  1  'x, y, z'
loop_
 _atom_site_type_symbol
 _atom_site_label
 _atom_site_symmetry_multiplicity
 _atom_site_fract_x
 _atom_site_fract_y
 _atom_site_fract_z
 _atom_site_occupancy
  Ca  Ca0  1  0.98115759  0.91911032  0.18044764  1
  Ca  Ca1  1  0.80070995  0.58088968  0.81955236  1
  Ca  Ca2  1  0.01884241  0.08088968  0.81955236  1
  Ca  Ca3  1  0.19929005  0.41911032  0.18044764  1
  Ca  Ca4  1  0.63500486  0.82192835  0.43397616  1
  Ca  Ca5  1  0.20102870  0.67807165  0.56602384  1
  Ca  Ca6  1  0.36499514  0.17807165  0.56602384  1
  Ca  Ca7  1  0.79897130  0.32192835  0.43397616  1
  Ca  Ca8  1  0.42507413  0.75000000  0.00000000  1
  Ca  Ca9  1  0.57492587  0.25000000  0.00000000  1
  Pt  Pt10  1  0.82092366  0.58447313  0.22254215  1
  Pt  Pt11  1  0.59838150  0.91552687  0.77745785  1
  Pt  Pt12  1  0.17907634  0.41552687  0.77745785  1
  Pt  Pt13  1  0.40161850  0.08447313  0.22254215  1
