# generated using pymatgen
data_Y3Zn11
_symmetry_space_group_name_H-M   'P 1'
_cell_length_a   4.43319515
_cell_length_b   8.14237435
_cell_length_c   8.14237435
_cell_angle_alpha   65.68190017
_cell_angle_beta   74.20299927
_cell_angle_gamma   74.20299927
_symmetry_Int_Tables_number   1
_chemical_formula_structural   Y3Zn11
_chemical_formula_sum   'Y3 Zn11'
_cell_volume   253.38606376
_cell_formula_units_Z   1
loop_
 _symmetry_equiv_pos_site_id
 _symmetry_equiv_pos_as_xyz
  1  'x, y, z'
loop_
 _atom_site_type_symbol
 _atom_site_label
 _atom_site_symmetry_multiplicity
 _atom_site_fract_x
 _atom_site_fract_y
 _atom_site_fract_z
 _atom_site_occupancy
  Y  Y0  1  -0.00000000  0.00000000  0.00000000  1
  Y  Y1  1  0.29384347  0.70615653  0.70615653  1
  Y  Y2  1  0.70615653  0.29384347  0.29384347  1
  Zn  Zn3  1  -0.00000000  0.50000000  0.50000000  1
  Zn  Zn4  1  0.50000000  0.31767899  0.68232101  1
  Zn  Zn5  1  0.50000000  0.68232101  0.31767899  1
  Zn  Zn6  1  0.34163027  0.29866781  0.01807165  1
  Zn  Zn7  1  0.65836973  0.70133219  0.98192835  1
  Zn  Zn8  1  0.34163027  0.01807165  0.29866781  1
  Zn  Zn9  1  0.65836973  0.98192835  0.70133219  1
  Zn  Zn10  1  0.13840405  0.58131914  0.14187276  1
  Zn  Zn11  1  0.86159595  0.41868086  0.85812724  1
  Zn  Zn12  1  0.13840405  0.14187276  0.58131914  1
  Zn  Zn13  1  0.86159595  0.85812724  0.41868086  1
