# generated using pymatgen
data_Ce(Ge2Rh3)2
_symmetry_space_group_name_H-M   'P 1'
_cell_length_a   3.88624109
_cell_length_b   7.22828423
_cell_length_c   7.22828423
_cell_angle_alpha   119.99436151
_cell_angle_beta   90.00000000
_cell_angle_gamma   90.00000000
_symmetry_Int_Tables_number   1
_chemical_formula_structural   Ce(Ge2Rh3)2
_chemical_formula_sum   'Ce1 Ge4 Rh6'
_cell_volume   175.85531021
_cell_formula_units_Z   1
loop_
 _symmetry_equiv_pos_site_id
 _symmetry_equiv_pos_as_xyz
  1  'x, y, z'
loop_
 _atom_site_type_symbol
 _atom_site_label
 _atom_site_symmetry_multiplicity
 _atom_site_fract_x
 _atom_site_fract_y
 _atom_site_fract_z
 _atom_site_occupancy
  Ce  Ce0  1  -0.00000000  0.00002026  0.99997974  1
  Ge  Ge1  1  0.00000000  0.66669302  0.33330698  1
  Ge  Ge2  1  0.50000000  0.19819843  0.80180157  1
  Ge  Ge3  1  0.50000000  0.60354251  0.80180163  1
  Ge  Ge4  1  0.50000000  0.19819837  0.39645749  1
  Rh  Rh5  1  -0.00000000  0.46680377  0.53319623  1
  Rh  Rh6  1  -0.00000000  0.06646637  0.53323597  1
  Rh  Rh7  1  0.00000000  0.46676403  0.93353363  1
  Rh  Rh8  1  0.50000000  0.80050243  0.19949757  1
  Rh  Rh9  1  0.50000000  0.39914314  0.19963234  1
  Rh  Rh10  1  0.50000000  0.80036766  0.60085686  1
