# generated using pymatgen
data_ZrGePd
_symmetry_space_group_name_H-M   'P 1'
_cell_length_a   3.99290861
_cell_length_b   6.72787889
_cell_length_c   7.79008491
_cell_angle_alpha   90.00000000
_cell_angle_beta   90.00000000
_cell_angle_gamma   90.00000000
_symmetry_Int_Tables_number   1
_chemical_formula_structural   ZrGePd
_chemical_formula_sum   'Zr4 Ge4 Pd4'
_cell_volume   209.27132622
_cell_formula_units_Z   4
loop_
 _symmetry_equiv_pos_site_id
 _symmetry_equiv_pos_as_xyz
  1  'x, y, z'
loop_
 _atom_site_type_symbol
 _atom_site_label
 _atom_site_symmetry_multiplicity
 _atom_site_fract_x
 _atom_site_fract_y
 _atom_site_fract_z
 _atom_site_occupancy
  Zr  Zr0  1  0.75000000  0.47241999  0.18584551  1
  Zr  Zr1  1  0.75000000  0.97241999  0.31415449  1
  Zr  Zr2  1  0.25000000  0.52758001  0.81415449  1
  Zr  Zr3  1  0.25000000  0.02758001  0.68584551  1
  Ge  Ge4  1  0.75000000  0.24553470  0.88040082  1
  Ge  Ge5  1  0.75000000  0.74553470  0.61959918  1
  Ge  Ge6  1  0.25000000  0.75446530  0.11959918  1
  Ge  Ge7  1  0.25000000  0.25446530  0.38040082  1
  Pd  Pd8  1  0.75000000  0.35599802  0.56391108  1
  Pd  Pd9  1  0.75000000  0.85599802  0.93608892  1
  Pd  Pd10  1  0.25000000  0.64400198  0.43608892  1
  Pd  Pd11  1  0.25000000  0.14400198  0.06391108  1
