# generated using pymatgen
data_RbV5Se8
_symmetry_space_group_name_H-M   'P 1'
_cell_length_a   3.70745381
_cell_length_b   9.02066923
_cell_length_c   9.58468315
_cell_angle_alpha   103.81402325
_cell_angle_beta   101.15156926
_cell_angle_gamma   90.00000000
_symmetry_Int_Tables_number   1
_chemical_formula_structural   RbV5Se8
_chemical_formula_sum   'Rb1 V5 Se8'
_cell_volume   305.03969134
_cell_formula_units_Z   1
loop_
 _symmetry_equiv_pos_site_id
 _symmetry_equiv_pos_as_xyz
  1  'x, y, z'
loop_
 _atom_site_type_symbol
 _atom_site_label
 _atom_site_symmetry_multiplicity
 _atom_site_fract_x
 _atom_site_fract_y
 _atom_site_fract_z
 _atom_site_occupancy
  Rb  Rb0  1  0.50000000  0.50000000  -0.00000000  1
  V  V1  1  -0.00000000  -0.00000000  -0.00000000  1
  V  V2  1  0.65128545  0.99033587  0.30257091  1
  V  V3  1  0.34871455  0.00966413  0.69742909  1
  V  V4  1  0.71231410  0.34602136  0.42462820  1
  V  V5  1  0.28768590  0.65397864  0.57537180  1
  Se  Se6  1  0.42796444  0.82891626  0.85592888  1
  Se  Se7  1  0.57203556  0.17108374  0.14407112  1
  Se  Se8  1  0.91217105  0.17651563  0.82434211  1
  Se  Se9  1  0.08782895  0.82348437  0.17565789  1
  Se  Se10  1  0.83643030  0.51299070  0.67286060  1
  Se  Se11  1  0.16356970  0.48700930  0.32713940  1
  Se  Se12  1  0.76073595  0.84518712  0.52147190  1
  Se  Se13  1  0.23926405  0.15481288  0.47852810  1
