# generated using pymatgen
data_Np2Se5
_symmetry_space_group_name_H-M   'P 1'
_cell_length_a   5.45313413
_cell_length_b   5.45313413
_cell_length_c   10.72611894
_cell_angle_alpha   90.00000000
_cell_angle_beta   90.00000000
_cell_angle_gamma   90.00000000
_symmetry_Int_Tables_number   1
_chemical_formula_structural   Np2Se5
_chemical_formula_sum   'Np4 Se10'
_cell_volume   318.95907903
_cell_formula_units_Z   2
loop_
 _symmetry_equiv_pos_site_id
 _symmetry_equiv_pos_as_xyz
  1  'x, y, z'
loop_
 _atom_site_type_symbol
 _atom_site_label
 _atom_site_symmetry_multiplicity
 _atom_site_fract_x
 _atom_site_fract_y
 _atom_site_fract_z
 _atom_site_occupancy
  Np  Np0  1  0.75000000  0.75000000  0.15106573  1
  Np  Np1  1  0.75000000  0.75000000  0.65106573  1
  Np  Np2  1  0.25000000  0.25000000  0.84893427  1
  Np  Np3  1  0.25000000  0.25000000  0.34893427  1
  Se  Se4  1  0.00561903  0.75000000  0.39704756  1
  Se  Se5  1  0.49438097  0.75000000  0.39704756  1
  Se  Se6  1  0.75000000  0.00561903  0.89704756  1
  Se  Se7  1  0.75000000  0.49438097  0.89704756  1
  Se  Se8  1  0.99438097  0.25000000  0.60295244  1
  Se  Se9  1  0.50561903  0.25000000  0.60295244  1
  Se  Se10  1  0.25000000  0.99438097  0.10295244  1
  Se  Se11  1  0.25000000  0.50561903  0.10295244  1
  Se  Se12  1  0.75000000  0.25000000  0.25000000  1
  Se  Se13  1  0.25000000  0.75000000  0.75000000  1
