# generated using pymatgen
data_Tb(Ni2As)2
_symmetry_space_group_name_H-M   'P 1'
_cell_length_a   3.77543806
_cell_length_b   7.25246792
_cell_length_c   7.25246792
_cell_angle_alpha   90.00000000
_cell_angle_beta   90.00000000
_cell_angle_gamma   90.00000000
_symmetry_Int_Tables_number   1
_chemical_formula_structural   Tb(Ni2As)2
_chemical_formula_sum   'Tb2 Ni8 As4'
_cell_volume   198.58158947
_cell_formula_units_Z   2
loop_
 _symmetry_equiv_pos_site_id
 _symmetry_equiv_pos_as_xyz
  1  'x, y, z'
loop_
 _atom_site_type_symbol
 _atom_site_label
 _atom_site_symmetry_multiplicity
 _atom_site_fract_x
 _atom_site_fract_y
 _atom_site_fract_z
 _atom_site_occupancy
  Tb  Tb0  1  -0.00000000  0.50000000  0.50000000  1
  Tb  Tb1  1  0.50000000  0.00000000  -0.00000000  1
  Ni  Ni2  1  0.50000000  0.15373131  0.58911637  1
  Ni  Ni3  1  0.50000000  0.84626869  0.41088363  1
  Ni  Ni4  1  -0.00000000  0.34626869  0.08911637  1
  Ni  Ni5  1  0.00000000  0.65373131  0.91088363  1
  Ni  Ni6  1  0.50000000  0.58911637  0.15373131  1
  Ni  Ni7  1  0.50000000  0.41088363  0.84626869  1
  Ni  Ni8  1  0.00000000  0.08911637  0.34626869  1
  Ni  Ni9  1  -0.00000000  0.91088363  0.65373131  1
  As  As10  1  0.50000000  0.71722205  0.71722205  1
  As  As11  1  0.50000000  0.28277795  0.28277795  1
  As  As12  1  -0.00000000  0.78277795  0.21722205  1
  As  As13  1  -0.00000000  0.21722205  0.78277795  1
