# generated using pymatgen
data_Rb3Lu(PO4)2
_symmetry_space_group_name_H-M   'P 1'
_cell_length_a   5.65797253
_cell_length_b   5.65812666
_cell_length_c   8.29641972
_cell_angle_alpha   89.99999997
_cell_angle_beta   89.99899480
_cell_angle_gamma   120.00090406
_symmetry_Int_Tables_number   1
_chemical_formula_structural   Rb3Lu(PO4)2
_chemical_formula_sum   'Rb3 Lu1 P2 O8'
_cell_volume   230.01220968
_cell_formula_units_Z   1
loop_
 _symmetry_equiv_pos_site_id
 _symmetry_equiv_pos_as_xyz
  1  'x, y, z'
loop_
 _atom_site_type_symbol
 _atom_site_label
 _atom_site_symmetry_multiplicity
 _atom_site_fract_x
 _atom_site_fract_y
 _atom_site_fract_z
 _atom_site_occupancy
  Rb  Rb0  1  0.00000000  0.00000000  0.50000000  1
  Rb  Rb1  1  0.66661840  0.33330920  0.74037027  1
  Rb  Rb2  1  0.33338160  0.66669080  0.25962973  1
  Lu  Lu3  1  0.00000000  0.00000000  -0.00000000  1
  P  P4  1  0.66663755  0.33331878  0.21622675  1
  P  P5  1  0.33336245  0.66668122  0.78377325  1
  O  O6  1  0.36603974  0.18301987  0.15208012  1
  O  O7  1  0.81696650  0.18302265  0.15209462  1
  O  O8  1  0.81696650  0.63394385  0.15209462  1
  O  O9  1  0.63396026  0.81698013  0.84791988  1
  O  O10  1  0.18303350  0.81697735  0.84790538  1
  O  O11  1  0.18303350  0.36605615  0.84790538  1
  O  O12  1  0.66661294  0.33330647  0.40063159  1
  O  O13  1  0.33338706  0.66669353  0.59936841  1
