# generated using pymatgen
data_BaLi2MnV2O8
_symmetry_space_group_name_H-M   'P 1'
_cell_length_a   5.35189170
_cell_length_b   5.35200420
_cell_length_c   7.36303004
_cell_angle_alpha   90.00028052
_cell_angle_beta   90.00070000
_cell_angle_gamma   120.00000337
_symmetry_Int_Tables_number   1
_chemical_formula_structural   BaLi2MnV2O8
_chemical_formula_sum   'Ba1 Li2 Mn1 V2 O8'
_cell_volume   182.64633066
_cell_formula_units_Z   1
loop_
 _symmetry_equiv_pos_site_id
 _symmetry_equiv_pos_as_xyz
  1  'x, y, z'
loop_
 _atom_site_type_symbol
 _atom_site_label
 _atom_site_symmetry_multiplicity
 _atom_site_fract_x
 _atom_site_fract_y
 _atom_site_fract_z
 _atom_site_occupancy
  Ba  Ba0  1  -0.00000000  0.00000000  0.50000000  1
  Li  Li1  1  0.33333670  0.66666819  0.76512300  1
  Li  Li2  1  0.66666330  0.33333181  0.23487700  1
  Mn  Mn3  1  -0.00000000  0.00000000  -0.00000000  1
  V  V4  1  0.66667376  0.33334312  0.74630076  1
  V  V5  1  0.33332624  0.66665688  0.25369924  1
  O  O6  1  0.03581961  0.33791790  0.18463643  1
  O  O7  1  0.66208566  0.69789867  0.18461996  1
  O  O8  1  0.30208459  0.96416240  0.18462575  1
  O  O9  1  0.96418039  0.66208210  0.81536357  1
  O  O10  1  0.33791434  0.30210133  0.81538004  1
  O  O11  1  0.69791541  0.03583760  0.81537425  1
  O  O12  1  0.66663899  0.33331871  0.51230198  1
  O  O13  1  0.33336101  0.66668129  0.48769802  1
