# generated using pymatgen
data_Cu5Sn2Se7
_symmetry_space_group_name_H-M   'P 1'
_cell_length_a   5.71599896
_cell_length_b   6.98932118
_cell_length_c   9.03011782
_cell_angle_alpha   97.41013017
_cell_angle_beta   90.00000000
_cell_angle_gamma   114.13635076
_symmetry_Int_Tables_number   1
_chemical_formula_structural   Cu5Sn2Se7
_chemical_formula_sum   'Cu5 Sn2 Se7'
_cell_volume   325.91779850
_cell_formula_units_Z   1
loop_
 _symmetry_equiv_pos_site_id
 _symmetry_equiv_pos_as_xyz
  1  'x, y, z'
loop_
 _atom_site_type_symbol
 _atom_site_label
 _atom_site_symmetry_multiplicity
 _atom_site_fract_x
 _atom_site_fract_y
 _atom_site_fract_z
 _atom_site_occupancy
  Cu  Cu0  1  0.73287772  1.00000000  0.50000000  1
  Cu  Cu1  1  0.88701256  0.28965612  0.92707497  1
  Cu  Cu2  1  0.59735643  0.71034388  0.07292503  1
  Cu  Cu3  1  0.44582293  0.42499613  0.64248429  1
  Cu  Cu4  1  0.02082679  0.57500387  0.35751571  1
  Sn  Sn5  1  0.14792708  0.84881252  0.77587672  1
  Sn  Sn6  1  0.29911456  0.15118748  0.22412328  1
  Se  Se7  1  0.35399812  0.70321055  0.55637130  1
  Se  Se8  1  0.65078756  0.29678945  0.44362870  1
  Se  Se9  1  0.51270745  0.00000000  0.00000000  1
  Se  Se10  1  0.04766343  0.16097252  0.70848152  1
  Se  Se11  1  0.88669092  0.83902748  0.29151848  1
  Se  Se12  1  0.74209207  0.54936971  0.86113441  1
  Se  Se13  1  0.19272237  0.45063029  0.13886559  1
