# generated using pymatgen
data_YNiGe
_symmetry_space_group_name_H-M   'P 1'
_cell_length_a   4.24682001
_cell_length_b   6.91468128
_cell_length_c   7.22674598
_cell_angle_alpha   90.00000000
_cell_angle_beta   90.00000000
_cell_angle_gamma   90.00000000
_symmetry_Int_Tables_number   1
_chemical_formula_structural   YNiGe
_chemical_formula_sum   'Y4 Ni4 Ge4'
_cell_volume   212.21633571
_cell_formula_units_Z   4
loop_
 _symmetry_equiv_pos_site_id
 _symmetry_equiv_pos_as_xyz
  1  'x, y, z'
loop_
 _atom_site_type_symbol
 _atom_site_label
 _atom_site_symmetry_multiplicity
 _atom_site_fract_x
 _atom_site_fract_y
 _atom_site_fract_z
 _atom_site_occupancy
  Y  Y0  1  0.75000000  0.48958599  0.70497754  1
  Y  Y1  1  0.75000000  0.98958599  0.79502246  1
  Y  Y2  1  0.25000000  0.51041401  0.29502246  1
  Y  Y3  1  0.25000000  0.01041401  0.20497754  1
  Ni  Ni4  1  0.75000000  0.68166411  0.07648191  1
  Ni  Ni5  1  0.75000000  0.18166411  0.42351809  1
  Ni  Ni6  1  0.25000000  0.31833589  0.92351809  1
  Ni  Ni7  1  0.25000000  0.81833589  0.57648191  1
  Ge  Ge8  1  0.75000000  0.30129313  0.09378185  1
  Ge  Ge9  1  0.75000000  0.80129313  0.40621815  1
  Ge  Ge10  1  0.25000000  0.69870687  0.90621815  1
  Ge  Ge11  1  0.25000000  0.19870687  0.59378185  1
