# generated using pymatgen
data_TiZnF5
_symmetry_space_group_name_H-M   'P 1'
_cell_length_a   5.31969417
_cell_length_b   7.58628007
_cell_length_c   9.94808757
_cell_angle_alpha   90.00000000
_cell_angle_beta   90.00000000
_cell_angle_gamma   110.04058550
_symmetry_Int_Tables_number   1
_chemical_formula_structural   TiZnF5
_chemical_formula_sum   'Ti4 Zn4 F20'
_cell_volume   377.16280851
_cell_formula_units_Z   4
loop_
 _symmetry_equiv_pos_site_id
 _symmetry_equiv_pos_as_xyz
  1  'x, y, z'
loop_
 _atom_site_type_symbol
 _atom_site_label
 _atom_site_symmetry_multiplicity
 _atom_site_fract_x
 _atom_site_fract_y
 _atom_site_fract_z
 _atom_site_occupancy
  Ti  Ti0  1  0.90968092  0.60558003  0.75438474  1
  Ti  Ti1  1  0.09031908  0.89441997  0.25438474  1
  Ti  Ti2  1  0.09031908  0.39441997  0.24561526  1
  Ti  Ti3  1  0.90968092  0.10558003  0.74561526  1
  Zn  Zn4  1  0.49302181  0.75064532  0.00158971  1
  Zn  Zn5  1  0.50697819  0.74935468  0.50158971  1
  Zn  Zn6  1  0.50697819  0.24935468  0.99841029  1
  Zn  Zn7  1  0.49302181  0.25064532  0.49841029  1
  F  F8  1  0.61237369  0.57005748  0.88731235  1
  F  F9  1  0.38762631  0.92994252  0.38731235  1
  F  F10  1  0.38762631  0.42994252  0.11268765  1
  F  F11  1  0.61237369  0.07005748  0.61268765  1
  F  F12  1  0.65544076  0.49654773  0.60817184  1
  F  F13  1  0.34455924  0.00345227  0.10817184  1
  F  F14  1  0.34455924  0.50345227  0.39182816  1
  F  F15  1  0.65544076  0.99654773  0.89182816  1
  F  F16  1  0.84387957  0.79976951  0.40373343  1
  F  F17  1  0.15612043  0.70023049  0.90373343  1
  F  F18  1  0.15612043  0.20023049  0.59626657  1
  F  F19  1  0.84387957  0.29976951  0.09626657  1
  F  F20  1  0.77039081  0.84033520  0.13741382  1
  F  F21  1  0.22960919  0.65966480  0.63741382  1
  F  F22  1  0.22960919  0.15966480  0.86258618  1
  F  F23  1  0.77039081  0.34033520  0.36258618  1
  F  F24  1  0.85672477  0.84101702  0.69122407  1
  F  F25  1  0.14327523  0.65898298  0.19122407  1
  F  F26  1  0.14327523  0.15898298  0.30877593  1
  F  F27  1  0.85672477  0.34101702  0.80877593  1
