# generated using pymatgen
data_Sm2Au
_symmetry_space_group_name_H-M   'P 1'
_cell_length_a   5.02616338
_cell_length_b   7.26960780
_cell_length_c   9.22162081
_cell_angle_alpha   90.00000000
_cell_angle_beta   90.00000000
_cell_angle_gamma   90.00000000
_symmetry_Int_Tables_number   1
_chemical_formula_structural   Sm2Au
_chemical_formula_sum   'Sm8 Au4'
_cell_volume   336.94176217
_cell_formula_units_Z   4
loop_
 _symmetry_equiv_pos_site_id
 _symmetry_equiv_pos_as_xyz
  1  'x, y, z'
loop_
 _atom_site_type_symbol
 _atom_site_label
 _atom_site_symmetry_multiplicity
 _atom_site_fract_x
 _atom_site_fract_y
 _atom_site_fract_z
 _atom_site_occupancy
  Sm  Sm0  1  0.75000000  0.65156163  0.58464040  1
  Sm  Sm1  1  0.75000000  0.15156163  0.91535960  1
  Sm  Sm2  1  0.25000000  0.34843837  0.41535960  1
  Sm  Sm3  1  0.25000000  0.84843837  0.08464040  1
  Sm  Sm4  1  0.75000000  0.01015950  0.32395603  1
  Sm  Sm5  1  0.75000000  0.51015950  0.17604397  1
  Sm  Sm6  1  0.25000000  0.98984050  0.67604397  1
  Sm  Sm7  1  0.25000000  0.48984050  0.82395603  1
  Au  Au8  1  0.75000000  0.24336807  0.59680375  1
  Au  Au9  1  0.75000000  0.74336807  0.90319625  1
  Au  Au10  1  0.25000000  0.75663193  0.40319625  1
  Au  Au11  1  0.25000000  0.25663193  0.09680375  1
