# generated using pymatgen
data_CsSO4
_symmetry_space_group_name_H-M   'P 1'
_cell_length_a   5.49661169
_cell_length_b   6.08296436
_cell_length_c   7.51549132
_cell_angle_alpha   90.00000000
_cell_angle_beta   104.18790769
_cell_angle_gamma   90.00000000
_symmetry_Int_Tables_number   1
_chemical_formula_structural   CsSO4
_chemical_formula_sum   'Cs2 S2 O8'
_cell_volume   243.62071926
_cell_formula_units_Z   2
loop_
 _symmetry_equiv_pos_site_id
 _symmetry_equiv_pos_as_xyz
  1  'x, y, z'
loop_
 _atom_site_type_symbol
 _atom_site_label
 _atom_site_symmetry_multiplicity
 _atom_site_fract_x
 _atom_site_fract_y
 _atom_site_fract_z
 _atom_site_occupancy
  Cs  Cs0  1  0.05484006  0.25000000  0.74237801  1
  Cs  Cs1  1  0.94515994  0.75000000  0.25762199  1
  S  S2  1  0.45222854  0.25000000  0.24494311  1
  S  S3  1  0.54777146  0.75000000  0.75505689  1
  O  O4  1  0.36876183  0.45274610  0.13469541  1
  O  O5  1  0.36876183  0.04725390  0.13469541  1
  O  O6  1  0.63123817  0.54725390  0.86530459  1
  O  O7  1  0.63123817  0.95274610  0.86530459  1
  O  O8  1  0.32129902  0.25000000  0.39705384  1
  O  O9  1  0.67870098  0.75000000  0.60294616  1
  O  O10  1  0.72749314  0.25000000  0.31687686  1
  O  O11  1  0.27250686  0.75000000  0.68312314  1
