# generated using pymatgen
data_Mg3Ni2O7
_symmetry_space_group_name_H-M   'P 1'
_cell_length_a   5.19731102
_cell_length_b   4.96731650
_cell_length_c   9.10295799
_cell_angle_alpha   105.83337616
_cell_angle_beta   90.00000000
_cell_angle_gamma   90.00000000
_symmetry_Int_Tables_number   1
_chemical_formula_structural   Mg3Ni2O7
_chemical_formula_sum   'Mg6 Ni4 O14'
_cell_volume   226.09183790
_cell_formula_units_Z   2
loop_
 _symmetry_equiv_pos_site_id
 _symmetry_equiv_pos_as_xyz
  1  'x, y, z'
loop_
 _atom_site_type_symbol
 _atom_site_label
 _atom_site_symmetry_multiplicity
 _atom_site_fract_x
 _atom_site_fract_y
 _atom_site_fract_z
 _atom_site_occupancy
  Mg  Mg0  1  0.67529716  0.77663394  1.00000000  1
  Mg  Mg1  1  0.17529716  0.22336606  0.00000000  1
  Mg  Mg2  1  0.82830667  0.56558209  0.61571235  1
  Mg  Mg3  1  0.32830667  0.43441791  0.38428765  1
  Mg  Mg4  1  0.82830667  0.94986874  0.38428765  1
  Mg  Mg5  1  0.32830667  0.05013126  0.61571235  1
  Ni  Ni6  1  0.74933298  0.35549514  0.20454757  1
  Ni  Ni7  1  0.24933298  0.64450486  0.79545243  1
  Ni  Ni8  1  0.24933298  0.84905243  0.20454757  1
  Ni  Ni9  1  0.74933298  0.15094757  0.79545243  1
  O  O10  1  0.70701628  0.93456729  0.59434420  1
  O  O11  1  0.20701628  0.06543271  0.40565580  1
  O  O12  1  0.20701628  0.65977591  0.59434420  1
  O  O13  1  0.70701628  0.34022409  0.40565580  1
  O  O14  1  0.04005313  0.31322268  0.72776042  1
  O  O15  1  0.54005313  0.68677732  0.27223958  1
  O  O16  1  0.54005313  0.41453774  0.72776042  1
  O  O17  1  0.04005313  0.58546226  0.27223958  1
  O  O18  1  0.94222729  0.86373437  0.84976080  1
  O  O19  1  0.44222729  0.13626563  0.15023920  1
  O  O20  1  0.81083212  0.38787425  0.00000000  1
  O  O21  1  0.31083212  0.61212575  1.00000000  1
  O  O22  1  0.94222729  0.01397358  0.15023920  1
  O  O23  1  0.44222729  0.98602642  0.84976080  1
