# generated using pymatgen
data_Zr(GaFe)6
_symmetry_space_group_name_H-M   'P 1'
_cell_length_a   4.99895874
_cell_length_b   6.52759612
_cell_length_c   6.52759612
_cell_angle_alpha   80.81755199
_cell_angle_beta   67.48597172
_cell_angle_gamma   67.48597172
_symmetry_Int_Tables_number   1
_chemical_formula_structural   Zr(GaFe)6
_chemical_formula_sum   'Zr1 Ga6 Fe6'
_cell_volume   181.75174774
_cell_formula_units_Z   1
loop_
 _symmetry_equiv_pos_site_id
 _symmetry_equiv_pos_as_xyz
  1  'x, y, z'
loop_
 _atom_site_type_symbol
 _atom_site_label
 _atom_site_symmetry_multiplicity
 _atom_site_fract_x
 _atom_site_fract_y
 _atom_site_fract_z
 _atom_site_occupancy
  Zr  Zr0  1  0.00000000  0.00000000  -0.00000000  1
  Ga  Ga1  1  0.00000000  0.66992315  0.33007685  1
  Ga  Ga2  1  0.00000000  0.33007685  0.66992315  1
  Ga  Ga3  1  0.34107433  0.65892567  0.65892567  1
  Ga  Ga4  1  0.65892567  0.34107433  0.34107433  1
  Ga  Ga5  1  0.32317079  0.17682921  0.17682921  1
  Ga  Ga6  1  0.67682921  0.82317079  0.82317079  1
  Fe  Fe7  1  0.50000000  0.24309259  0.75690741  1
  Fe  Fe8  1  0.50000000  0.75690741  0.24309259  1
  Fe  Fe9  1  0.00000000  0.50000000  -0.00000000  1
  Fe  Fe10  1  0.50000000  0.50000000  -0.00000000  1
  Fe  Fe11  1  0.00000000  0.00000000  0.50000000  1
  Fe  Fe12  1  0.50000000  0.00000000  0.50000000  1
