# generated using pymatgen
data_GdIr3
_symmetry_space_group_name_H-M   'P 1'
_cell_length_a   5.34085003
_cell_length_b   5.34082423
_cell_length_c   9.31369024
_cell_angle_alpha   73.19964249
_cell_angle_beta   73.19835306
_cell_angle_gamma   59.99009914
_symmetry_Int_Tables_number   1
_chemical_formula_structural   GdIr3
_chemical_formula_sum   'Gd3 Ir9'
_cell_volume   216.86223509
_cell_formula_units_Z   3
loop_
 _symmetry_equiv_pos_site_id
 _symmetry_equiv_pos_as_xyz
  1  'x, y, z'
loop_
 _atom_site_type_symbol
 _atom_site_label
 _atom_site_symmetry_multiplicity
 _atom_site_fract_x
 _atom_site_fract_y
 _atom_site_fract_z
 _atom_site_occupancy
  Gd  Gd0  1  0.13973341  0.13971999  0.58148612  1
  Gd  Gd1  1  0.86027795  0.86028664  0.41848163  1
  Gd  Gd2  1  0.99999254  0.00000126  0.00001352  1
  Ir  Ir3  1  0.08409378  0.57941022  0.75530397  1
  Ir  Ir4  1  0.58130822  0.58130157  0.75488396  1
  Ir  Ir5  1  0.57941219  0.08409123  0.75529726  1
  Ir  Ir6  1  0.91591007  0.42057504  0.24471401  1
  Ir  Ir7  1  0.41868542  0.41868527  0.24513843  1
  Ir  Ir8  1  0.42057516  0.91590428  0.24472595  1
  Ir  Ir9  1  0.33213434  0.33211504  0.00322584  1
  Ir  Ir10  1  0.66789275  0.66791788  0.99669292  1
  Ir  Ir11  1  0.49998416  0.49999158  0.50003640  1
