# generated using pymatgen
data_Nd3Zn11
_symmetry_space_group_name_H-M   'P 1'
_cell_length_a   4.45842898
_cell_length_b   8.28645112
_cell_length_c   8.28645112
_cell_angle_alpha   66.37256872
_cell_angle_beta   74.39408784
_cell_angle_gamma   74.39408784
_symmetry_Int_Tables_number   1
_chemical_formula_structural   Nd3Zn11
_chemical_formula_sum   'Nd3 Zn11'
_cell_volume   265.59014865
_cell_formula_units_Z   1
loop_
 _symmetry_equiv_pos_site_id
 _symmetry_equiv_pos_as_xyz
  1  'x, y, z'
loop_
 _atom_site_type_symbol
 _atom_site_label
 _atom_site_symmetry_multiplicity
 _atom_site_fract_x
 _atom_site_fract_y
 _atom_site_fract_z
 _atom_site_occupancy
  Nd  Nd0  1  0.69861213  0.30138787  0.30138787  1
  Nd  Nd1  1  0.30138787  0.69861213  0.69861213  1
  Nd  Nd2  1  -0.00000000  -0.00000000  0.00000000  1
  Zn  Zn3  1  0.66202653  0.97554208  0.70040487  1
  Zn  Zn4  1  0.33797347  0.02445792  0.29959513  1
  Zn  Zn5  1  0.66202653  0.70040487  0.97554208  1
  Zn  Zn6  1  0.33797347  0.29959513  0.02445792  1
  Zn  Zn7  1  0.50000000  0.30159070  0.69840930  1
  Zn  Zn8  1  0.50000000  0.69840930  0.30159070  1
  Zn  Zn9  1  0.86201904  0.86006608  0.41589584  1
  Zn  Zn10  1  0.13798096  0.13993392  0.58410416  1
  Zn  Zn11  1  0.86201904  0.41589584  0.86006608  1
  Zn  Zn12  1  0.13798096  0.58410416  0.13993392  1
  Zn  Zn13  1  -0.00000000  0.50000000  0.50000000  1
