# generated using pymatgen
data_Cu5Sn2Te7
_symmetry_space_group_name_H-M   'P 1'
_cell_length_a   6.12549804
_cell_length_b   7.49487119
_cell_length_c   9.71175585
_cell_angle_alpha   97.47346109
_cell_angle_beta   90.00000000
_cell_angle_gamma   114.11980953
_symmetry_Int_Tables_number   1
_chemical_formula_structural   Cu5Sn2Te7
_chemical_formula_sum   'Cu5 Sn2 Te7'
_cell_volume   402.78438859
_cell_formula_units_Z   1
loop_
 _symmetry_equiv_pos_site_id
 _symmetry_equiv_pos_as_xyz
  1  'x, y, z'
loop_
 _atom_site_type_symbol
 _atom_site_label
 _atom_site_symmetry_multiplicity
 _atom_site_fract_x
 _atom_site_fract_y
 _atom_site_fract_z
 _atom_site_occupancy
  Cu  Cu0  1  0.73231928  0.00000000  0.50000000  1
  Cu  Cu1  1  0.88524859  0.29093807  0.92695962  1
  Cu  Cu2  1  0.59431052  0.70906193  0.07304038  1
  Cu  Cu3  1  0.44837986  0.42822215  0.64184835  1
  Cu  Cu4  1  0.02015771  0.57177785  0.35815165  1
  Sn  Sn5  1  0.14891762  0.85186981  0.77629703  1
  Sn  Sn6  1  0.29704781  0.14813019  0.22370297  1
  Te  Te7  1  0.51864474  0.00000000  0.00000000  1
  Te  Te8  1  0.35435383  0.70262816  0.55429831  1
  Te  Te9  1  0.65172566  0.29737184  0.44570169  1
  Te  Te10  1  0.04707793  0.16651200  0.70736076  1
  Te  Te11  1  0.88056592  0.83348800  0.29263924  1
  Te  Te12  1  0.73804225  0.54883397  0.86176270  1
  Te  Te13  1  0.18920828  0.45116603  0.13823730  1
