# generated using pymatgen
data_EuNi4B
_symmetry_space_group_name_H-M   'P 1'
_cell_length_a   5.07389821
_cell_length_b   5.07557887
_cell_length_c   6.90463391
_cell_angle_alpha   90.00000000
_cell_angle_beta   90.00000000
_cell_angle_gamma   119.98904933
_symmetry_Int_Tables_number   1
_chemical_formula_structural   EuNi4B
_chemical_formula_sum   'Eu2 Ni8 B2'
_cell_volume   154.00915278
_cell_formula_units_Z   2
loop_
 _symmetry_equiv_pos_site_id
 _symmetry_equiv_pos_as_xyz
  1  'x, y, z'
loop_
 _atom_site_type_symbol
 _atom_site_label
 _atom_site_symmetry_multiplicity
 _atom_site_fract_x
 _atom_site_fract_y
 _atom_site_fract_z
 _atom_site_occupancy
  Eu  Eu0  1  0.99997713  0.00000000  -0.00000000  1
  Eu  Eu1  1  0.99998863  0.00000000  0.50000000  1
  Ni  Ni2  1  0.33326261  0.66659749  -0.00000000  1
  Ni  Ni3  1  0.66666512  0.33340251  -0.00000000  1
  Ni  Ni4  1  0.49998662  0.00000000  0.29454701  1
  Ni  Ni5  1  0.49999482  0.50000592  0.29452288  1
  Ni  Ni6  1  0.99998891  0.49999408  0.29452288  1
  Ni  Ni7  1  0.49998662  0.00000000  0.70545299  1
  Ni  Ni8  1  0.49999482  0.50000592  0.70547712  1
  Ni  Ni9  1  0.99998891  0.49999408  0.70547712  1
  B  B10  1  0.33332807  0.66669034  0.50000000  1
  B  B11  1  0.66663773  0.33330966  0.50000000  1
