# generated using pymatgen
data_Lu3Ga8Ir3
_symmetry_space_group_name_H-M   'P 1'
_cell_length_a   4.16300099
_cell_length_b   8.11113837
_cell_length_c   8.11113837
_cell_angle_alpha   75.68290514
_cell_angle_beta   75.13025707
_cell_angle_gamma   75.13025707
_symmetry_Int_Tables_number   1
_chemical_formula_structural   Lu3Ga8Ir3
_chemical_formula_sum   'Lu3 Ga8 Ir3'
_cell_volume   250.97732536
_cell_formula_units_Z   1
loop_
 _symmetry_equiv_pos_site_id
 _symmetry_equiv_pos_as_xyz
  1  'x, y, z'
loop_
 _atom_site_type_symbol
 _atom_site_label
 _atom_site_symmetry_multiplicity
 _atom_site_fract_x
 _atom_site_fract_y
 _atom_site_fract_z
 _atom_site_occupancy
  Lu  Lu0  1  0.50000000  0.50000000  0.50000000  1
  Lu  Lu1  1  0.17015410  0.82984590  0.82984590  1
  Lu  Lu2  1  0.82984590  0.17015410  0.17015410  1
  Ga  Ga3  1  0.37293911  0.33872552  0.91539625  1
  Ga  Ga4  1  0.62706089  0.66127448  0.08460375  1
  Ga  Ga5  1  0.37293911  0.91539625  0.33872552  1
  Ga  Ga6  1  0.62706089  0.08460375  0.66127448  1
  Ga  Ga7  1  0.16414803  0.46248284  0.20922110  1
  Ga  Ga8  1  0.83585197  0.53751716  0.79077890  1
  Ga  Ga9  1  0.16414803  0.20922110  0.46248284  1
  Ga  Ga10  1  0.83585197  0.79077890  0.53751716  1
  Ir  Ir11  1  0.50000000  0.00000000  -0.00000000  1
  Ir  Ir12  1  0.00000000  0.78799739  0.21200261  1
  Ir  Ir13  1  0.00000000  0.21200261  0.78799739  1
