# generated using pymatgen
data_Dy3Ga9Pd2
_symmetry_space_group_name_H-M   'P 1'
_cell_length_a   4.30992131
_cell_length_b   8.18792694
_cell_length_c   8.18792694
_cell_angle_alpha   70.90393250
_cell_angle_beta   74.74071746
_cell_angle_gamma   74.74071746
_symmetry_Int_Tables_number   1
_chemical_formula_structural   Dy3Ga9Pd2
_chemical_formula_sum   'Dy3 Ga9 Pd2'
_cell_volume   258.40237578
_cell_formula_units_Z   1
loop_
 _symmetry_equiv_pos_site_id
 _symmetry_equiv_pos_as_xyz
  1  'x, y, z'
loop_
 _atom_site_type_symbol
 _atom_site_label
 _atom_site_symmetry_multiplicity
 _atom_site_fract_x
 _atom_site_fract_y
 _atom_site_fract_z
 _atom_site_occupancy
  Dy  Dy0  1  0.50000000  0.50000000  0.50000000  1
  Dy  Dy1  1  0.19917752  0.80082248  0.80082248  1
  Dy  Dy2  1  0.80082248  0.19917752  0.19917752  1
  Ga  Ga3  1  0.36157186  0.35596093  0.92089535  1
  Ga  Ga4  1  0.63842814  0.64403907  0.07910465  1
  Ga  Ga5  1  0.36157186  0.92089535  0.35596093  1
  Ga  Ga6  1  0.63842814  0.07910465  0.64403907  1
  Ga  Ga7  1  0.15579244  0.47774044  0.21067468  1
  Ga  Ga8  1  0.84420756  0.52225956  0.78932532  1
  Ga  Ga9  1  0.15579244  0.21067468  0.47774044  1
  Ga  Ga10  1  0.84420756  0.78932532  0.52225956  1
  Ga  Ga11  1  0.50000000  0.00000000  0.00000000  1
  Pd  Pd12  1  -0.00000000  0.81668079  0.18331921  1
  Pd  Pd13  1  0.00000000  0.18331921  0.81668079  1
