# generated using pymatgen
data_TiZnO3
_symmetry_space_group_name_H-M   'P 1'
_cell_length_a   5.14579239
_cell_length_b   5.28354762
_cell_length_c   7.56957461
_cell_angle_alpha   90.00000000
_cell_angle_beta   90.00000000
_cell_angle_gamma   90.00000000
_symmetry_Int_Tables_number   1
_chemical_formula_structural   TiZnO3
_chemical_formula_sum   'Ti4 Zn4 O12'
_cell_volume   205.80189073
_cell_formula_units_Z   4
loop_
 _symmetry_equiv_pos_site_id
 _symmetry_equiv_pos_as_xyz
  1  'x, y, z'
loop_
 _atom_site_type_symbol
 _atom_site_label
 _atom_site_symmetry_multiplicity
 _atom_site_fract_x
 _atom_site_fract_y
 _atom_site_fract_z
 _atom_site_occupancy
  Ti  Ti0  1  0.50000000  0.00000000  0.00000000  1
  Ti  Ti1  1  0.00000000  0.49999900  0.00000000  1
  Ti  Ti2  1  0.00000000  0.49999900  0.50000000  1
  Ti  Ti3  1  0.50000000  0.00000000  0.50000000  1
  Zn  Zn4  1  0.99551627  0.03801012  0.24999900  1
  Zn  Zn5  1  0.49551627  0.46198988  0.75000000  1
  Zn  Zn6  1  0.50448373  0.53801112  0.24999900  1
  Zn  Zn7  1  0.00448373  0.96199088  0.75000000  1
  O  O8  1  0.88024695  0.55375714  0.75000000  1
  O  O9  1  0.38024695  0.94624486  0.24999900  1
  O  O10  1  0.61975305  0.05375614  0.75000000  1
  O  O11  1  0.11975305  0.44624386  0.24999900  1
  O  O12  1  0.68219510  0.31381501  0.43642451  1
  O  O13  1  0.18219510  0.18618599  0.56357649  1
  O  O14  1  0.81780490  0.81381401  0.06357649  1
  O  O15  1  0.31780490  0.68618499  0.93642351  1
  O  O16  1  0.68219510  0.31381501  0.06357649  1
  O  O17  1  0.18219510  0.18618599  0.93642351  1
  O  O18  1  0.31780490  0.68618499  0.56357649  1
  O  O19  1  0.81780490  0.81381401  0.43642451  1
