# generated using pymatgen
data_CsGdCdTe3
_symmetry_space_group_name_H-M   'P 1'
_cell_length_a   4.73065774
_cell_length_b   8.86802026
_cell_length_c   11.89800194
_cell_angle_alpha   90.00000000
_cell_angle_beta   90.00000000
_cell_angle_gamma   105.46951914
_symmetry_Int_Tables_number   1
_chemical_formula_structural   CsGdCdTe3
_chemical_formula_sum   'Cs2 Gd2 Cd2 Te6'
_cell_volume   481.05724971
_cell_formula_units_Z   2
loop_
 _symmetry_equiv_pos_site_id
 _symmetry_equiv_pos_as_xyz
  1  'x, y, z'
loop_
 _atom_site_type_symbol
 _atom_site_label
 _atom_site_symmetry_multiplicity
 _atom_site_fract_x
 _atom_site_fract_y
 _atom_site_fract_z
 _atom_site_occupancy
  Cs  Cs0  1  0.74742777  0.49485555  0.25000000  1
  Cs  Cs1  1  0.25257223  0.50514445  0.75000000  1
  Gd  Gd2  1  -0.00000000  -0.00000000  0.00000000  1
  Gd  Gd3  1  -0.00000000  -0.00000000  0.50000000  1
  Cd  Cd4  1  0.46104822  0.92209643  0.25000000  1
  Cd  Cd5  1  0.53895178  0.07790357  0.75000000  1
  Te  Te6  1  0.37956435  0.75912870  0.04557018  1
  Te  Te7  1  0.62043565  0.24087130  0.95442982  1
  Te  Te8  1  0.37956435  0.75912870  0.45442982  1
  Te  Te9  1  0.62043565  0.24087130  0.54557018  1
  Te  Te10  1  0.06305338  0.12610677  0.25000000  1
  Te  Te11  1  0.93694662  0.87389323  0.75000000  1
