# generated using pymatgen
data_YbC6
_symmetry_space_group_name_H-M   'P 1'
_cell_length_a   4.34213664
_cell_length_b   4.34213664
_cell_length_c   8.76562029
_cell_angle_alpha   90.00368094
_cell_angle_beta   89.99631906
_cell_angle_gamma   119.99900500
_symmetry_Int_Tables_number   1
_chemical_formula_structural   YbC6
_chemical_formula_sum   'Yb2 C12'
_cell_volume   143.12800228
_cell_formula_units_Z   2
loop_
 _symmetry_equiv_pos_site_id
 _symmetry_equiv_pos_as_xyz
  1  'x, y, z'
loop_
 _atom_site_type_symbol
 _atom_site_label
 _atom_site_symmetry_multiplicity
 _atom_site_fract_x
 _atom_site_fract_y
 _atom_site_fract_z
 _atom_site_occupancy
  Yb  Yb0  1  0.66668549  0.33331451  0.75000023  1
  Yb  Yb1  1  0.33331451  0.66668549  0.24999977  1
  C  C2  1  0.66661598  -0.00001280  0.49999129  1
  C  C3  1  0.33334127  0.33334127  0.50000000  1
  C  C4  1  -0.00001280  0.66661598  0.50000871  1
  C  C5  1  0.33338402  0.00001280  0.50000871  1
  C  C6  1  0.00001280  0.33338402  0.49999129  1
  C  C7  1  0.66665873  0.66665873  0.50000000  1
  C  C8  1  0.33337133  0.00001267  0.99999344  1
  C  C9  1  0.66663825  0.66663825  -0.00000000  1
  C  C10  1  0.00001267  0.33337133  0.00000656  1
  C  C11  1  0.66662867  -0.00001267  0.00000656  1
  C  C12  1  -0.00001267  0.66662867  0.99999344  1
  C  C13  1  0.33336175  0.33336175  -0.00000000  1
