# generated using pymatgen
data_Nd5Ru2
_symmetry_space_group_name_H-M   'P 1'
_cell_length_a   6.59526062
_cell_length_b   7.38735988
_cell_length_c   8.85636167
_cell_angle_alpha   96.12089316
_cell_angle_beta   111.86036744
_cell_angle_gamma   90.00000000
_symmetry_Int_Tables_number   1
_chemical_formula_structural   Nd5Ru2
_chemical_formula_sum   'Nd10 Ru4'
_cell_volume   397.81695594
_cell_formula_units_Z   2
loop_
 _symmetry_equiv_pos_site_id
 _symmetry_equiv_pos_as_xyz
  1  'x, y, z'
loop_
 _atom_site_type_symbol
 _atom_site_label
 _atom_site_symmetry_multiplicity
 _atom_site_fract_x
 _atom_site_fract_y
 _atom_site_fract_z
 _atom_site_occupancy
  Nd  Nd0  1  0.97880528  0.91489203  0.18573702  1
  Nd  Nd1  1  0.79306826  0.58510797  0.81426298  1
  Nd  Nd2  1  0.02119472  0.08510797  0.81426298  1
  Nd  Nd3  1  0.20693174  0.41489203  0.18573702  1
  Nd  Nd4  1  0.64067800  0.81486093  0.43435183  1
  Nd  Nd5  1  0.20632617  0.68513907  0.56564817  1
  Nd  Nd6  1  0.35932200  0.18513907  0.56564817  1
  Nd  Nd7  1  0.79367383  0.31486093  0.43435183  1
  Nd  Nd8  1  0.42051304  0.75000000  1.00000000  1
  Nd  Nd9  1  0.57948696  0.25000000  0.00000000  1
  Ru  Ru10  1  0.82267068  0.57557410  0.22077014  1
  Ru  Ru11  1  0.60190053  0.92442590  0.77922986  1
  Ru  Ru12  1  0.17732932  0.42442590  0.77922986  1
  Ru  Ru13  1  0.39809947  0.07557410  0.22077014  1
