# generated using pymatgen
data_Ba3InHg10
_symmetry_space_group_name_H-M   'P 1'
_cell_length_a   5.36378724
_cell_length_b   9.66478385
_cell_length_c   9.66478385
_cell_angle_alpha   63.28077576
_cell_angle_beta   73.88946430
_cell_angle_gamma   73.88946430
_symmetry_Int_Tables_number   1
_chemical_formula_structural   Ba3InHg10
_chemical_formula_sum   'Ba3 In1 Hg10'
_cell_volume   423.08320667
_cell_formula_units_Z   1
loop_
 _symmetry_equiv_pos_site_id
 _symmetry_equiv_pos_as_xyz
  1  'x, y, z'
loop_
 _atom_site_type_symbol
 _atom_site_label
 _atom_site_symmetry_multiplicity
 _atom_site_fract_x
 _atom_site_fract_y
 _atom_site_fract_z
 _atom_site_occupancy
  Ba  Ba0  1  0.00000000  -0.00000000  0.00000000  1
  Ba  Ba1  1  0.29890317  0.70109683  0.70109683  1
  Ba  Ba2  1  0.70109683  0.29890317  0.29890317  1
  In  In3  1  0.00000000  0.50000000  0.50000000  1
  Hg  Hg4  1  0.14129394  0.57451947  0.14289264  1
  Hg  Hg5  1  0.85870606  0.42548053  0.85710736  1
  Hg  Hg6  1  0.85870606  0.85710736  0.42548053  1
  Hg  Hg7  1  0.14129394  0.14289264  0.57451947  1
  Hg  Hg8  1  0.33778970  0.30679994  0.01762066  1
  Hg  Hg9  1  0.66221030  0.69320006  0.98237934  1
  Hg  Hg10  1  0.66221030  0.98237934  0.69320006  1
  Hg  Hg11  1  0.33778970  0.01762066  0.30679994  1
  Hg  Hg12  1  0.50000000  0.32116851  0.67883149  1
  Hg  Hg13  1  0.50000000  0.67883149  0.32116851  1
