# generated using pymatgen
data_NdGa6
_symmetry_space_group_name_H-M   'P 1'
_cell_length_a   6.08304619
_cell_length_b   6.08304619
_cell_length_c   7.66549886
_cell_angle_alpha   90.00000000
_cell_angle_beta   90.00000000
_cell_angle_gamma   90.00000000
_symmetry_Int_Tables_number   1
_chemical_formula_structural   NdGa6
_chemical_formula_sum   'Nd2 Ga12'
_cell_volume   283.64991107
_cell_formula_units_Z   2
loop_
 _symmetry_equiv_pos_site_id
 _symmetry_equiv_pos_as_xyz
  1  'x, y, z'
loop_
 _atom_site_type_symbol
 _atom_site_label
 _atom_site_symmetry_multiplicity
 _atom_site_fract_x
 _atom_site_fract_y
 _atom_site_fract_z
 _atom_site_occupancy
  Nd  Nd0  1  0.75000000  0.25000000  -0.00000000  1
  Nd  Nd1  1  0.25000000  0.75000000  -0.00000000  1
  Ga  Ga2  1  0.75000000  0.75000000  0.16174930  1
  Ga  Ga3  1  0.25000000  0.25000000  0.16174930  1
  Ga  Ga4  1  0.25000000  0.25000000  0.83825070  1
  Ga  Ga5  1  0.75000000  0.75000000  0.83825070  1
  Ga  Ga6  1  0.05774393  0.94225607  0.34950537  1
  Ga  Ga7  1  0.55774393  0.05774393  0.34950537  1
  Ga  Ga8  1  0.94225607  0.44225607  0.34950537  1
  Ga  Ga9  1  0.44225607  0.55774393  0.34950537  1
  Ga  Ga10  1  0.94225607  0.05774393  0.65049463  1
  Ga  Ga11  1  0.44225607  0.94225607  0.65049463  1
  Ga  Ga12  1  0.05774393  0.55774393  0.65049463  1
  Ga  Ga13  1  0.55774393  0.44225607  0.65049463  1
