# generated using pymatgen
data_Tb5Ir2
_symmetry_space_group_name_H-M   'P 1'
_cell_length_a   6.52391224
_cell_length_b   7.20496509
_cell_length_c   8.59837110
_cell_angle_alpha   96.24995657
_cell_angle_beta   112.29460426
_cell_angle_gamma   90.00000000
_symmetry_Int_Tables_number   1
_chemical_formula_structural   Tb5Ir2
_chemical_formula_sum   'Tb10 Ir4'
_cell_volume   371.35209148
_cell_formula_units_Z   2
loop_
 _symmetry_equiv_pos_site_id
 _symmetry_equiv_pos_as_xyz
  1  'x, y, z'
loop_
 _atom_site_type_symbol
 _atom_site_label
 _atom_site_symmetry_multiplicity
 _atom_site_fract_x
 _atom_site_fract_y
 _atom_site_fract_z
 _atom_site_occupancy
  Tb  Tb0  1  0.97123367  0.91769592  0.18262176  1
  Tb  Tb1  1  0.78861191  0.58230408  0.81737824  1
  Tb  Tb2  1  0.02876633  0.08230408  0.81737824  1
  Tb  Tb3  1  0.21138809  0.41769592  0.18262176  1
  Tb  Tb4  1  0.65371390  0.81811231  0.44088464  1
  Tb  Tb5  1  0.21282926  0.68188769  0.55911536  1
  Tb  Tb6  1  0.34628610  0.18188769  0.55911536  1
  Tb  Tb7  1  0.78717074  0.31811231  0.44088464  1
  Tb  Tb8  1  0.42855725  0.75000000  1.00000000  1
  Tb  Tb9  1  0.57144275  0.25000000  0.00000000  1
  Ir  Ir10  1  0.82583509  0.57300020  0.22036917  1
  Ir  Ir11  1  0.60546592  0.92699980  0.77963083  1
  Ir  Ir12  1  0.17416491  0.42699980  0.77963083  1
  Ir  Ir13  1  0.39453408  0.07300020  0.22036917  1
