# generated using pymatgen
data_EuC6
_symmetry_space_group_name_H-M   'P 1'
_cell_length_a   4.34362788
_cell_length_b   4.34362788
_cell_length_c   9.49093801
_cell_angle_alpha   90.00396682
_cell_angle_beta   89.99603318
_cell_angle_gamma   120.00786693
_symmetry_Int_Tables_number   1
_chemical_formula_structural   EuC6
_chemical_formula_sum   'Eu2 C12'
_cell_volume   155.06384870
_cell_formula_units_Z   2
loop_
 _symmetry_equiv_pos_site_id
 _symmetry_equiv_pos_as_xyz
  1  'x, y, z'
loop_
 _atom_site_type_symbol
 _atom_site_label
 _atom_site_symmetry_multiplicity
 _atom_site_fract_x
 _atom_site_fract_y
 _atom_site_fract_z
 _atom_site_occupancy
  Eu  Eu0  1  0.66666176  0.33333824  0.74999886  1
  Eu  Eu1  1  0.33333824  0.66666176  0.25000114  1
  C  C2  1  0.66654755  0.00006184  0.50000212  1
  C  C3  1  0.33354759  0.33354759  0.50000000  1
  C  C4  1  0.00006184  0.66654755  0.49999788  1
  C  C5  1  0.33345245  -0.00006184  0.49999788  1
  C  C6  1  -0.00006184  0.33345245  0.50000212  1
  C  C7  1  0.66645241  0.66645241  0.50000000  1
  C  C8  1  0.33342045  -0.00008143  0.00000680  1
  C  C9  1  0.66640965  0.66640965  0.00000000  1
  C  C10  1  -0.00008143  0.33342045  0.99999320  1
  C  C11  1  0.66657955  0.00008143  0.99999320  1
  C  C12  1  0.00008143  0.66657955  0.00000680  1
  C  C13  1  0.33359035  0.33359035  0.00000000  1
