# generated using pymatgen
data_TaVZn2O6
_symmetry_space_group_name_H-M   'P 1'
_cell_length_a   5.27347136
_cell_length_b   5.34652798
_cell_length_c   7.68878076
_cell_angle_alpha   90.00000000
_cell_angle_beta   90.00000000
_cell_angle_gamma   89.57905631
_symmetry_Int_Tables_number   1
_chemical_formula_structural   TaVZn2O6
_chemical_formula_sum   'Ta2 V2 Zn4 O12'
_cell_volume   216.77749419
_cell_formula_units_Z   2
loop_
 _symmetry_equiv_pos_site_id
 _symmetry_equiv_pos_as_xyz
  1  'x, y, z'
loop_
 _atom_site_type_symbol
 _atom_site_label
 _atom_site_symmetry_multiplicity
 _atom_site_fract_x
 _atom_site_fract_y
 _atom_site_fract_z
 _atom_site_occupancy
  Ta  Ta0  1  0.00000000  0.50000000  0.00000000  1
  Ta  Ta1  1  0.00000000  0.50000000  0.50000000  1
  V  V2  1  0.50000000  0.00000000  0.00000000  1
  V  V3  1  0.50000000  0.00000000  0.50000000  1
  Zn  Zn4  1  0.98539913  0.98180401  0.25000000  1
  Zn  Zn5  1  0.49126696  0.45030497  0.25000000  1
  Zn  Zn6  1  0.50873304  0.54969503  0.75000000  1
  Zn  Zn7  1  0.01460087  0.01819599  0.75000000  1
  O  O8  1  0.83391143  0.81678792  0.56510419  1
  O  O9  1  0.31700940  0.67606366  0.43323144  1
  O  O10  1  0.16608857  0.18321208  0.43489581  1
  O  O11  1  0.68299060  0.32393634  0.93323144  1
  O  O12  1  0.12583334  0.44273875  0.75000000  1
  O  O13  1  0.68299060  0.32393634  0.56676856  1
  O  O14  1  0.31700940  0.67606366  0.06676856  1
  O  O15  1  0.83391143  0.81678792  0.93489581  1
  O  O16  1  0.61402490  0.07582541  0.25000000  1
  O  O17  1  0.16608857  0.18321208  0.06510419  1
  O  O18  1  0.38597510  0.92417459  0.75000000  1
  O  O19  1  0.87416666  0.55726125  0.25000000  1
