# generated using pymatgen
data_Ba3Au2
_symmetry_space_group_name_H-M   'P 1'
_cell_length_a   8.82025039
_cell_length_b   8.82025039
_cell_length_c   8.82025014
_cell_angle_alpha   71.76809602
_cell_angle_beta   71.76809602
_cell_angle_gamma   71.76809271
_symmetry_Int_Tables_number   1
_chemical_formula_structural   Ba3Au2
_chemical_formula_sum   'Ba9 Au6'
_cell_volume   601.18678519
_cell_formula_units_Z   3
loop_
 _symmetry_equiv_pos_site_id
 _symmetry_equiv_pos_as_xyz
  1  'x, y, z'
loop_
 _atom_site_type_symbol
 _atom_site_label
 _atom_site_symmetry_multiplicity
 _atom_site_fract_x
 _atom_site_fract_y
 _atom_site_fract_z
 _atom_site_occupancy
  Ba  Ba0  1  0.00000000  0.00000000  -0.00000000  1
  Ba  Ba1  1  0.79571311  0.79571311  0.79571311  1
  Ba  Ba2  1  0.20428689  0.20428689  0.20428689  1
  Ba  Ba3  1  0.61273379  0.32459246  0.84146633  1
  Ba  Ba4  1  0.32459246  0.84146633  0.61273379  1
  Ba  Ba5  1  0.84146633  0.61273379  0.32459246  1
  Ba  Ba6  1  0.38726621  0.67540754  0.15853367  1
  Ba  Ba7  1  0.67540754  0.15853367  0.38726621  1
  Ba  Ba8  1  0.15853367  0.38726621  0.67540754  1
  Au  Au9  1  0.96019986  0.14620736  0.59558971  1
  Au  Au10  1  0.14620736  0.59558971  0.96019986  1
  Au  Au11  1  0.59558971  0.96019986  0.14620736  1
  Au  Au12  1  0.03980014  0.85379264  0.40441029  1
  Au  Au13  1  0.85379264  0.40441029  0.03980014  1
  Au  Au14  1  0.40441029  0.03980014  0.85379264  1
