# generated using pymatgen
data_La2H5
_symmetry_space_group_name_H-M   'P 1'
_cell_length_a   5.57185833
_cell_length_b   5.57185833
_cell_length_c   6.90493815
_cell_angle_alpha   113.79522839
_cell_angle_beta   113.79522839
_cell_angle_gamma   90.00000000
_symmetry_Int_Tables_number   1
_chemical_formula_structural   La2H5
_chemical_formula_sum   'La4 H10'
_cell_volume   176.04628925
_cell_formula_units_Z   2
loop_
 _symmetry_equiv_pos_site_id
 _symmetry_equiv_pos_as_xyz
  1  'x, y, z'
loop_
 _atom_site_type_symbol
 _atom_site_label
 _atom_site_symmetry_multiplicity
 _atom_site_fract_x
 _atom_site_fract_y
 _atom_site_fract_z
 _atom_site_occupancy
  La  La0  1  0.00470977  0.50470977  0.00941954  1
  La  La1  1  0.24529023  0.24529023  0.49058046  1
  La  La2  1  0.49529023  0.99529023  0.99058046  1
  La  La3  1  0.75470977  0.75470977  0.50941954  1
  H  H4  1  0.62500000  0.60606133  0.75000000  1
  H  H5  1  0.12500000  0.14393867  0.75000000  1
  H  H6  1  0.12500000  0.60606133  0.75000000  1
  H  H7  1  0.62500000  0.14393867  0.75000000  1
  H  H8  1  0.39393867  0.37500000  0.25000000  1
  H  H9  1  0.85606133  0.87500000  0.25000000  1
  H  H10  1  0.39393867  0.87500000  0.25000000  1
  H  H11  1  0.85606133  0.37500000  0.25000000  1
  H  H12  1  0.25000000  0.75000000  0.50000000  1
  H  H13  1  -0.00000000  -0.00000000  -0.00000000  1
