# generated using pymatgen
data_Yb(Ni2As)2
_symmetry_space_group_name_H-M   'P 1'
_cell_length_a   3.74007444
_cell_length_b   7.20922836
_cell_length_c   7.20922836
_cell_angle_alpha   90.00000000
_cell_angle_beta   90.00000000
_cell_angle_gamma   90.00000000
_symmetry_Int_Tables_number   1
_chemical_formula_structural   Yb(Ni2As)2
_chemical_formula_sum   'Yb2 Ni8 As4'
_cell_volume   194.38278993
_cell_formula_units_Z   2
loop_
 _symmetry_equiv_pos_site_id
 _symmetry_equiv_pos_as_xyz
  1  'x, y, z'
loop_
 _atom_site_type_symbol
 _atom_site_label
 _atom_site_symmetry_multiplicity
 _atom_site_fract_x
 _atom_site_fract_y
 _atom_site_fract_z
 _atom_site_occupancy
  Yb  Yb0  1  0.00000000  0.50000000  0.50000000  1
  Yb  Yb1  1  0.50000000  -0.00000000  -0.00000000  1
  Ni  Ni2  1  0.50000000  0.15407670  0.58935572  1
  Ni  Ni3  1  0.50000000  0.84592330  0.41064428  1
  Ni  Ni4  1  0.00000000  0.34592330  0.08935572  1
  Ni  Ni5  1  -0.00000000  0.65407670  0.91064428  1
  Ni  Ni6  1  0.50000000  0.58935572  0.15407670  1
  Ni  Ni7  1  0.50000000  0.41064428  0.84592330  1
  Ni  Ni8  1  0.00000000  0.08935572  0.34592330  1
  Ni  Ni9  1  -0.00000000  0.91064428  0.65407670  1
  As  As10  1  0.50000000  0.71738596  0.71738596  1
  As  As11  1  0.50000000  0.28261404  0.28261404  1
  As  As12  1  0.00000000  0.78261404  0.21738596  1
  As  As13  1  0.00000000  0.21738596  0.78261404  1
