# generated using pymatgen
data_Tb2FeC4
_symmetry_space_group_name_H-M   'P 1'
_cell_length_a   5.04999471
_cell_length_b   6.62853639
_cell_length_c   6.62853639
_cell_angle_alpha   68.83048658
_cell_angle_beta   67.60880200
_cell_angle_gamma   67.60880200
_symmetry_Int_Tables_number   1
_chemical_formula_structural   Tb2FeC4
_chemical_formula_sum   'Tb4 Fe2 C8'
_cell_volume   183.53150314
_cell_formula_units_Z   2
loop_
 _symmetry_equiv_pos_site_id
 _symmetry_equiv_pos_as_xyz
  1  'x, y, z'
loop_
 _atom_site_type_symbol
 _atom_site_label
 _atom_site_symmetry_multiplicity
 _atom_site_fract_x
 _atom_site_fract_y
 _atom_site_fract_z
 _atom_site_occupancy
  Tb  Tb0  1  0.14436459  0.51349780  0.19777303  1
  Tb  Tb1  1  0.85563541  0.48650220  0.80222697  1
  Tb  Tb2  1  0.64436459  0.19777303  0.51349780  1
  Tb  Tb3  1  0.35563541  0.80222697  0.48650220  1
  Fe  Fe4  1  0.25000000  0.00000000  0.00000000  1
  Fe  Fe5  1  0.75000000  0.00000000  0.00000000  1
  C  C6  1  0.37218771  0.46405479  0.79156979  1
  C  C7  1  0.62781229  0.53594521  0.20843021  1
  C  C8  1  0.87218771  0.79156979  0.46405479  1
  C  C9  1  0.12781229  0.20843021  0.53594521  1
  C  C10  1  0.42238758  0.24189324  0.91333160  1
  C  C11  1  0.57761242  0.75810676  0.08666840  1
  C  C12  1  0.92238758  0.91333160  0.24189324  1
  C  C13  1  0.07761242  0.08666840  0.75810676  1
