# generated using pymatgen
data_Li2Sm2Ge3
_symmetry_space_group_name_H-M   'P 1'
_cell_length_a   4.39624696
_cell_length_b   6.92420479
_cell_length_c   9.55457399
_cell_angle_alpha   90.00000000
_cell_angle_beta   103.30059545
_cell_angle_gamma   90.00000000
_symmetry_Int_Tables_number   1
_chemical_formula_structural   Li2Sm2Ge3
_chemical_formula_sum   'Li4 Sm4 Ge6'
_cell_volume   283.04462887
_cell_formula_units_Z   2
loop_
 _symmetry_equiv_pos_site_id
 _symmetry_equiv_pos_as_xyz
  1  'x, y, z'
loop_
 _atom_site_type_symbol
 _atom_site_label
 _atom_site_symmetry_multiplicity
 _atom_site_fract_x
 _atom_site_fract_y
 _atom_site_fract_z
 _atom_site_occupancy
  Li  Li0  1  0.80875800  0.06308972  0.61751600  1
  Li  Li1  1  0.19124200  0.93691028  0.38248400  1
  Li  Li2  1  0.80875800  0.43691028  0.61751600  1
  Li  Li3  1  0.19124200  0.56308972  0.38248400  1
  Sm  Sm4  1  0.55213670  0.75000000  0.10427339  1
  Sm  Sm5  1  0.44786330  0.25000000  0.89572661  1
  Sm  Sm6  1  0.34308865  0.75000000  0.68617730  1
  Sm  Sm7  1  0.65691135  0.25000000  0.31382270  1
  Ge  Ge8  1  0.93771624  0.56706705  0.87543247  1
  Ge  Ge9  1  0.06228376  0.43293295  0.12456753  1
  Ge  Ge10  1  0.93771624  0.93293295  0.87543247  1
  Ge  Ge11  1  0.06228376  0.06706705  0.12456753  1
  Ge  Ge12  1  0.72035784  0.75000000  0.44071568  1
  Ge  Ge13  1  0.27964216  0.25000000  0.55928432  1
