# generated using pymatgen
data_Tm5Ru2
_symmetry_space_group_name_H-M   'P 1'
_cell_length_a   6.24079130
_cell_length_b   7.24175384
_cell_length_c   8.36664627
_cell_angle_alpha   96.68410637
_cell_angle_beta   111.89806909
_cell_angle_gamma   90.00000000
_symmetry_Int_Tables_number   1
_chemical_formula_structural   Tm5Ru2
_chemical_formula_sum   'Tm10 Ru4'
_cell_volume   348.07086710
_cell_formula_units_Z   2
loop_
 _symmetry_equiv_pos_site_id
 _symmetry_equiv_pos_as_xyz
  1  'x, y, z'
loop_
 _atom_site_type_symbol
 _atom_site_label
 _atom_site_symmetry_multiplicity
 _atom_site_fract_x
 _atom_site_fract_y
 _atom_site_fract_z
 _atom_site_occupancy
  Tm  Tm0  1  0.97756562  0.91595763  0.18664754  1
  Tm  Tm1  1  0.79091808  0.58404237  0.81335246  1
  Tm  Tm2  1  0.02243438  0.08404237  0.81335246  1
  Tm  Tm3  1  0.20908192  0.41595763  0.18664754  1
  Tm  Tm4  1  0.64056339  0.81551859  0.43496506  1
  Tm  Tm5  1  0.20559833  0.68448141  0.56503494  1
  Tm  Tm6  1  0.35943661  0.18448141  0.56503494  1
  Tm  Tm7  1  0.79440167  0.31551859  0.43496506  1
  Tm  Tm8  1  0.41818155  0.75000000  1.00000000  1
  Tm  Tm9  1  0.58181845  0.25000000  0.00000000  1
  Ru  Ru10  1  0.82238716  0.57633212  0.21960455  1
  Ru  Ru11  1  0.60278260  0.92366788  0.78039545  1
  Ru  Ru12  1  0.17761284  0.42366788  0.78039545  1
  Ru  Ru13  1  0.39721740  0.07633212  0.21960455  1
