# generated using pymatgen
data_Hf(Ni2As)2
_symmetry_space_group_name_H-M   'P 1'
_cell_length_a   3.76268114
_cell_length_b   7.03084265
_cell_length_c   7.03084265
_cell_angle_alpha   90.00000000
_cell_angle_beta   90.00000000
_cell_angle_gamma   90.00000000
_symmetry_Int_Tables_number   1
_chemical_formula_structural   Hf(Ni2As)2
_chemical_formula_sum   'Hf2 Ni8 As4'
_cell_volume   185.99966999
_cell_formula_units_Z   2
loop_
 _symmetry_equiv_pos_site_id
 _symmetry_equiv_pos_as_xyz
  1  'x, y, z'
loop_
 _atom_site_type_symbol
 _atom_site_label
 _atom_site_symmetry_multiplicity
 _atom_site_fract_x
 _atom_site_fract_y
 _atom_site_fract_z
 _atom_site_occupancy
  Hf  Hf0  1  -0.00000000  0.50000000  0.50000000  1
  Hf  Hf1  1  0.50000000  -0.00000000  0.00000000  1
  Ni  Ni2  1  0.50000000  0.15616465  0.59081870  1
  Ni  Ni3  1  0.50000000  0.84383535  0.40918130  1
  Ni  Ni4  1  -0.00000000  0.34383535  0.09081870  1
  Ni  Ni5  1  -0.00000000  0.65616465  0.90918130  1
  Ni  Ni6  1  0.50000000  0.59081870  0.15616465  1
  Ni  Ni7  1  0.50000000  0.40918130  0.84383535  1
  Ni  Ni8  1  0.00000000  0.09081870  0.34383535  1
  Ni  Ni9  1  0.00000000  0.90918130  0.65616465  1
  As  As10  1  0.50000000  0.71635232  0.71635232  1
  As  As11  1  0.50000000  0.28364768  0.28364768  1
  As  As12  1  0.00000000  0.78364768  0.21635232  1
  As  As13  1  -0.00000000  0.21635232  0.78364768  1
