# generated using pymatgen
data_Y3Ga8Ag3
_symmetry_space_group_name_H-M   'P 1'
_cell_length_a   4.34886607
_cell_length_b   8.36341464
_cell_length_c   8.36341464
_cell_angle_alpha   70.16905427
_cell_angle_beta   74.93032908
_cell_angle_gamma   74.93032908
_symmetry_Int_Tables_number   1
_chemical_formula_structural   Y3Ga8Ag3
_chemical_formula_sum   'Y3 Ga8 Ag3'
_cell_volume   271.32259432
_cell_formula_units_Z   1
loop_
 _symmetry_equiv_pos_site_id
 _symmetry_equiv_pos_as_xyz
  1  'x, y, z'
loop_
 _atom_site_type_symbol
 _atom_site_label
 _atom_site_symmetry_multiplicity
 _atom_site_fract_x
 _atom_site_fract_y
 _atom_site_fract_z
 _atom_site_occupancy
  Y  Y0  1  0.00000000  -0.00000000  -0.00000000  1
  Y  Y1  1  0.29979443  0.70020557  0.70020557  1
  Y  Y2  1  0.70020557  0.29979443  0.29979443  1
  Ga  Ga3  1  0.34123091  0.28967746  0.02786072  1
  Ga  Ga4  1  0.65876909  0.71032254  0.97213928  1
  Ga  Ga5  1  0.34123091  0.02786072  0.28967746  1
  Ga  Ga6  1  0.65876909  0.97213928  0.71032254  1
  Ga  Ga7  1  0.14235388  0.57732865  0.13796359  1
  Ga  Ga8  1  0.85764612  0.42267135  0.86203641  1
  Ga  Ga9  1  0.14235388  0.13796359  0.57732865  1
  Ga  Ga10  1  0.85764612  0.86203641  0.42267135  1
  Ag  Ag11  1  0.50000000  0.30915563  0.69084437  1
  Ag  Ag12  1  0.50000000  0.69084437  0.30915563  1
  Ag  Ag13  1  0.00000000  0.50000000  0.50000000  1
