# generated using pymatgen
data_YbCuGe
_symmetry_space_group_name_H-M   'P 1'
_cell_length_a   4.16281214
_cell_length_b   4.16281214
_cell_length_c   8.13021819
_cell_angle_alpha   90.00960977
_cell_angle_beta   89.99039023
_cell_angle_gamma   120.01358453
_symmetry_Int_Tables_number   1
_chemical_formula_structural   YbCuGe
_chemical_formula_sum   'Yb2 Cu2 Ge2'
_cell_volume   121.99639111
_cell_formula_units_Z   2
loop_
 _symmetry_equiv_pos_site_id
 _symmetry_equiv_pos_as_xyz
  1  'x, y, z'
loop_
 _atom_site_type_symbol
 _atom_site_label
 _atom_site_symmetry_multiplicity
 _atom_site_fract_x
 _atom_site_fract_y
 _atom_site_fract_z
 _atom_site_occupancy
  Yb  Yb0  1  0.00007830  0.99992170  0.78225480  1
  Yb  Yb1  1  0.99992170  0.00007830  0.21774520  1
  Cu  Cu2  1  0.66667862  0.33332138  0.98749160  1
  Cu  Cu3  1  0.33332138  0.66667862  0.01250840  1
  Ge  Ge4  1  0.33337686  0.66662314  0.43843743  1
  Ge  Ge5  1  0.66662314  0.33337686  0.56156257  1
