# generated using pymatgen
data_K(MoSe)3
_symmetry_space_group_name_H-M   'P 1'
_cell_length_a   9.20777814
_cell_length_b   9.21318553
_cell_length_c   4.53011291
_cell_angle_alpha   90.00000000
_cell_angle_beta   90.00000000
_cell_angle_gamma   119.99681003
_symmetry_Int_Tables_number   1
_chemical_formula_structural   K(MoSe)3
_chemical_formula_sum   'K2 Mo6 Se6'
_cell_volume   332.82679346
_cell_formula_units_Z   2
loop_
 _symmetry_equiv_pos_site_id
 _symmetry_equiv_pos_as_xyz
  1  'x, y, z'
loop_
 _atom_site_type_symbol
 _atom_site_label
 _atom_site_symmetry_multiplicity
 _atom_site_fract_x
 _atom_site_fract_y
 _atom_site_fract_z
 _atom_site_occupancy
  K  K0  1  0.33330076  0.66662041  0.25000000  1
  K  K1  1  0.66670024  0.33338059  0.74999900  1
  Mo  Mo2  1  0.15095857  0.17995569  0.25000000  1
  Mo  Mo3  1  0.02911350  0.84912859  0.25000000  1
  Mo  Mo4  1  0.81991636  0.97091004  0.25000000  1
  Mo  Mo5  1  0.18008464  0.02908996  0.74999900  1
  Mo  Mo6  1  0.97088550  0.15087041  0.74999900  1
  Mo  Mo7  1  0.84904143  0.82004431  0.74999900  1
  Se  Se8  1  0.35733887  0.05829208  0.25000000  1
  Se  Se9  1  0.94164604  0.29881304  0.25000000  1
  Se  Se10  1  0.70104401  0.64287225  0.25000000  1
  Se  Se11  1  0.29895399  0.35712575  0.74999900  1
  Se  Se12  1  0.05835396  0.70118796  0.74999900  1
  Se  Se13  1  0.64266213  0.94170692  0.74999900  1
