# generated using pymatgen
data_Mn(BiSe2)2
_symmetry_space_group_name_H-M   'P 1'
_cell_length_a   4.11344635
_cell_length_b   6.98447080
_cell_length_c   14.04195282
_cell_angle_alpha   87.63666330
_cell_angle_beta   81.57759604
_cell_angle_gamma   72.87419335
_symmetry_Int_Tables_number   1
_chemical_formula_structural   Mn(BiSe2)2
_chemical_formula_sum   'Mn2 Bi4 Se8'
_cell_volume   381.38214718
_cell_formula_units_Z   2
loop_
 _symmetry_equiv_pos_site_id
 _symmetry_equiv_pos_as_xyz
  1  'x, y, z'
loop_
 _atom_site_type_symbol
 _atom_site_label
 _atom_site_symmetry_multiplicity
 _atom_site_fract_x
 _atom_site_fract_y
 _atom_site_fract_z
 _atom_site_occupancy
  Mn  Mn0  1  0.00000000  0.50000000  0.50000000  1
  Mn  Mn1  1  0.00000000  0.00000000  -0.00000000  1
  Bi  Bi2  1  0.21732659  0.93650621  0.62884060  1
  Bi  Bi3  1  0.78267341  0.06349379  0.37115940  1
  Bi  Bi4  1  0.34975162  0.43897482  0.86152194  1
  Bi  Bi5  1  0.65024838  0.56102518  0.13847806  1
  Se  Se6  1  0.65788420  0.72863949  0.95559212  1
  Se  Se7  1  0.34211580  0.27136051  0.04440788  1
  Se  Se8  1  0.01275813  0.14662632  0.82785741  1
  Se  Se9  1  0.98724187  0.85337368  0.17214259  1
  Se  Se10  1  0.59723147  0.24995894  0.55557812  1
  Se  Se11  1  0.40276853  0.75004106  0.44442188  1
  Se  Se12  1  0.83221969  0.65747536  0.67808527  1
  Se  Se13  1  0.16778031  0.34252464  0.32191473  1
