# generated using pymatgen
data_Ho3Ga8Ag3
_symmetry_space_group_name_H-M   'P 1'
_cell_length_a   4.37201944
_cell_length_b   8.29646965
_cell_length_c   8.29646965
_cell_angle_alpha   70.19162466
_cell_angle_beta   74.72294613
_cell_angle_gamma   74.72294613
_symmetry_Int_Tables_number   1
_chemical_formula_structural   Ho3Ga8Ag3
_chemical_formula_sum   'Ho3 Ga8 Ag3'
_cell_volume   268.04364647
_cell_formula_units_Z   1
loop_
 _symmetry_equiv_pos_site_id
 _symmetry_equiv_pos_as_xyz
  1  'x, y, z'
loop_
 _atom_site_type_symbol
 _atom_site_label
 _atom_site_symmetry_multiplicity
 _atom_site_fract_x
 _atom_site_fract_y
 _atom_site_fract_z
 _atom_site_occupancy
  Ho  Ho0  1  0.50000000  0.50000000  0.50000000  1
  Ho  Ho1  1  0.20419779  0.79580221  0.79580221  1
  Ho  Ho2  1  0.79580221  0.20419779  0.20419779  1
  Ga  Ga3  1  0.35769339  0.36154901  0.92306421  1
  Ga  Ga4  1  0.64230661  0.63845099  0.07693579  1
  Ga  Ga5  1  0.35769339  0.92306421  0.36154901  1
  Ga  Ga6  1  0.64230661  0.07693579  0.63845099  1
  Ga  Ga7  1  0.15740630  0.47349509  0.21169231  1
  Ga  Ga8  1  0.84259370  0.52650491  0.78830769  1
  Ga  Ga9  1  0.15740630  0.21169231  0.47349509  1
  Ga  Ga10  1  0.84259370  0.78830769  0.52650491  1
  Ag  Ag11  1  0.50000000  -0.00000000  0.00000000  1
  Ag  Ag12  1  0.00000000  0.81130000  0.18870000  1
  Ag  Ag13  1  -0.00000000  0.18870000  0.81130000  1
