# generated using pymatgen
data_Ho3Ga9Pd2
_symmetry_space_group_name_H-M   'P 1'
_cell_length_a   4.30154212
_cell_length_b   8.17666723
_cell_length_c   8.17666723
_cell_angle_alpha   70.87005715
_cell_angle_beta   74.74962349
_cell_angle_gamma   74.74962349
_symmetry_Int_Tables_number   1
_chemical_formula_structural   Ho3Ga9Pd2
_chemical_formula_sum   'Ho3 Ga9 Pd2'
_cell_volume   257.16185910
_cell_formula_units_Z   1
loop_
 _symmetry_equiv_pos_site_id
 _symmetry_equiv_pos_as_xyz
  1  'x, y, z'
loop_
 _atom_site_type_symbol
 _atom_site_label
 _atom_site_symmetry_multiplicity
 _atom_site_fract_x
 _atom_site_fract_y
 _atom_site_fract_z
 _atom_site_occupancy
  Ho  Ho0  1  0.50000000  0.50000000  0.50000000  1
  Ho  Ho1  1  0.20016658  0.79983342  0.79983342  1
  Ho  Ho2  1  0.79983342  0.20016658  0.20016658  1
  Ga  Ga3  1  0.36288500  0.35497879  0.91925120  1
  Ga  Ga4  1  0.63711500  0.64502121  0.08074880  1
  Ga  Ga5  1  0.36288500  0.91925120  0.35497879  1
  Ga  Ga6  1  0.63711500  0.08074880  0.64502121  1
  Ga  Ga7  1  0.15510984  0.47820406  0.21157625  1
  Ga  Ga8  1  0.84489016  0.52179594  0.78842375  1
  Ga  Ga9  1  0.15510984  0.21157625  0.47820406  1
  Ga  Ga10  1  0.84489016  0.78842375  0.52179594  1
  Ga  Ga11  1  0.50000000  0.00000000  -0.00000000  1
  Pd  Pd12  1  0.00000000  0.81788046  0.18211954  1
  Pd  Pd13  1  -0.00000000  0.18211954  0.81788046  1
