# generated using pymatgen
data_Nd3Pd4
_symmetry_space_group_name_H-M   'P 1'
_cell_length_a   5.86158944
_cell_length_b   8.18333484
_cell_length_c   8.18333490
_cell_angle_alpha   114.48717856
_cell_angle_beta   103.81343900
_cell_angle_gamma   103.81343912
_symmetry_Int_Tables_number   1
_chemical_formula_structural   Nd3Pd4
_chemical_formula_sum   'Nd6 Pd8'
_cell_volume   320.56431671
_cell_formula_units_Z   2
loop_
 _symmetry_equiv_pos_site_id
 _symmetry_equiv_pos_as_xyz
  1  'x, y, z'
loop_
 _atom_site_type_symbol
 _atom_site_label
 _atom_site_symmetry_multiplicity
 _atom_site_fract_x
 _atom_site_fract_y
 _atom_site_fract_z
 _atom_site_occupancy
  Nd  Nd0  1  0.40411657  0.12514020  0.37712473  1
  Nd  Nd1  1  0.02699184  0.62287527  0.74801547  1
  Nd  Nd2  1  0.27897637  0.25198453  0.87485980  1
  Nd  Nd3  1  0.59588343  0.87485980  0.62287527  1
  Nd  Nd4  1  0.97300816  0.37712473  0.25198453  1
  Nd  Nd5  1  0.72102363  0.74801547  0.12514020  1
  Pd  Pd6  1  -0.00000000  0.00000000  -0.00000000  1
  Pd  Pd7  1  0.50000000  0.00000000  -0.00000000  1
  Pd  Pd8  1  0.22257010  0.67006030  0.16365597  1
  Pd  Pd9  1  0.05891413  0.83634403  0.50640433  1
  Pd  Pd10  1  0.55250980  0.49359567  0.32993970  1
  Pd  Pd11  1  0.77742990  0.32993970  0.83634403  1
  Pd  Pd12  1  0.94108587  0.16365597  0.49359567  1
  Pd  Pd13  1  0.44749020  0.50640433  0.67006030  1
