# generated using pymatgen
data_TaZn2FeO6
_symmetry_space_group_name_H-M   'P 1'
_cell_length_a   5.26218871
_cell_length_b   5.34078935
_cell_length_c   7.71650945
_cell_angle_alpha   90.00000000
_cell_angle_beta   90.00000000
_cell_angle_gamma   89.17900123
_symmetry_Int_Tables_number   1
_chemical_formula_structural   TaZn2FeO6
_chemical_formula_sum   'Ta2 Zn4 Fe2 O12'
_cell_volume   216.84438095
_cell_formula_units_Z   2
loop_
 _symmetry_equiv_pos_site_id
 _symmetry_equiv_pos_as_xyz
  1  'x, y, z'
loop_
 _atom_site_type_symbol
 _atom_site_label
 _atom_site_symmetry_multiplicity
 _atom_site_fract_x
 _atom_site_fract_y
 _atom_site_fract_z
 _atom_site_occupancy
  Ta  Ta0  1  0.00000000  0.50000000  0.00000000  1
  Ta  Ta1  1  0.00000000  0.50000000  0.50000000  1
  Zn  Zn2  1  0.98410566  0.98252611  0.25000000  1
  Zn  Zn3  1  0.49662405  0.45369890  0.25000000  1
  Zn  Zn4  1  0.50337595  0.54630110  0.75000000  1
  Zn  Zn5  1  0.01589434  0.01747389  0.75000000  1
  Fe  Fe6  1  0.50000000  0.00000000  0.00000000  1
  Fe  Fe7  1  0.50000000  0.00000000  0.50000000  1
  O  O8  1  0.83290789  0.82051647  0.56368802  1
  O  O9  1  0.31984587  0.67254578  0.43517504  1
  O  O10  1  0.16709211  0.17948353  0.43631198  1
  O  O11  1  0.68015413  0.32745422  0.93517504  1
  O  O12  1  0.12075201  0.43481048  0.75000000  1
  O  O13  1  0.68015413  0.32745422  0.56482496  1
  O  O14  1  0.31984587  0.67254578  0.06482496  1
  O  O15  1  0.83290789  0.82051647  0.93631198  1
  O  O16  1  0.61480102  0.07977474  0.25000000  1
  O  O17  1  0.16709211  0.17948353  0.06368802  1
  O  O18  1  0.38519898  0.92022526  0.75000000  1
  O  O19  1  0.87924799  0.56518952  0.25000000  1
