# generated using pymatgen
data_Nd(Ni2Sn)2
_symmetry_space_group_name_H-M   'P 1'
_cell_length_a   6.77500846
_cell_length_b   6.77500846
_cell_length_c   6.77500846
_cell_angle_alpha   107.90143440
_cell_angle_beta   110.26177010
_cell_angle_gamma   110.26177010
_symmetry_Int_Tables_number   1
_chemical_formula_structural   Nd(Ni2Sn)2
_chemical_formula_sum   'Nd2 Ni8 Sn4'
_cell_volume   239.25657751
_cell_formula_units_Z   2
loop_
 _symmetry_equiv_pos_site_id
 _symmetry_equiv_pos_as_xyz
  1  'x, y, z'
loop_
 _atom_site_type_symbol
 _atom_site_label
 _atom_site_symmetry_multiplicity
 _atom_site_fract_x
 _atom_site_fract_y
 _atom_site_fract_z
 _atom_site_occupancy
  Nd  Nd0  1  0.50000000  -0.00000000  0.50000000  1
  Nd  Nd1  1  0.50000000  0.50000000  -0.00000000  1
  Ni  Ni2  1  0.72222381  0.44580594  0.44618981  1
  Ni  Ni3  1  0.27777619  0.72396599  0.72358213  1
  Ni  Ni4  1  0.99961613  0.94580594  0.22358213  1
  Ni  Ni5  1  0.00038387  0.22396599  0.94618981  1
  Ni  Ni6  1  0.00038387  0.27641787  0.55419406  1
  Ni  Ni7  1  0.99961613  0.55381019  0.27603401  1
  Ni  Ni8  1  0.27777619  0.05381019  0.05419406  1
  Ni  Ni9  1  0.72222381  0.77641787  0.77603401  1
  Sn  Sn10  1  0.31703976  0.40851988  0.40851988  1
  Sn  Sn11  1  0.68296024  0.09148012  0.09148012  1
  Sn  Sn12  1  -0.00000000  0.90851988  0.59148012  1
  Sn  Sn13  1  0.00000000  0.59148012  0.90851988  1
