# generated using pymatgen
data_Pr3Pd4
_symmetry_space_group_name_H-M   'P 1'
_cell_length_a   5.88672201
_cell_length_b   8.23145594
_cell_length_c   8.23145599
_cell_angle_alpha   114.50421680
_cell_angle_beta   103.79113629
_cell_angle_gamma   103.79113645
_symmetry_Int_Tables_number   1
_chemical_formula_structural   Pr3Pd4
_chemical_formula_sum   'Pr6 Pd8'
_cell_volume   325.79845779
_cell_formula_units_Z   2
loop_
 _symmetry_equiv_pos_site_id
 _symmetry_equiv_pos_as_xyz
  1  'x, y, z'
loop_
 _atom_site_type_symbol
 _atom_site_label
 _atom_site_symmetry_multiplicity
 _atom_site_fract_x
 _atom_site_fract_y
 _atom_site_fract_z
 _atom_site_occupancy
  Pr  Pr0  1  0.40441202  0.12497512  0.37691628  1
  Pr  Pr1  1  0.02749574  0.62308372  0.74805884  1
  Pr  Pr2  1  0.27943690  0.25194116  0.87502488  1
  Pr  Pr3  1  0.59558798  0.87502488  0.62308372  1
  Pr  Pr4  1  0.97250426  0.37691628  0.25194116  1
  Pr  Pr5  1  0.72056310  0.74805884  0.12497512  1
  Pd  Pd6  1  0.00000000  -0.00000000  -0.00000000  1
  Pd  Pd7  1  0.50000000  -0.00000000  -0.00000000  1
  Pd  Pd8  1  0.22221620  0.66928789  0.16367761  1
  Pd  Pd9  1  0.05853859  0.83632239  0.50561029  1
  Pd  Pd10  1  0.55292831  0.49438971  0.33071211  1
  Pd  Pd11  1  0.77778380  0.33071211  0.83632239  1
  Pd  Pd12  1  0.94146141  0.16367761  0.49438971  1
  Pd  Pd13  1  0.44707169  0.50561029  0.66928789  1
