# generated using pymatgen
data_Ce3Pt4
_symmetry_space_group_name_H-M   'P 1'
_cell_length_a   5.73256634
_cell_length_b   8.06025393
_cell_length_c   8.06025346
_cell_angle_alpha   114.56313668
_cell_angle_beta   103.71375533
_cell_angle_gamma   103.71375452
_symmetry_Int_Tables_number   1
_chemical_formula_structural   Ce3Pt4
_chemical_formula_sum   'Ce6 Pt8'
_cell_volume   304.40783014
_cell_formula_units_Z   2
loop_
 _symmetry_equiv_pos_site_id
 _symmetry_equiv_pos_as_xyz
  1  'x, y, z'
loop_
 _atom_site_type_symbol
 _atom_site_label
 _atom_site_symmetry_multiplicity
 _atom_site_fract_x
 _atom_site_fract_y
 _atom_site_fract_z
 _atom_site_occupancy
  Ce  Ce0  1  0.40433720  0.12268967  0.37796133  1
  Ce  Ce1  1  0.02637587  0.62203867  0.74472833  1
  Ce  Ce2  1  0.28164753  0.25527167  0.87731033  1
  Ce  Ce3  1  0.59566280  0.87731033  0.62203867  1
  Ce  Ce4  1  0.97362413  0.37796133  0.25527167  1
  Ce  Ce5  1  0.71835247  0.74472833  0.12268967  1
  Pt  Pt6  1  -0.00000000  -0.00000000  -0.00000000  1
  Pt  Pt7  1  0.50000000  -0.00000000  -0.00000000  1
  Pt  Pt8  1  0.22327434  0.67145623  0.16368991  1
  Pt  Pt9  1  0.05958444  0.83631009  0.50776633  1
  Pt  Pt10  1  0.55181811  0.49223367  0.32854377  1
  Pt  Pt11  1  0.77672566  0.32854377  0.83631009  1
  Pt  Pt12  1  0.94041556  0.16368991  0.49223367  1
  Pt  Pt13  1  0.44818189  0.50776633  0.67145623  1
