# generated using pymatgen
data_Yb3Ga9Pd2
_symmetry_space_group_name_H-M   'P 1'
_cell_length_a   4.30682110
_cell_length_b   8.18000817
_cell_length_c   8.18000817
_cell_angle_alpha   72.71384065
_cell_angle_beta   74.73683300
_cell_angle_gamma   74.73683300
_symmetry_Int_Tables_number   1
_chemical_formula_structural   Yb3Ga9Pd2
_chemical_formula_sum   'Yb3 Ga9 Pd2'
_cell_volume   260.04765162
_cell_formula_units_Z   1
loop_
 _symmetry_equiv_pos_site_id
 _symmetry_equiv_pos_as_xyz
  1  'x, y, z'
loop_
 _atom_site_type_symbol
 _atom_site_label
 _atom_site_symmetry_multiplicity
 _atom_site_fract_x
 _atom_site_fract_y
 _atom_site_fract_z
 _atom_site_occupancy
  Yb  Yb0  1  0.50000000  0.50000000  0.50000000  1
  Yb  Yb1  1  0.20168609  0.79831391  0.79831391  1
  Yb  Yb2  1  0.79831391  0.20168609  0.20168609  1
  Ga  Ga3  1  0.36385548  0.35617240  0.91611665  1
  Ga  Ga4  1  0.63614452  0.64382760  0.08388335  1
  Ga  Ga5  1  0.36385548  0.91611665  0.35617240  1
  Ga  Ga6  1  0.63614452  0.08388335  0.64382760  1
  Ga  Ga7  1  0.15593865  0.47830174  0.20982097  1
  Ga  Ga8  1  0.84406135  0.52169826  0.79017903  1
  Ga  Ga9  1  0.15593865  0.20982097  0.47830174  1
  Ga  Ga10  1  0.84406135  0.79017903  0.52169826  1
  Ga  Ga11  1  0.50000000  -0.00000000  0.00000000  1
  Pd  Pd12  1  0.00000000  0.82068238  0.17931762  1
  Pd  Pd13  1  -0.00000000  0.17931762  0.82068238  1
