# generated using pymatgen
data_La3Ir2
_symmetry_space_group_name_H-M   'P 1'
_cell_length_a   7.73028147
_cell_length_b   7.73028147
_cell_length_c   7.73028191
_cell_angle_alpha   71.00939590
_cell_angle_beta   71.00939590
_cell_angle_gamma   71.00939476
_symmetry_Int_Tables_number   1
_chemical_formula_structural   La3Ir2
_chemical_formula_sum   'La9 Ir6'
_cell_volume   400.38198259
_cell_formula_units_Z   3
loop_
 _symmetry_equiv_pos_site_id
 _symmetry_equiv_pos_as_xyz
  1  'x, y, z'
loop_
 _atom_site_type_symbol
 _atom_site_label
 _atom_site_symmetry_multiplicity
 _atom_site_fract_x
 _atom_site_fract_y
 _atom_site_fract_z
 _atom_site_occupancy
  La  La0  1  -0.00000000  0.00000000  0.00000000  1
  La  La1  1  0.79845929  0.79845929  0.79845929  1
  La  La2  1  0.20154071  0.20154071  0.20154071  1
  La  La3  1  0.39146703  0.16302740  0.66840124  1
  La  La4  1  0.16302740  0.66840124  0.39146703  1
  La  La5  1  0.66840124  0.39146703  0.16302740  1
  La  La6  1  0.60853297  0.83697260  0.33159876  1
  La  La7  1  0.83697260  0.33159876  0.60853297  1
  La  La8  1  0.33159876  0.60853297  0.83697260  1
  Ir  Ir9  1  0.16204407  0.95939094  0.58846727  1
  Ir  Ir10  1  0.95939094  0.58846727  0.16204407  1
  Ir  Ir11  1  0.58846727  0.16204407  0.95939094  1
  Ir  Ir12  1  0.83795593  0.04060906  0.41153273  1
  Ir  Ir13  1  0.04060906  0.41153273  0.83795593  1
  Ir  Ir14  1  0.41153273  0.83795593  0.04060906  1
