# generated using pymatgen
data_Ca2TaWO6
_symmetry_space_group_name_H-M   'P 1'
_cell_length_a   5.58336864
_cell_length_b   5.76011151
_cell_length_c   7.97274436
_cell_angle_alpha   90.00000000
_cell_angle_beta   90.00000000
_cell_angle_gamma   89.61055190
_symmetry_Int_Tables_number   1
_chemical_formula_structural   Ca2TaWO6
_chemical_formula_sum   'Ca4 Ta2 W2 O12'
_cell_volume   256.40412078
_cell_formula_units_Z   2
loop_
 _symmetry_equiv_pos_site_id
 _symmetry_equiv_pos_as_xyz
  1  'x, y, z'
loop_
 _atom_site_type_symbol
 _atom_site_label
 _atom_site_symmetry_multiplicity
 _atom_site_fract_x
 _atom_site_fract_y
 _atom_site_fract_z
 _atom_site_occupancy
  Ca  Ca0  1  0.00962444  0.95608623  0.25000000  1
  Ca  Ca1  1  0.49141975  0.43935655  0.25000000  1
  Ca  Ca2  1  0.50858025  0.56064345  0.75000000  1
  Ca  Ca3  1  0.99037556  0.04391377  0.75000000  1
  Ta  Ta4  1  0.00000000  0.50000000  0.00000000  1
  Ta  Ta5  1  0.00000000  0.50000000  0.50000000  1
  W  W6  1  0.50000000  0.00000000  0.00000000  1
  W  W7  1  0.50000000  0.00000000  0.50000000  1
  O  O8  1  0.81456736  0.78695648  0.55161740  1
  O  O9  1  0.29068416  0.68678858  0.45105522  1
  O  O10  1  0.18543264  0.21304352  0.44838260  1
  O  O11  1  0.70931584  0.31321142  0.95105522  1
  O  O12  1  0.09284802  0.46542459  0.75000000  1
  O  O13  1  0.70931584  0.31321142  0.54894478  1
  O  O14  1  0.29068416  0.68678858  0.04894478  1
  O  O15  1  0.81456736  0.78695648  0.94838260  1
  O  O16  1  0.61942112  0.05183568  0.25000000  1
  O  O17  1  0.18543264  0.21304352  0.05161740  1
  O  O18  1  0.38057888  0.94816432  0.75000000  1
  O  O19  1  0.90715198  0.53457541  0.25000000  1
