# generated using pymatgen
data_K3ScV2O8
_symmetry_space_group_name_H-M   'P 1'
_cell_length_a   5.85839757
_cell_length_b   5.85866637
_cell_length_c   7.64830435
_cell_angle_alpha   89.99988286
_cell_angle_beta   89.99761470
_cell_angle_gamma   119.99961471
_symmetry_Int_Tables_number   1
_chemical_formula_structural   K3ScV2O8
_chemical_formula_sum   'K3 Sc1 V2 O8'
_cell_volume   227.33959778
_cell_formula_units_Z   1
loop_
 _symmetry_equiv_pos_site_id
 _symmetry_equiv_pos_as_xyz
  1  'x, y, z'
loop_
 _atom_site_type_symbol
 _atom_site_label
 _atom_site_symmetry_multiplicity
 _atom_site_fract_x
 _atom_site_fract_y
 _atom_site_fract_z
 _atom_site_occupancy
  K  K0  1  0.66665593  0.33329786  0.30662754  1
  K  K1  1  0.33334407  0.66670214  0.69337246  1
  K  K2  1  -0.00000000  -0.00000000  0.00000000  1
  Sc  Sc3  1  -0.00000000  -0.00000000  0.50000000  1
  V  V4  1  0.66664135  0.33332460  0.74175344  1
  V  V5  1  0.33335865  0.66667540  0.25824656  1
  O  O6  1  0.66662296  0.33331624  0.96175991  1
  O  O7  1  0.33337704  0.66668376  0.03824009  1
  O  O8  1  0.83019383  0.66038656  0.66265513  1
  O  O9  1  0.33960022  0.16981339  0.66264430  1
  O  O10  1  0.83017634  0.16979428  0.66264893  1
  O  O11  1  0.16980617  0.33961344  0.33734487  1
  O  O12  1  0.66039978  0.83018661  0.33735570  1
  O  O13  1  0.16982366  0.83020572  0.33735107  1
