# generated using pymatgen
data_Li2Nd2Ge3
_symmetry_space_group_name_H-M   'P 1'
_cell_length_a   4.43648358
_cell_length_b   6.94750692
_cell_length_c   9.62797226
_cell_angle_alpha   90.00000000
_cell_angle_beta   103.32035948
_cell_angle_gamma   90.00000000
_symmetry_Int_Tables_number   1
_chemical_formula_structural   Li2Nd2Ge3
_chemical_formula_sum   'Li4 Nd4 Ge6'
_cell_volume   288.77451264
_cell_formula_units_Z   2
loop_
 _symmetry_equiv_pos_site_id
 _symmetry_equiv_pos_as_xyz
  1  'x, y, z'
loop_
 _atom_site_type_symbol
 _atom_site_label
 _atom_site_symmetry_multiplicity
 _atom_site_fract_x
 _atom_site_fract_y
 _atom_site_fract_z
 _atom_site_occupancy
  Li  Li0  1  0.80935492  0.06112113  0.61870985  1
  Li  Li1  1  0.19064508  0.93887887  0.38129015  1
  Li  Li2  1  0.80935492  0.43887887  0.61870985  1
  Li  Li3  1  0.19064508  0.56112113  0.38129015  1
  Nd  Nd4  1  0.55217019  0.75000000  0.10434038  1
  Nd  Nd5  1  0.44782981  0.25000000  0.89565962  1
  Nd  Nd6  1  0.34233345  0.75000000  0.68466689  1
  Nd  Nd7  1  0.65766655  0.25000000  0.31533311  1
  Ge  Ge8  1  0.93792138  0.56749179  0.87584275  1
  Ge  Ge9  1  0.06207862  0.43250821  0.12415725  1
  Ge  Ge10  1  0.93792138  0.93250821  0.87584275  1
  Ge  Ge11  1  0.06207862  0.06749179  0.12415725  1
  Ge  Ge12  1  0.71988726  0.75000000  0.43977453  1
  Ge  Ge13  1  0.28011274  0.25000000  0.56022547  1
