# generated using pymatgen
data_Cr5Se8
_symmetry_space_group_name_H-M   'P 1'
_cell_length_a   6.84635138
_cell_length_b   6.84635138
_cell_length_c   7.28148488
_cell_angle_alpha   104.35159438
_cell_angle_beta   106.21229168
_cell_angle_gamma   116.06767737
_symmetry_Int_Tables_number   1
_chemical_formula_structural   Cr5Se8
_chemical_formula_sum   'Cr5 Se8'
_cell_volume   265.83997031
_cell_formula_units_Z   1
loop_
 _symmetry_equiv_pos_site_id
 _symmetry_equiv_pos_as_xyz
  1  'x, y, z'
loop_
 _atom_site_type_symbol
 _atom_site_label
 _atom_site_symmetry_multiplicity
 _atom_site_fract_x
 _atom_site_fract_y
 _atom_site_fract_z
 _atom_site_occupancy
  Cr  Cr0  1  -0.00000000  -0.00000000  -0.00000000  1
  Cr  Cr1  1  0.25659207  0.72920526  0.98579733  1
  Cr  Cr2  1  0.74340793  0.27079474  0.01420267  1
  Cr  Cr3  1  0.77167058  0.27167058  0.50000000  1
  Cr  Cr4  1  0.22832942  0.72832942  0.50000000  1
  Se  Se5  1  0.30168857  0.02066576  0.32235433  1
  Se  Se6  1  0.69831143  0.97933424  0.67764567  1
  Se  Se7  1  0.78634292  0.54668962  0.33303254  1
  Se  Se8  1  0.21365708  0.45331038  0.66696746  1
  Se  Se9  1  0.20214009  0.45663802  0.17134341  1
  Se  Se10  1  0.71470540  0.96920332  0.17134341  1
  Se  Se11  1  0.79785991  0.54336198  0.82865659  1
  Se  Se12  1  0.28529460  0.03079668  0.82865659  1
