# generated using pymatgen
data_Lu(Fe2Ge)2
_symmetry_space_group_name_H-M   'P 1'
_cell_length_a   3.89857626
_cell_length_b   7.01738384
_cell_length_c   7.29358569
_cell_angle_alpha   90.00000000
_cell_angle_beta   90.00000000
_cell_angle_gamma   90.00000000
_symmetry_Int_Tables_number   1
_chemical_formula_structural   Lu(Fe2Ge)2
_chemical_formula_sum   'Lu2 Fe8 Ge4'
_cell_volume   199.53650269
_cell_formula_units_Z   2
loop_
 _symmetry_equiv_pos_site_id
 _symmetry_equiv_pos_as_xyz
  1  'x, y, z'
loop_
 _atom_site_type_symbol
 _atom_site_label
 _atom_site_symmetry_multiplicity
 _atom_site_fract_x
 _atom_site_fract_y
 _atom_site_fract_z
 _atom_site_occupancy
  Lu  Lu0  1  0.00000000  0.50000000  0.50000000  1
  Lu  Lu1  1  0.50000000  0.00000000  -0.00000000  1
  Fe  Fe2  1  0.50000000  0.85525019  0.40128067  1
  Fe  Fe3  1  0.50000000  0.14474981  0.59871933  1
  Fe  Fe4  1  0.00000000  0.64474981  0.90128067  1
  Fe  Fe5  1  0.00000000  0.35525019  0.09871933  1
  Fe  Fe6  1  0.50000000  0.58802584  0.14622695  1
  Fe  Fe7  1  0.50000000  0.41197416  0.85377305  1
  Fe  Fe8  1  -0.00000000  0.91197416  0.64622695  1
  Fe  Fe9  1  -0.00000000  0.08802584  0.35377305  1
  Ge  Ge10  1  0.50000000  0.27888253  0.29116066  1
  Ge  Ge11  1  0.50000000  0.72111747  0.70883934  1
  Ge  Ge12  1  0.00000000  0.22111747  0.79116066  1
  Ge  Ge13  1  -0.00000000  0.77888253  0.20883934  1
