# generated using pymatgen
data_Ba2YAg5S6
_symmetry_space_group_name_H-M   'P 1'
_cell_length_a   4.23072105
_cell_length_b   7.34936419
_cell_length_c   11.26924527
_cell_angle_alpha   94.81523001
_cell_angle_beta   90.00000000
_cell_angle_gamma   106.72802549
_symmetry_Int_Tables_number   1
_chemical_formula_structural   Ba2YAg5S6
_chemical_formula_sum   'Ba2 Y1 Ag5 S6'
_cell_volume   334.27621746
_cell_formula_units_Z   1
loop_
 _symmetry_equiv_pos_site_id
 _symmetry_equiv_pos_as_xyz
  1  'x, y, z'
loop_
 _atom_site_type_symbol
 _atom_site_label
 _atom_site_symmetry_multiplicity
 _atom_site_fract_x
 _atom_site_fract_y
 _atom_site_fract_z
 _atom_site_occupancy
  Ba  Ba0  1  0.25140180  0.50280360  0.70360095  1
  Ba  Ba1  1  0.74859820  0.49719640  0.29639905  1
  Y  Y2  1  0.50000000  0.00000000  0.50000000  1
  Ag  Ag3  1  0.01872225  0.03744450  0.25635302  1
  Ag  Ag4  1  0.98127775  0.96255550  0.74364698  1
  Ag  Ag5  1  0.35155333  0.70310667  0.03762557  1
  Ag  Ag6  1  0.64844667  0.29689333  0.96237443  1
  Ag  Ag7  1  0.00000000  0.00000000  -0.00000000  1
  S  S8  1  0.12529255  0.25058510  0.45441247  1
  S  S9  1  0.87470745  0.74941490  0.54558753  1
  S  S10  1  0.15810303  0.31620606  0.10217413  1
  S  S11  1  0.84189697  0.68379394  0.89782587  1
  S  S12  1  0.41342217  0.82684434  0.26524464  1
  S  S13  1  0.58657783  0.17315566  0.73475536  1
