# generated using pymatgen
data_NdMg5Ni
_symmetry_space_group_name_H-M   'P 1'
_cell_length_a   4.14455061
_cell_length_b   5.60938006
_cell_length_c   14.30406954
_cell_angle_alpha   90.00000000
_cell_angle_beta   90.00000000
_cell_angle_gamma   111.68048635
_symmetry_Int_Tables_number   1
_chemical_formula_structural   NdMg5Ni
_chemical_formula_sum   'Nd2 Mg10 Ni2'
_cell_volume   309.02131969
_cell_formula_units_Z   2
loop_
 _symmetry_equiv_pos_site_id
 _symmetry_equiv_pos_as_xyz
  1  'x, y, z'
loop_
 _atom_site_type_symbol
 _atom_site_label
 _atom_site_symmetry_multiplicity
 _atom_site_fract_x
 _atom_site_fract_y
 _atom_site_fract_z
 _atom_site_occupancy
  Nd  Nd0  1  0.61454494  0.22908989  0.25000000  1
  Nd  Nd1  1  0.38545506  0.77091011  0.75000000  1
  Mg  Mg2  1  0.90083824  0.80167648  0.35797516  1
  Mg  Mg3  1  0.09916176  0.19832352  0.64202484  1
  Mg  Mg4  1  0.90083824  0.80167648  0.14202484  1
  Mg  Mg5  1  0.09916176  0.19832352  0.85797516  1
  Mg  Mg6  1  0.20556535  0.41113069  0.42563898  1
  Mg  Mg7  1  0.79443465  0.58886931  0.57436102  1
  Mg  Mg8  1  0.20556535  0.41113069  0.07436102  1
  Mg  Mg9  1  0.79443465  0.58886931  0.92563898  1
  Mg  Mg10  1  0.50000000  0.00000000  0.50000000  1
  Mg  Mg11  1  0.50000000  0.00000000  0.00000000  1
  Ni  Ni12  1  0.31635557  0.63271114  0.25000000  1
  Ni  Ni13  1  0.68364443  0.36728886  0.75000000  1
