# generated using pymatgen
data_Tb5Ru2
_symmetry_space_group_name_H-M   'P 1'
_cell_length_a   6.38187120
_cell_length_b   7.31035584
_cell_length_c   8.54632076
_cell_angle_alpha   96.52957626
_cell_angle_beta   111.92357443
_cell_angle_gamma   90.00000000
_symmetry_Int_Tables_number   1
_chemical_formula_structural   Tb5Ru2
_chemical_formula_sum   'Tb10 Ru4'
_cell_volume   367.09424388
_cell_formula_units_Z   2
loop_
 _symmetry_equiv_pos_site_id
 _symmetry_equiv_pos_as_xyz
  1  'x, y, z'
loop_
 _atom_site_type_symbol
 _atom_site_label
 _atom_site_symmetry_multiplicity
 _atom_site_fract_x
 _atom_site_fract_y
 _atom_site_fract_z
 _atom_site_occupancy
  Tb  Tb0  1  0.97757686  0.91575152  0.18667415  1
  Tb  Tb1  1  0.79090272  0.58424848  0.81332585  1
  Tb  Tb2  1  0.02242314  0.08424848  0.81332585  1
  Tb  Tb3  1  0.20909728  0.41575152  0.18667415  1
  Tb  Tb4  1  0.64113940  0.81410612  0.43516505  1
  Tb  Tb5  1  0.20597435  0.68589388  0.56483495  1
  Tb  Tb6  1  0.35886060  0.18589388  0.56483495  1
  Tb  Tb7  1  0.79402565  0.31410612  0.43516505  1
  Tb  Tb8  1  0.41879861  0.75000000  0.00000000  1
  Tb  Tb9  1  0.58120139  0.25000000  0.00000000  1
  Ru  Ru10  1  0.82251720  0.57568866  0.22011049  1
  Ru  Ru11  1  0.60240671  0.92431134  0.77988951  1
  Ru  Ru12  1  0.17748280  0.42431134  0.77988951  1
  Ru  Ru13  1  0.39759329  0.07568866  0.22011049  1
