# generated using pymatgen
data_La5Ru2
_symmetry_space_group_name_H-M   'P 1'
_cell_length_a   6.72184480
_cell_length_b   7.35036399
_cell_length_c   9.10215833
_cell_angle_alpha   94.82974974
_cell_angle_beta   111.66903457
_cell_angle_gamma   90.00000000
_symmetry_Int_Tables_number   1
_chemical_formula_structural   La5Ru2
_chemical_formula_sum   'La10 Ru4'
_cell_volume   416.22009668
_cell_formula_units_Z   2
loop_
 _symmetry_equiv_pos_site_id
 _symmetry_equiv_pos_as_xyz
  1  'x, y, z'
loop_
 _atom_site_type_symbol
 _atom_site_label
 _atom_site_symmetry_multiplicity
 _atom_site_fract_x
 _atom_site_fract_y
 _atom_site_fract_z
 _atom_site_occupancy
  La  La0  1  0.98061403  0.90768524  0.18491045  1
  La  La1  1  0.79570358  0.59231476  0.81508955  1
  La  La2  1  0.01938597  0.09231476  0.81508955  1
  La  La3  1  0.20429642  0.40768524  0.18491045  1
  La  La4  1  0.63866265  0.81640632  0.43096100  1
  La  La5  1  0.20770165  0.68359368  0.56903900  1
  La  La6  1  0.36133735  0.18359368  0.56903900  1
  La  La7  1  0.79229835  0.31640632  0.43096100  1
  La  La8  1  0.42163173  0.75000000  -0.00000000  1
  La  La9  1  0.57836827  0.25000000  -0.00000000  1
  Ru  Ru10  1  0.82442183  0.57964743  0.22175602  1
  Ru  Ru11  1  0.60266581  0.92035257  0.77824398  1
  Ru  Ru12  1  0.17557817  0.42035257  0.77824398  1
  Ru  Ru13  1  0.39733419  0.07964743  0.22175602  1
