# generated using pymatgen
data_Ge3(WO6)2
_symmetry_space_group_name_H-M   'P 1'
_cell_length_a   10.72267701
_cell_length_b   10.72267662
_cell_length_c   10.72267632
_cell_angle_alpha   109.47121820
_cell_angle_beta   109.47121747
_cell_angle_gamma   109.47122184
_symmetry_Int_Tables_number   1
_chemical_formula_structural   Ge3(WO6)2
_chemical_formula_sum   'Ge12 W8 O48'
_cell_volume   949.04708974
_cell_formula_units_Z   4
loop_
 _symmetry_equiv_pos_site_id
 _symmetry_equiv_pos_as_xyz
  1  'x, y, z'
loop_
 _atom_site_type_symbol
 _atom_site_label
 _atom_site_symmetry_multiplicity
 _atom_site_fract_x
 _atom_site_fract_y
 _atom_site_fract_z
 _atom_site_occupancy
  Ge  Ge0  1  0.87500000  0.12500000  0.75000000  1
  Ge  Ge1  1  0.12500000  0.87500000  0.25000000  1
  Ge  Ge2  1  0.25000000  0.62500000  0.37500000  1
  Ge  Ge3  1  0.12500000  0.75000000  0.87500000  1
  Ge  Ge4  1  0.75000000  0.87500000  0.12500000  1
  Ge  Ge5  1  0.37500000  0.25000000  0.62500000  1
  Ge  Ge6  1  0.62500000  0.75000000  0.37500000  1
  Ge  Ge7  1  0.87500000  0.25000000  0.12500000  1
  Ge  Ge8  1  0.25000000  0.12500000  0.87500000  1
  Ge  Ge9  1  0.75000000  0.37500000  0.62500000  1
  Ge  Ge10  1  0.37500000  0.62500000  0.75000000  1
  Ge  Ge11  1  0.62500000  0.37500000  0.25000000  1
  W  W12  1  0.50000000  0.50000000  0.50000000  1
  W  W13  1  0.50000000  0.50000000  0.00000000  1
  W  W14  1  0.50000000  0.00000000  0.50000000  1
  W  W15  1  0.00000000  0.50000000  0.50000000  1
  W  W16  1  0.50000000  0.00000000  0.00000000  1
  W  W17  1  0.00000000  0.00000000  0.50000000  1
  W  W18  1  0.00000000  0.50000000  0.00000000  1
  W  W19  1  0.00000000  0.00000000  0.00000000  1
  O  O20  1  0.81081517  0.42023954  0.81623231  1
  O  O21  1  0.07976046  0.89057563  0.39599277  1
  O  O22  1  0.68376769  0.10400723  0.99458186  1
  O  O23  1  0.68918483  0.50541814  0.60942437  1
  O  O24  1  0.68918483  0.68376769  0.07976046  1
  O  O25  1  0.50541814  0.60942437  0.68918483  1
  O  O26  1  0.10400723  0.60942437  0.42023954  1
  O  O27  1  0.60942437  0.68918483  0.50541814  1
  O  O28  1  0.39599277  0.81623231  0.50541814  1
  O  O29  1  0.89057563  0.99458186  0.81081517  1
  O  O30  1  0.99458186  0.81081517  0.89057563  1
  O  O31  1  0.07976046  0.68918483  0.68376769  1
  O  O32  1  0.60942437  0.42023954  0.10400723  1
  O  O33  1  0.50541814  0.39599277  0.81623231  1
  O  O34  1  0.68376769  0.07976046  0.68918483  1
  O  O35  1  0.42023954  0.10400723  0.60942437  1
  O  O36  1  0.81623231  0.50541814  0.39599277  1
  O  O37  1  0.39599277  0.07976046  0.89057563  1
  O  O38  1  0.10400723  0.99458186  0.68376769  1
  O  O39  1  0.60400723  0.18376769  0.49458186  1
  O  O40  1  0.99458186  0.68376769  0.10400723  1
  O  O41  1  0.81623231  0.81081517  0.42023954  1
  O  O42  1  0.89057563  0.39599277  0.07976046  1
  O  O43  1  0.81081517  0.89057563  0.99458186  1
  O  O44  1  0.18918483  0.57976046  0.18376769  1
  O  O45  1  0.92023954  0.10942437  0.60400723  1
  O  O46  1  0.31623231  0.89599277  0.00541814  1
  O  O47  1  0.31081517  0.49458186  0.39057563  1
  O  O48  1  0.31081517  0.31623231  0.92023954  1
  O  O49  1  0.49458186  0.39057563  0.31081517  1
  O  O50  1  0.89599277  0.39057563  0.57976046  1
  O  O51  1  0.39057563  0.31081517  0.49458186  1
  O  O52  1  0.18918483  0.10942437  0.00541814  1
  O  O53  1  0.10942437  0.60400723  0.92023954  1
  O  O54  1  0.18376769  0.18918483  0.57976046  1
  O  O55  1  0.57976046  0.18376769  0.18918483  1
  O  O56  1  0.00541814  0.31623231  0.89599277  1
  O  O57  1  0.89599277  0.00541814  0.31623231  1
  O  O58  1  0.60400723  0.92023954  0.10942437  1
  O  O59  1  0.18376769  0.49458186  0.60400723  1
  O  O60  1  0.57976046  0.89599277  0.39057563  1
  O  O61  1  0.31623231  0.92023954  0.31081517  1
  O  O62  1  0.49458186  0.60400723  0.18376769  1
  O  O63  1  0.39057563  0.57976046  0.89599277  1
  O  O64  1  0.92023954  0.31081517  0.31623231  1
  O  O65  1  0.00541814  0.18918483  0.10942437  1
  O  O66  1  0.10942437  0.00541814  0.18918483  1
  O  O67  1  0.42023954  0.81623231  0.81081517  1
