# generated using pymatgen
data_Y5Ir2
_symmetry_space_group_name_H-M   'P 1'
_cell_length_a   6.54930364
_cell_length_b   7.23127021
_cell_length_c   8.54227762
_cell_angle_alpha   96.23143041
_cell_angle_beta   112.54112430
_cell_angle_gamma   90.00000000
_symmetry_Int_Tables_number   1
_chemical_formula_structural   Y5Ir2
_chemical_formula_sum   'Y10 Ir4'
_cell_volume   371.06452216
_cell_formula_units_Z   2
loop_
 _symmetry_equiv_pos_site_id
 _symmetry_equiv_pos_as_xyz
  1  'x, y, z'
loop_
 _atom_site_type_symbol
 _atom_site_label
 _atom_site_symmetry_multiplicity
 _atom_site_fract_x
 _atom_site_fract_y
 _atom_site_fract_z
 _atom_site_occupancy
  Y  Y0  1  0.97009689  0.91845796  0.18174742  1
  Y  Y1  1  0.78834948  0.58154204  0.81825258  1
  Y  Y2  1  0.02990311  0.08154204  0.81825258  1
  Y  Y3  1  0.21165052  0.41845796  0.18174742  1
  Y  Y4  1  0.65386466  0.81894631  0.44256830  1
  Y  Y5  1  0.21129635  0.68105369  0.55743170  1
  Y  Y6  1  0.34613534  0.18105369  0.55743170  1
  Y  Y7  1  0.78870365  0.31894631  0.44256830  1
  Y  Y8  1  0.42724147  0.75000000  -0.00000000  1
  Y  Y9  1  0.57275853  0.25000000  -0.00000000  1
  Ir  Ir10  1  0.82779967  0.57323854  0.21867421  1
  Ir  Ir11  1  0.60912547  0.92676146  0.78132579  1
  Ir  Ir12  1  0.17220033  0.42676146  0.78132579  1
  Ir  Ir13  1  0.39087453  0.07323854  0.21867421  1
