# generated using pymatgen
data_Dy3Pd4
_symmetry_space_group_name_H-M   'P 1'
_cell_length_a   5.72984782
_cell_length_b   7.89125211
_cell_length_c   7.89125219
_cell_angle_alpha   114.33867875
_cell_angle_beta   104.00660669
_cell_angle_gamma   104.00660677
_symmetry_Int_Tables_number   1
_chemical_formula_structural   Dy3Pd4
_chemical_formula_sum   'Dy6 Pd8'
_cell_volume   290.90340439
_cell_formula_units_Z   2
loop_
 _symmetry_equiv_pos_site_id
 _symmetry_equiv_pos_as_xyz
  1  'x, y, z'
loop_
 _atom_site_type_symbol
 _atom_site_label
 _atom_site_symmetry_multiplicity
 _atom_site_fract_x
 _atom_site_fract_y
 _atom_site_fract_z
 _atom_site_occupancy
  Dy  Dy0  1  0.40314299  0.12252091  0.37710210  1
  Dy  Dy1  1  0.02604089  0.62289790  0.74541881  1
  Dy  Dy2  1  0.28062209  0.25458119  0.87747909  1
  Dy  Dy3  1  0.59685701  0.87747909  0.62289790  1
  Dy  Dy4  1  0.97395911  0.37710210  0.25458119  1
  Dy  Dy5  1  0.71937791  0.74541881  0.12252091  1
  Pd  Pd6  1  0.00000000  0.00000000  0.00000000  1
  Pd  Pd7  1  0.50000000  0.00000000  0.00000000  1
  Pd  Pd8  1  0.22376237  0.67231912  0.16344209  1
  Pd  Pd9  1  0.06032028  0.83655791  0.50887704  1
  Pd  Pd10  1  0.55144324  0.49112296  0.32768088  1
  Pd  Pd11  1  0.77623763  0.32768088  0.83655791  1
  Pd  Pd12  1  0.93967972  0.16344209  0.49112296  1
  Pd  Pd13  1  0.44855676  0.50887704  0.67231912  1
