# generated using pymatgen
data_Yb5Pd2
_symmetry_space_group_name_H-M   'P 1'
_cell_length_a   6.55683825
_cell_length_b   7.58078144
_cell_length_c   8.81182560
_cell_angle_alpha   96.83592136
_cell_angle_beta   111.84195421
_cell_angle_gamma   90.00000000
_symmetry_Int_Tables_number   1
_chemical_formula_structural   Yb5Pd2
_chemical_formula_sum   'Yb10 Pd4'
_cell_volume   403.20134324
_cell_formula_units_Z   2
loop_
 _symmetry_equiv_pos_site_id
 _symmetry_equiv_pos_as_xyz
  1  'x, y, z'
loop_
 _atom_site_type_symbol
 _atom_site_label
 _atom_site_symmetry_multiplicity
 _atom_site_fract_x
 _atom_site_fract_y
 _atom_site_fract_z
 _atom_site_occupancy
  Yb  Yb0  1  0.97867396  0.91957233  0.18166513  1
  Yb  Yb1  1  0.79700883  0.58042767  0.81833487  1
  Yb  Yb2  1  0.02132604  0.08042767  0.81833487  1
  Yb  Yb3  1  0.20299117  0.41957233  0.18166513  1
  Yb  Yb4  1  0.63563377  0.81913558  0.43407789  1
  Yb  Yb5  1  0.20155589  0.68086442  0.56592211  1
  Yb  Yb6  1  0.36436623  0.18086442  0.56592211  1
  Yb  Yb7  1  0.79844411  0.31913558  0.43407789  1
  Yb  Yb8  1  0.42061000  0.75000000  1.00000000  1
  Yb  Yb9  1  0.57939000  0.25000000  0.00000000  1
  Pd  Pd10  1  0.81705050  0.58075577  0.22048073  1
  Pd  Pd11  1  0.59656976  0.91924423  0.77951927  1
  Pd  Pd12  1  0.18294950  0.41924423  0.77951927  1
  Pd  Pd13  1  0.40343024  0.08075577  0.22048073  1
