# generated using pymatgen
data_Zn3Fe2(Si2O7)2
_symmetry_space_group_name_H-M   'P 1'
_cell_length_a   7.80534096
_cell_length_b   9.66685571
_cell_length_c   9.11666176
_cell_angle_alpha   63.49497777
_cell_angle_beta   64.65415672
_cell_angle_gamma   66.18926816
_symmetry_Int_Tables_number   1
_chemical_formula_structural   Zn3Fe2(Si2O7)2
_chemical_formula_sum   'Zn6 Fe4 Si8 O28'
_cell_volume   536.74555166
_cell_formula_units_Z   2
loop_
 _symmetry_equiv_pos_site_id
 _symmetry_equiv_pos_as_xyz
  1  'x, y, z'
loop_
 _atom_site_type_symbol
 _atom_site_label
 _atom_site_symmetry_multiplicity
 _atom_site_fract_x
 _atom_site_fract_y
 _atom_site_fract_z
 _atom_site_occupancy
  Zn  Zn0  1  0.94190112  0.90239872  0.43618998  1
  Zn  Zn1  1  0.28048982  0.59760128  0.06381002  1
  Zn  Zn2  1  0.71951018  0.40239872  0.93618998  1
  Zn  Zn3  1  0.60552003  0.25000000  0.75000000  1
  Zn  Zn4  1  0.05809888  0.09760128  0.56381002  1
  Zn  Zn5  1  0.39447997  0.75000000  0.25000000  1
  Fe  Fe6  1  0.20566180  0.25000000  0.75000000  1
  Fe  Fe7  1  0.79433820  0.75000000  0.25000000  1
  Fe  Fe8  1  0.00000000  0.00000000  0.00000000  1
  Fe  Fe9  1  0.00000000  0.50000000  0.50000000  1
  Si  Si10  1  0.46912681  0.29057326  0.34127687  1
  Si  Si11  1  0.89902206  0.79057326  0.84127687  1
  Si  Si12  1  0.48151070  0.89735347  0.86296527  1
  Si  Si13  1  0.75817156  0.39735347  0.36296527  1
  Si  Si14  1  0.10097794  0.20942674  0.15872313  1
  Si  Si15  1  0.51848930  0.10264653  0.13703473  1
  Si  Si16  1  0.24182844  0.60264653  0.63703473  1
  Si  Si17  1  0.53087319  0.70942674  0.65872313  1
  O  O18  1  0.16598526  0.66979979  0.46449908  1
  O  O19  1  0.04305537  0.58341143  0.25614014  1
  O  O20  1  0.54134972  0.91288771  0.18515662  1
  O  O21  1  0.11739306  0.08341143  0.75614014  1
  O  O22  1  0.74830777  0.67698315  0.51881515  1
  O  O23  1  0.94088516  0.37419475  0.19040712  1
  O  O24  1  0.36060495  0.41288771  0.68515662  1
  O  O25  1  0.94410607  0.82301685  0.98118485  1
  O  O26  1  0.05911484  0.62580525  0.80959288  1
  O  O27  1  0.36622514  0.73303636  0.57655918  1
  O  O28  1  0.95694463  0.41658857  0.74385986  1
  O  O29  1  0.25169223  0.32301685  0.48118485  1
  O  O30  1  0.50548803  0.12580525  0.30959288  1
  O  O31  1  0.69971487  0.16979979  0.96449908  1
  O  O32  1  0.32417933  0.23303636  0.07655918  1
  O  O33  1  0.05589393  0.17698315  0.01881515  1
  O  O34  1  0.09636927  0.06611198  0.34397897  1
  O  O35  1  0.63377486  0.26696364  0.42344082  1
  O  O36  1  0.50645922  0.43388802  0.15602103  1
  O  O37  1  0.67582067  0.76696364  0.92344082  1
  O  O38  1  0.49451197  0.87419475  0.69040712  1
  O  O39  1  0.88260694  0.91658857  0.24385986  1
  O  O40  1  0.49354078  0.56611198  0.84397897  1
  O  O41  1  0.45865028  0.08711229  0.81484338  1
  O  O42  1  0.90363073  0.93388802  0.65602103  1
  O  O43  1  0.63939505  0.58711229  0.31484338  1
  O  O44  1  0.30028513  0.83020021  0.03550092  1
  O  O45  1  0.83401474  0.33020021  0.53550092  1
