# generated using pymatgen
data_Eu2Zn2As3
_symmetry_space_group_name_H-M   'P 1'
_cell_length_a   4.27996450
_cell_length_b   8.30362476
_cell_length_c   9.88855447
_cell_angle_alpha   81.56440516
_cell_angle_beta   77.50173333
_cell_angle_gamma   75.06537728
_symmetry_Int_Tables_number   1
_chemical_formula_structural   Eu2Zn2As3
_chemical_formula_sum   'Eu4 Zn4 As6'
_cell_volume   329.97003752
_cell_formula_units_Z   2
loop_
 _symmetry_equiv_pos_site_id
 _symmetry_equiv_pos_as_xyz
  1  'x, y, z'
loop_
 _atom_site_type_symbol
 _atom_site_label
 _atom_site_symmetry_multiplicity
 _atom_site_fract_x
 _atom_site_fract_y
 _atom_site_fract_z
 _atom_site_occupancy
  Eu  Eu0  1  0.26716728  0.13004632  0.33561913  1
  Eu  Eu1  1  0.73283272  0.86995368  0.66438087  1
  Eu  Eu2  1  0.39460532  0.26173246  0.94905690  1
  Eu  Eu3  1  0.60539468  0.73826754  0.05094310  1
  Zn  Zn4  1  0.04142998  0.23138839  0.68575166  1
  Zn  Zn5  1  0.95857002  0.76861161  0.31424834  1
  Zn  Zn6  1  0.41004000  0.52699896  0.65292104  1
  Zn  Zn7  1  0.58996000  0.47300104  0.34707896  1
  As  As8  1  0.08029539  0.96765917  0.87175005  1
  As  As9  1  0.91970461  0.03234083  0.12824995  1
  As  As10  1  0.15639018  0.49116164  0.19605800  1
  As  As11  1  0.84360982  0.50883836  0.80394200  1
  As  As12  1  0.38585857  0.76758633  0.46069654  1
  As  As13  1  0.61414143  0.23241367  0.53930346  1
