# generated using pymatgen
data_K3YbV2O8
_symmetry_space_group_name_H-M   'P 1'
_cell_length_a   6.00707906
_cell_length_b   6.00898930
_cell_length_c   7.79382323
_cell_angle_alpha   89.98795349
_cell_angle_beta   90.00213402
_cell_angle_gamma   120.03519271
_symmetry_Int_Tables_number   1
_chemical_formula_structural   K3YbV2O8
_chemical_formula_sum   'K3 Yb1 V2 O8'
_cell_volume   243.55207256
_cell_formula_units_Z   1
loop_
 _symmetry_equiv_pos_site_id
 _symmetry_equiv_pos_as_xyz
  1  'x, y, z'
loop_
 _atom_site_type_symbol
 _atom_site_label
 _atom_site_symmetry_multiplicity
 _atom_site_fract_x
 _atom_site_fract_y
 _atom_site_fract_z
 _atom_site_occupancy
  K  K0  1  0.66665757  0.33329981  0.30866744  1
  K  K1  1  0.33334243  0.66670019  0.69133256  1
  K  K2  1  -0.00000000  0.00000000  -0.00000000  1
  Yb  Yb3  1  -0.00000000  0.00000000  0.50000000  1
  V  V4  1  0.66648394  0.33335473  0.75617323  1
  V  V5  1  0.33351606  0.66664527  0.24382677  1
  O  O6  1  0.66645776  0.33338585  0.97726267  1
  O  O7  1  0.33354224  0.66661415  0.02273733  1
  O  O8  1  0.82457919  0.64922944  0.67950723  1
  O  O9  1  0.35064153  0.17535719  0.67940840  1
  O  O10  1  0.82448439  0.17527431  0.67953884  1
  O  O11  1  0.17542081  0.35077056  0.32049277  1
  O  O12  1  0.64935847  0.82464281  0.32059160  1
  O  O13  1  0.17551561  0.82472569  0.32046116  1
