# generated using pymatgen
data_Ba8Sb4H2O
_symmetry_space_group_name_H-M   'P 1'
_cell_length_a   5.26267311
_cell_length_b   5.26267311
_cell_length_c   19.33609313
_cell_angle_alpha   97.82131794
_cell_angle_beta   97.82131794
_cell_angle_gamma   90.00000000
_symmetry_Int_Tables_number   1
_chemical_formula_structural   Ba8Sb4H2O
_chemical_formula_sum   'Ba8 Sb4 H2 O1'
_cell_volume   525.51623265
_cell_formula_units_Z   1
loop_
 _symmetry_equiv_pos_site_id
 _symmetry_equiv_pos_as_xyz
  1  'x, y, z'
loop_
 _atom_site_type_symbol
 _atom_site_label
 _atom_site_symmetry_multiplicity
 _atom_site_fract_x
 _atom_site_fract_y
 _atom_site_fract_z
 _atom_site_occupancy
  Ba  Ba0  1  0.00000000  0.50000000  -0.00000000  1
  Ba  Ba1  1  0.50000000  0.00000000  0.00000000  1
  Ba  Ba2  1  0.91493335  0.91493335  0.82986669  1
  Ba  Ba3  1  0.08506665  0.08506665  0.17013331  1
  Ba  Ba4  1  0.75000000  0.25000000  0.50000000  1
  Ba  Ba5  1  0.25000000  0.75000000  0.50000000  1
  Ba  Ba6  1  0.65931625  0.65931625  0.31863249  1
  Ba  Ba7  1  0.34068375  0.34068375  0.68136751  1
  Sb  Sb8  1  0.56707765  0.56707765  0.13415530  1
  Sb  Sb9  1  0.43292235  0.43292235  0.86584470  1
  Sb  Sb10  1  0.81985171  0.81985171  0.63970341  1
  Sb  Sb11  1  0.18014829  0.18014829  0.36029659  1
  H  H12  1  0.72854995  0.72854995  0.45709990  1
  H  H13  1  0.27145005  0.27145005  0.54290010  1
  O  O14  1  0.00000000  0.00000000  0.00000000  1
