# generated using pymatgen
data_NdAu6
_symmetry_space_group_name_H-M   'P 1'
_cell_length_a   5.58737236
_cell_length_b   5.58737236
_cell_length_c   9.31822212
_cell_angle_alpha   82.53787913
_cell_angle_beta   82.53787913
_cell_angle_gamma   89.70599966
_symmetry_Int_Tables_number   1
_chemical_formula_structural   NdAu6
_chemical_formula_sum   'Nd2 Au12'
_cell_volume   285.97619757
_cell_formula_units_Z   2
loop_
 _symmetry_equiv_pos_site_id
 _symmetry_equiv_pos_as_xyz
  1  'x, y, z'
loop_
 _atom_site_type_symbol
 _atom_site_label
 _atom_site_symmetry_multiplicity
 _atom_site_fract_x
 _atom_site_fract_y
 _atom_site_fract_z
 _atom_site_occupancy
  Nd  Nd0  1  0.68436953  0.31563047  0.25000000  1
  Nd  Nd1  1  0.31563047  0.68436953  0.75000000  1
  Au  Au2  1  0.95770297  0.84396601  0.13614488  1
  Au  Au3  1  0.15603399  0.04229703  0.36385512  1
  Au  Au4  1  0.04229703  0.15603399  0.86385512  1
  Au  Au5  1  0.84396601  0.95770297  0.63614488  1
  Au  Au6  1  0.22161438  0.38401364  0.08070455  1
  Au  Au7  1  0.61598636  0.77838562  0.41929545  1
  Au  Au8  1  0.77838562  0.61598636  0.91929545  1
  Au  Au9  1  0.38401364  0.22161438  0.58070455  1
  Au  Au10  1  0.16427484  0.54065934  0.37183812  1
  Au  Au11  1  0.45934066  0.83572516  0.12816188  1
  Au  Au12  1  0.83572516  0.45934066  0.62816188  1
  Au  Au13  1  0.54065934  0.16427484  0.87183812  1
