# generated using pymatgen
data_Hf(GaFe)6
_symmetry_space_group_name_H-M   'P 1'
_cell_length_a   4.98791128
_cell_length_b   6.50755900
_cell_length_c   6.50755900
_cell_angle_alpha   80.42938099
_cell_angle_beta   67.46549476
_cell_angle_gamma   67.46549476
_symmetry_Int_Tables_number   1
_chemical_formula_structural   Hf(GaFe)6
_chemical_formula_sum   'Hf1 Ga6 Fe6'
_cell_volume   180.15925626
_cell_formula_units_Z   1
loop_
 _symmetry_equiv_pos_site_id
 _symmetry_equiv_pos_as_xyz
  1  'x, y, z'
loop_
 _atom_site_type_symbol
 _atom_site_label
 _atom_site_symmetry_multiplicity
 _atom_site_fract_x
 _atom_site_fract_y
 _atom_site_fract_z
 _atom_site_occupancy
  Hf  Hf0  1  0.00000000  -0.00000000  0.00000000  1
  Ga  Ga1  1  0.00000000  0.66876316  0.33123684  1
  Ga  Ga2  1  -0.00000000  0.33123684  0.66876316  1
  Ga  Ga3  1  0.34057009  0.65942991  0.65942991  1
  Ga  Ga4  1  0.65942991  0.34057009  0.34057009  1
  Ga  Ga5  1  0.32685310  0.17314690  0.17314690  1
  Ga  Ga6  1  0.67314690  0.82685310  0.82685310  1
  Fe  Fe7  1  0.50000000  0.24412026  0.75587974  1
  Fe  Fe8  1  0.50000000  0.75587974  0.24412026  1
  Fe  Fe9  1  0.00000000  0.50000000  0.00000000  1
  Fe  Fe10  1  0.50000000  0.50000000  0.00000000  1
  Fe  Fe11  1  0.00000000  -0.00000000  0.50000000  1
  Fe  Fe12  1  0.50000000  -0.00000000  0.50000000  1
