# generated using pymatgen
data_Ce2Br5
_symmetry_space_group_name_H-M   'P 1'
_cell_length_a   4.17682124
_cell_length_b   8.11638495
_cell_length_c   13.64786518
_cell_angle_alpha   91.32703940
_cell_angle_beta   90.00000000
_cell_angle_gamma   90.00000000
_symmetry_Int_Tables_number   1
_chemical_formula_structural   Ce2Br5
_chemical_formula_sum   'Ce4 Br10'
_cell_volume   462.54794095
_cell_formula_units_Z   2
loop_
 _symmetry_equiv_pos_site_id
 _symmetry_equiv_pos_as_xyz
  1  'x, y, z'
loop_
 _atom_site_type_symbol
 _atom_site_label
 _atom_site_symmetry_multiplicity
 _atom_site_fract_x
 _atom_site_fract_y
 _atom_site_fract_z
 _atom_site_occupancy
  Ce  Ce0  1  0.75000000  0.57357586  0.34132081  1
  Ce  Ce1  1  0.25000000  0.42642414  0.65867919  1
  Ce  Ce2  1  0.75000000  0.07104038  0.84057340  1
  Ce  Ce3  1  0.25000000  0.92895962  0.15942660  1
  Br  Br4  1  0.75000000  0.31275755  0.51151261  1
  Br  Br5  1  0.25000000  0.68724245  0.48848739  1
  Br  Br6  1  0.75000000  0.94729547  0.32251996  1
  Br  Br7  1  0.25000000  0.05270453  0.67748004  1
  Br  Br8  1  0.75000000  0.65643139  0.12315518  1
  Br  Br9  1  0.25000000  0.34356861  0.87684482  1
  Br  Br10  1  0.75000000  0.14831340  0.06996542  1
  Br  Br11  1  0.25000000  0.85168660  0.93003458  1
  Br  Br12  1  0.75000000  0.66480879  0.72792305  1
  Br  Br13  1  0.25000000  0.33519121  0.27207695  1
