# generated using pymatgen
data_Ca5Pd2
_symmetry_space_group_name_H-M   'P 1'
_cell_length_a   6.66182324
_cell_length_b   7.68046744
_cell_length_c   8.97442679
_cell_angle_alpha   96.86341122
_cell_angle_beta   111.78692346
_cell_angle_gamma   90.00000000
_symmetry_Int_Tables_number   1
_chemical_formula_structural   Ca5Pd2
_chemical_formula_sum   'Ca10 Pd4'
_cell_volume   422.83970624
_cell_formula_units_Z   2
loop_
 _symmetry_equiv_pos_site_id
 _symmetry_equiv_pos_as_xyz
  1  'x, y, z'
loop_
 _atom_site_type_symbol
 _atom_site_label
 _atom_site_symmetry_multiplicity
 _atom_site_fract_x
 _atom_site_fract_y
 _atom_site_fract_z
 _atom_site_occupancy
  Ca  Ca0  1  0.98097142  0.91883448  0.18241891  1
  Ca  Ca1  1  0.79855252  0.58116552  0.81758109  1
  Ca  Ca2  1  0.01902858  0.08116552  0.81758109  1
  Ca  Ca3  1  0.20144748  0.41883448  0.18241891  1
  Ca  Ca4  1  0.63685738  0.81967281  0.43443995  1
  Ca  Ca5  1  0.20241744  0.68032719  0.56556005  1
  Ca  Ca6  1  0.36314262  0.18032719  0.56556005  1
  Ca  Ca7  1  0.79758256  0.31967281  0.43443995  1
  Ca  Ca8  1  0.42128925  0.75000000  0.00000000  1
  Ca  Ca9  1  0.57871075  0.25000000  0.00000000  1
  Pd  Pd10  1  0.81640112  0.58104887  0.22072613  1
  Pd  Pd11  1  0.59567498  0.91895113  0.77927387  1
  Pd  Pd12  1  0.18359888  0.41895113  0.77927387  1
  Pd  Pd13  1  0.40432502  0.08104887  0.22072613  1
