# generated using pymatgen
data_Nd(MnGe)6
_symmetry_space_group_name_H-M   'P 1'
_cell_length_a   5.22668925
_cell_length_b   5.22703691
_cell_length_c   8.17795476
_cell_angle_alpha   90.00000000
_cell_angle_beta   90.00000000
_cell_angle_gamma   119.99780256
_symmetry_Int_Tables_number   1
_chemical_formula_structural   Nd(MnGe)6
_chemical_formula_sum   'Nd1 Mn6 Ge6'
_cell_volume   193.49386445
_cell_formula_units_Z   1
loop_
 _symmetry_equiv_pos_site_id
 _symmetry_equiv_pos_as_xyz
  1  'x, y, z'
loop_
 _atom_site_type_symbol
 _atom_site_label
 _atom_site_symmetry_multiplicity
 _atom_site_fract_x
 _atom_site_fract_y
 _atom_site_fract_z
 _atom_site_occupancy
  Nd  Nd0  1  0.00002095  1.00000000  -0.00000000  1
  Mn  Mn1  1  0.49999752  1.00000000  0.25228209  1
  Mn  Mn2  1  0.49997774  0.49999622  0.25227427  1
  Mn  Mn3  1  0.99998152  0.50000378  0.25227427  1
  Mn  Mn4  1  0.49999752  1.00000000  0.74771791  1
  Mn  Mn5  1  0.49997774  0.49999622  0.74772573  1
  Mn  Mn6  1  0.99998152  0.50000378  0.74772573  1
  Ge  Ge7  1  0.33333571  0.66673103  -0.00000000  1
  Ge  Ge8  1  0.66660468  0.33326897  -0.00000000  1
  Ge  Ge9  1  0.33333567  0.66665302  0.50000000  1
  Ge  Ge10  1  0.66668264  0.33334698  0.50000000  1
  Ge  Ge11  1  0.99995339  1.00000000  0.34755603  1
  Ge  Ge12  1  0.99995339  1.00000000  0.65244397  1
