# generated using pymatgen
data_Ce2H5
_symmetry_space_group_name_H-M   'P 1'
_cell_length_a   5.43249399
_cell_length_b   5.43249399
_cell_length_c   6.70433781
_cell_angle_alpha   113.90038269
_cell_angle_beta   113.90038269
_cell_angle_gamma   90.00000000
_symmetry_Int_Tables_number   1
_chemical_formula_structural   Ce2H5
_chemical_formula_sum   'Ce4 H10'
_cell_volume   162.16066965
_cell_formula_units_Z   2
loop_
 _symmetry_equiv_pos_site_id
 _symmetry_equiv_pos_as_xyz
  1  'x, y, z'
loop_
 _atom_site_type_symbol
 _atom_site_label
 _atom_site_symmetry_multiplicity
 _atom_site_fract_x
 _atom_site_fract_y
 _atom_site_fract_z
 _atom_site_occupancy
  Ce  Ce0  1  0.25052395  0.75052395  0.50104790  1
  Ce  Ce1  1  0.00052395  0.00052395  0.00104790  1
  Ce  Ce2  1  0.73753232  0.23753232  0.47506463  1
  Ce  Ce3  1  0.48753232  0.48753232  0.97506463  1
  H  H4  1  0.63929355  0.61834114  0.73819459  1
  H  H5  1  0.09890104  0.11985345  0.73819459  1
  H  H6  1  0.36985345  0.84890104  0.23819459  1
  H  H7  1  0.86834114  0.38929355  0.23819459  1
  H  H8  1  0.09890104  0.61834114  0.73819459  1
  H  H9  1  0.63929355  0.11985345  0.73819459  1
  H  H10  1  0.86834114  0.84890104  0.23819459  1
  H  H11  1  0.36985345  0.38929355  0.23819459  1
  H  H12  1  0.49155455  0.99155455  0.98310910  1
  H  H13  1  0.24155455  0.24155455  0.48310910  1
