# generated using pymatgen
data_Cs(MoSe)3
_symmetry_space_group_name_H-M   'P 1'
_cell_length_a   4.52884626
_cell_length_b   9.99722571
_cell_length_c   9.98104416
_cell_angle_alpha   120.00416619
_cell_angle_beta   90.00000000
_cell_angle_gamma   90.00000000
_symmetry_Int_Tables_number   1
_chemical_formula_structural   Cs(MoSe)3
_chemical_formula_sum   'Cs2 Mo6 Se6'
_cell_volume   391.34109002
_cell_formula_units_Z   2
loop_
 _symmetry_equiv_pos_site_id
 _symmetry_equiv_pos_as_xyz
  1  'x, y, z'
loop_
 _atom_site_type_symbol
 _atom_site_label
 _atom_site_symmetry_multiplicity
 _atom_site_fract_x
 _atom_site_fract_y
 _atom_site_fract_z
 _atom_site_occupancy
  Cs  Cs0  1  0.75000000  0.66662127  0.33312218  1
  Cs  Cs1  1  0.25000000  0.33337873  0.66687782  1
  Mo  Mo2  1  0.75000000  0.97846937  0.83623961  1
  Mo  Mo3  1  0.75000000  0.16358595  0.14230685  1
  Mo  Mo4  1  0.75000000  0.85800632  0.02151775  1
  Mo  Mo5  1  0.25000000  0.02153063  0.16376039  1
  Mo  Mo6  1  0.25000000  0.83641405  0.85769315  1
  Mo  Mo7  1  0.25000000  0.14199368  0.97848225  1
  Se  Se8  1  0.75000000  0.67592550  0.71920728  1
  Se  Se9  1  0.75000000  0.28030633  0.95625470  1
  Se  Se10  1  0.75000000  0.04376911  0.32457700  1
  Se  Se11  1  0.25000000  0.32407450  0.28079272  1
  Se  Se12  1  0.25000000  0.71969367  0.04374530  1
  Se  Se13  1  0.25000000  0.95623089  0.67542300  1
