# generated using pymatgen
data_Mg2TiWO6
_symmetry_space_group_name_H-M   'P 1'
_cell_length_a   5.23042574
_cell_length_b   5.36546201
_cell_length_c   7.63612361
_cell_angle_alpha   90.00000000
_cell_angle_beta   91.27366718
_cell_angle_gamma   90.00000000
_symmetry_Int_Tables_number   1
_chemical_formula_structural   Mg2TiWO6
_chemical_formula_sum   'Mg4 Ti2 W2 O12'
_cell_volume   214.24455838
_cell_formula_units_Z   2
loop_
 _symmetry_equiv_pos_site_id
 _symmetry_equiv_pos_as_xyz
  1  'x, y, z'
loop_
 _atom_site_type_symbol
 _atom_site_label
 _atom_site_symmetry_multiplicity
 _atom_site_fract_x
 _atom_site_fract_y
 _atom_site_fract_z
 _atom_site_occupancy
  Mg  Mg0  1  0.99170806  0.05125266  0.25507308  1
  Mg  Mg1  1  0.50829194  0.55125366  0.24492692  1
  Mg  Mg2  1  0.00829294  0.94874834  0.74492692  1
  Mg  Mg3  1  0.49170706  0.44874734  0.75507308  1
  Ti  Ti4  1  0.50000000  0.00000000  0.00000000  1
  Ti  Ti5  1  0.00000100  0.49999900  0.50000000  1
  W  W6  1  0.50000000  0.00000000  0.49999900  1
  W  W7  1  0.00000000  0.49999900  0.00000000  1
  O  O8  1  0.68569615  0.31884689  0.42922903  1
  O  O9  1  0.81430385  0.81884789  0.07077097  1
  O  O10  1  0.31430285  0.68115311  0.57077097  1
  O  O11  1  0.18569715  0.18115211  0.92922903  1
  O  O12  1  0.16527560  0.19331954  0.56912308  1
  O  O13  1  0.33472440  0.69331854  0.93087692  1
  O  O14  1  0.83472540  0.80668046  0.43087692  1
  O  O15  1  0.66527460  0.30668146  0.06912308  1
  O  O16  1  0.12942832  0.43518167  0.25390320  1
  O  O17  1  0.37057268  0.93518267  0.24609580  1
  O  O18  1  0.62942832  0.06481733  0.75390420  1
  O  O19  1  0.87057268  0.56481833  0.74609680  1
