# generated using pymatgen
data_Er(AlC)3
_symmetry_space_group_name_H-M   'P 1'
_cell_length_a   3.41910543
_cell_length_b   3.41910543
_cell_length_c   17.27271360
_cell_angle_alpha   90.00000000
_cell_angle_beta   90.00000000
_cell_angle_gamma   120.00070301
_symmetry_Int_Tables_number   1
_chemical_formula_structural   Er(AlC)3
_chemical_formula_sum   'Er2 Al6 C6'
_cell_volume   174.86911534
_cell_formula_units_Z   2
loop_
 _symmetry_equiv_pos_site_id
 _symmetry_equiv_pos_as_xyz
  1  'x, y, z'
loop_
 _atom_site_type_symbol
 _atom_site_label
 _atom_site_symmetry_multiplicity
 _atom_site_fract_x
 _atom_site_fract_y
 _atom_site_fract_z
 _atom_site_occupancy
  Er  Er0  1  0.00000000  -0.00000000  0.50000000  1
  Er  Er1  1  0.00000000  -0.00000000  -0.00000000  1
  Al  Al2  1  0.66670063  0.33329937  0.63297821  1
  Al  Al3  1  0.33329937  0.66670063  0.36702179  1
  Al  Al4  1  0.33329937  0.66670063  0.13297821  1
  Al  Al5  1  0.66670063  0.33329937  0.86702179  1
  Al  Al6  1  0.66666105  0.33333895  0.25000000  1
  Al  Al7  1  0.33333895  0.66666105  0.75000000  1
  C  C8  1  0.66666137  0.33333863  0.09138510  1
  C  C9  1  0.33333863  0.66666137  0.90861490  1
  C  C10  1  0.33333863  0.66666137  0.59138510  1
  C  C11  1  0.66666137  0.33333863  0.40861490  1
  C  C12  1  0.66660426  0.33339574  0.75000000  1
  C  C13  1  0.33339574  0.66660426  0.25000000  1
