# generated using pymatgen
data_RbCu2(SeO5)2
_symmetry_space_group_name_H-M   'P 1'
_cell_length_a   5.81420751
_cell_length_b   5.81420751
_cell_length_c   8.33993505
_cell_angle_alpha   98.85092448
_cell_angle_beta   104.38230982
_cell_angle_gamma   115.02432783
_symmetry_Int_Tables_number   1
_chemical_formula_structural   RbCu2(SeO5)2
_chemical_formula_sum   'Rb1 Cu2 Se2 O10'
_cell_volume   236.44686202
_cell_formula_units_Z   1
loop_
 _symmetry_equiv_pos_site_id
 _symmetry_equiv_pos_as_xyz
  1  'x, y, z'
loop_
 _atom_site_type_symbol
 _atom_site_label
 _atom_site_symmetry_multiplicity
 _atom_site_fract_x
 _atom_site_fract_y
 _atom_site_fract_z
 _atom_site_occupancy
  Rb  Rb0  1  -0.00000000  0.50000000  0.50000000  1
  Cu  Cu1  1  -0.00000000  0.50000000  0.00000000  1
  Cu  Cu2  1  0.50000000  0.00000000  0.00000000  1
  Se  Se3  1  0.79744074  0.93725067  0.73469140  1
  Se  Se4  1  0.20255926  0.06274933  0.26530860  1
  O  O5  1  0.00060656  0.82812390  0.82873045  1
  O  O6  1  0.99939344  0.17187610  0.17126955  1
  O  O7  1  0.68794925  0.83447348  0.52242273  1
  O  O8  1  0.31205075  0.16552652  0.47757727  1
  O  O9  1  0.51410160  0.82668341  0.79375101  1
  O  O10  1  0.96706759  0.27964941  0.79375101  1
  O  O11  1  0.48589840  0.17331659  0.20624899  1
  O  O12  1  0.03293241  0.72035059  0.20624899  1
  O  O13  1  0.64105313  0.31487172  0.95592485  1
  O  O14  1  0.35894687  0.68512828  0.04407515  1
