# generated using pymatgen
data_Ba6Re2N6O
_symmetry_space_group_name_H-M   'P 1'
_cell_length_a   7.54988218
_cell_length_b   7.54988218
_cell_length_c   7.54988230
_cell_angle_alpha   65.65509640
_cell_angle_beta   65.65509633
_cell_angle_gamma   65.65509394
_symmetry_Int_Tables_number   1
_chemical_formula_structural   Ba6Re2N6O
_chemical_formula_sum   'Ba6 Re2 N6 O1'
_cell_volume   341.66135298
_cell_formula_units_Z   1
loop_
 _symmetry_equiv_pos_site_id
 _symmetry_equiv_pos_as_xyz
  1  'x, y, z'
loop_
 _atom_site_type_symbol
 _atom_site_label
 _atom_site_symmetry_multiplicity
 _atom_site_fract_x
 _atom_site_fract_y
 _atom_site_fract_z
 _atom_site_occupancy
  Ba  Ba0  1  0.66724481  0.81622981  0.26038095  1
  Ba  Ba1  1  0.81622981  0.26038095  0.66724481  1
  Ba  Ba2  1  0.26038095  0.66724481  0.81622981  1
  Ba  Ba3  1  0.33275519  0.18377019  0.73961905  1
  Ba  Ba4  1  0.18377019  0.73961905  0.33275519  1
  Ba  Ba5  1  0.73961905  0.33275519  0.18377019  1
  Re  Re6  1  0.75002737  0.75002737  0.75002737  1
  Re  Re7  1  0.24997263  0.24997263  0.24997263  1
  N  N8  1  0.76756687  0.96123275  0.51661637  1
  N  N9  1  0.96123275  0.51661637  0.76756687  1
  N  N10  1  0.51661637  0.76756687  0.96123275  1
  N  N11  1  0.23243313  0.03876725  0.48338363  1
  N  N12  1  0.03876725  0.48338363  0.23243313  1
  N  N13  1  0.48338363  0.23243313  0.03876725  1
  O  O14  1  0.50000000  0.50000000  0.50000000  1
