# generated using pymatgen
data_Sm(Ni2Sn)2
_symmetry_space_group_name_H-M   'P 1'
_cell_length_a   6.71814631
_cell_length_b   6.71814631
_cell_length_c   6.71814631
_cell_angle_alpha   107.69356597
_cell_angle_beta   110.36729374
_cell_angle_gamma   110.36729374
_symmetry_Int_Tables_number   1
_chemical_formula_structural   Sm(Ni2Sn)2
_chemical_formula_sum   'Sm2 Ni8 Sn4'
_cell_volume   233.24590568
_cell_formula_units_Z   2
loop_
 _symmetry_equiv_pos_site_id
 _symmetry_equiv_pos_as_xyz
  1  'x, y, z'
loop_
 _atom_site_type_symbol
 _atom_site_label
 _atom_site_symmetry_multiplicity
 _atom_site_fract_x
 _atom_site_fract_y
 _atom_site_fract_z
 _atom_site_occupancy
  Sm  Sm0  1  0.50000000  0.00000000  0.50000000  1
  Sm  Sm1  1  0.50000000  0.50000000  -0.00000000  1
  Ni  Ni2  1  0.71911138  0.44296502  0.44414170  1
  Ni  Ni3  1  0.28088862  0.72503032  0.72385364  1
  Ni  Ni4  1  0.99882332  0.94296502  0.22385364  1
  Ni  Ni5  1  0.00117668  0.22503032  0.94414170  1
  Ni  Ni6  1  0.00117668  0.27614636  0.55703498  1
  Ni  Ni7  1  0.99882332  0.55585830  0.27496968  1
  Ni  Ni8  1  0.28088862  0.05585830  0.05703498  1
  Ni  Ni9  1  0.71911138  0.77614636  0.77496968  1
  Sn  Sn10  1  0.31603873  0.40801936  0.40801936  1
  Sn  Sn11  1  0.68396127  0.09198064  0.09198064  1
  Sn  Sn12  1  0.00000000  0.90801936  0.59198064  1
  Sn  Sn13  1  -0.00000000  0.59198064  0.90801936  1
