# generated using pymatgen
data_La3Pt2
_symmetry_space_group_name_H-M   'P 1'
_cell_length_a   7.85369778
_cell_length_b   7.85369777
_cell_length_c   7.85369835
_cell_angle_alpha   71.96041737
_cell_angle_beta   71.96041738
_cell_angle_gamma   71.96041408
_symmetry_Int_Tables_number   1
_chemical_formula_structural   La3Pt2
_chemical_formula_sum   'La9 Pt6'
_cell_volume   425.54640007
_cell_formula_units_Z   3
loop_
 _symmetry_equiv_pos_site_id
 _symmetry_equiv_pos_as_xyz
  1  'x, y, z'
loop_
 _atom_site_type_symbol
 _atom_site_label
 _atom_site_symmetry_multiplicity
 _atom_site_fract_x
 _atom_site_fract_y
 _atom_site_fract_z
 _atom_site_occupancy
  La  La0  1  0.00000000  0.00000000  -0.00000000  1
  La  La1  1  0.79873816  0.79873816  0.79873816  1
  La  La2  1  0.20126184  0.20126184  0.20126184  1
  La  La3  1  0.60993901  0.32959528  0.83450127  1
  La  La4  1  0.32959528  0.83450127  0.60993901  1
  La  La5  1  0.83450127  0.60993901  0.32959528  1
  La  La6  1  0.39006099  0.67040472  0.16549873  1
  La  La7  1  0.67040472  0.16549873  0.39006099  1
  La  La8  1  0.16549873  0.39006099  0.67040472  1
  Pt  Pt9  1  0.95906039  0.16366260  0.59053166  1
  Pt  Pt10  1  0.16366260  0.59053166  0.95906039  1
  Pt  Pt11  1  0.59053166  0.95906039  0.16366260  1
  Pt  Pt12  1  0.04093961  0.83633740  0.40946834  1
  Pt  Pt13  1  0.83633740  0.40946834  0.04093961  1
  Pt  Pt14  1  0.40946834  0.04093961  0.83633740  1
