# generated using pymatgen
data_Er3Pd4
_symmetry_space_group_name_H-M   'P 1'
_cell_length_a   5.71071428
_cell_length_b   7.83688780
_cell_length_c   7.83688784
_cell_angle_alpha   114.29911075
_cell_angle_beta   104.05770128
_cell_angle_gamma   104.05770136
_symmetry_Int_Tables_number   1
_chemical_formula_structural   Er3Pd4
_chemical_formula_sum   'Er6 Pd8'
_cell_volume   285.82353125
_cell_formula_units_Z   2
loop_
 _symmetry_equiv_pos_site_id
 _symmetry_equiv_pos_as_xyz
  1  'x, y, z'
loop_
 _atom_site_type_symbol
 _atom_site_label
 _atom_site_symmetry_multiplicity
 _atom_site_fract_x
 _atom_site_fract_y
 _atom_site_fract_z
 _atom_site_occupancy
  Er  Er0  1  0.40353573  0.12388762  0.37789449  1
  Er  Er1  1  0.02564124  0.62210551  0.74599313  1
  Er  Er2  1  0.27964812  0.25400687  0.87611238  1
  Er  Er3  1  0.59646427  0.87611238  0.62210551  1
  Er  Er4  1  0.97435876  0.37789449  0.25400687  1
  Er  Er5  1  0.72035188  0.74599313  0.12388762  1
  Pd  Pd6  1  0.00000000  -0.00000000  0.00000000  1
  Pd  Pd7  1  0.50000000  -0.00000000  0.00000000  1
  Pd  Pd8  1  0.22572546  0.67411063  0.16406396  1
  Pd  Pd9  1  0.06166149  0.83593604  0.51004666  1
  Pd  Pd10  1  0.55161483  0.48995334  0.32588937  1
  Pd  Pd11  1  0.77427454  0.32588937  0.83593604  1
  Pd  Pd12  1  0.93833851  0.16406396  0.48995334  1
  Pd  Pd13  1  0.44838517  0.51004666  0.67411063  1
