# generated using pymatgen
data_Dy(AlC)3
_symmetry_space_group_name_H-M   'P 1'
_cell_length_a   3.43369556
_cell_length_b   3.43369556
_cell_length_c   17.34849185
_cell_angle_alpha   90.00000000
_cell_angle_beta   90.00000000
_cell_angle_gamma   119.99809796
_symmetry_Int_Tables_number   1
_chemical_formula_structural   Dy(AlC)3
_chemical_formula_sum   'Dy2 Al6 C6'
_cell_volume   177.14310646
_cell_formula_units_Z   2
loop_
 _symmetry_equiv_pos_site_id
 _symmetry_equiv_pos_as_xyz
  1  'x, y, z'
loop_
 _atom_site_type_symbol
 _atom_site_label
 _atom_site_symmetry_multiplicity
 _atom_site_fract_x
 _atom_site_fract_y
 _atom_site_fract_z
 _atom_site_occupancy
  Dy  Dy0  1  0.00000000  0.00000000  0.50000000  1
  Dy  Dy1  1  0.00000000  0.00000000  0.00000000  1
  Al  Al2  1  0.66666389  0.33333611  0.63365164  1
  Al  Al3  1  0.33333611  0.66666389  0.36634836  1
  Al  Al4  1  0.33333611  0.66666389  0.13365164  1
  Al  Al5  1  0.66666389  0.33333611  0.86634836  1
  Al  Al6  1  0.66664449  0.33335551  0.25000000  1
  Al  Al7  1  0.33335551  0.66664449  0.75000000  1
  C  C8  1  0.66666283  0.33333717  0.09310653  1
  C  C9  1  0.33333717  0.66666283  0.90689347  1
  C  C10  1  0.33333717  0.66666283  0.59310653  1
  C  C11  1  0.66666283  0.33333717  0.40689347  1
  C  C12  1  0.66665515  0.33334485  0.75000000  1
  C  C13  1  0.33334485  0.66665515  0.25000000  1
