# generated using pymatgen
data_Dy5Ir2
_symmetry_space_group_name_H-M   'P 1'
_cell_length_a   6.47687777
_cell_length_b   7.19206899
_cell_length_c   8.59447013
_cell_angle_alpha   96.62457707
_cell_angle_beta   112.13591079
_cell_angle_gamma   90.00000000
_symmetry_Int_Tables_number   1
_chemical_formula_structural   Dy5Ir2
_chemical_formula_sum   'Dy10 Ir4'
_cell_volume   367.95297012
_cell_formula_units_Z   2
loop_
 _symmetry_equiv_pos_site_id
 _symmetry_equiv_pos_as_xyz
  1  'x, y, z'
loop_
 _atom_site_type_symbol
 _atom_site_label
 _atom_site_symmetry_multiplicity
 _atom_site_fract_x
 _atom_site_fract_y
 _atom_site_fract_z
 _atom_site_occupancy
  Dy  Dy0  1  0.97793433  0.91625221  0.18602036  1
  Dy  Dy1  1  0.79191396  0.58374779  0.81397964  1
  Dy  Dy2  1  0.02206567  0.08374779  0.81397964  1
  Dy  Dy3  1  0.20808604  0.41625221  0.18602036  1
  Dy  Dy4  1  0.64875469  0.81573894  0.43906982  1
  Dy  Dy5  1  0.20968487  0.68426106  0.56093018  1
  Dy  Dy6  1  0.35124531  0.18426106  0.56093018  1
  Dy  Dy7  1  0.79031513  0.31573894  0.43906982  1
  Dy  Dy8  1  0.42988179  0.75000000  1.00000000  1
  Dy  Dy9  1  0.57011821  0.25000000  0.00000000  1
  Ir  Ir10  1  0.82304283  0.57472184  0.22255197  1
  Ir  Ir11  1  0.60049087  0.92527816  0.77744803  1
  Ir  Ir12  1  0.17695717  0.42527816  0.77744803  1
  Ir  Ir13  1  0.39950913  0.07472184  0.22255197  1
