# generated using pymatgen
data_MnBe12
_symmetry_space_group_name_H-M   'P 1'
_cell_length_a   4.09842234
_cell_length_b   5.45889542
_cell_length_c   5.45889542
_cell_angle_alpha   81.89907493
_cell_angle_beta   67.95161651
_cell_angle_gamma   67.95161651
_symmetry_Int_Tables_number   1
_chemical_formula_structural   MnBe12
_chemical_formula_sum   'Mn1 Be12'
_cell_volume   104.92072298
_cell_formula_units_Z   1
loop_
 _symmetry_equiv_pos_site_id
 _symmetry_equiv_pos_as_xyz
  1  'x, y, z'
loop_
 _atom_site_type_symbol
 _atom_site_label
 _atom_site_symmetry_multiplicity
 _atom_site_fract_x
 _atom_site_fract_y
 _atom_site_fract_z
 _atom_site_occupancy
  Mn  Mn0  1  -0.00000000  0.00000000  0.00000000  1
  Be  Be1  1  -0.00000000  0.00000000  0.50000000  1
  Be  Be2  1  0.50000000  0.00000000  0.50000000  1
  Be  Be3  1  0.50000000  0.50000000  0.00000000  1
  Be  Be4  1  -0.00000000  0.50000000  0.00000000  1
  Be  Be5  1  -0.00000000  0.34642620  0.65357380  1
  Be  Be6  1  -0.00000000  0.65357380  0.34642620  1
  Be  Be7  1  0.65357380  0.34642620  0.34642620  1
  Be  Be8  1  0.34642620  0.65357380  0.65357380  1
  Be  Be9  1  0.50000000  0.79008662  0.20991338  1
  Be  Be10  1  0.50000000  0.20991338  0.79008662  1
  Be  Be11  1  0.70991338  0.79008662  0.79008662  1
  Be  Be12  1  0.29008662  0.20991338  0.20991338  1
