# generated using pymatgen
data_Gd(AlC)3
_symmetry_space_group_name_H-M   'P 1'
_cell_length_a   3.45016967
_cell_length_b   3.45016967
_cell_length_c   17.44527075
_cell_angle_alpha   90.00000000
_cell_angle_beta   90.00000000
_cell_angle_gamma   120.00252365
_symmetry_Int_Tables_number   1
_chemical_formula_structural   Gd(AlC)3
_chemical_formula_sum   'Gd2 Al6 C6'
_cell_volume   179.83665106
_cell_formula_units_Z   2
loop_
 _symmetry_equiv_pos_site_id
 _symmetry_equiv_pos_as_xyz
  1  'x, y, z'
loop_
 _atom_site_type_symbol
 _atom_site_label
 _atom_site_symmetry_multiplicity
 _atom_site_fract_x
 _atom_site_fract_y
 _atom_site_fract_z
 _atom_site_occupancy
  Gd  Gd0  1  0.00000000  -0.00000000  0.50000000  1
  Gd  Gd1  1  0.00000000  -0.00000000  -0.00000000  1
  Al  Al2  1  0.66666805  0.33333195  0.63437011  1
  Al  Al3  1  0.33333195  0.66666805  0.36562989  1
  Al  Al4  1  0.33333195  0.66666805  0.13437011  1
  Al  Al5  1  0.66666805  0.33333195  0.86562989  1
  Al  Al6  1  0.66666301  0.33333699  0.25000000  1
  Al  Al7  1  0.33333699  0.66666301  0.75000000  1
  C  C8  1  0.66666394  0.33333606  0.09450869  1
  C  C9  1  0.33333606  0.66666394  0.90549131  1
  C  C10  1  0.33333606  0.66666394  0.59450869  1
  C  C11  1  0.66666394  0.33333606  0.40549131  1
  C  C12  1  0.66667344  0.33332656  0.75000000  1
  C  C13  1  0.33332656  0.66667344  0.25000000  1
