# generated using pymatgen
data_Zn2CuWO6
_symmetry_space_group_name_H-M   'P 1'
_cell_length_a   5.04858228
_cell_length_b   5.12147840
_cell_length_c   8.54158970
_cell_angle_alpha   90.00000000
_cell_angle_beta   89.14627055
_cell_angle_gamma   90.00000000
_symmetry_Int_Tables_number   1
_chemical_formula_structural   Zn2CuWO6
_chemical_formula_sum   'Zn4 Cu2 W2 O12'
_cell_volume   220.82857837
_cell_formula_units_Z   2
loop_
 _symmetry_equiv_pos_site_id
 _symmetry_equiv_pos_as_xyz
  1  'x, y, z'
loop_
 _atom_site_type_symbol
 _atom_site_label
 _atom_site_symmetry_multiplicity
 _atom_site_fract_x
 _atom_site_fract_y
 _atom_site_fract_z
 _atom_site_occupancy
  Zn  Zn0  1  0.99549660  0.02516315  0.26337523  1
  Zn  Zn1  1  0.50450340  0.52516415  0.23662477  1
  Zn  Zn2  1  0.00450440  0.97483785  0.73662477  1
  Zn  Zn3  1  0.49549560  0.47483685  0.76337523  1
  Cu  Cu4  1  0.50000000  0.00000000  0.00000000  1
  Cu  Cu5  1  0.00000100  0.49999900  0.50000000  1
  W  W6  1  0.50000000  0.00000000  0.49999900  1
  W  W7  1  0.00000000  0.49999900  0.00000000  1
  O  O8  1  0.67756711  0.30493783  0.40001192  1
  O  O9  1  0.82243289  0.80493883  0.09998808  1
  O  O10  1  0.32243189  0.69506217  0.59998808  1
  O  O11  1  0.17756811  0.19506117  0.90001192  1
  O  O12  1  0.17781371  0.18700947  0.54796651  1
  O  O13  1  0.32218629  0.68700847  0.95203349  1
  O  O14  1  0.82218729  0.81299053  0.45203349  1
  O  O15  1  0.67781271  0.31299153  0.04796651  1
  O  O16  1  0.13419412  0.38637873  0.20170921  1
  O  O17  1  0.36580688  0.88637973  0.29828979  1
  O  O18  1  0.63419412  0.11362027  0.70171021  1
  O  O19  1  0.86580688  0.61362127  0.79829079  1
