# generated using pymatgen
data_Na2AgF4
_symmetry_space_group_name_H-M   'P 1'
_cell_length_a   3.38467841
_cell_length_b   5.70902469
_cell_length_c   10.52748525
_cell_angle_alpha   90.00000000
_cell_angle_beta   90.00000000
_cell_angle_gamma   98.64605829
_symmetry_Int_Tables_number   1
_chemical_formula_structural   Na2AgF4
_chemical_formula_sum   'Na4 Ag2 F8'
_cell_volume   201.11308617
_cell_formula_units_Z   2
loop_
 _symmetry_equiv_pos_site_id
 _symmetry_equiv_pos_as_xyz
  1  'x, y, z'
loop_
 _atom_site_type_symbol
 _atom_site_label
 _atom_site_symmetry_multiplicity
 _atom_site_fract_x
 _atom_site_fract_y
 _atom_site_fract_z
 _atom_site_occupancy
  Na  Na0  1  0.78162357  0.03235798  0.34848921  1
  Na  Na1  1  0.71837643  0.46764202  0.84848921  1
  Na  Na2  1  0.21837643  0.96764202  0.65151079  1
  Na  Na3  1  0.28162357  0.53235798  0.15151079  1
  Ag  Ag4  1  0.50000000  0.50000000  0.50000000  1
  Ag  Ag5  1  -0.00000000  0.00000000  -0.00000000  1
  F  F6  1  0.27928324  0.70764246  0.93835646  1
  F  F7  1  0.22071676  0.79235754  0.43835646  1
  F  F8  1  0.72071676  0.29235754  0.06164354  1
  F  F9  1  0.77928324  0.20764246  0.56164354  1
  F  F10  1  0.64616680  0.68913306  0.67257817  1
  F  F11  1  0.85383320  0.81086694  0.17257817  1
  F  F12  1  0.35383320  0.31086694  0.32742183  1
  F  F13  1  0.14616680  0.18913306  0.82742183  1
