# generated using pymatgen
data_Ba2Bi2Se3O2
_symmetry_space_group_name_H-M   'P 1'
_cell_length_a   4.23061387
_cell_length_b   10.11462140
_cell_length_c   11.90168504
_cell_angle_alpha   99.78390933
_cell_angle_beta   90.00000000
_cell_angle_gamma   90.00000000
_symmetry_Int_Tables_number   1
_chemical_formula_structural   Ba2Bi2Se3O2
_chemical_formula_sum   'Ba4 Bi4 Se6 O4'
_cell_volume   501.87846574
_cell_formula_units_Z   2
loop_
 _symmetry_equiv_pos_site_id
 _symmetry_equiv_pos_as_xyz
  1  'x, y, z'
loop_
 _atom_site_type_symbol
 _atom_site_label
 _atom_site_symmetry_multiplicity
 _atom_site_fract_x
 _atom_site_fract_y
 _atom_site_fract_z
 _atom_site_occupancy
  Ba  Ba0  1  0.49097463  0.70514768  0.59774887  1
  Ba  Ba1  1  0.99097463  0.79485232  0.90225113  1
  Ba  Ba2  1  0.50902537  0.29485232  0.40225113  1
  Ba  Ba3  1  0.00902537  0.20514768  0.09774887  1
  Bi  Bi4  1  0.49520564  0.45116212  0.81338463  1
  Bi  Bi5  1  0.99520564  0.04883788  0.68661537  1
  Bi  Bi6  1  0.50479436  0.54883788  0.18661537  1
  Bi  Bi7  1  0.00479436  0.95116212  0.31338463  1
  Se  Se8  1  0.50000000  -0.00000000  0.50000000  1
  Se  Se9  1  0.00000000  0.50000000  0.00000000  1
  Se  Se10  1  0.49663787  0.08670678  0.85941701  1
  Se  Se11  1  0.99663787  0.41329322  0.64058299  1
  Se  Se12  1  0.50336213  0.91329322  0.14058299  1
  Se  Se13  1  0.00336213  0.58670678  0.35941701  1
  O  O14  1  0.50614368  0.33912045  0.18607039  1
  O  O15  1  0.00614368  0.16087955  0.31392961  1
  O  O16  1  0.49385632  0.66087955  0.81392961  1
  O  O17  1  0.99385632  0.83912045  0.68607039  1
