# generated using pymatgen
data_Lu5Re2C7
_symmetry_space_group_name_H-M   'P 1'
_cell_length_a   3.34377048
_cell_length_b   7.94505555
_cell_length_c   8.14936985
_cell_angle_alpha   119.17406051
_cell_angle_beta   90.00000000
_cell_angle_gamma   90.00000000
_symmetry_Int_Tables_number   1
_chemical_formula_structural   Lu5Re2C7
_chemical_formula_sum   'Lu5 Re2 C7'
_cell_volume   189.03522166
_cell_formula_units_Z   1
loop_
 _symmetry_equiv_pos_site_id
 _symmetry_equiv_pos_as_xyz
  1  'x, y, z'
loop_
 _atom_site_type_symbol
 _atom_site_label
 _atom_site_symmetry_multiplicity
 _atom_site_fract_x
 _atom_site_fract_y
 _atom_site_fract_z
 _atom_site_occupancy
  Lu  Lu0  1  0.50000000  0.07828618  0.74165204  1
  Lu  Lu1  1  0.50000000  0.92171382  0.25834796  1
  Lu  Lu2  1  0.50000000  0.33663415  0.25834796  1
  Lu  Lu3  1  0.50000000  0.66336585  0.74165204  1
  Lu  Lu4  1  0.00000000  0.50000000  -0.00000000  1
  Re  Re5  1  0.00000000  0.71564988  0.43129976  1
  Re  Re6  1  -0.00000000  0.28435012  0.56870024  1
  C  C7  1  -0.00000000  0.17120553  -0.00000000  1
  C  C8  1  -0.00000000  0.82879447  -0.00000000  1
  C  C9  1  -0.00000000  0.00000000  -0.00000000  1
  C  C10  1  0.50000000  0.62309158  0.24618316  1
  C  C11  1  0.50000000  0.37690842  0.75381684  1
  C  C12  1  -0.00000000  0.00000000  0.50000000  1
  C  C13  1  -0.00000000  0.50000000  0.50000000  1
