# generated using pymatgen
data_V2ZnO4
_symmetry_space_group_name_H-M   'P 1'
_cell_length_a   6.08459270
_cell_length_b   6.07714591
_cell_length_c   24.38403731
_cell_angle_alpha   60.10230688
_cell_angle_beta   59.44973088
_cell_angle_gamma   60.04047724
_symmetry_Int_Tables_number   1
_chemical_formula_structural   V2ZnO4
_chemical_formula_sum   'V16 Zn8 O32'
_cell_volume   635.54573159
_cell_formula_units_Z   8
loop_
 _symmetry_equiv_pos_site_id
 _symmetry_equiv_pos_as_xyz
  1  'x, y, z'
loop_
 _atom_site_type_symbol
 _atom_site_label
 _atom_site_symmetry_multiplicity
 _atom_site_fract_x
 _atom_site_fract_y
 _atom_site_fract_z
 _atom_site_occupancy
  V  V0  1  0.49626361  0.49880480  0.12515386  1
  V  V1  1  0.49650176  0.49932995  0.25120933  1
  V  V2  1  0.49626361  0.00431615  0.12515386  1
  V  V3  1  0.13034478  0.11970609  0.53256051  1
  V  V4  1  0.49625778  0.50174647  0.37492082  1
  V  V5  1  0.86782351  0.87808758  0.21900033  1
  V  V6  1  0.13351098  0.12007283  0.78158584  1
  V  V7  1  0.49625778  0.00231346  0.37492082  1
  V  V8  1  0.50088135  0.50097403  0.62445635  1
  V  V9  1  0.86796967  0.88431510  0.46584978  1
  V  V10  1  0.50088135  0.00031921  0.62445635  1
  V  V11  1  0.50292645  0.00058321  0.87481436  1
  V  V12  1  0.50292645  0.49723290  0.87481436  1
  V  V13  1  0.86893599  0.88127873  0.71712614  1
  V  V14  1  0.50104834  0.49641944  0.00152844  1
  V  V15  1  0.86939622  0.87589324  0.96970407  1
  Zn  Zn16  1  0.13324938  0.12111773  0.03112929  1
  Zn  Zn17  1  0.00032223  0.49917750  0.12533019  1
  Zn  Zn18  1  0.13450753  0.11856203  0.28209185  1
  Zn  Zn19  1  0.00016559  0.50129301  0.37431210  1
  Zn  Zn20  1  0.00017751  0.50120018  0.62435528  1
  Zn  Zn21  1  0.50200755  0.49917002  0.49991335  1
  Zn  Zn22  1  0.00511463  0.49742136  0.87501066  1
  Zn  Zn23  1  0.49759415  0.50194483  0.74962855  1
  O  O24  1  0.27131330  0.25063954  0.06438696  1
  O  O25  1  0.27192430  0.25350187  0.18026799  1
  O  O26  1  0.27131330  0.72050134  0.06438696  1
  O  O27  1  0.72389686  0.26291497  0.06256855  1
  O  O28  1  0.26928762  0.73905414  0.18815052  1
  O  O29  1  0.26774583  0.25391672  0.31475276  1
  O  O30  1  0.72976885  0.27319427  0.18594254  1
  O  O31  1  0.26224891  0.24967015  0.43460220  1
  O  O32  1  0.26774583  0.71932640  0.31475276  1
  O  O33  1  0.72865803  0.74835238  0.06865905  1
  O  O34  1  0.71715927  0.26241550  0.31450293  1
  O  O35  1  0.72976885  0.75326672  0.18594254  1
  O  O36  1  0.26094409  0.24986851  0.56532809  1
  O  O37  1  0.26745418  0.75463783  0.43081729  1
  O  O38  1  0.73651077  0.27149442  0.43397815  1
  O  O39  1  0.27586168  0.24752164  0.68227401  1
  O  O40  1  0.26094409  0.72787403  0.56532809  1
  O  O41  1  0.73354461  0.75006561  0.31658079  1
  O  O42  1  0.73271582  0.24994559  0.56684825  1
  O  O43  1  0.73651077  0.75608323  0.43397815  1
  O  O44  1  0.26599896  0.75004250  0.68347876  1
  O  O45  1  0.26240900  0.24390601  0.81555198  1
  O  O46  1  0.73943085  0.27081051  0.68489636  1
  O  O47  1  0.27693111  0.25312679  0.92920333  1
  O  O48  1  0.26240900  0.73147508  0.81555198  1
  O  O49  1  0.72501394  0.75426143  0.56661605  1
  O  O50  1  0.73654374  0.24708193  0.81732310  1
  O  O51  1  0.73943085  0.75017522  0.68489636  1
  O  O52  1  0.27443417  0.73870183  0.93704079  1
  O  O53  1  0.73510302  0.26901709  0.93723343  1
  O  O54  1  0.73054821  0.74893272  0.81789634  1
  O  O55  1  0.73510302  0.74694518  0.93723343  1
