# generated using pymatgen
data_Y5Ru2
_symmetry_space_group_name_H-M   'P 1'
_cell_length_a   6.35856584
_cell_length_b   7.31397356
_cell_length_c   8.53199102
_cell_angle_alpha   96.59010536
_cell_angle_beta   111.87795933
_cell_angle_gamma   90.00000000
_symmetry_Int_Tables_number   1
_chemical_formula_structural   Y5Ru2
_chemical_formula_sum   'Y10 Ru4'
_cell_volume   365.38818773
_cell_formula_units_Z   2
loop_
 _symmetry_equiv_pos_site_id
 _symmetry_equiv_pos_as_xyz
  1  'x, y, z'
loop_
 _atom_site_type_symbol
 _atom_site_label
 _atom_site_symmetry_multiplicity
 _atom_site_fract_x
 _atom_site_fract_y
 _atom_site_fract_z
 _atom_site_occupancy
  Y  Y0  1  0.97855783  0.91537400  0.18707497  1
  Y  Y1  1  0.79148285  0.58462600  0.81292503  1
  Y  Y2  1  0.02144217  0.08462600  0.81292503  1
  Y  Y3  1  0.20851715  0.41537400  0.18707497  1
  Y  Y4  1  0.64108167  0.81484097  0.43484286  1
  Y  Y5  1  0.20623882  0.68515903  0.56515714  1
  Y  Y6  1  0.35891833  0.18515903  0.56515714  1
  Y  Y7  1  0.79376118  0.31484097  0.43484286  1
  Y  Y8  1  0.42033923  0.75000000  0.00000000  1
  Y  Y9  1  0.57966077  0.25000000  0.00000000  1
  Ru  Ru10  1  0.82273412  0.57593799  0.21981176  1
  Ru  Ru11  1  0.60292235  0.92406201  0.78018824  1
  Ru  Ru12  1  0.17726588  0.42406201  0.78018824  1
  Ru  Ru13  1  0.39707765  0.07593799  0.21981176  1
