# generated using pymatgen
data_V2Pb(OF4)2
_symmetry_space_group_name_H-M   'P 1'
_cell_length_a   5.17209295
_cell_length_b   5.62683582
_cell_length_c   7.52897406
_cell_angle_alpha   106.64931780
_cell_angle_beta   107.54212631
_cell_angle_gamma   89.44150922
_symmetry_Int_Tables_number   1
_chemical_formula_structural   V2Pb(OF4)2
_chemical_formula_sum   'V2 Pb1 O2 F8'
_cell_volume   199.45852689
_cell_formula_units_Z   1
loop_
 _symmetry_equiv_pos_site_id
 _symmetry_equiv_pos_as_xyz
  1  'x, y, z'
loop_
 _atom_site_type_symbol
 _atom_site_label
 _atom_site_symmetry_multiplicity
 _atom_site_fract_x
 _atom_site_fract_y
 _atom_site_fract_z
 _atom_site_occupancy
  V  V0  1  0.34420415  0.35245922  0.74640383  1
  V  V1  1  0.65579585  0.64754078  0.25359617  1
  Pb  Pb2  1  -0.00000000  -0.00000000  0.00000000  1
  O  O3  1  0.36266138  0.29213596  0.53093135  1
  O  O4  1  0.63733862  0.70786404  0.46906865  1
  F  F5  1  0.53018230  0.09911162  0.83136247  1
  F  F6  1  0.46981770  0.90088838  0.16863753  1
  F  F7  1  0.03135045  0.17446210  0.72151428  1
  F  F8  1  0.96864955  0.82553790  0.27848572  1
  F  F9  1  0.15615071  0.63439511  0.76963659  1
  F  F10  1  0.84384929  0.36560489  0.23036341  1
  F  F11  1  0.66164845  0.56111937  0.90575365  1
  F  F12  1  0.33835155  0.43888063  0.09424635  1
