# generated using pymatgen
data_Cs3As2Cl9
_symmetry_space_group_name_H-M   'P 1'
_cell_length_a   7.56742036
_cell_length_b   7.56764681
_cell_length_c   9.13853254
_cell_angle_alpha   89.99999996
_cell_angle_beta   89.99937597
_cell_angle_gamma   120.00098830
_symmetry_Int_Tables_number   1
_chemical_formula_structural   Cs3As2Cl9
_chemical_formula_sum   'Cs3 As2 Cl9'
_cell_volume   453.22252188
_cell_formula_units_Z   1
loop_
 _symmetry_equiv_pos_site_id
 _symmetry_equiv_pos_as_xyz
  1  'x, y, z'
loop_
 _atom_site_type_symbol
 _atom_site_label
 _atom_site_symmetry_multiplicity
 _atom_site_fract_x
 _atom_site_fract_y
 _atom_site_fract_z
 _atom_site_occupancy
  Cs  Cs0  1  0.00000000  0.00000277  -0.00000000  1
  Cs  Cs1  1  0.33334539  0.66667210  0.32000229  1
  Cs  Cs2  1  0.66665461  0.33332671  0.67999771  1
  As  As3  1  0.33333660  0.66666773  0.81711922  1
  As  As4  1  0.66666340  0.33333114  0.18288078  1
  Cl  Cl5  1  0.51574065  0.51573982  0.99999945  1
  Cl  Cl6  1  0.48425935  0.99999918  0.00000055  1
  Cl  Cl7  1  0.00000000  0.48425880  -0.00000000  1
  Cl  Cl8  1  0.82678192  0.63202771  0.32421469  1
  Cl  Cl9  1  0.36796499  0.19474220  0.32422122  1
  Cl  Cl10  1  0.80525988  0.17323436  0.32421951  1
  Cl  Cl11  1  0.17321808  0.80524579  0.67578531  1
  Cl  Cl12  1  0.19474012  0.36797448  0.67578049  1
  Cl  Cl13  1  0.63203501  0.82677721  0.67577878  1
