# generated using pymatgen
data_Pr(Ni2Sn)2
_symmetry_space_group_name_H-M   'P 1'
_cell_length_a   6.71491951
_cell_length_b   6.71491951
_cell_length_c   6.71491951
_cell_angle_alpha   108.31130783
_cell_angle_beta   110.05427176
_cell_angle_gamma   110.05427176
_symmetry_Int_Tables_number   1
_chemical_formula_structural   Pr(Ni2Sn)2
_chemical_formula_sum   'Pr2 Ni8 Sn4'
_cell_volume   233.00613759
_cell_formula_units_Z   2
loop_
 _symmetry_equiv_pos_site_id
 _symmetry_equiv_pos_as_xyz
  1  'x, y, z'
loop_
 _atom_site_type_symbol
 _atom_site_label
 _atom_site_symmetry_multiplicity
 _atom_site_fract_x
 _atom_site_fract_y
 _atom_site_fract_z
 _atom_site_occupancy
  Pr  Pr0  1  0.50000000  -0.00000000  0.50000000  1
  Pr  Pr1  1  0.50000000  0.50000000  -0.00000000  1
  Ni  Ni2  1  0.72633157  0.45021623  0.44959444  1
  Ni  Ni3  1  0.27366843  0.72326287  0.72388466  1
  Ni  Ni4  1  0.00062179  0.95021623  0.22388466  1
  Ni  Ni5  1  0.99937821  0.22326287  0.94959444  1
  Ni  Ni6  1  0.99937821  0.27611534  0.54978377  1
  Ni  Ni7  1  0.00062179  0.55040556  0.27673713  1
  Ni  Ni8  1  0.27366843  0.05040556  0.04978377  1
  Ni  Ni9  1  0.72633157  0.77611534  0.77673713  1
  Sn  Sn10  1  0.32124937  0.41062469  0.41062469  1
  Sn  Sn11  1  0.67875063  0.08937531  0.08937531  1
  Sn  Sn12  1  0.00000000  0.91062469  0.58937531  1
  Sn  Sn13  1  -0.00000000  0.58937531  0.91062469  1
