# generated using pymatgen
data_VPO4F
_symmetry_space_group_name_H-M   'P 1'
_cell_length_a   5.16521913
_cell_length_b   5.16521913
_cell_length_c   7.26165449
_cell_angle_alpha   70.97232820
_cell_angle_beta   70.97232820
_cell_angle_gamma   90.54785609
_symmetry_Int_Tables_number   1
_chemical_formula_structural   VPO4F
_chemical_formula_sum   'V2 P2 O8 F2'
_cell_volume   171.68350008
_cell_formula_units_Z   2
loop_
 _symmetry_equiv_pos_site_id
 _symmetry_equiv_pos_as_xyz
  1  'x, y, z'
loop_
 _atom_site_type_symbol
 _atom_site_label
 _atom_site_symmetry_multiplicity
 _atom_site_fract_x
 _atom_site_fract_y
 _atom_site_fract_z
 _atom_site_occupancy
  V  V0  1  0.50000000  -0.00000000  0.50000000  1
  V  V1  1  -0.00000000  0.50000000  -0.00000000  1
  P  P2  1  0.38229338  0.61770662  0.25000000  1
  P  P3  1  0.61770662  0.38229338  0.75000000  1
  O  O4  1  0.32596768  0.33409974  0.42293376  1
  O  O5  1  0.66590026  0.67403232  0.07706624  1
  O  O6  1  0.67403232  0.66590026  0.57706624  1
  O  O7  1  0.33409974  0.32596768  0.92293376  1
  O  O8  1  0.14957242  0.64392885  0.15464274  1
  O  O9  1  0.35607115  0.85042758  0.34535726  1
  O  O10  1  0.85042758  0.35607115  0.84535726  1
  O  O11  1  0.64392885  0.14957242  0.65464274  1
  F  F12  1  0.16829104  0.83170896  0.75000000  1
  F  F13  1  0.83170896  0.16829104  0.25000000  1
