# generated using pymatgen
data_Sr2ScGaO5
_symmetry_space_group_name_H-M   'P 1'
_cell_length_a   5.75879083
_cell_length_b   5.98075559
_cell_length_c   8.69188631
_cell_angle_alpha   110.12335674
_cell_angle_beta   109.34611669
_cell_angle_gamma   90.00000000
_symmetry_Int_Tables_number   1
_chemical_formula_structural   Sr2ScGaO5
_chemical_formula_sum   'Sr4 Sc2 Ga2 O10'
_cell_volume   263.01454277
_cell_formula_units_Z   2
loop_
 _symmetry_equiv_pos_site_id
 _symmetry_equiv_pos_as_xyz
  1  'x, y, z'
loop_
 _atom_site_type_symbol
 _atom_site_label
 _atom_site_symmetry_multiplicity
 _atom_site_fract_x
 _atom_site_fract_y
 _atom_site_fract_z
 _atom_site_occupancy
  Sr  Sr0  1  0.11497410  0.63217674  0.22280168  1
  Sr  Sr1  1  0.89217242  0.36782326  0.77719832  1
  Sr  Sr2  1  0.39217242  0.90937506  0.77719832  1
  Sr  Sr3  1  0.61497410  0.09062494  0.22280168  1
  Sc  Sc4  1  0.49893336  0.50000000  0.00000000  1
  Sc  Sc5  1  0.99893336  -0.00000000  0.00000000  1
  Ga  Ga6  1  0.28166766  0.32151279  0.50000000  1
  Ga  Ga7  1  0.78166766  0.67848721  0.50000000  1
  O  O8  1  0.23889949  0.74120204  0.97618028  1
  O  O9  1  0.26271922  0.25879796  0.02381972  1
  O  O10  1  0.76271922  0.26502177  0.02381972  1
  O  O11  1  0.73889949  0.73497823  0.97618028  1
  O  O12  1  0.62456930  0.71131225  0.28783351  1
  O  O13  1  0.33673580  0.28868775  0.71216649  1
  O  O14  1  0.83673580  0.92347874  0.71216649  1
  O  O15  1  0.12456930  0.07652126  0.28783351  1
  O  O16  1  0.10482866  0.59285554  0.50000000  1
  O  O17  1  0.60482866  0.40714446  0.50000000  1
