# generated using pymatgen
data_Dy3Ga8Ag3
_symmetry_space_group_name_H-M   'P 1'
_cell_length_a   4.43159610
_cell_length_b   8.31032698
_cell_length_c   8.31032698
_cell_angle_alpha   69.30034462
_cell_angle_beta   74.53605846
_cell_angle_gamma   74.53605846
_symmetry_Int_Tables_number   1
_chemical_formula_structural   Dy3Ga8Ag3
_chemical_formula_sum   'Dy3 Ga8 Ag3'
_cell_volume   270.84075069
_cell_formula_units_Z   1
loop_
 _symmetry_equiv_pos_site_id
 _symmetry_equiv_pos_as_xyz
  1  'x, y, z'
loop_
 _atom_site_type_symbol
 _atom_site_label
 _atom_site_symmetry_multiplicity
 _atom_site_fract_x
 _atom_site_fract_y
 _atom_site_fract_z
 _atom_site_occupancy
  Dy  Dy0  1  0.50000000  0.50000000  0.50000000  1
  Dy  Dy1  1  0.20331608  0.79668392  0.79668392  1
  Dy  Dy2  1  0.79668392  0.20331608  0.20331608  1
  Ga  Ga3  1  0.35650533  0.36203578  0.92495356  1
  Ga  Ga4  1  0.64349467  0.63796422  0.07504644  1
  Ga  Ga5  1  0.35650533  0.92495356  0.36203578  1
  Ga  Ga6  1  0.64349467  0.07504644  0.63796422  1
  Ga  Ga7  1  0.15826107  0.47443152  0.20904635  1
  Ga  Ga8  1  0.84173893  0.52556848  0.79095365  1
  Ga  Ga9  1  0.15826107  0.20904635  0.47443152  1
  Ga  Ga10  1  0.84173893  0.79095365  0.52556848  1
  Ag  Ag11  1  0.50000000  0.00000000  0.00000000  1
  Ag  Ag12  1  -0.00000000  0.80963247  0.19036753  1
  Ag  Ag13  1  -0.00000000  0.19036753  0.80963247  1
