# generated using pymatgen
data_Co3Se4(ClO5)2
_symmetry_space_group_name_H-M   'P 1'
_cell_length_a   5.92749359
_cell_length_b   7.47955523
_cell_length_c   7.96995427
_cell_angle_alpha   62.01538133
_cell_angle_beta   81.78320846
_cell_angle_gamma   72.26716017
_symmetry_Int_Tables_number   1
_chemical_formula_structural   Co3Se4(ClO5)2
_chemical_formula_sum   'Co3 Se4 Cl2 O10'
_cell_volume   297.20675749
_cell_formula_units_Z   1
loop_
 _symmetry_equiv_pos_site_id
 _symmetry_equiv_pos_as_xyz
  1  'x, y, z'
loop_
 _atom_site_type_symbol
 _atom_site_label
 _atom_site_symmetry_multiplicity
 _atom_site_fract_x
 _atom_site_fract_y
 _atom_site_fract_z
 _atom_site_occupancy
  Co  Co0  1  0.00000000  -0.00000000  0.00000000  1
  Co  Co1  1  0.50000000  0.12781171  0.74437658  1
  Co  Co2  1  0.50000000  0.87218829  0.25562342  1
  Se  Se3  1  0.22485424  0.81595757  0.67881247  1
  Se  Se4  1  0.22485424  0.49477004  0.32118753  1
  Se  Se5  1  0.77514576  0.18404243  0.32118753  1
  Se  Se6  1  0.77514576  0.50522996  0.67881247  1
  Cl  Cl7  1  0.25319442  0.20193933  0.00000000  1
  Cl  Cl8  1  0.74680558  0.79806067  0.00000000  1
  O  O9  1  0.23663964  0.96950253  0.78395149  1
  O  O10  1  0.23663964  0.75345402  0.21604851  1
  O  O11  1  0.76336036  0.03049747  0.21604851  1
  O  O12  1  0.76336036  0.24654598  0.78395149  1
  O  O13  1  0.28606789  0.96249396  0.44859530  1
  O  O14  1  0.28606789  0.41108926  0.55140470  1
  O  O15  1  0.71393211  0.03750604  0.55140470  1
  O  O16  1  0.71393211  0.58891074  0.44859530  1
  O  O17  1  0.50000000  0.61034492  0.77931016  1
  O  O18  1  0.50000000  0.38965508  0.22068984  1
