# generated using pymatgen
data_TlSb(PSe3)2
_symmetry_space_group_name_H-M   'P 1'
_cell_length_a   7.03999955
_cell_length_b   8.08707837
_cell_length_c   10.19709310
_cell_angle_alpha   90.00000000
_cell_angle_beta   91.04912969
_cell_angle_gamma   90.00000000
_symmetry_Int_Tables_number   1
_chemical_formula_structural   TlSb(PSe3)2
_chemical_formula_sum   'Tl2 Sb2 P4 Se12'
_cell_volume   580.45406588
_cell_formula_units_Z   2
loop_
 _symmetry_equiv_pos_site_id
 _symmetry_equiv_pos_as_xyz
  1  'x, y, z'
loop_
 _atom_site_type_symbol
 _atom_site_label
 _atom_site_symmetry_multiplicity
 _atom_site_fract_x
 _atom_site_fract_y
 _atom_site_fract_z
 _atom_site_occupancy
  Tl  Tl0  1  0.81290806  0.21978971  0.99654760  1
  Tl  Tl1  1  0.18709194  0.71978971  0.00345240  1
  Sb  Sb2  1  0.68446747  0.50388367  0.51700407  1
  Sb  Sb3  1  0.31553253  0.00388367  0.48299593  1
  P  P4  1  0.70127677  0.71213662  0.80604018  1
  P  P5  1  0.29872323  0.21213662  0.19395982  1
  P  P6  1  0.80360811  0.92354760  0.67696177  1
  P  P7  1  0.19639189  0.42354760  0.32303823  1
  Se  Se8  1  0.92829348  0.51894193  0.24181152  1
  Se  Se9  1  0.07170652  0.01894193  0.75818848  1
  Se  Se10  1  0.84281498  0.80290745  0.47807013  1
  Se  Se11  1  0.15718502  0.30290745  0.52192987  1
  Se  Se12  1  0.91252101  0.51597438  0.77128978  1
  Se  Se13  1  0.08747899  0.01597438  0.22871022  1
  Se  Se14  1  0.33540123  0.30175220  0.99840433  1
  Se  Se15  1  0.66459877  0.80175220  0.00159567  1
  Se  Se16  1  0.43902671  0.63103845  0.69406431  1
  Se  Se17  1  0.56097329  0.13103845  0.30593569  1
  Se  Se18  1  0.57906018  0.11869798  0.67533221  1
  Se  Se19  1  0.42093982  0.61869798  0.32466779  1
