# generated using pymatgen
data_BPd6
_symmetry_space_group_name_H-M   'P 1'
_cell_length_a   5.01014076
_cell_length_b   5.01014076
_cell_length_c   9.07717257
_cell_angle_alpha   100.67142237
_cell_angle_beta   100.67142237
_cell_angle_gamma   109.20865421
_symmetry_Int_Tables_number   1
_chemical_formula_structural   BPd6
_chemical_formula_sum   'B2 Pd12'
_cell_volume   203.87339679
_cell_formula_units_Z   2
loop_
 _symmetry_equiv_pos_site_id
 _symmetry_equiv_pos_as_xyz
  1  'x, y, z'
loop_
 _atom_site_type_symbol
 _atom_site_label
 _atom_site_symmetry_multiplicity
 _atom_site_fract_x
 _atom_site_fract_y
 _atom_site_fract_z
 _atom_site_occupancy
  B  B0  1  0.37500000  0.12500000  0.25000000  1
  B  B1  1  0.62500000  0.87500000  0.75000000  1
  Pd  Pd2  1  0.03481639  0.78388608  0.08055968  1
  Pd  Pd3  1  0.20332640  0.95425671  0.41944032  1
  Pd  Pd4  1  0.71611392  0.46518361  0.41944032  1
  Pd  Pd5  1  0.54574329  0.29667360  0.08055968  1
  Pd  Pd6  1  0.96518361  0.21611392  0.91944032  1
  Pd  Pd7  1  0.79667360  0.04574329  0.58055968  1
  Pd  Pd8  1  0.28388608  0.53481639  0.58055968  1
  Pd  Pd9  1  0.45425671  0.70332640  0.91944032  1
  Pd  Pd10  1  0.12049795  0.37950205  0.25000000  1
  Pd  Pd11  1  0.62950205  0.87049795  0.25000000  1
  Pd  Pd12  1  0.87950205  0.62049795  0.75000000  1
  Pd  Pd13  1  0.37049795  0.12950205  0.75000000  1
