# generated using pymatgen
data_TlHgCl3
_symmetry_space_group_name_H-M   'P 1'
_cell_length_a   4.49179238
_cell_length_b   9.51238150
_cell_length_c   14.15843617
_cell_angle_alpha   90.00000000
_cell_angle_beta   90.00000000
_cell_angle_gamma   90.00000000
_symmetry_Int_Tables_number   1
_chemical_formula_structural   TlHgCl3
_chemical_formula_sum   'Tl4 Hg4 Cl12'
_cell_volume   604.95660239
_cell_formula_units_Z   4
loop_
 _symmetry_equiv_pos_site_id
 _symmetry_equiv_pos_as_xyz
  1  'x, y, z'
loop_
 _atom_site_type_symbol
 _atom_site_label
 _atom_site_symmetry_multiplicity
 _atom_site_fract_x
 _atom_site_fract_y
 _atom_site_fract_z
 _atom_site_occupancy
  Tl  Tl0  1  0.75000000  0.04937352  0.16719238  1
  Tl  Tl1  1  0.75000000  0.54937352  0.33280762  1
  Tl  Tl2  1  0.25000000  0.95062648  0.83280762  1
  Tl  Tl3  1  0.25000000  0.45062648  0.66719238  1
  Hg  Hg4  1  0.75000000  0.32547884  0.95404008  1
  Hg  Hg5  1  0.75000000  0.82547884  0.54595992  1
  Hg  Hg6  1  0.25000000  0.67452116  0.04595992  1
  Hg  Hg7  1  0.25000000  0.17452116  0.45404008  1
  Cl  Cl8  1  0.75000000  0.22880668  0.79589014  1
  Cl  Cl9  1  0.75000000  0.72880668  0.70410986  1
  Cl  Cl10  1  0.25000000  0.77119332  0.20410986  1
  Cl  Cl11  1  0.25000000  0.27119332  0.29589014  1
  Cl  Cl12  1  0.75000000  0.34448267  0.51548705  1
  Cl  Cl13  1  0.75000000  0.84448267  0.98451295  1
  Cl  Cl14  1  0.25000000  0.65551733  0.48451295  1
  Cl  Cl15  1  0.25000000  0.15551733  0.01548705  1
  Cl  Cl16  1  0.75000000  0.45704616  0.10165352  1
  Cl  Cl17  1  0.75000000  0.95704616  0.39834648  1
  Cl  Cl18  1  0.25000000  0.54295384  0.89834648  1
  Cl  Cl19  1  0.25000000  0.04295384  0.60165352  1
