# generated using pymatgen
data_Sr2YOsO6
_symmetry_space_group_name_H-M   'P 1'
_cell_length_a   5.84643932
_cell_length_b   5.88542643
_cell_length_c   8.27618058
_cell_angle_alpha   90.00000000
_cell_angle_beta   90.20385835
_cell_angle_gamma   90.00000000
_symmetry_Int_Tables_number   1
_chemical_formula_structural   Sr2YOsO6
_chemical_formula_sum   'Sr4 Y2 Os2 O12'
_cell_volume   284.77154443
_cell_formula_units_Z   2
loop_
 _symmetry_equiv_pos_site_id
 _symmetry_equiv_pos_as_xyz
  1  'x, y, z'
loop_
 _atom_site_type_symbol
 _atom_site_label
 _atom_site_symmetry_multiplicity
 _atom_site_fract_x
 _atom_site_fract_y
 _atom_site_fract_z
 _atom_site_occupancy
  Sr  Sr0  1  0.50686073  0.96641351  0.24907239  1
  Sr  Sr1  1  0.00686073  0.53358649  0.74907239  1
  Sr  Sr2  1  0.49313927  0.03358649  0.75092761  1
  Sr  Sr3  1  0.99313927  0.46641351  0.25092761  1
  Y  Y4  1  0.50000000  0.50000000  0.50000000  1
  Y  Y5  1  0.00000000  -0.00000000  -0.00000000  1
  Os  Os6  1  0.00000000  -0.00000000  0.50000000  1
  Os  Os7  1  0.50000000  0.50000000  -0.00000000  1
  O  O8  1  0.42508512  0.51906318  0.23369669  1
  O  O9  1  0.92508512  0.98093682  0.73369669  1
  O  O10  1  0.57491488  0.48093682  0.76630331  1
  O  O11  1  0.07491488  0.01906318  0.26630331  1
  O  O12  1  0.26999929  0.80019403  0.53872284  1
  O  O13  1  0.76999929  0.69980597  0.03872284  1
  O  O14  1  0.73000071  0.19980597  0.46127716  1
  O  O15  1  0.23000071  0.30019403  0.96127716  1
  O  O16  1  0.19646923  0.27122710  0.54005861  1
  O  O17  1  0.69646923  0.22877290  0.04005861  1
  O  O18  1  0.80353077  0.72877290  0.45994139  1
  O  O19  1  0.30353077  0.77122710  0.95994139  1
