# generated using pymatgen
data_AsPd3
_symmetry_space_group_name_H-M   'P 1'
_cell_length_a   4.92270182
_cell_length_b   7.57046827
_cell_length_c   7.57046827
_cell_angle_alpha   83.93212899
_cell_angle_beta   71.02683244
_cell_angle_gamma   71.02683244
_symmetry_Int_Tables_number   1
_chemical_formula_structural   AsPd3
_chemical_formula_sum   'As4 Pd12'
_cell_volume   252.30688667
_cell_formula_units_Z   4
loop_
 _symmetry_equiv_pos_site_id
 _symmetry_equiv_pos_as_xyz
  1  'x, y, z'
loop_
 _atom_site_type_symbol
 _atom_site_label
 _atom_site_symmetry_multiplicity
 _atom_site_fract_x
 _atom_site_fract_y
 _atom_site_fract_z
 _atom_site_occupancy
  As  As0  1  0.94052067  0.32516816  0.75954965  1
  As  As1  1  0.02523849  0.67483184  0.24045035  1
  As  As2  1  0.73431117  0.24045035  0.32516816  1
  As  As3  1  0.29992967  0.75954965  0.67483184  1
  Pd  Pd4  1  0.62683081  0.18929873  0.03195984  1
  Pd  Pd5  1  0.84808937  0.81070127  0.96804016  1
  Pd  Pd6  1  0.18387046  0.96804016  0.18929873  1
  Pd  Pd7  1  0.34120935  0.03195984  0.81070127  1
  Pd  Pd8  1  0.50968624  0.60597991  0.33404760  1
  Pd  Pd9  1  0.44971376  0.39402009  0.66595240  1
  Pd  Pd10  1  0.88433384  0.66595240  0.60597991  1
  Pd  Pd11  1  0.15626616  0.33404760  0.39402009  1
  Pd  Pd12  1  0.47205734  0.60616277  0.95326142  1
  Pd  Pd13  1  0.03148153  0.39383723  0.04673858  1
  Pd  Pd14  1  0.92177989  0.04673858  0.60616277  1
  Pd  Pd15  1  0.57468124  0.95326142  0.39383723  1
