# generated using pymatgen
data_CoBiAsO5
_symmetry_space_group_name_H-M   'P 1'
_cell_length_a   5.35687797
_cell_length_b   6.91012550
_cell_length_c   6.94165353
_cell_angle_alpha   110.86337355
_cell_angle_beta   107.71014754
_cell_angle_gamma   96.18448013
_symmetry_Int_Tables_number   1
_chemical_formula_structural   CoBiAsO5
_chemical_formula_sum   'Co2 Bi2 As2 O10'
_cell_volume   221.88905856
_cell_formula_units_Z   2
loop_
 _symmetry_equiv_pos_site_id
 _symmetry_equiv_pos_as_xyz
  1  'x, y, z'
loop_
 _atom_site_type_symbol
 _atom_site_label
 _atom_site_symmetry_multiplicity
 _atom_site_fract_x
 _atom_site_fract_y
 _atom_site_fract_z
 _atom_site_occupancy
  Co  Co0  1  0.66841030  0.63361429  0.26893496  1
  Co  Co1  1  0.33158970  0.36638571  0.73106504  1
  Bi  Bi2  1  0.90666707  0.23982791  0.97024852  1
  Bi  Bi3  1  0.09333293  0.76017209  0.02975148  1
  As  As4  1  0.34577353  0.81458031  0.61194003  1
  As  As5  1  0.65422647  0.18541969  0.38805997  1
  O  O6  1  0.63490510  0.75694489  0.57501904  1
  O  O7  1  0.36509490  0.24305511  0.42498096  1
  O  O8  1  0.08258675  0.77573093  0.37296492  1
  O  O9  1  0.91741325  0.22426907  0.62703508  1
  O  O10  1  0.27024682  0.49923588  0.04723658  1
  O  O11  1  0.72975318  0.50076412  0.95276342  1
  O  O12  1  0.42609582  0.08256321  0.79423872  1
  O  O13  1  0.57390418  0.91743679  0.20576128  1
  O  O14  1  0.23002844  0.65442255  0.72556224  1
  O  O15  1  0.76997156  0.34557745  0.27443776  1
