# generated using pymatgen
data_Ca(SnO2)2
_symmetry_space_group_name_H-M   'P 1'
_cell_length_a   6.69902351
_cell_length_b   6.43092767
_cell_length_c   27.86021116
_cell_angle_alpha   62.50592936
_cell_angle_beta   65.38690084
_cell_angle_gamma   61.31525593
_symmetry_Int_Tables_number   1
_chemical_formula_structural   Ca(SnO2)2
_chemical_formula_sum   'Ca8 Sn16 O32'
_cell_volume   904.25444762
_cell_formula_units_Z   8
loop_
 _symmetry_equiv_pos_site_id
 _symmetry_equiv_pos_as_xyz
  1  'x, y, z'
loop_
 _atom_site_type_symbol
 _atom_site_label
 _atom_site_symmetry_multiplicity
 _atom_site_fract_x
 _atom_site_fract_y
 _atom_site_fract_z
 _atom_site_occupancy
  Ca  Ca0  1  0.12466357  0.12361708  0.03202606  1
  Ca  Ca1  1  0.99849610  0.50094058  0.12490518  1
  Ca  Ca2  1  0.13935644  0.11999664  0.28016232  1
  Ca  Ca3  1  0.00897893  0.49093799  0.37728627  1
  Ca  Ca4  1  0.99856083  0.49914319  0.62578794  1
  Ca  Ca5  1  0.50085126  0.49750826  0.50103330  1
  Ca  Ca6  1  0.99010504  0.50833377  0.87330685  1
  Ca  Ca7  1  0.49311288  0.50331180  0.75006538  1
  Sn  Sn8  1  0.49739877  0.49950200  0.12641878  1
  Sn  Sn9  1  0.49272121  0.48326878  0.26018506  1
  Sn  Sn10  1  0.49739877  0.99742412  0.12641878  1
  Sn  Sn11  1  0.12717813  0.11823995  0.53408524  1
  Sn  Sn12  1  0.51044338  0.49431684  0.37620971  1
  Sn  Sn13  1  0.88461908  0.88222816  0.21273115  1
  Sn  Sn14  1  0.11674570  0.12024958  0.78568878  1
  Sn  Sn15  1  0.51044338  0.99040193  0.37620971  1
  Sn  Sn16  1  0.49937947  0.49981767  0.62532237  1
  Sn  Sn17  1  0.87813216  0.87476019  0.46808662  1
  Sn  Sn18  1  0.49937947  -0.00048662  0.62532237  1
  Sn  Sn19  1  0.48706466  0.00592856  0.87558768  1
  Sn  Sn20  1  0.48706466  0.50465607  0.87558768  1
  Sn  Sn21  1  0.86753174  0.88117147  0.71753083  1
  Sn  Sn22  1  0.48102168  0.49127531  0.00910718  1
  Sn  Sn23  1  0.87536285  0.88888577  0.96171616  1
  O  O24  1  0.27782809  0.23842917  0.07015807  1
  O  O25  1  0.29961671  0.24898003  0.17560581  1
  O  O26  1  0.27782809  0.70311245  0.07015807  1
  O  O27  1  0.69243120  0.25388312  0.07495089  1
  O  O28  1  0.28440894  0.76776688  0.17001383  1
  O  O29  1  0.28759141  0.23122371  0.31993293  1
  O  O30  1  0.75056688  0.26852353  0.17312782  1
  O  O31  1  0.32406823  0.25088843  0.41853823  1
  O  O32  1  0.28759141  0.70145315  0.31993293  1
  O  O33  1  0.68643668  0.73819452  0.08429332  1
  O  O34  1  0.71683079  0.24110741  0.32523910  1
  O  O35  1  0.75056688  0.78839830  0.17312782  1
  O  O36  1  0.27378833  0.23147716  0.56890908  1
  O  O37  1  0.31254590  0.74656182  0.42358237  1
  O  O38  1  0.73325598  0.27509744  0.43198947  1
  O  O39  1  0.30668565  0.25980527  0.66842620  1
  O  O40  1  0.27378833  0.71909719  0.56890908  1
  O  O41  1  0.70365917  0.73081319  0.33367836  1
  O  O42  1  0.69194511  0.25089992  0.57656377  1
  O  O43  1  0.73325598  0.76368968  0.43198947  1
  O  O44  1  0.30690655  0.75104539  0.67275042  1
  O  O45  1  0.26593857  0.23913549  0.81844293  1
  O  O46  1  0.72527613  0.28187523  0.68074310  1
  O  O47  1  0.28396215  0.25667943  0.92566925  1
  O  O48  1  0.26593857  0.72115224  0.81844293  1
  O  O49  1  0.69298444  0.74101300  0.58124764  1
  O  O50  1  0.66554388  0.26342254  0.82690276  1
  O  O51  1  0.72527613  0.76987824  0.68074310  1
  O  O52  1  0.27712774  0.77449906  0.91846878  1
  O  O53  1  0.74153490  0.27712867  0.92246823  1
  O  O54  1  0.67727713  0.74787774  0.83174160  1
  O  O55  1  0.74153490  0.79146250  0.92246823  1
