# generated using pymatgen
data_Cs2PaF7
_symmetry_space_group_name_H-M   'P 1'
_cell_length_a   7.40238026
_cell_length_b   8.20922404
_cell_length_c   8.49343179
_cell_angle_alpha   118.73161018
_cell_angle_beta   90.00000000
_cell_angle_gamma   116.79870986
_symmetry_Int_Tables_number   1
_chemical_formula_structural   Cs2PaF7
_chemical_formula_sum   'Cs4 Pa2 F14'
_cell_volume   388.17703236
_cell_formula_units_Z   2
loop_
 _symmetry_equiv_pos_site_id
 _symmetry_equiv_pos_as_xyz
  1  'x, y, z'
loop_
 _atom_site_type_symbol
 _atom_site_label
 _atom_site_symmetry_multiplicity
 _atom_site_fract_x
 _atom_site_fract_y
 _atom_site_fract_z
 _atom_site_occupancy
  Cs  Cs0  1  0.84274772  0.66028821  0.38137599  1
  Cs  Cs1  1  0.18245951  0.33971179  0.11862401  1
  Cs  Cs2  1  0.15725228  0.33971179  0.61862401  1
  Cs  Cs3  1  0.81754049  0.66028821  0.88137599  1
  Pa  Pa4  1  0.46809489  0.00000000  0.25000000  1
  Pa  Pa5  1  0.53190511  1.00000000  0.75000000  1
  F  F6  1  0.55387236  0.86338674  0.92155830  1
  F  F7  1  0.69048562  0.13661326  0.57844170  1
  F  F8  1  0.44612764  0.13661326  0.07844170  1
  F  F9  1  0.30951438  0.86338674  0.42155830  1
  F  F10  1  0.59641000  0.79269203  0.21255930  1
  F  F11  1  0.80371798  0.20730797  0.28744070  1
  F  F12  1  0.40359000  0.20730797  0.78744070  1
  F  F13  1  0.19628202  0.79269203  0.71255930  1
  F  F14  1  0.54543649  0.32390138  0.47101740  1
  F  F15  1  0.22153511  0.67609862  0.02898260  1
  F  F16  1  0.45456351  0.67609862  0.52898260  1
  F  F17  1  0.77846489  0.32390138  0.97101740  1
  F  F18  1  0.16691723  1.00000000  0.25000000  1
  F  F19  1  0.83308277  0.00000000  0.75000000  1
