# generated using pymatgen
data_BH(PbO2)2
_symmetry_space_group_name_H-M   'P 1'
_cell_length_a   5.85106676
_cell_length_b   7.21102611
_cell_length_c   7.63110345
_cell_angle_alpha   114.15242525
_cell_angle_beta   90.00000000
_cell_angle_gamma   113.93517480
_symmetry_Int_Tables_number   1
_chemical_formula_structural   BH(PbO2)2
_chemical_formula_sum   'B2 H2 Pb4 O8'
_cell_volume   263.15041541
_cell_formula_units_Z   2
loop_
 _symmetry_equiv_pos_site_id
 _symmetry_equiv_pos_as_xyz
  1  'x, y, z'
loop_
 _atom_site_type_symbol
 _atom_site_label
 _atom_site_symmetry_multiplicity
 _atom_site_fract_x
 _atom_site_fract_y
 _atom_site_fract_z
 _atom_site_occupancy
  B  B0  1  0.32956673  0.65913347  0.33834394  1
  B  B1  1  0.67043327  0.34086653  0.66165606  1
  H  H2  1  0.45426531  0.90853061  0.60916090  1
  H  H3  1  0.54573469  0.09146939  0.39083910  1
  Pb  Pb4  1  0.05939886  0.11879771  0.26084045  1
  Pb  Pb5  1  0.94060114  0.88120229  0.73915955  1
  Pb  Pb6  1  0.65186883  0.30373765  0.06272900  1
  Pb  Pb7  1  0.34813117  0.69626235  0.93727100  1
  O  O8  1  0.40960004  0.81920008  0.26819736  1
  O  O9  1  0.59039996  0.18079992  0.73180264  1
  O  O10  1  0.36804199  0.73608398  0.54344661  1
  O  O11  1  0.63195801  0.26391602  0.45655339  1
  O  O12  1  0.21559838  0.43119676  0.21277406  1
  O  O13  1  0.78440162  0.56880324  0.78722594  1
  O  O14  1  0.74713426  0.00000000  0.00000000  1
  O  O15  1  0.25286574  -0.00000000  -0.00000000  1
