# generated using pymatgen
data_Ba5In4Te4S7
_symmetry_space_group_name_H-M   'P 1'
_cell_length_a   4.44631331
_cell_length_b   7.46967957
_cell_length_c   20.39703455
_cell_angle_alpha   100.55078627
_cell_angle_beta   96.25733374
_cell_angle_gamma   90.00000000
_symmetry_Int_Tables_number   1
_chemical_formula_structural   Ba5In4Te4S7
_chemical_formula_sum   'Ba5 In4 Te4 S7'
_cell_volume   661.87806114
_cell_formula_units_Z   1
loop_
 _symmetry_equiv_pos_site_id
 _symmetry_equiv_pos_as_xyz
  1  'x, y, z'
loop_
 _atom_site_type_symbol
 _atom_site_label
 _atom_site_symmetry_multiplicity
 _atom_site_fract_x
 _atom_site_fract_y
 _atom_site_fract_z
 _atom_site_occupancy
  Ba  Ba0  1  -0.00000000  0.15642286  -0.00000000  1
  Ba  Ba1  1  0.18476790  0.69009713  0.36953580  1
  Ba  Ba2  1  0.81523210  0.32056133  0.63046420  1
  Ba  Ba3  1  0.11379354  0.11909303  0.22758708  1
  Ba  Ba4  1  0.88620646  0.89150594  0.77241292  1
  In  In5  1  0.55401535  0.70160879  0.10803071  1
  In  In6  1  0.44598465  0.59357808  0.89196929  1
  In  In7  1  0.69823686  0.22323166  0.39647372  1
  In  In8  1  0.30176314  0.82675794  0.60352628  1
  Te  Te9  1  0.08918571  0.59357979  0.17837142  1
  Te  Te10  1  0.91081429  0.41520838  0.82162858  1
  Te  Te11  1  0.24064650  0.32705105  0.48129301  1
  Te  Te12  1  0.75935350  0.84575804  0.51870699  1
  S  S13  1  0.50000000  0.47356301  -0.00000000  1
  S  S14  1  0.55265691  0.03308375  0.10531383  1
  S  S15  1  0.44734309  0.92776992  0.89468617  1
  S  S16  1  0.65339150  0.41128600  0.30678299  1
  S  S17  1  0.34660850  0.10450301  0.69321701  1
  S  S18  1  0.65849142  0.93042656  0.31698285  1
  S  S19  1  0.34150858  0.61344371  0.68301715  1
