# generated using pymatgen
data_BaLa2PdO5
_symmetry_space_group_name_H-M   'P 1'
_cell_length_a   5.99747550
_cell_length_b   6.92370254
_cell_length_c   6.92370254
_cell_angle_alpha   90.00000000
_cell_angle_beta   90.00000000
_cell_angle_gamma   90.00000000
_symmetry_Int_Tables_number   1
_chemical_formula_structural   BaLa2PdO5
_chemical_formula_sum   'Ba2 La4 Pd2 O10'
_cell_volume   287.50492256
_cell_formula_units_Z   2
loop_
 _symmetry_equiv_pos_site_id
 _symmetry_equiv_pos_as_xyz
  1  'x, y, z'
loop_
 _atom_site_type_symbol
 _atom_site_label
 _atom_site_symmetry_multiplicity
 _atom_site_fract_x
 _atom_site_fract_y
 _atom_site_fract_z
 _atom_site_occupancy
  Ba  Ba0  1  0.00000000  0.50000000  0.50000000  1
  Ba  Ba1  1  0.00000000  0.00000000  -0.00000000  1
  La  La2  1  0.50000000  0.17647012  0.67647012  1
  La  La3  1  0.50000000  0.82352988  0.32352988  1
  La  La4  1  0.50000000  0.32352988  0.17647012  1
  La  La5  1  0.50000000  0.67647012  0.82352988  1
  Pd  Pd6  1  -0.00000000  0.00000000  0.50000000  1
  Pd  Pd7  1  0.00000000  0.50000000  -0.00000000  1
  O  O8  1  0.24654188  0.35819087  0.85819087  1
  O  O9  1  0.24654188  0.64180913  0.14180913  1
  O  O10  1  0.24654188  0.14180913  0.35819087  1
  O  O11  1  0.24654188  0.85819087  0.64180913  1
  O  O12  1  0.75345812  0.64180913  0.14180913  1
  O  O13  1  0.75345812  0.35819087  0.85819087  1
  O  O14  1  0.75345812  0.85819087  0.64180913  1
  O  O15  1  0.75345812  0.14180913  0.35819087  1
  O  O16  1  0.50000000  0.50000000  0.50000000  1
  O  O17  1  0.50000000  0.00000000  -0.00000000  1
