# generated using pymatgen
data_TiP2O7
_symmetry_space_group_name_H-M   'P 1'
_cell_length_a   6.44141472
_cell_length_b   6.34083094
_cell_length_c   6.94922050
_cell_angle_alpha   114.38290632
_cell_angle_beta   91.91942225
_cell_angle_gamma   84.26600890
_symmetry_Int_Tables_number   1
_chemical_formula_structural   TiP2O7
_chemical_formula_sum   'Ti2 P4 O14'
_cell_volume   257.21451631
_cell_formula_units_Z   2
loop_
 _symmetry_equiv_pos_site_id
 _symmetry_equiv_pos_as_xyz
  1  'x, y, z'
loop_
 _atom_site_type_symbol
 _atom_site_label
 _atom_site_symmetry_multiplicity
 _atom_site_fract_x
 _atom_site_fract_y
 _atom_site_fract_z
 _atom_site_occupancy
  Ti  Ti0  1  0.66165836  0.08764917  0.20927968  1
  Ti  Ti1  1  0.33834454  0.91235117  0.79071581  1
  P  P2  1  0.38331360  0.33927758  0.64496557  1
  P  P3  1  0.61668614  0.66072311  0.35503653  1
  P  P4  1  0.13745860  0.23541678  0.24107891  1
  P  P5  1  0.86253619  0.76460364  0.75891296  1
  O  O6  1  0.61368357  0.40077893  0.21864265  1
  O  O7  1  0.90906787  0.56622997  0.81443059  1
  O  O8  1  0.09093895  0.43375244  0.18557766  1
  O  O9  1  0.05121398  0.91370174  0.77570166  1
  O  O10  1  0.19388333  0.30380900  0.48608400  1
  O  O11  1  0.34860662  0.21130775  0.78323434  1
  O  O12  1  0.33054994  0.05837743  0.11618709  1
  O  O13  1  0.38631327  0.59922100  0.78135734  1
  O  O14  1  0.80611362  0.69618466  0.51392212  1
  O  O15  1  0.57946342  0.23075039  0.50444225  1
  O  O16  1  0.94878537  0.08629683  0.22429643  1
  O  O17  1  0.66945214  0.94161601  0.88381403  1
  O  O18  1  0.65139401  0.78869556  0.21676645  1
  O  O19  1  0.42053747  0.76925485  0.49555492  1
