# generated using pymatgen
data_BaFe2(PO4)2
_symmetry_space_group_name_H-M   'P 1'
_cell_length_a   4.91986177
_cell_length_b   4.93703434
_cell_length_c   8.45394782
_cell_angle_alpha   105.41427921
_cell_angle_beta   105.00176210
_cell_angle_gamma   60.21487712
_symmetry_Int_Tables_number   1
_chemical_formula_structural   BaFe2(PO4)2
_chemical_formula_sum   'Ba1 Fe2 P2 O8'
_cell_volume   169.82002797
_cell_formula_units_Z   1
loop_
 _symmetry_equiv_pos_site_id
 _symmetry_equiv_pos_as_xyz
  1  'x, y, z'
loop_
 _atom_site_type_symbol
 _atom_site_label
 _atom_site_symmetry_multiplicity
 _atom_site_fract_x
 _atom_site_fract_y
 _atom_site_fract_z
 _atom_site_occupancy
  Ba  Ba0  1  0.00000000  -0.00000000  -0.00000000  1
  Fe  Fe1  1  0.17960632  0.15194964  0.50912901  1
  Fe  Fe2  1  0.82039368  0.84805036  0.49087099  1
  P  P3  1  0.57937356  0.56799078  0.72201017  1
  P  P4  1  0.42062644  0.43200922  0.27798983  1
  O  O5  1  0.84351477  0.55423760  0.64476632  1
  O  O6  1  0.15648523  0.44576240  0.35523368  1
  O  O7  1  0.65091170  0.63167500  0.91142851  1
  O  O8  1  0.34908830  0.36832500  0.08857149  1
  O  O9  1  0.24942423  0.84213876  0.66317084  1
  O  O10  1  0.75057577  0.15786124  0.33682916  1
  O  O11  1  0.56767340  0.24350085  0.66551064  1
  O  O12  1  0.43232660  0.75649915  0.33448936  1
