# generated using pymatgen
data_Rb2AgPS4
_symmetry_space_group_name_H-M   'P 1'
_cell_length_a   6.72437095
_cell_length_b   7.03628935
_cell_length_c   11.14737555
_cell_angle_alpha   95.62048286
_cell_angle_beta   106.98833540
_cell_angle_gamma   111.13387691
_symmetry_Int_Tables_number   1
_chemical_formula_structural   Rb2AgPS4
_chemical_formula_sum   'Rb4 Ag2 P2 S8'
_cell_volume   458.11234030
_cell_formula_units_Z   2
loop_
 _symmetry_equiv_pos_site_id
 _symmetry_equiv_pos_as_xyz
  1  'x, y, z'
loop_
 _atom_site_type_symbol
 _atom_site_label
 _atom_site_symmetry_multiplicity
 _atom_site_fract_x
 _atom_site_fract_y
 _atom_site_fract_z
 _atom_site_occupancy
  Rb  Rb0  1  0.84936292  0.72874300  0.10048335  1
  Rb  Rb1  1  0.15063708  0.27125700  0.89951665  1
  Rb  Rb2  1  0.44077028  0.97803112  0.68782453  1
  Rb  Rb3  1  0.55922972  0.02196888  0.31217547  1
  Ag  Ag4  1  0.77945706  0.58732043  0.41681957  1
  Ag  Ag5  1  0.22054294  0.41267957  0.58318043  1
  P  P6  1  0.86652817  0.64281085  0.73248601  1
  P  P7  1  0.13347183  0.35718915  0.26751399  1
  S  S8  1  0.14680761  0.76796685  0.89734579  1
  S  S9  1  0.85319239  0.23203315  0.10265421  1
  S  S10  1  0.57295953  0.55969433  0.77970205  1
  S  S11  1  0.42704047  0.44030567  0.22029795  1
  S  S12  1  0.87535551  0.86085298  0.62105213  1
  S  S13  1  0.12464449  0.13914702  0.37894787  1
  S  S14  1  0.85112458  0.37481723  0.62616152  1
  S  S15  1  0.14887542  0.62518277  0.37383848  1
