# generated using pymatgen
data_Ce5(FeB3)2
_symmetry_space_group_name_H-M   'P 1'
_cell_length_a   5.31400145
_cell_length_b   5.31400145
_cell_length_c   8.52907056
_cell_angle_alpha   71.84896963
_cell_angle_beta   71.84896963
_cell_angle_gamma   60.00000359
_symmetry_Int_Tables_number   1
_chemical_formula_structural   Ce5(FeB3)2
_chemical_formula_sum   'Ce5 Fe2 B6'
_cell_volume   194.61942483
_cell_formula_units_Z   1
loop_
 _symmetry_equiv_pos_site_id
 _symmetry_equiv_pos_as_xyz
  1  'x, y, z'
loop_
 _atom_site_type_symbol
 _atom_site_label
 _atom_site_symmetry_multiplicity
 _atom_site_fract_x
 _atom_site_fract_y
 _atom_site_fract_z
 _atom_site_occupancy
  Ce  Ce0  1  -0.00000000  0.00000000  0.00000000  1
  Ce  Ce1  1  0.25277986  0.25277986  0.24166041  1
  Ce  Ce2  1  0.74722014  0.74722014  0.75833959  1
  Ce  Ce3  1  0.41421378  0.41421378  0.75735866  1
  Ce  Ce4  1  0.58578622  0.58578622  0.24264134  1
  Fe  Fe5  1  0.11682351  0.11682351  0.64952948  1
  Fe  Fe6  1  0.88317649  0.88317649  0.35047052  1
  B  B7  1  0.16821079  0.83178921  0.50000000  1
  B  B8  1  0.83178921  0.50000000  0.50000000  1
  B  B9  1  0.50000000  0.16821079  0.50000000  1
  B  B10  1  0.16821079  0.50000000  0.50000000  1
  B  B11  1  0.50000000  0.83178921  0.50000000  1
  B  B12  1  0.83178921  0.16821079  0.50000000  1
