# generated using pymatgen
data_Ba2InBiSe5
_symmetry_space_group_name_H-M   'P 1'
_cell_length_a   4.37906788
_cell_length_b   9.97104531
_cell_length_c   13.42813356
_cell_angle_alpha   90.00000000
_cell_angle_beta   90.00000000
_cell_angle_gamma   102.68490635
_symmetry_Int_Tables_number   1
_chemical_formula_structural   Ba2InBiSe5
_chemical_formula_sum   'Ba4 In2 Bi2 Se10'
_cell_volume   572.01371073
_cell_formula_units_Z   2
loop_
 _symmetry_equiv_pos_site_id
 _symmetry_equiv_pos_as_xyz
  1  'x, y, z'
loop_
 _atom_site_type_symbol
 _atom_site_label
 _atom_site_symmetry_multiplicity
 _atom_site_fract_x
 _atom_site_fract_y
 _atom_site_fract_z
 _atom_site_occupancy
  Ba  Ba0  1  0.61318494  0.22636988  0.14588093  1
  Ba  Ba1  1  0.38681506  0.77363012  0.64588093  1
  Ba  Ba2  1  0.37184983  0.74369966  0.01975549  1
  Ba  Ba3  1  0.62815017  0.25630034  0.51975549  1
  In  In4  1  0.05920337  0.11840673  0.88827561  1
  In  In5  1  0.94079663  0.88159327  0.38827561  1
  Bi  Bi6  1  0.71732098  0.43464195  0.80898848  1
  Bi  Bi7  1  0.28267902  0.56535805  0.30898848  1
  Se  Se8  1  0.21654084  0.43308168  0.66361213  1
  Se  Se9  1  0.78345916  0.56691832  0.16361213  1
  Se  Se10  1  0.99660697  0.99321394  0.05747830  1
  Se  Se11  1  0.00339303  0.00678606  0.55747830  1
  Se  Se12  1  0.54588021  0.09176042  0.77607832  1
  Se  Se13  1  0.45411979  0.90823958  0.27607832  1
  Se  Se14  1  0.85822011  0.71644023  0.83025255  1
  Se  Se15  1  0.14177989  0.28355977  0.33025255  1
  Se  Se16  1  0.18747328  0.37494657  0.96409818  1
  Se  Se17  1  0.81252672  0.62505343  0.46409818  1
