# generated using pymatgen
data_YCrTeO6
_symmetry_space_group_name_H-M   'P 1'
_cell_length_a   5.19189055
_cell_length_b   5.19098307
_cell_length_c   9.83498372
_cell_angle_alpha   90.00403768
_cell_angle_beta   89.99798156
_cell_angle_gamma   119.99421710
_symmetry_Int_Tables_number   1
_chemical_formula_structural   YCrTeO6
_chemical_formula_sum   'Y2 Cr2 Te2 O12'
_cell_volume   229.56449560
_cell_formula_units_Z   2
loop_
 _symmetry_equiv_pos_site_id
 _symmetry_equiv_pos_as_xyz
  1  'x, y, z'
loop_
 _atom_site_type_symbol
 _atom_site_label
 _atom_site_symmetry_multiplicity
 _atom_site_fract_x
 _atom_site_fract_y
 _atom_site_fract_z
 _atom_site_occupancy
  Y  Y0  1  -0.00000000  0.00000000  -0.00000000  1
  Y  Y1  1  -0.00000000  0.00000000  0.50000000  1
  Cr  Cr2  1  0.33301347  0.66650673  0.25000000  1
  Cr  Cr3  1  0.66698653  0.33349327  0.75000000  1
  Te  Te4  1  0.33352456  0.66676228  0.75000000  1
  Te  Te5  1  0.66647544  0.33323772  0.25000000  1
  O  O6  1  0.36533872  0.35540666  0.13969377  1
  O  O7  1  0.64447582  0.00991560  0.13971919  1
  O  O8  1  0.98993342  0.63454577  0.13968355  1
  O  O9  1  0.63466128  0.64459334  0.86030623  1
  O  O10  1  0.35552418  0.99008440  0.86028081  1
  O  O11  1  0.01006658  0.36545423  0.86031645  1
  O  O12  1  0.64447582  0.63456022  0.36028081  1
  O  O13  1  0.36533872  0.00993206  0.36030623  1
  O  O14  1  0.98993342  0.35538764  0.36031645  1
  O  O15  1  0.35552418  0.36543978  0.63971919  1
  O  O16  1  0.63466128  0.99006794  0.63969377  1
  O  O17  1  0.01006658  0.64461236  0.63968355  1
