# generated using pymatgen
data_Sr2YbSbO6
_symmetry_space_group_name_H-M   'P 1'
_cell_length_a   5.88563000
_cell_length_b   5.93672407
_cell_length_c   8.33324003
_cell_angle_alpha   90.00000000
_cell_angle_beta   90.08589326
_cell_angle_gamma   90.00000000
_symmetry_Int_Tables_number   1
_chemical_formula_structural   Sr2YbSbO6
_chemical_formula_sum   'Sr4 Yb2 Sb2 O12'
_cell_volume   291.17442378
_cell_formula_units_Z   2
loop_
 _symmetry_equiv_pos_site_id
 _symmetry_equiv_pos_as_xyz
  1  'x, y, z'
loop_
 _atom_site_type_symbol
 _atom_site_label
 _atom_site_symmetry_multiplicity
 _atom_site_fract_x
 _atom_site_fract_y
 _atom_site_fract_z
 _atom_site_occupancy
  Sr  Sr0  1  0.49225168  0.53669527  0.24988578  1
  Sr  Sr1  1  0.99225168  0.96330473  0.74988578  1
  Sr  Sr2  1  0.50774832  0.46330473  0.75011422  1
  Sr  Sr3  1  0.00774832  0.03669527  0.25011422  1
  Yb  Yb4  1  0.00000000  0.50000000  0.50000000  1
  Yb  Yb5  1  0.50000000  -0.00000000  0.00000000  1
  Sb  Sb6  1  0.50000000  -0.00000000  0.50000000  1
  Sb  Sb7  1  0.00000000  0.50000000  0.00000000  1
  O  O8  1  0.22916462  0.80167902  0.45954104  1
  O  O9  1  0.72916462  0.69832098  0.95954104  1
  O  O10  1  0.77083538  0.19832098  0.54045896  1
  O  O11  1  0.27083538  0.30167902  0.04045896  1
  O  O12  1  0.19455262  0.77141798  0.04402946  1
  O  O13  1  0.69455262  0.72858202  0.54402946  1
  O  O14  1  0.80544738  0.22858202  0.95597054  1
  O  O15  1  0.30544738  0.27141798  0.45597054  1
  O  O16  1  0.58028851  0.97594141  0.26630570  1
  O  O17  1  0.08028851  0.52405859  0.76630570  1
  O  O18  1  0.41971149  0.02405859  0.73369430  1
  O  O19  1  0.91971149  0.47594141  0.23369430  1
