# generated using pymatgen
data_Eu3Pd2
_symmetry_space_group_name_H-M   'P 1'
_cell_length_a   7.91483316
_cell_length_b   7.91483316
_cell_length_c   7.91483306
_cell_angle_alpha   71.90120213
_cell_angle_beta   71.90120213
_cell_angle_gamma   71.90120399
_symmetry_Int_Tables_number   1
_chemical_formula_structural   Eu3Pd2
_chemical_formula_sum   'Eu9 Pd6'
_cell_volume   435.20553939
_cell_formula_units_Z   3
loop_
 _symmetry_equiv_pos_site_id
 _symmetry_equiv_pos_as_xyz
  1  'x, y, z'
loop_
 _atom_site_type_symbol
 _atom_site_label
 _atom_site_symmetry_multiplicity
 _atom_site_fract_x
 _atom_site_fract_y
 _atom_site_fract_z
 _atom_site_occupancy
  Eu  Eu0  1  0.50000000  0.50000000  0.50000000  1
  Eu  Eu1  1  0.70505068  0.70505068  0.70505068  1
  Eu  Eu2  1  0.29494932  0.29494932  0.29494932  1
  Eu  Eu3  1  0.16841675  0.88942355  0.66144586  1
  Eu  Eu4  1  0.88942355  0.66144586  0.16841675  1
  Eu  Eu5  1  0.66144586  0.16841675  0.88942355  1
  Eu  Eu6  1  0.83158325  0.11057645  0.33855414  1
  Eu  Eu7  1  0.11057645  0.33855414  0.83158325  1
  Eu  Eu8  1  0.33855414  0.83158325  0.11057645  1
  Pd  Pd9  1  0.54055486  0.90959587  0.34994374  1
  Pd  Pd10  1  0.90959587  0.34994374  0.54055486  1
  Pd  Pd11  1  0.34994374  0.54055486  0.90959587  1
  Pd  Pd12  1  0.45944514  0.09040413  0.65005626  1
  Pd  Pd13  1  0.09040413  0.65005626  0.45944514  1
  Pd  Pd14  1  0.65005626  0.45944514  0.09040413  1
