# generated using pymatgen
data_Ba3Rh(CN)3
_symmetry_space_group_name_H-M   'P 1'
_cell_length_a   5.90090822
_cell_length_b   9.29294121
_cell_length_c   9.29294121
_cell_angle_alpha   120.00000155
_cell_angle_beta   90.00000000
_cell_angle_gamma   90.00000000
_symmetry_Int_Tables_number   1
_chemical_formula_structural   Ba3Rh(CN)3
_chemical_formula_sum   'Ba6 Rh2 C6 N6'
_cell_volume   441.32229092
_cell_formula_units_Z   2
loop_
 _symmetry_equiv_pos_site_id
 _symmetry_equiv_pos_as_xyz
  1  'x, y, z'
loop_
 _atom_site_type_symbol
 _atom_site_label
 _atom_site_symmetry_multiplicity
 _atom_site_fract_x
 _atom_site_fract_y
 _atom_site_fract_z
 _atom_site_occupancy
  Ba  Ba0  1  0.75000000  0.07012635  0.69153498  1
  Ba  Ba1  1  0.75000000  0.30846502  0.37859137  1
  Ba  Ba2  1  0.75000000  0.62140863  0.92987365  1
  Ba  Ba3  1  0.25000000  0.92987365  0.30846502  1
  Ba  Ba4  1  0.25000000  0.69153498  0.62140863  1
  Ba  Ba5  1  0.25000000  0.37859137  0.07012635  1
  Rh  Rh6  1  0.75000000  0.66666600  0.33333300  1
  Rh  Rh7  1  0.25000000  0.33333400  0.66666700  1
  C  C8  1  0.75000000  0.70000159  0.55556764  1
  C  C9  1  0.75000000  0.44443236  0.14443395  1
  C  C10  1  0.75000000  0.85556605  0.29999841  1
  C  C11  1  0.25000000  0.29999841  0.44443236  1
  C  C12  1  0.25000000  0.55556764  0.85556605  1
  C  C13  1  0.25000000  0.14443395  0.70000159  1
  N  N14  1  0.75000000  0.73044710  0.70088848  1
  N  N15  1  0.75000000  0.29911152  0.02955862  1
  N  N16  1  0.75000000  0.97044138  0.26955290  1
  N  N17  1  0.25000000  0.26955290  0.29911152  1
  N  N18  1  0.25000000  0.70088848  0.97044138  1
  N  N19  1  0.25000000  0.02955862  0.73044710  1
