# generated using pymatgen
data_Li2MnSnS4
_symmetry_space_group_name_H-M   'P 1'
_cell_length_a   6.48499397
_cell_length_b   6.87729905
_cell_length_c   8.05035869
_cell_angle_alpha   90.00000000
_cell_angle_beta   90.30417750
_cell_angle_gamma   90.00000000
_symmetry_Int_Tables_number   1
_chemical_formula_structural   Li2MnSnS4
_chemical_formula_sum   'Li4 Mn2 Sn2 S8'
_cell_volume   359.03484275
_cell_formula_units_Z   2
loop_
 _symmetry_equiv_pos_site_id
 _symmetry_equiv_pos_as_xyz
  1  'x, y, z'
loop_
 _atom_site_type_symbol
 _atom_site_label
 _atom_site_symmetry_multiplicity
 _atom_site_fract_x
 _atom_site_fract_y
 _atom_site_fract_z
 _atom_site_occupancy
  Li  Li0  1  0.60775242  0.33826206  0.76875133  1
  Li  Li1  1  0.10775242  0.66173794  0.26875133  1
  Li  Li2  1  0.60480866  0.83132827  0.52455427  1
  Li  Li3  1  0.10480866  0.16867173  0.02455427  1
  Mn  Mn4  1  0.10686271  0.17114274  0.52649617  1
  Mn  Mn5  1  0.60686271  0.82885726  0.02649617  1
  Sn  Sn6  1  0.10683503  0.67169286  0.77166110  1
  Sn  Sn7  1  0.60683503  0.32830714  0.27166110  1
  S  S8  1  0.22771350  0.33770047  0.77195498  1
  S  S9  1  0.72771350  0.66229953  0.27195498  1
  S  S10  1  0.22558784  0.83873491  0.52445157  1
  S  S11  1  0.72558784  0.16126509  0.02445157  1
  S  S12  1  0.23728402  0.83277940  0.01935439  1
  S  S13  1  0.73728402  0.16722060  0.51935439  1
  S  S14  1  0.73312583  0.67607756  0.77767618  1
  S  S15  1  0.23312583  0.32392244  0.27767618  1
