# generated using pymatgen
data_AlHSO5
_symmetry_space_group_name_H-M   'P 1'
_cell_length_a   5.09557594
_cell_length_b   5.09557594
_cell_length_c   7.07540901
_cell_angle_alpha   70.09534052
_cell_angle_beta   70.09534052
_cell_angle_gamma   90.77659053
_symmetry_Int_Tables_number   1
_chemical_formula_structural   AlHSO5
_chemical_formula_sum   'Al2 H2 S2 O10'
_cell_volume   160.66722339
_cell_formula_units_Z   2
loop_
 _symmetry_equiv_pos_site_id
 _symmetry_equiv_pos_as_xyz
  1  'x, y, z'
loop_
 _atom_site_type_symbol
 _atom_site_label
 _atom_site_symmetry_multiplicity
 _atom_site_fract_x
 _atom_site_fract_y
 _atom_site_fract_z
 _atom_site_occupancy
  Al  Al0  1  0.50000000  0.50000000  0.50000000  1
  Al  Al1  1  0.50000000  0.50000000  -0.00000000  1
  H  H2  1  0.28060041  0.71939959  0.25000000  1
  H  H3  1  0.71939959  0.28060041  0.75000000  1
  S  S4  1  0.86912269  0.13087731  0.25000000  1
  S  S5  1  0.13087731  0.86912269  0.75000000  1
  O  O6  1  0.17927571  0.19534276  0.15045590  1
  O  O7  1  0.80465724  0.82072429  0.34954410  1
  O  O8  1  0.82072429  0.80465724  0.84954410  1
  O  O9  1  0.19534276  0.17927571  0.65045590  1
  O  O10  1  0.76055021  0.25849843  0.41664304  1
  O  O11  1  0.74150157  0.23944979  0.08335696  1
  O  O12  1  0.23944979  0.74150157  0.58335696  1
  O  O13  1  0.25849843  0.76055021  0.91664304  1
  O  O14  1  0.41521664  0.58478336  0.25000000  1
  O  O15  1  0.58478336  0.41521664  0.75000000  1
