# generated using pymatgen
data_Dy12Co5Sn
_symmetry_space_group_name_H-M   'P 1'
_cell_length_a   8.34623692
_cell_length_b   8.34623692
_cell_length_c   8.34623692
_cell_angle_alpha   107.10016163
_cell_angle_beta   110.41895183
_cell_angle_gamma   110.92066536
_symmetry_Int_Tables_number   1
_chemical_formula_structural   Dy12Co5Sn
_chemical_formula_sum   'Dy12 Co5 Sn1'
_cell_volume   446.97811161
_cell_formula_units_Z   1
loop_
 _symmetry_equiv_pos_site_id
 _symmetry_equiv_pos_as_xyz
  1  'x, y, z'
loop_
 _atom_site_type_symbol
 _atom_site_label
 _atom_site_symmetry_multiplicity
 _atom_site_fract_x
 _atom_site_fract_y
 _atom_site_fract_z
 _atom_site_occupancy
  Dy  Dy0  1  0.52834691  0.71203885  0.81630806  1
  Dy  Dy1  1  0.89573079  0.71203885  0.18369194  1
  Dy  Dy2  1  0.10426921  0.28796115  0.81630806  1
  Dy  Dy3  1  0.47165309  0.28796115  0.18369194  1
  Dy  Dy4  1  0.69637486  0.01018042  0.31380556  1
  Dy  Dy5  1  0.69637486  0.38256930  0.68619444  1
  Dy  Dy6  1  0.30362514  0.98981958  0.68619444  1
  Dy  Dy7  1  0.30362514  0.61743070  0.31380556  1
  Dy  Dy8  1  0.80412548  0.21227441  0.01639989  1
  Dy  Dy9  1  0.19587452  0.78772559  0.98360011  1
  Dy  Dy10  1  0.80412548  0.78772559  0.59185107  1
  Dy  Dy11  1  0.19587452  0.21227441  0.40814893  1
  Co  Co12  1  0.50000000  0.61291356  0.11291356  1
  Co  Co13  1  0.50000000  0.38708644  0.88708644  1
  Co  Co14  1  0.62208455  0.00000000  0.62208455  1
  Co  Co15  1  0.37791545  -0.00000000  0.37791545  1
  Co  Co16  1  0.00000000  0.00000000  0.00000000  1
  Sn  Sn17  1  0.00000000  0.50000000  0.50000000  1
