# generated using pymatgen
data_Ca2FeOsO6
_symmetry_space_group_name_H-M   'P 1'
_cell_length_a   5.44968851
_cell_length_b   5.58241198
_cell_length_c   7.76737488
_cell_angle_alpha   90.00000000
_cell_angle_beta   90.02706349
_cell_angle_gamma   90.00000000
_symmetry_Int_Tables_number   1
_chemical_formula_structural   Ca2FeOsO6
_chemical_formula_sum   'Ca4 Fe2 Os2 O12'
_cell_volume   236.30220916
_cell_formula_units_Z   2
loop_
 _symmetry_equiv_pos_site_id
 _symmetry_equiv_pos_as_xyz
  1  'x, y, z'
loop_
 _atom_site_type_symbol
 _atom_site_label
 _atom_site_symmetry_multiplicity
 _atom_site_fract_x
 _atom_site_fract_y
 _atom_site_fract_z
 _atom_site_occupancy
  Ca  Ca0  1  0.48901027  0.45007209  0.25104213  1
  Ca  Ca1  1  0.98901027  0.04992791  0.75104213  1
  Ca  Ca2  1  0.51098973  0.54992791  0.74895787  1
  Ca  Ca3  1  0.01098973  0.95007209  0.24895787  1
  Fe  Fe4  1  0.50000000  -0.00000000  0.50000000  1
  Fe  Fe5  1  -0.00000000  0.50000000  -0.00000000  1
  Os  Os6  1  -0.00000000  0.50000000  0.50000000  1
  Os  Os7  1  0.50000000  -0.00000000  0.00000000  1
  O  O8  1  0.29407385  0.70204196  0.45519130  1
  O  O9  1  0.79407385  0.79795804  0.95519130  1
  O  O10  1  0.70592615  0.29795804  0.54480870  1
  O  O11  1  0.20592615  0.20204196  0.04480870  1
  O  O12  1  0.30200056  0.70774661  0.04745656  1
  O  O13  1  0.80200056  0.79225339  0.54745656  1
  O  O14  1  0.69799944  0.29225339  0.95254344  1
  O  O15  1  0.19799944  0.20774661  0.45254344  1
  O  O16  1  0.91202794  0.52606524  0.25254976  1
  O  O17  1  0.41202794  0.97393476  0.75254976  1
  O  O18  1  0.08797206  0.47393476  0.74745024  1
  O  O19  1  0.58797206  0.02606524  0.24745024  1
