# generated using pymatgen
data_V5Ge3
_symmetry_space_group_name_H-M   'P 1'
_cell_length_a   4.85306559
_cell_length_b   7.19274480
_cell_length_c   7.19274480
_cell_angle_alpha   83.46497029
_cell_angle_beta   70.28398894
_cell_angle_gamma   70.28398894
_symmetry_Int_Tables_number   1
_chemical_formula_structural   V5Ge3
_chemical_formula_sum   'V10 Ge6'
_cell_volume   222.50101278
_cell_formula_units_Z   2
loop_
 _symmetry_equiv_pos_site_id
 _symmetry_equiv_pos_as_xyz
  1  'x, y, z'
loop_
 _atom_site_type_symbol
 _atom_site_label
 _atom_site_symmetry_multiplicity
 _atom_site_fract_x
 _atom_site_fract_y
 _atom_site_fract_z
 _atom_site_occupancy
  V  V0  1  0.72858918  0.84627927  0.69654237  1
  V  V1  1  0.27141082  0.15372073  0.30345763  1
  V  V2  1  0.77141082  0.30345763  0.15372073  1
  V  V3  1  0.22858918  0.69654237  0.84627927  1
  V  V4  1  0.57486845  0.69654237  0.15372073  1
  V  V5  1  0.42513155  0.30345763  0.84627927  1
  V  V6  1  0.07486845  0.15372073  0.69654237  1
  V  V7  1  0.92513155  0.84627927  0.30345763  1
  V  V8  1  0.75000000  0.50000000  0.50000000  1
  V  V9  1  0.25000000  0.50000000  0.50000000  1
  Ge  Ge10  1  0.16639395  0.50000000  0.16721211  1
  Ge  Ge11  1  0.83360605  0.50000000  0.83278789  1
  Ge  Ge12  1  0.33360605  0.83278789  0.50000000  1
  Ge  Ge13  1  0.66639395  0.16721211  0.50000000  1
  Ge  Ge14  1  0.25000000  0.00000000  -0.00000000  1
  Ge  Ge15  1  0.75000000  0.00000000  -0.00000000  1
