# generated using pymatgen
data_YZr4O10
_symmetry_space_group_name_H-M   'P 1'
_cell_length_a   5.22050527
_cell_length_b   6.37982425
_cell_length_c   6.37982425
_cell_angle_alpha   99.63651318
_cell_angle_beta   114.15093940
_cell_angle_gamma   65.84906067
_symmetry_Int_Tables_number   1
_chemical_formula_structural   YZr4O10
_chemical_formula_sum   'Y1 Zr4 O10'
_cell_volume   176.91632373
_cell_formula_units_Z   1
loop_
 _symmetry_equiv_pos_site_id
 _symmetry_equiv_pos_as_xyz
  1  'x, y, z'
loop_
 _atom_site_type_symbol
 _atom_site_label
 _atom_site_symmetry_multiplicity
 _atom_site_fract_x
 _atom_site_fract_y
 _atom_site_fract_z
 _atom_site_occupancy
  Y  Y0  1  -0.00000000  0.00000000  0.00000000  1
  Zr  Zr1  1  0.60106026  0.19846697  0.40058750  1
  Zr  Zr2  1  0.20047277  0.40058750  0.80153303  1
  Zr  Zr3  1  0.79952723  0.59941250  0.19846697  1
  Zr  Zr4  1  0.39893974  0.80153303  0.59941250  1
  O  O5  1  0.25000000  0.50000000  0.50000000  1
  O  O6  1  0.84393494  0.69098237  0.89485257  1
  O  O7  1  0.46508269  0.89485257  0.30901763  1
  O  O8  1  0.05091763  0.10514743  0.69098237  1
  O  O9  1  0.64006474  0.30901763  0.10514743  1
  O  O10  1  0.15606506  0.30901763  0.10514743  1
  O  O11  1  0.75000000  0.50000000  0.50000000  1
  O  O12  1  0.35993526  0.69098237  0.89485257  1
  O  O13  1  0.94908237  0.89485257  0.30901763  1
  O  O14  1  0.53491731  0.10514743  0.69098237  1
