# generated using pymatgen
data_Ca2NiWO6
_symmetry_space_group_name_H-M   'P 1'
_cell_length_a   5.59163175
_cell_length_b   5.65580701
_cell_length_c   7.87905493
_cell_angle_alpha   89.80844601
_cell_angle_beta   134.97175929
_cell_angle_gamma   120.46354865
_symmetry_Int_Tables_number   1
_chemical_formula_structural   Ca2NiWO6
_chemical_formula_sum   'Ca2 Ni1 W1 O6'
_cell_volume   123.54704398
_cell_formula_units_Z   1
loop_
 _symmetry_equiv_pos_site_id
 _symmetry_equiv_pos_as_xyz
  1  'x, y, z'
loop_
 _atom_site_type_symbol
 _atom_site_label
 _atom_site_symmetry_multiplicity
 _atom_site_fract_x
 _atom_site_fract_y
 _atom_site_fract_z
 _atom_site_occupancy
  Ca  Ca0  1  0.00684149  0.53635346  0.25201438  1
  Ca  Ca1  1  0.99922962  0.53060371  0.75322558  1
  Ni  Ni2  1  0.00116489  0.98242502  0.49938008  1
  W  W3  1  0.00004188  0.97976075  0.99851282  1
  O  O4  1  0.01777242  0.97587859  0.25193406  1
  O  O5  1  0.98447951  0.95616832  0.74603650  1
  O  O6  1  0.49478707  0.46242025  0.23957013  1
  O  O7  1  0.48828034  0.95203148  0.74490812  1
  O  O8  1  0.47557131  0.96353527  0.23437434  1
  O  O9  1  0.52929646  0.48827916  0.76652099  1
