# generated using pymatgen
data_SbPbF7
_symmetry_space_group_name_H-M   'P 1'
_cell_length_a   4.84269228
_cell_length_b   7.58165966
_cell_length_c   7.88374404
_cell_angle_alpha   106.18502133
_cell_angle_beta   102.14537106
_cell_angle_gamma   90.46265952
_symmetry_Int_Tables_number   1
_chemical_formula_structural   SbPbF7
_chemical_formula_sum   'Sb2 Pb2 F14'
_cell_volume   271.07536268
_cell_formula_units_Z   2
loop_
 _symmetry_equiv_pos_site_id
 _symmetry_equiv_pos_as_xyz
  1  'x, y, z'
loop_
 _atom_site_type_symbol
 _atom_site_label
 _atom_site_symmetry_multiplicity
 _atom_site_fract_x
 _atom_site_fract_y
 _atom_site_fract_z
 _atom_site_occupancy
  Sb  Sb0  1  0.35439827  0.18527529  0.28416255  1
  Sb  Sb1  1  0.64560173  0.81472471  0.71583745  1
  Pb  Pb2  1  0.83370250  0.64415554  0.19467950  1
  Pb  Pb3  1  0.16629750  0.35584446  0.80532050  1
  F  F4  1  0.72217541  0.43263073  0.91190571  1
  F  F5  1  0.27782459  0.56736927  0.08809429  1
  F  F6  1  0.05980169  0.05439611  0.33691549  1
  F  F7  1  0.94019831  0.94560389  0.66308451  1
  F  F8  1  0.49083492  0.95453014  0.17664310  1
  F  F9  1  0.50916508  0.04546986  0.82335690  1
  F  F10  1  0.58235465  0.20246457  0.51998161  1
  F  F11  1  0.41764535  0.79753543  0.48001839  1
  F  F12  1  0.64905580  0.31834711  0.23064791  1
  F  F13  1  0.35094420  0.68165289  0.76935209  1
  F  F14  1  0.20563230  0.41351042  0.39277164  1
  F  F15  1  0.79436770  0.58648958  0.60722836  1
  F  F16  1  0.12437208  0.18639996  0.05194429  1
  F  F17  1  0.87562792  0.81360004  0.94805571  1
