# generated using pymatgen
data_Sm3B(SO)3
_symmetry_space_group_name_H-M   'P 1'
_cell_length_a   4.05066510
_cell_length_b   7.71546109
_cell_length_c   11.31060788
_cell_angle_alpha   91.05483497
_cell_angle_beta   91.43612591
_cell_angle_gamma   90.57277720
_symmetry_Int_Tables_number   1
_chemical_formula_structural   Sm3B(SO)3
_chemical_formula_sum   'Sm6 B2 S6 O6'
_cell_volume   353.29732827
_cell_formula_units_Z   2
loop_
 _symmetry_equiv_pos_site_id
 _symmetry_equiv_pos_as_xyz
  1  'x, y, z'
loop_
 _atom_site_type_symbol
 _atom_site_label
 _atom_site_symmetry_multiplicity
 _atom_site_fract_x
 _atom_site_fract_y
 _atom_site_fract_z
 _atom_site_occupancy
  Sm  Sm0  1  0.76533584  0.13918489  0.64742192  1
  Sm  Sm1  1  0.23466416  0.86081511  0.35257808  1
  Sm  Sm2  1  0.72710080  0.23816869  0.00572416  1
  Sm  Sm3  1  0.27289920  0.76183131  0.99427584  1
  Sm  Sm4  1  0.72945616  0.63003133  0.67609409  1
  Sm  Sm5  1  0.27054384  0.36996867  0.32390591  1
  B  B6  1  0.10905951  0.43984087  0.85147016  1
  B  B7  1  0.89094049  0.56015913  0.14852984  1
  S  S8  1  0.26537211  0.37306873  0.58215458  1
  S  S9  1  0.73462789  0.62693127  0.41784542  1
  S  S10  1  0.75117954  0.94109922  0.86071718  1
  S  S11  1  0.24882046  0.05890078  0.13928282  1
  S  S12  1  0.75306181  0.11598820  0.39492568  1
  S  S13  1  0.24693819  0.88401180  0.60507432  1
  O  O14  1  0.23495777  0.37078230  0.95451136  1
  O  O15  1  0.76504223  0.62921770  0.04548864  1
  O  O16  1  0.78108108  0.40160290  0.18888607  1
  O  O17  1  0.21891892  0.59839710  0.81111393  1
  O  O18  1  0.82477641  0.36343048  0.80115581  1
  O  O19  1  0.17522359  0.63656952  0.19884419  1
