# generated using pymatgen
data_Ca2ScOsO6
_symmetry_space_group_name_H-M   'P 1'
_cell_length_a   5.50882426
_cell_length_b   5.66734575
_cell_length_c   7.88344773
_cell_angle_alpha   90.00000000
_cell_angle_beta   89.81033273
_cell_angle_gamma   90.00000000
_symmetry_Int_Tables_number   1
_chemical_formula_structural   Ca2ScOsO6
_chemical_formula_sum   'Ca4 Sc2 Os2 O12'
_cell_volume   246.12313532
_cell_formula_units_Z   2
loop_
 _symmetry_equiv_pos_site_id
 _symmetry_equiv_pos_as_xyz
  1  'x, y, z'
loop_
 _atom_site_type_symbol
 _atom_site_label
 _atom_site_symmetry_multiplicity
 _atom_site_fract_x
 _atom_site_fract_y
 _atom_site_fract_z
 _atom_site_occupancy
  Ca  Ca0  1  0.51172511  0.55216675  0.24981824  1
  Ca  Ca1  1  0.01172511  0.94783325  0.74981824  1
  Ca  Ca2  1  0.48827489  0.44783325  0.75018176  1
  Ca  Ca3  1  0.98827489  0.05216675  0.25018176  1
  Sc  Sc4  1  -0.00000000  0.50000000  0.50000000  1
  Sc  Sc5  1  0.50000000  -0.00000000  0.00000000  1
  Os  Os6  1  -0.00000000  0.50000000  0.00000000  1
  Os  Os7  1  0.50000000  -0.00000000  0.50000000  1
  O  O8  1  0.40671702  0.96993950  0.25768058  1
  O  O9  1  0.90671702  0.53006050  0.75768058  1
  O  O10  1  0.59328298  0.03006050  0.74231942  1
  O  O11  1  0.09328298  0.46993950  0.24231942  1
  O  O12  1  0.79138607  0.80373136  0.45193142  1
  O  O13  1  0.29138607  0.69626864  0.95193142  1
  O  O14  1  0.20861393  0.19626864  0.54806858  1
  O  O15  1  0.70861393  0.30373136  0.04806858  1
  O  O16  1  0.30816961  0.71017736  0.55014454  1
  O  O17  1  0.80816961  0.78982264  0.05014454  1
  O  O18  1  0.69183039  0.28982264  0.44985546  1
  O  O19  1  0.19183039  0.21017736  0.94985546  1
