# generated using pymatgen
data_Li7(Eu2Bi3)2
_symmetry_space_group_name_H-M   'P 1'
_cell_length_a   4.83339813
_cell_length_b   9.12383436
_cell_length_c   10.78968615
_cell_angle_alpha   79.83786609
_cell_angle_beta   77.05695719
_cell_angle_gamma   74.64032198
_symmetry_Int_Tables_number   1
_chemical_formula_structural   Li7(Eu2Bi3)2
_chemical_formula_sum   'Li7 Eu4 Bi6'
_cell_volume   443.67810273
_cell_formula_units_Z   1
loop_
 _symmetry_equiv_pos_site_id
 _symmetry_equiv_pos_as_xyz
  1  'x, y, z'
loop_
 _atom_site_type_symbol
 _atom_site_label
 _atom_site_symmetry_multiplicity
 _atom_site_fract_x
 _atom_site_fract_y
 _atom_site_fract_z
 _atom_site_occupancy
  Li  Li0  1  0.05055229  0.21854947  0.68034596  1
  Li  Li1  1  0.94944771  0.78145053  0.31965404  1
  Li  Li2  1  0.23751081  0.61290268  0.91207570  1
  Li  Li3  1  0.76248919  0.38709732  0.08792430  1
  Li  Li4  1  0.41749606  0.50871801  0.65628988  1
  Li  Li5  1  0.58250394  0.49128199  0.34371012  1
  Li  Li6  1  0.00000000  0.50000000  0.50000000  1
  Eu  Eu7  1  0.25930808  0.14144937  0.33993447  1
  Eu  Eu8  1  0.74069192  0.85855063  0.66006553  1
  Eu  Eu9  1  0.43236022  0.22167792  0.91360163  1
  Eu  Eu10  1  0.56763978  0.77832208  0.08639837  1
  Bi  Bi11  1  0.09438120  0.94462032  0.86661728  1
  Bi  Bi12  1  0.90561880  0.05537968  0.13338272  1
  Bi  Bi13  1  0.15435081  0.50613501  0.18516337  1
  Bi  Bi14  1  0.84564919  0.49386499  0.81483663  1
  Bi  Bi15  1  0.38464019  0.76768118  0.46303845  1
  Bi  Bi16  1  0.61535981  0.23231882  0.53696155  1
