# generated using pymatgen
data_SmTl(PSe3)2
_symmetry_space_group_name_H-M   'P 1'
_cell_length_a   6.91199832
_cell_length_b   7.75592677
_cell_length_c   10.35507968
_cell_angle_alpha   90.00000000
_cell_angle_beta   91.00056066
_cell_angle_gamma   90.00000000
_symmetry_Int_Tables_number   1
_chemical_formula_structural   SmTl(PSe3)2
_chemical_formula_sum   'Sm2 Tl2 P4 Se12'
_cell_volume   555.04033461
_cell_formula_units_Z   2
loop_
 _symmetry_equiv_pos_site_id
 _symmetry_equiv_pos_as_xyz
  1  'x, y, z'
loop_
 _atom_site_type_symbol
 _atom_site_label
 _atom_site_symmetry_multiplicity
 _atom_site_fract_x
 _atom_site_fract_y
 _atom_site_fract_z
 _atom_site_occupancy
  Sm  Sm0  1  0.71345492  0.50216764  0.50244024  1
  Sm  Sm1  1  0.28654508  0.00216764  0.49755976  1
  Tl  Tl2  1  0.18769048  0.78351914  0.99349619  1
  Tl  Tl3  1  0.81230952  0.28351914  0.00650381  1
  P  P4  1  0.69193396  0.77579220  0.79817395  1
  P  P5  1  0.30806604  0.27579220  0.20182605  1
  P  P6  1  0.81155780  0.99317289  0.67714200  1
  P  P7  1  0.18844220  0.49317289  0.32285800  1
  Se  Se8  1  0.90296389  0.56871368  0.76954975  1
  Se  Se9  1  0.09703611  0.06871368  0.23045025  1
  Se  Se10  1  0.91152496  0.58898094  0.24309264  1
  Se  Se11  1  0.08847504  0.08898094  0.75690736  1
  Se  Se12  1  0.65618428  0.86748158  0.99309525  1
  Se  Se13  1  0.34381572  0.36748158  0.00690475  1
  Se  Se14  1  0.43210626  0.69402079  0.67820467  1
  Se  Se15  1  0.56789374  0.19402079  0.32179533  1
  Se  Se16  1  0.86358404  0.87337443  0.48349665  1
  Se  Se17  1  0.13641596  0.37337443  0.51650335  1
  Se  Se18  1  0.57647749  0.19086671  0.67462428  1
  Se  Se19  1  0.42352251  0.69086671  0.32537572  1
