# generated using pymatgen
data_NaYMnWO6
_symmetry_space_group_name_H-M   'P 1'
_cell_length_a   5.47628789
_cell_length_b   5.67769200
_cell_length_c   7.99925970
_cell_angle_alpha   90.00000000
_cell_angle_beta   90.13833927
_cell_angle_gamma   90.00000000
_symmetry_Int_Tables_number   1
_chemical_formula_structural   NaYMnWO6
_chemical_formula_sum   'Na2 Y2 Mn2 W2 O12'
_cell_volume   248.71766471
_cell_formula_units_Z   2
loop_
 _symmetry_equiv_pos_site_id
 _symmetry_equiv_pos_as_xyz
  1  'x, y, z'
loop_
 _atom_site_type_symbol
 _atom_site_label
 _atom_site_symmetry_multiplicity
 _atom_site_fract_x
 _atom_site_fract_y
 _atom_site_fract_z
 _atom_site_occupancy
  Na  Na0  1  0.25323139  0.73751646  0.00096649  1
  Na  Na1  1  0.74676861  0.23751646  0.99903351  1
  Y  Y2  1  0.26600819  0.83642242  0.50175074  1
  Y  Y3  1  0.73399181  0.33642242  0.49824926  1
  Mn  Mn4  1  0.75283938  0.78023196  0.24299203  1
  Mn  Mn5  1  0.24716062  0.28023196  0.75700797  1
  W  W6  1  0.76267901  0.76964143  0.75650961  1
  W  W7  1  0.23732099  0.26964143  0.24349039  1
  O  O8  1  0.56905555  0.04515609  0.67709686  1
  O  O9  1  0.43094445  0.54515609  0.32290314  1
  O  O10  1  0.53038074  0.07872047  0.32104469  1
  O  O11  1  0.46961926  0.57872047  0.67895531  1
  O  O12  1  0.93784922  0.43605813  0.22487753  1
  O  O13  1  0.06215078  0.93605813  0.77512247  1
  O  O14  1  0.91066935  0.46520793  0.78474593  1
  O  O15  1  0.08933065  0.96520793  0.21525407  1
  O  O16  1  0.86634077  0.72546701  0.50693637  1
  O  O17  1  0.13365923  0.22546701  0.49306363  1
  O  O18  1  0.67030696  0.80898810  0.97948495  1
  O  O19  1  0.32969304  0.30898810  0.02051505  1
