# generated using pymatgen
data_Sr2DyMoO6
_symmetry_space_group_name_H-M   'P 1'
_cell_length_a   5.84015392
_cell_length_b   5.88528780
_cell_length_c   8.35864320
_cell_angle_alpha   90.00000000
_cell_angle_beta   90.53704863
_cell_angle_gamma   90.00000000
_symmetry_Int_Tables_number   1
_chemical_formula_structural   Sr2DyMoO6
_chemical_formula_sum   'Sr4 Dy2 Mo2 O12'
_cell_volume   287.28219335
_cell_formula_units_Z   2
loop_
 _symmetry_equiv_pos_site_id
 _symmetry_equiv_pos_as_xyz
  1  'x, y, z'
loop_
 _atom_site_type_symbol
 _atom_site_label
 _atom_site_symmetry_multiplicity
 _atom_site_fract_x
 _atom_site_fract_y
 _atom_site_fract_z
 _atom_site_occupancy
  Sr  Sr0  1  0.49667335  0.53464110  0.25199628  1
  Sr  Sr1  1  0.99667335  0.96535890  0.75199628  1
  Sr  Sr2  1  0.50332665  0.46535890  0.74800372  1
  Sr  Sr3  1  0.00332665  0.03464110  0.24800372  1
  Dy  Dy4  1  0.00000000  0.50000000  0.50000000  1
  Dy  Dy5  1  0.50000000  0.00000000  0.00000000  1
  Mo  Mo6  1  0.50000000  0.00000000  0.50000000  1
  Mo  Mo7  1  0.00000000  0.50000000  0.00000000  1
  O  O8  1  0.22796273  0.81041204  0.46460613  1
  O  O9  1  0.72796273  0.68958796  0.96460613  1
  O  O10  1  0.77203727  0.18958796  0.53539387  1
  O  O11  1  0.27203727  0.31041204  0.03539387  1
  O  O12  1  0.19419965  0.78159702  0.04035941  1
  O  O13  1  0.69419965  0.71840298  0.54035941  1
  O  O14  1  0.80580035  0.21840298  0.95964059  1
  O  O15  1  0.30580035  0.28159702  0.45964059  1
  O  O16  1  0.57499693  0.98304514  0.26305780  1
  O  O17  1  0.07499693  0.51695486  0.76305780  1
  O  O18  1  0.42500307  0.01695486  0.73694220  1
  O  O19  1  0.92500307  0.48304514  0.23694220  1
