# generated using pymatgen
data_TlCuCl3
_symmetry_space_group_name_H-M   'P 1'
_cell_length_a   4.16750685
_cell_length_b   9.20521304
_cell_length_c   14.18037130
_cell_angle_alpha   90.00000000
_cell_angle_beta   90.00000000
_cell_angle_gamma   100.24650323
_symmetry_Int_Tables_number   1
_chemical_formula_structural   TlCuCl3
_chemical_formula_sum   'Tl4 Cu4 Cl12'
_cell_volume   535.32265270
_cell_formula_units_Z   4
loop_
 _symmetry_equiv_pos_site_id
 _symmetry_equiv_pos_as_xyz
  1  'x, y, z'
loop_
 _atom_site_type_symbol
 _atom_site_label
 _atom_site_symmetry_multiplicity
 _atom_site_fract_x
 _atom_site_fract_y
 _atom_site_fract_z
 _atom_site_occupancy
  Tl  Tl0  1  0.24449329  0.94678073  0.66767648  1
  Tl  Tl1  1  0.75550671  0.55321927  0.16767648  1
  Tl  Tl2  1  0.75550671  0.05321927  0.33232352  1
  Tl  Tl3  1  0.24449329  0.44678073  0.83232352  1
  Cu  Cu4  1  0.75461956  0.35011232  0.54831825  1
  Cu  Cu5  1  0.24538044  0.14988768  0.04831825  1
  Cu  Cu6  1  0.24538044  0.64988768  0.45168175  1
  Cu  Cu7  1  0.75461956  0.85011232  0.95168175  1
  Cl  Cl8  1  0.71940670  0.24406444  0.69319597  1
  Cl  Cl9  1  0.28059330  0.25593556  0.19319597  1
  Cl  Cl10  1  0.28059330  0.75593556  0.30680403  1
  Cl  Cl11  1  0.71940670  0.74406444  0.80680403  1
  Cl  Cl12  1  0.31653753  0.17989644  0.49245074  1
  Cl  Cl13  1  0.68346247  0.32010356  0.99245074  1
  Cl  Cl14  1  0.68346247  0.82010356  0.50754926  1
  Cl  Cl15  1  0.31653753  0.67989644  0.00754926  1
  Cl  Cl16  1  0.18737643  0.53051514  0.59482660  1
  Cl  Cl17  1  0.81262357  0.96948486  0.09482660  1
  Cl  Cl18  1  0.81262357  0.46948486  0.40517340  1
  Cl  Cl19  1  0.18737643  0.03051514  0.90517340  1
