# generated using pymatgen
data_Sr2GdMoO6
_symmetry_space_group_name_H-M   'P 1'
_cell_length_a   5.89824035
_cell_length_b   5.98219072
_cell_length_c   8.33871260
_cell_angle_alpha   90.00000000
_cell_angle_beta   90.69671595
_cell_angle_gamma   90.00000000
_symmetry_Int_Tables_number   1
_chemical_formula_structural   Sr2GdMoO6
_chemical_formula_sum   'Sr4 Gd2 Mo2 O12'
_cell_volume   294.20470740
_cell_formula_units_Z   2
loop_
 _symmetry_equiv_pos_site_id
 _symmetry_equiv_pos_as_xyz
  1  'x, y, z'
loop_
 _atom_site_type_symbol
 _atom_site_label
 _atom_site_symmetry_multiplicity
 _atom_site_fract_x
 _atom_site_fract_y
 _atom_site_fract_z
 _atom_site_occupancy
  Sr  Sr0  1  0.48831056  0.53727117  0.25082849  1
  Sr  Sr1  1  0.98831056  0.96272883  0.75082849  1
  Sr  Sr2  1  0.51168944  0.46272883  0.74917151  1
  Sr  Sr3  1  0.01168944  0.03727117  0.24917151  1
  Gd  Gd4  1  -0.00000000  0.50000000  0.50000000  1
  Gd  Gd5  1  0.50000000  0.00000000  -0.00000000  1
  Mo  Mo6  1  0.50000000  0.00000000  0.50000000  1
  Mo  Mo7  1  -0.00000000  0.50000000  -0.00000000  1
  O  O8  1  0.23331100  0.80156024  0.45890496  1
  O  O9  1  0.73331100  0.69843976  0.95890496  1
  O  O10  1  0.76668900  0.19843976  0.54109504  1
  O  O11  1  0.26668900  0.30156024  0.04109504  1
  O  O12  1  0.20022071  0.77158203  0.05210944  1
  O  O13  1  0.70022071  0.72841797  0.55210944  1
  O  O14  1  0.79977929  0.22841797  0.94789056  1
  O  O15  1  0.29977929  0.27158203  0.44789056  1
  O  O16  1  0.58963383  0.97577664  0.26857533  1
  O  O17  1  0.08963383  0.52422336  0.76857533  1
  O  O18  1  0.41036617  0.02422336  0.73142467  1
  O  O19  1  0.91036617  0.47577664  0.23142467  1
