# generated using pymatgen
data_YGaPd2
_symmetry_space_group_name_H-M   'P 1'
_cell_length_a   5.61930783
_cell_length_b   7.18459585
_cell_length_c   7.40791748
_cell_angle_alpha   90.00000000
_cell_angle_beta   90.00000000
_cell_angle_gamma   90.00000000
_symmetry_Int_Tables_number   1
_chemical_formula_structural   YGaPd2
_chemical_formula_sum   'Y4 Ga4 Pd8'
_cell_volume   299.07582040
_cell_formula_units_Z   4
loop_
 _symmetry_equiv_pos_site_id
 _symmetry_equiv_pos_as_xyz
  1  'x, y, z'
loop_
 _atom_site_type_symbol
 _atom_site_label
 _atom_site_symmetry_multiplicity
 _atom_site_fract_x
 _atom_site_fract_y
 _atom_site_fract_z
 _atom_site_occupancy
  Y  Y0  1  0.14449333  0.75000000  0.46814002  1
  Y  Y1  1  0.35550667  0.75000000  0.96814002  1
  Y  Y2  1  0.85550667  0.25000000  0.53185998  1
  Y  Y3  1  0.64449333  0.25000000  0.03185998  1
  Ga  Ga4  1  0.85629433  0.75000000  0.11433894  1
  Ga  Ga5  1  0.64370567  0.75000000  0.61433894  1
  Ga  Ga6  1  0.14370567  0.25000000  0.88566106  1
  Ga  Ga7  1  0.35629433  0.25000000  0.38566106  1
  Pd  Pd8  1  0.58972874  0.94870512  0.31711198  1
  Pd  Pd9  1  0.91027126  0.55129488  0.81711198  1
  Pd  Pd10  1  0.41027126  0.44870512  0.68288802  1
  Pd  Pd11  1  0.08972874  0.05129488  0.18288802  1
  Pd  Pd12  1  0.41027126  0.05129488  0.68288802  1
  Pd  Pd13  1  0.08972874  0.44870512  0.18288802  1
  Pd  Pd14  1  0.58972874  0.55129488  0.31711198  1
  Pd  Pd15  1  0.91027126  0.94870512  0.81711198  1
