# generated using pymatgen
data_Sm2Co17
_symmetry_space_group_name_H-M   'P 1'
_cell_length_a   6.31634003
_cell_length_b   6.31634003
_cell_length_c   6.31634028
_cell_angle_alpha   82.96872989
_cell_angle_beta   82.96872989
_cell_angle_gamma   82.96872519
_symmetry_Int_Tables_number   1
_chemical_formula_structural   Sm2Co17
_chemical_formula_sum   'Sm2 Co17'
_cell_volume   246.74099592
_cell_formula_units_Z   1
loop_
 _symmetry_equiv_pos_site_id
 _symmetry_equiv_pos_as_xyz
  1  'x, y, z'
loop_
 _atom_site_type_symbol
 _atom_site_label
 _atom_site_symmetry_multiplicity
 _atom_site_fract_x
 _atom_site_fract_y
 _atom_site_fract_z
 _atom_site_occupancy
  Sm  Sm0  1  0.65599184  0.65599184  0.65599184  1
  Sm  Sm1  1  0.34400816  0.34400816  0.34400816  1
  Co  Co2  1  0.90391769  0.90391769  0.90391769  1
  Co  Co3  1  0.09608231  0.09608231  0.09608231  1
  Co  Co4  1  -0.00000000  0.00000000  0.50000000  1
  Co  Co5  1  -0.00000000  0.50000000  -0.00000000  1
  Co  Co6  1  0.50000000  0.00000000  -0.00000000  1
  Co  Co7  1  0.28625435  0.71374565  -0.00000000  1
  Co  Co8  1  0.71374565  0.00000000  0.28625435  1
  Co  Co9  1  1.00000000  0.28625435  0.71374565  1
  Co  Co10  1  0.28625435  1.00000000  0.71374565  1
  Co  Co11  1  0.00000000  0.71374565  0.28625435  1
  Co  Co12  1  0.71374565  0.28625435  -0.00000000  1
  Co  Co13  1  0.85037940  0.34397143  0.34397143  1
  Co  Co14  1  0.34397143  0.34397143  0.85037940  1
  Co  Co15  1  0.34397143  0.85037940  0.34397143  1
  Co  Co16  1  0.14962060  0.65602857  0.65602857  1
  Co  Co17  1  0.65602857  0.65602857  0.14962060  1
  Co  Co18  1  0.65602857  0.14962060  0.65602857  1
