# generated using pymatgen
data_UReC2
_symmetry_space_group_name_H-M   'P 1'
_cell_length_a   3.19794107
_cell_length_b   5.59783868
_cell_length_c   11.00886760
_cell_angle_alpha   90.00000000
_cell_angle_beta   90.00000000
_cell_angle_gamma   90.00000000
_symmetry_Int_Tables_number   1
_chemical_formula_structural   UReC2
_chemical_formula_sum   'U4 Re4 C8'
_cell_volume   197.07588426
_cell_formula_units_Z   4
loop_
 _symmetry_equiv_pos_site_id
 _symmetry_equiv_pos_as_xyz
  1  'x, y, z'
loop_
 _atom_site_type_symbol
 _atom_site_label
 _atom_site_symmetry_multiplicity
 _atom_site_fract_x
 _atom_site_fract_y
 _atom_site_fract_z
 _atom_site_occupancy
  U  U0  1  0.75000000  0.41697100  0.64145747  1
  U  U1  1  0.75000000  0.91697100  0.85854253  1
  U  U2  1  0.25000000  0.58302900  0.35854253  1
  U  U3  1  0.25000000  0.08302900  0.14145747  1
  Re  Re4  1  0.75000000  0.08075739  0.39613348  1
  Re  Re5  1  0.75000000  0.58075739  0.10386652  1
  Re  Re6  1  0.25000000  0.91924261  0.60386652  1
  Re  Re7  1  0.25000000  0.41924261  0.89613348  1
  C  C8  1  0.75000000  0.33974932  0.25626160  1
  C  C9  1  0.75000000  0.83974932  0.24373840  1
  C  C10  1  0.25000000  0.66025068  0.74373840  1
  C  C11  1  0.25000000  0.16025068  0.75626160  1
  C  C12  1  0.75000000  0.75601684  0.50657530  1
  C  C13  1  0.75000000  0.25601684  0.99342470  1
  C  C14  1  0.25000000  0.24398316  0.49342470  1
  C  C15  1  0.25000000  0.74398316  0.00657530  1
