# generated using pymatgen
data_Sm3FeO6
_symmetry_space_group_name_H-M   'P 1'
_cell_length_a   5.59509891
_cell_length_b   7.34006024
_cell_length_c   7.34006024
_cell_angle_alpha   102.94230467
_cell_angle_beta   90.00000000
_cell_angle_gamma   90.00000000
_symmetry_Int_Tables_number   1
_chemical_formula_structural   Sm3FeO6
_chemical_formula_sum   'Sm6 Fe2 O12'
_cell_volume   293.78639624
_cell_formula_units_Z   2
loop_
 _symmetry_equiv_pos_site_id
 _symmetry_equiv_pos_as_xyz
  1  'x, y, z'
loop_
 _atom_site_type_symbol
 _atom_site_label
 _atom_site_symmetry_multiplicity
 _atom_site_fract_x
 _atom_site_fract_y
 _atom_site_fract_z
 _atom_site_occupancy
  Sm  Sm0  1  0.45804005  0.20063186  0.41258171  1
  Sm  Sm1  1  0.45804005  0.58741829  0.79936814  1
  Sm  Sm2  1  0.95804005  0.79936814  0.58741829  1
  Sm  Sm3  1  0.95804005  0.41258171  0.20063186  1
  Sm  Sm4  1  0.50186067  0.10287036  0.89712964  1
  Sm  Sm5  1  0.00186067  0.89712964  0.10287036  1
  Fe  Fe6  1  0.92648018  0.30720553  0.69279447  1
  Fe  Fe7  1  0.42648018  0.69279447  0.30720553  1
  O  O8  1  0.22852934  0.85413446  0.82625336  1
  O  O9  1  0.22852934  0.17374664  0.14586554  1
  O  O10  1  0.72852934  0.14586554  0.17374664  1
  O  O11  1  0.72852934  0.82625336  0.85413446  1
  O  O12  1  0.25049387  0.91924730  0.39335427  1
  O  O13  1  0.25049387  0.60664573  0.08075270  1
  O  O14  1  0.75049387  0.08075270  0.60664573  1
  O  O15  1  0.75049387  0.39335427  0.91924730  1
  O  O16  1  0.28069716  0.54114223  0.45885777  1
  O  O17  1  0.78069716  0.45885777  0.54114223  1
  O  O18  1  0.26418546  0.28508160  0.71491840  1
  O  O19  1  0.76418546  0.71491840  0.28508160  1
