# generated using pymatgen
data_Nd7Pt3
_symmetry_space_group_name_H-M   'P 1'
_cell_length_a   6.52263022
_cell_length_b   10.19592024
_cell_length_c   10.19592024
_cell_angle_alpha   120.13608658
_cell_angle_beta   90.00000000
_cell_angle_gamma   90.00000000
_symmetry_Int_Tables_number   1
_chemical_formula_structural   Nd7Pt3
_chemical_formula_sum   'Nd14 Pt6'
_cell_volume   586.42039587
_cell_formula_units_Z   2
loop_
 _symmetry_equiv_pos_site_id
 _symmetry_equiv_pos_as_xyz
  1  'x, y, z'
loop_
 _atom_site_type_symbol
 _atom_site_label
 _atom_site_symmetry_multiplicity
 _atom_site_fract_x
 _atom_site_fract_y
 _atom_site_fract_z
 _atom_site_occupancy
  Nd  Nd0  1  0.45652151  0.33327814  0.66672186  1
  Nd  Nd1  1  0.95652151  0.66672186  0.33327814  1
  Nd  Nd2  1  0.24786944  0.12703038  0.87296962  1
  Nd  Nd3  1  0.24838809  0.74566555  0.87277286  1
  Nd  Nd4  1  0.24838809  0.12722714  0.25433445  1
  Nd  Nd5  1  0.74786944  0.87296962  0.12703038  1
  Nd  Nd6  1  0.74838809  0.25433445  0.12722714  1
  Nd  Nd7  1  0.74838809  0.87277286  0.74566555  1
  Nd  Nd8  1  0.44178573  0.53773574  0.46226426  1
  Nd  Nd9  1  0.44207639  0.92486101  0.46229719  1
  Nd  Nd10  1  0.44207639  0.53770281  0.07513899  1
  Nd  Nd11  1  0.94178573  0.46226426  0.53773574  1
  Nd  Nd12  1  0.94207639  0.07513899  0.53770281  1
  Nd  Nd13  1  0.94207639  0.46229719  0.92486101  1
  Pt  Pt14  1  0.18846985  0.81095286  0.18904714  1
  Pt  Pt15  1  0.18871225  0.37807181  0.18884716  1
  Pt  Pt16  1  0.18871225  0.81115284  0.62192819  1
  Pt  Pt17  1  0.68846985  0.18904714  0.81095286  1
  Pt  Pt18  1  0.68871225  0.62192819  0.81115284  1
  Pt  Pt19  1  0.68871225  0.18884716  0.37807181  1
