# generated using pymatgen
data_Ce(LuS2)3
_symmetry_space_group_name_H-M   'P 1'
_cell_length_a   3.92280333
_cell_length_b   11.18110224
_cell_length_c   10.96602101
_cell_angle_alpha   108.94334287
_cell_angle_beta   90.00000000
_cell_angle_gamma   90.00000000
_symmetry_Int_Tables_number   1
_chemical_formula_structural   Ce(LuS2)3
_chemical_formula_sum   'Ce2 Lu6 S12'
_cell_volume   454.93351068
_cell_formula_units_Z   2
loop_
 _symmetry_equiv_pos_site_id
 _symmetry_equiv_pos_as_xyz
  1  'x, y, z'
loop_
 _atom_site_type_symbol
 _atom_site_label
 _atom_site_symmetry_multiplicity
 _atom_site_fract_x
 _atom_site_fract_y
 _atom_site_fract_z
 _atom_site_occupancy
  Ce  Ce0  1  0.25000000  0.19536618  0.55046899  1
  Ce  Ce1  1  0.75000000  0.80463382  0.44953101  1
  Lu  Lu2  1  0.25000000  0.99987290  0.17961024  1
  Lu  Lu3  1  0.75000000  0.00012710  0.82038976  1
  Lu  Lu4  1  0.25000000  0.33383804  0.94325112  1
  Lu  Lu5  1  0.75000000  0.66616196  0.05674888  1
  Lu  Lu6  1  0.25000000  0.58648112  0.66037642  1
  Lu  Lu7  1  0.75000000  0.41351888  0.33962358  1
  S  S8  1  0.25000000  0.11191559  0.97840230  1
  S  S9  1  0.75000000  0.88808441  0.02159770  1
  S  S10  1  0.25000000  0.25052354  0.30254375  1
  S  S11  1  0.75000000  0.74947646  0.69745625  1
  S  S12  1  0.25000000  0.55754139  0.89235359  1
  S  S13  1  0.75000000  0.44245861  0.10764641  1
  S  S14  1  0.25000000  0.59324540  0.41890253  1
  S  S15  1  0.75000000  0.40675460  0.58109747  1
  S  S16  1  0.25000000  0.76964129  0.23147460  1
  S  S17  1  0.75000000  0.23035871  0.76852540  1
  S  S18  1  0.25000000  0.96357971  0.62017483  1
  S  S19  1  0.75000000  0.03642029  0.37982517  1
