# generated using pymatgen
data_Ca(FeO2)2
_symmetry_space_group_name_H-M   'P 1'
_cell_length_a   6.32113927
_cell_length_b   6.26974696
_cell_length_c   18.73083810
_cell_angle_alpha   59.91507389
_cell_angle_beta   60.12021994
_cell_angle_gamma   60.36421670
_symmetry_Int_Tables_number   1
_chemical_formula_structural   Ca(FeO2)2
_chemical_formula_sum   'Ca6 Fe12 O24'
_cell_volume   526.48068628
_cell_formula_units_Z   6
loop_
 _symmetry_equiv_pos_site_id
 _symmetry_equiv_pos_as_xyz
  1  'x, y, z'
loop_
 _atom_site_type_symbol
 _atom_site_label
 _atom_site_symmetry_multiplicity
 _atom_site_fract_x
 _atom_site_fract_y
 _atom_site_fract_z
 _atom_site_occupancy
  Ca  Ca0  1  0.13860120  0.11713680  0.04099648  1
  Ca  Ca1  1  0.49475018  0.50873599  0.33108343  1
  Ca  Ca2  1  -0.00124561  0.49828707  0.16739494  1
  Ca  Ca3  1  0.50351239  0.49268871  0.66883241  1
  Ca  Ca4  1  -0.00037408  0.49711903  0.50054311  1
  Ca  Ca5  1  0.99612376  0.50391443  0.83262239  1
  Fe  Fe6  1  0.49612125  0.01199453  0.16406176  1
  Fe  Fe7  1  0.13239334  0.11136432  0.38124365  1
  Fe  Fe8  1  0.49707336  0.49597059  0.00575544  1
  Fe  Fe9  1  0.49234463  0.49246863  0.16718108  1
  Fe  Fe10  1  0.50182261  0.00055395  0.49910948  1
  Fe  Fe11  1  0.14491039  0.11030517  0.71026922  1
  Fe  Fe12  1  0.49967729  0.49875547  0.49993371  1
  Fe  Fe13  1  0.50557597  0.00343002  0.83264097  1
  Fe  Fe14  1  0.86043687  0.88840415  0.28735480  1
  Fe  Fe15  1  0.49099624  0.51206094  0.83533960  1
  Fe  Fe16  1  0.86455076  0.88366955  0.62091173  1
  Fe  Fe17  1  0.85362714  0.89076592  0.95818254  1
  O  O18  1  0.29784619  0.25309091  0.08435579  1
  O  O19  1  0.26885210  0.23529974  0.25177667  1
  O  O20  1  0.29878165  0.69327727  0.08620676  1
  O  O21  1  0.70242220  0.26672797  0.08896010  1
  O  O22  1  0.27052397  0.22148712  0.42277798  1
  O  O23  1  0.25288527  0.76711697  0.23664989  1
  O  O24  1  0.28229495  0.23977206  0.57829595  1
  O  O25  1  0.73084218  0.25877405  0.24148808  1
  O  O26  1  0.26783108  0.73913504  0.42380259  1
  O  O27  1  0.72400551  0.76575733  0.08477648  1
  O  O28  1  0.73741999  0.24477877  0.42437095  1
  O  O29  1  0.73323918  0.78741917  0.24032282  1
  O  O30  1  0.26686927  0.21476687  0.75831932  1
  O  O31  1  0.25844196  0.75424444  0.57634745  1
  O  O32  1  0.73087902  0.25518876  0.57739307  1
  O  O33  1  0.26992619  0.74086025  0.75740464  1
  O  O34  1  0.30654855  0.25876910  0.89470776  1
  O  O35  1  0.72272368  0.75873811  0.41966239  1
  O  O36  1  0.76173607  0.22096695  0.75736191  1
  O  O37  1  0.73069284  0.77689728  0.57740158  1
  O  O38  1  0.26485659  0.74455498  0.91837225  1
  O  O39  1  0.71401204  0.27198449  0.92063511  1
  O  O40  1  0.71915788  0.75580844  0.75387228  1
  O  O41  1  0.71631296  0.75695667  0.92128243  1
