# generated using pymatgen
data_Ca5CdCu2
_symmetry_space_group_name_H-M   'P 1'
_cell_length_a   7.90918534
_cell_length_b   7.90918534
_cell_length_c   9.23409795
_cell_angle_alpha   115.35717499
_cell_angle_beta   115.35717499
_cell_angle_gamma   90.00000000
_symmetry_Int_Tables_number   1
_chemical_formula_structural   Ca5CdCu2
_chemical_formula_sum   'Ca10 Cd2 Cu4'
_cell_volume   459.64653577
_cell_formula_units_Z   2
loop_
 _symmetry_equiv_pos_site_id
 _symmetry_equiv_pos_as_xyz
  1  'x, y, z'
loop_
 _atom_site_type_symbol
 _atom_site_label
 _atom_site_symmetry_multiplicity
 _atom_site_fract_x
 _atom_site_fract_y
 _atom_site_fract_z
 _atom_site_occupancy
  Ca  Ca0  1  0.02848827  0.52848827  0.72037260  1
  Ca  Ca1  1  0.69188433  0.19188433  0.72037260  1
  Ca  Ca2  1  0.19188433  0.02848827  0.72037260  1
  Ca  Ca3  1  0.52848827  0.69188433  0.72037260  1
  Ca  Ca4  1  0.97151173  0.47151173  0.27962740  1
  Ca  Ca5  1  0.30811567  0.80811567  0.27962740  1
  Ca  Ca6  1  0.80811567  0.97151173  0.27962740  1
  Ca  Ca7  1  0.47151173  0.30811567  0.27962740  1
  Ca  Ca8  1  0.50000000  0.50000000  -0.00000000  1
  Ca  Ca9  1  -0.00000000  -0.00000000  -0.00000000  1
  Cd  Cd10  1  0.25000000  0.25000000  0.50000000  1
  Cd  Cd11  1  0.75000000  0.75000000  0.50000000  1
  Cu  Cu12  1  0.88584097  0.61415903  -0.00000000  1
  Cu  Cu13  1  0.11415903  0.38584097  -0.00000000  1
  Cu  Cu14  1  0.61415903  0.11415903  -0.00000000  1
  Cu  Cu15  1  0.38584097  0.88584097  0.00000000  1
