# generated using pymatgen
data_Pr2Co17
_symmetry_space_group_name_H-M   'P 1'
_cell_length_a   6.34281655
_cell_length_b   6.34281655
_cell_length_c   6.34281666
_cell_angle_alpha   82.98599343
_cell_angle_beta   82.98599343
_cell_angle_gamma   82.98599874
_symmetry_Int_Tables_number   1
_chemical_formula_structural   Pr2Co17
_chemical_formula_sum   'Pr2 Co17'
_cell_volume   249.88193865
_cell_formula_units_Z   1
loop_
 _symmetry_equiv_pos_site_id
 _symmetry_equiv_pos_as_xyz
  1  'x, y, z'
loop_
 _atom_site_type_symbol
 _atom_site_label
 _atom_site_symmetry_multiplicity
 _atom_site_fract_x
 _atom_site_fract_y
 _atom_site_fract_z
 _atom_site_occupancy
  Pr  Pr0  1  0.65702901  0.65702901  0.65702901  1
  Pr  Pr1  1  0.34297099  0.34297099  0.34297099  1
  Co  Co2  1  -0.00000000  -0.00000000  0.50000000  1
  Co  Co3  1  -0.00000000  0.50000000  -0.00000000  1
  Co  Co4  1  0.50000000  -0.00000000  -0.00000000  1
  Co  Co5  1  0.28476788  0.71523212  -0.00000000  1
  Co  Co6  1  0.71523212  0.00000000  0.28476788  1
  Co  Co7  1  1.00000000  0.28476788  0.71523212  1
  Co  Co8  1  0.28476788  1.00000000  0.71523212  1
  Co  Co9  1  0.00000000  0.71523212  0.28476788  1
  Co  Co10  1  0.71523212  0.28476788  0.00000000  1
  Co  Co11  1  0.34158629  0.34158629  0.84860087  1
  Co  Co12  1  0.34158629  0.84860087  0.34158629  1
  Co  Co13  1  0.84860087  0.34158629  0.34158629  1
  Co  Co14  1  0.65841371  0.65841371  0.15139913  1
  Co  Co15  1  0.65841371  0.15139913  0.65841371  1
  Co  Co16  1  0.15139913  0.65841371  0.65841371  1
  Co  Co17  1  0.90470553  0.90470553  0.90470553  1
  Co  Co18  1  0.09529447  0.09529447  0.09529447  1
