# generated using pymatgen
data_Y3Co
_symmetry_space_group_name_H-M   'P 1'
_cell_length_a   6.31440353
_cell_length_b   7.01578293
_cell_length_c   9.48283809
_cell_angle_alpha   90.00000000
_cell_angle_beta   90.00000000
_cell_angle_gamma   90.00000000
_symmetry_Int_Tables_number   1
_chemical_formula_structural   Y3Co
_chemical_formula_sum   'Y12 Co4'
_cell_volume   420.09432181
_cell_formula_units_Z   4
loop_
 _symmetry_equiv_pos_site_id
 _symmetry_equiv_pos_as_xyz
  1  'x, y, z'
loop_
 _atom_site_type_symbol
 _atom_site_label
 _atom_site_symmetry_multiplicity
 _atom_site_fract_x
 _atom_site_fract_y
 _atom_site_fract_z
 _atom_site_occupancy
  Y  Y0  1  0.32516895  0.67555481  0.06736549  1
  Y  Y1  1  0.17483105  0.17555481  0.43263451  1
  Y  Y2  1  0.67483105  0.32444519  0.56736549  1
  Y  Y3  1  0.82516895  0.82444519  0.93263451  1
  Y  Y4  1  0.67483105  0.32444519  0.93263451  1
  Y  Y5  1  0.82516895  0.82444519  0.56736549  1
  Y  Y6  1  0.32516895  0.67555481  0.43263451  1
  Y  Y7  1  0.17483105  0.17555481  0.06736549  1
  Y  Y8  1  0.86275897  0.54366613  0.25000000  1
  Y  Y9  1  0.63724103  0.04366613  0.25000000  1
  Y  Y10  1  0.13724103  0.45633387  0.75000000  1
  Y  Y11  1  0.36275897  0.95633387  0.75000000  1
  Co  Co12  1  0.04773155  0.88826254  0.25000000  1
  Co  Co13  1  0.45226845  0.38826254  0.25000000  1
  Co  Co14  1  0.95226845  0.11173746  0.75000000  1
  Co  Co15  1  0.54773155  0.61173746  0.75000000  1
