# generated using pymatgen
data_LuSiPt2
_symmetry_space_group_name_H-M   'P 1'
_cell_length_a   5.47812406
_cell_length_b   6.95919311
_cell_length_c   7.24301547
_cell_angle_alpha   90.00000000
_cell_angle_beta   90.00000000
_cell_angle_gamma   90.00000000
_symmetry_Int_Tables_number   1
_chemical_formula_structural   LuSiPt2
_chemical_formula_sum   'Lu4 Si4 Pt8'
_cell_volume   276.12781981
_cell_formula_units_Z   4
loop_
 _symmetry_equiv_pos_site_id
 _symmetry_equiv_pos_as_xyz
  1  'x, y, z'
loop_
 _atom_site_type_symbol
 _atom_site_label
 _atom_site_symmetry_multiplicity
 _atom_site_fract_x
 _atom_site_fract_y
 _atom_site_fract_z
 _atom_site_occupancy
  Lu  Lu0  1  0.13997863  0.75000000  0.47232258  1
  Lu  Lu1  1  0.36002137  0.75000000  0.97232258  1
  Lu  Lu2  1  0.86002137  0.25000000  0.52767742  1
  Lu  Lu3  1  0.63997863  0.25000000  0.02767742  1
  Si  Si4  1  0.86090209  0.75000000  0.11930490  1
  Si  Si5  1  0.63909791  0.75000000  0.61930490  1
  Si  Si6  1  0.13909791  0.25000000  0.88069510  1
  Si  Si7  1  0.36090209  0.25000000  0.38069510  1
  Pt  Pt8  1  0.59175295  0.95032633  0.31776534  1
  Pt  Pt9  1  0.90824705  0.54967367  0.81776534  1
  Pt  Pt10  1  0.40824705  0.45032633  0.68223466  1
  Pt  Pt11  1  0.09175295  0.04967367  0.18223466  1
  Pt  Pt12  1  0.40824705  0.04967367  0.68223466  1
  Pt  Pt13  1  0.09175295  0.45032633  0.18223466  1
  Pt  Pt14  1  0.59175295  0.54967367  0.31776534  1
  Pt  Pt15  1  0.90824705  0.95032633  0.81776534  1
