# generated using pymatgen
data_Lu5Ir3
_symmetry_space_group_name_H-M   'P 1'
_cell_length_a   6.08254835
_cell_length_b   8.16416330
_cell_length_c   8.16580829
_cell_angle_alpha   119.99333268
_cell_angle_beta   90.00000000
_cell_angle_gamma   90.00000000
_symmetry_Int_Tables_number   1
_chemical_formula_structural   Lu5Ir3
_chemical_formula_sum   'Lu10 Ir6'
_cell_volume   351.20139970
_cell_formula_units_Z   2
loop_
 _symmetry_equiv_pos_site_id
 _symmetry_equiv_pos_as_xyz
  1  'x, y, z'
loop_
 _atom_site_type_symbol
 _atom_site_label
 _atom_site_symmetry_multiplicity
 _atom_site_fract_x
 _atom_site_fract_y
 _atom_site_fract_z
 _atom_site_occupancy
  Lu  Lu0  1  0.50000022  0.33332784  0.66668478  1
  Lu  Lu1  1  0.50000022  0.66664306  0.33331522  1
  Lu  Lu2  1  0.00000022  0.66667216  0.33331522  1
  Lu  Lu3  1  0.00000022  0.33335694  0.66668478  1
  Lu  Lu4  1  0.75001382  0.25825782  1.00000000  1
  Lu  Lu5  1  0.74999766  0.74168785  0.74167340  1
  Lu  Lu6  1  0.74999766  0.00001445  0.25832660  1
  Lu  Lu7  1  0.25001382  0.74174218  0.00000000  1
  Lu  Lu8  1  0.24999766  0.25831215  0.25832660  1
  Lu  Lu9  1  0.24999766  0.99998555  0.74167340  1
  Ir  Ir10  1  0.75000542  0.60916512  1.00000000  1
  Ir  Ir11  1  0.74999250  0.39096590  0.39088686  1
  Ir  Ir12  1  0.74999250  0.00007904  0.60911314  1
  Ir  Ir13  1  0.25000542  0.39083488  0.00000000  1
  Ir  Ir14  1  0.24999250  0.60903410  0.60911314  1
  Ir  Ir15  1  0.24999250  0.99992096  0.39088686  1
