# generated using pymatgen
data_Er7CoI12
_symmetry_space_group_name_H-M   'P 1'
_cell_length_a   9.66407091
_cell_length_b   9.66407091
_cell_length_c   9.66407067
_cell_angle_alpha   106.83289375
_cell_angle_beta   106.83289375
_cell_angle_gamma   106.83289633
_symmetry_Int_Tables_number   1
_chemical_formula_structural   Er7CoI12
_chemical_formula_sum   'Er7 Co1 I12'
_cell_volume   755.06816316
_cell_formula_units_Z   1
loop_
 _symmetry_equiv_pos_site_id
 _symmetry_equiv_pos_as_xyz
  1  'x, y, z'
loop_
 _atom_site_type_symbol
 _atom_site_label
 _atom_site_symmetry_multiplicity
 _atom_site_fract_x
 _atom_site_fract_y
 _atom_site_fract_z
 _atom_site_occupancy
  Er  Er0  1  0.50000000  0.50000000  0.50000000  1
  Er  Er1  1  0.09038183  0.28508148  0.02148512  1
  Er  Er2  1  0.28508148  0.02148512  0.09038183  1
  Er  Er3  1  0.02148512  0.09038183  0.28508148  1
  Er  Er4  1  0.90961817  0.71491852  0.97851488  1
  Er  Er5  1  0.71491852  0.97851488  0.90961817  1
  Er  Er6  1  0.97851488  0.90961817  0.71491852  1
  Co  Co7  1  -0.00000000  -0.00000000  0.00000000  1
  I  I8  1  0.16125676  0.46339889  0.38688161  1
  I  I9  1  0.46339889  0.38688161  0.16125676  1
  I  I10  1  0.38688161  0.16125676  0.46339889  1
  I  I11  1  0.83874324  0.53660111  0.61311839  1
  I  I12  1  0.53660111  0.61311839  0.83874324  1
  I  I13  1  0.61311839  0.83874324  0.53660111  1
  I  I14  1  0.77581060  0.32332005  0.92930692  1
  I  I15  1  0.32332005  0.92930692  0.77581060  1
  I  I16  1  0.92930692  0.77581060  0.32332005  1
  I  I17  1  0.22418940  0.67667995  0.07069308  1
  I  I18  1  0.67667995  0.07069308  0.22418940  1
  I  I19  1  0.07069308  0.22418940  0.67667995  1
