# generated using pymatgen
data_Ho2Ge5Ru3
_symmetry_space_group_name_H-M   'P 1'
_cell_length_a   5.76838067
_cell_length_b   8.47397128
_cell_length_c   8.47397128
_cell_angle_alpha   71.35156106
_cell_angle_beta   70.10127011
_cell_angle_gamma   70.10127011
_symmetry_Int_Tables_number   1
_chemical_formula_structural   Ho2Ge5Ru3
_chemical_formula_sum   'Ho4 Ge10 Ru6'
_cell_volume   356.35898627
_cell_formula_units_Z   2
loop_
 _symmetry_equiv_pos_site_id
 _symmetry_equiv_pos_as_xyz
  1  'x, y, z'
loop_
 _atom_site_type_symbol
 _atom_site_label
 _atom_site_symmetry_multiplicity
 _atom_site_fract_x
 _atom_site_fract_y
 _atom_site_fract_z
 _atom_site_occupancy
  Ho  Ho0  1  0.36233280  0.40561615  0.86971825  1
  Ho  Ho1  1  0.63766720  0.59438385  0.13028175  1
  Ho  Ho2  1  0.86233280  0.86971825  0.40561615  1
  Ho  Ho3  1  0.13766720  0.13028175  0.59438385  1
  Ge  Ge4  1  0.25000000  0.50000000  0.50000000  1
  Ge  Ge5  1  0.75000000  0.50000000  0.50000000  1
  Ge  Ge6  1  0.04216996  0.20783004  0.20783004  1
  Ge  Ge7  1  0.45783004  0.79216996  0.79216996  1
  Ge  Ge8  1  0.95783004  0.79216996  0.79216996  1
  Ge  Ge9  1  0.54216996  0.20783004  0.20783004  1
  Ge  Ge10  1  0.08831257  0.73650576  0.08686910  1
  Ge  Ge11  1  0.91168743  0.26349424  0.91313090  1
  Ge  Ge12  1  0.58831257  0.08686910  0.73650576  1
  Ge  Ge13  1  0.41168743  0.91313090  0.26349424  1
  Ru  Ru14  1  0.25000000  0.00000000  0.00000000  1
  Ru  Ru15  1  0.75000000  0.00000000  0.00000000  1
  Ru  Ru16  1  0.14711170  0.44478815  0.26098845  1
  Ru  Ru17  1  0.85288830  0.55521185  0.73901155  1
  Ru  Ru18  1  0.64711170  0.26098845  0.44478815  1
  Ru  Ru19  1  0.35288830  0.73901155  0.55521185  1
