# generated using pymatgen
data_NdScS3
_symmetry_space_group_name_H-M   'P 1'
_cell_length_a   6.51551325
_cell_length_b   7.17013448
_cell_length_c   9.60943273
_cell_angle_alpha   90.00000000
_cell_angle_beta   90.00000000
_cell_angle_gamma   90.00000000
_symmetry_Int_Tables_number   1
_chemical_formula_structural   NdScS3
_chemical_formula_sum   'Nd4 Sc4 S12'
_cell_volume   448.92488945
_cell_formula_units_Z   4
loop_
 _symmetry_equiv_pos_site_id
 _symmetry_equiv_pos_as_xyz
  1  'x, y, z'
loop_
 _atom_site_type_symbol
 _atom_site_label
 _atom_site_symmetry_multiplicity
 _atom_site_fract_x
 _atom_site_fract_y
 _atom_site_fract_z
 _atom_site_occupancy
  Nd  Nd0  1  0.53786674  0.40260659  0.99109778  1
  Nd  Nd1  1  0.46213326  0.59739341  0.49109778  1
  Nd  Nd2  1  0.03786674  0.09739341  0.49109778  1
  Nd  Nd3  1  0.96213326  0.90260659  0.99109778  1
  Sc  Sc4  1  0.00026413  0.49745851  0.24076219  1
  Sc  Sc5  1  -0.00026413  0.50254149  0.74076219  1
  Sc  Sc6  1  0.50026413  0.00254149  0.74076219  1
  Sc  Sc7  1  0.49973587  0.99745851  0.24076219  1
  S  S8  1  0.82184952  0.18844044  0.80361275  1
  S  S9  1  0.17815048  0.81155956  0.30361275  1
  S  S10  1  0.32184952  0.31155956  0.30361275  1
  S  S11  1  0.67815048  0.68844044  0.80361275  1
  S  S12  1  0.81986328  0.18609467  0.17863728  1
  S  S13  1  0.18013672  0.81390533  0.67863728  1
  S  S14  1  0.31986328  0.31390533  0.67863728  1
  S  S15  1  0.68013672  0.68609467  0.17863728  1
  S  S16  1  0.87129769  0.46269824  0.49089000  1
  S  S17  1  0.12870231  0.53730176  0.99089000  1
  S  S18  1  0.37129769  0.03730176  0.99089000  1
  S  S19  1  0.62870231  0.96269824  0.49089000  1
