# generated using pymatgen
data_TiGeS3
_symmetry_space_group_name_H-M   'P 1'
_cell_length_a   3.50525003
_cell_length_b   9.11114184
_cell_length_c   13.42202937
_cell_angle_alpha   90.00000000
_cell_angle_beta   90.00000000
_cell_angle_gamma   90.00000000
_symmetry_Int_Tables_number   1
_chemical_formula_structural   TiGeS3
_chemical_formula_sum   'Ti4 Ge4 S12'
_cell_volume   428.65707304
_cell_formula_units_Z   4
loop_
 _symmetry_equiv_pos_site_id
 _symmetry_equiv_pos_as_xyz
  1  'x, y, z'
loop_
 _atom_site_type_symbol
 _atom_site_label
 _atom_site_symmetry_multiplicity
 _atom_site_fract_x
 _atom_site_fract_y
 _atom_site_fract_z
 _atom_site_occupancy
  Ti  Ti0  1  0.25000000  0.15341853  0.54726577  1
  Ti  Ti1  1  0.25000000  0.65341853  0.95273423  1
  Ti  Ti2  1  0.75000000  0.84658147  0.45273423  1
  Ti  Ti3  1  0.75000000  0.34658147  0.04726577  1
  Ge  Ge4  1  0.75000000  0.42912148  0.66065830  1
  Ge  Ge5  1  0.75000000  0.92912148  0.83934170  1
  Ge  Ge6  1  0.25000000  0.57087852  0.33934170  1
  Ge  Ge7  1  0.25000000  0.07087852  0.16065830  1
  S  S8  1  0.75000000  0.98717263  0.60716030  1
  S  S9  1  0.75000000  0.48717263  0.89283970  1
  S  S10  1  0.25000000  0.01282737  0.39283970  1
  S  S11  1  0.25000000  0.51282737  0.10716030  1
  S  S12  1  0.25000000  0.26512347  0.71308398  1
  S  S13  1  0.25000000  0.76512347  0.78691602  1
  S  S14  1  0.75000000  0.73487653  0.28691602  1
  S  S15  1  0.75000000  0.23487653  0.21308398  1
  S  S16  1  0.75000000  0.32168838  0.49172521  1
  S  S17  1  0.75000000  0.82168838  0.00827479  1
  S  S18  1  0.25000000  0.67831162  0.50827479  1
  S  S19  1  0.25000000  0.17831162  0.99172521  1
