# generated using pymatgen
data_Pr(ErS2)3
_symmetry_space_group_name_H-M   'P 1'
_cell_length_a   3.97933983
_cell_length_b   11.30120887
_cell_length_c   11.05652311
_cell_angle_alpha   108.71186997
_cell_angle_beta   90.00000000
_cell_angle_gamma   90.00000000
_symmetry_Int_Tables_number   1
_chemical_formula_structural   Pr(ErS2)3
_chemical_formula_sum   'Pr2 Er6 S12'
_cell_volume   470.94527697
_cell_formula_units_Z   2
loop_
 _symmetry_equiv_pos_site_id
 _symmetry_equiv_pos_as_xyz
  1  'x, y, z'
loop_
 _atom_site_type_symbol
 _atom_site_label
 _atom_site_symmetry_multiplicity
 _atom_site_fract_x
 _atom_site_fract_y
 _atom_site_fract_z
 _atom_site_occupancy
  Pr  Pr0  1  0.25000000  0.19485581  0.54870380  1
  Pr  Pr1  1  0.75000000  0.80514419  0.45129620  1
  Er  Er2  1  0.25000000  0.00192136  0.17994419  1
  Er  Er3  1  0.75000000  0.99807864  0.82005581  1
  Er  Er4  1  0.25000000  0.33294096  0.93932367  1
  Er  Er5  1  0.75000000  0.66705904  0.06067633  1
  Er  Er6  1  0.25000000  0.58651880  0.66160047  1
  Er  Er7  1  0.75000000  0.41348120  0.33839953  1
  S  S8  1  0.25000000  0.11167319  0.97650579  1
  S  S9  1  0.75000000  0.88832681  0.02349421  1
  S  S10  1  0.25000000  0.25173353  0.30344386  1
  S  S11  1  0.75000000  0.74826647  0.69655614  1
  S  S12  1  0.25000000  0.56099432  0.89639103  1
  S  S13  1  0.75000000  0.43900568  0.10360897  1
  S  S14  1  0.25000000  0.59305561  0.41847392  1
  S  S15  1  0.75000000  0.40694439  0.58152608  1
  S  S16  1  0.25000000  0.77217744  0.23502587  1
  S  S17  1  0.75000000  0.22782256  0.76497413  1
  S  S18  1  0.25000000  0.96377957  0.62011874  1
  S  S19  1  0.75000000  0.03622043  0.37988126  1
