# generated using pymatgen
data_YbB2Os
_symmetry_space_group_name_H-M   'P 1'
_cell_length_a   5.25338512
_cell_length_b   5.87863297
_cell_length_c   6.29743463
_cell_angle_alpha   90.00000000
_cell_angle_beta   90.00000000
_cell_angle_gamma   90.00000000
_symmetry_Int_Tables_number   1
_chemical_formula_structural   YbB2Os
_chemical_formula_sum   'Yb4 B8 Os4'
_cell_volume   194.48192910
_cell_formula_units_Z   4
loop_
 _symmetry_equiv_pos_site_id
 _symmetry_equiv_pos_as_xyz
  1  'x, y, z'
loop_
 _atom_site_type_symbol
 _atom_site_label
 _atom_site_symmetry_multiplicity
 _atom_site_fract_x
 _atom_site_fract_y
 _atom_site_fract_z
 _atom_site_occupancy
  Yb  Yb0  1  0.75000000  0.49359259  0.15115298  1
  Yb  Yb1  1  0.75000000  0.99359259  0.34884702  1
  Yb  Yb2  1  0.25000000  0.50640741  0.84884702  1
  Yb  Yb3  1  0.25000000  0.00640741  0.65115298  1
  B  B4  1  0.92699967  0.12772466  0.95643375  1
  B  B5  1  0.57300033  0.62772466  0.54356625  1
  B  B6  1  0.42699967  0.87227534  0.04356625  1
  B  B7  1  0.07300033  0.37227534  0.45643375  1
  B  B8  1  0.07300033  0.87227534  0.04356625  1
  B  B9  1  0.42699967  0.37227534  0.45643375  1
  B  B10  1  0.57300033  0.12772466  0.95643375  1
  B  B11  1  0.92699967  0.62772466  0.54356625  1
  Os  Os12  1  0.75000000  0.32013849  0.69148678  1
  Os  Os13  1  0.75000000  0.82013849  0.80851322  1
  Os  Os14  1  0.25000000  0.67986151  0.30851322  1
  Os  Os15  1  0.25000000  0.17986151  0.19148678  1
