# generated using pymatgen
data_Rh2Se3
_symmetry_space_group_name_H-M   'P 1'
_cell_length_a   6.40111994
_cell_length_b   6.52896121
_cell_length_c   9.02851529
_cell_angle_alpha   90.00000000
_cell_angle_beta   90.00000000
_cell_angle_gamma   90.00000000
_symmetry_Int_Tables_number   1
_chemical_formula_structural   Rh2Se3
_chemical_formula_sum   'Rh8 Se12'
_cell_volume   377.32570403
_cell_formula_units_Z   4
loop_
 _symmetry_equiv_pos_site_id
 _symmetry_equiv_pos_as_xyz
  1  'x, y, z'
loop_
 _atom_site_type_symbol
 _atom_site_label
 _atom_site_symmetry_multiplicity
 _atom_site_fract_x
 _atom_site_fract_y
 _atom_site_fract_z
 _atom_site_occupancy
  Rh  Rh0  1  0.74823302  0.53248214  0.10764714  1
  Rh  Rh1  1  0.75176698  0.03248214  0.39235286  1
  Rh  Rh2  1  0.75176698  0.46751786  0.60764714  1
  Rh  Rh3  1  0.74823302  0.96751786  0.89235286  1
  Rh  Rh4  1  0.25176698  0.46751786  0.89235286  1
  Rh  Rh5  1  0.24823302  0.96751786  0.60764714  1
  Rh  Rh6  1  0.24823302  0.53248214  0.39235286  1
  Rh  Rh7  1  0.25176698  0.03248214  0.10764714  1
  Se  Se8  1  0.60970727  0.89461881  0.15149608  1
  Se  Se9  1  0.89029273  0.39461881  0.34850392  1
  Se  Se10  1  0.89029273  0.10538119  0.65149608  1
  Se  Se11  1  0.60970727  0.60538119  0.84850392  1
  Se  Se12  1  0.39029273  0.10538119  0.84850392  1
  Se  Se13  1  0.10970727  0.60538119  0.65149608  1
  Se  Se14  1  0.10970727  0.89461881  0.34850392  1
  Se  Se15  1  0.39029273  0.39461881  0.15149608  1
  Se  Se16  1  0.04468999  0.75000000  -0.00000000  1
  Se  Se17  1  0.45531001  0.25000000  0.50000000  1
  Se  Se18  1  0.95531001  0.25000000  -0.00000000  1
  Se  Se19  1  0.54468999  0.75000000  0.50000000  1
