# generated using pymatgen
data_Zr5Sb3C
_symmetry_space_group_name_H-M   'P 1'
_cell_length_a   5.89036420
_cell_length_b   8.44682872
_cell_length_c   8.44654659
_cell_angle_alpha   120.00110527
_cell_angle_beta   90.00000000
_cell_angle_gamma   90.00000000
_symmetry_Int_Tables_number   1
_chemical_formula_structural   Zr5Sb3C
_chemical_formula_sum   'Zr10 Sb6 C2'
_cell_volume   363.94923673
_cell_formula_units_Z   2
loop_
 _symmetry_equiv_pos_site_id
 _symmetry_equiv_pos_as_xyz
  1  'x, y, z'
loop_
 _atom_site_type_symbol
 _atom_site_label
 _atom_site_symmetry_multiplicity
 _atom_site_fract_x
 _atom_site_fract_y
 _atom_site_fract_z
 _atom_site_occupancy
  Zr  Zr0  1  0.50000023  0.33317193  0.66634411  1
  Zr  Zr1  1  0.50000023  0.66682782  0.33365589  1
  Zr  Zr2  1  0.00000023  0.66682807  0.33365589  1
  Zr  Zr3  1  0.00000023  0.33317218  0.66634411  1
  Zr  Zr4  1  0.74999837  0.21979945  0.00000000  1
  Zr  Zr5  1  0.74999951  0.78001655  0.78010774  1
  Zr  Zr6  1  0.74999951  0.99990880  0.21989226  1
  Zr  Zr7  1  0.24999837  0.78020055  1.00000000  1
  Zr  Zr8  1  0.24999951  0.21998345  0.21989226  1
  Zr  Zr9  1  0.24999951  0.00009120  0.78010774  1
  Sb  Sb10  1  0.74999922  0.59506532  1.00000000  1
  Sb  Sb11  1  0.75000188  0.40480918  0.40488417  1
  Sb  Sb12  1  0.75000188  0.99992501  0.59511583  1
  Sb  Sb13  1  0.24999922  0.40493468  0.00000000  1
  Sb  Sb14  1  0.25000188  0.59519082  0.59511583  1
  Sb  Sb15  1  0.25000188  0.00007499  0.40488417  1
  C  C16  1  0.49999917  0.00000008  -0.00000000  1
  C  C17  1  0.99999917  0.99999992  -0.00000000  1
