# generated using pymatgen
data_KNaNbOF5
_symmetry_space_group_name_H-M   'P 1'
_cell_length_a   6.07873865
_cell_length_b   6.07873865
_cell_length_c   8.63965958
_cell_angle_alpha   90.00000000
_cell_angle_beta   90.00000000
_cell_angle_gamma   90.00000000
_symmetry_Int_Tables_number   1
_chemical_formula_structural   KNaNbOF5
_chemical_formula_sum   'K2 Na2 Nb2 O2 F10'
_cell_volume   319.24461041
_cell_formula_units_Z   2
loop_
 _symmetry_equiv_pos_site_id
 _symmetry_equiv_pos_as_xyz
  1  'x, y, z'
loop_
 _atom_site_type_symbol
 _atom_site_label
 _atom_site_symmetry_multiplicity
 _atom_site_fract_x
 _atom_site_fract_y
 _atom_site_fract_z
 _atom_site_occupancy
  K  K0  1  0.25000000  0.75000000  0.50000000  1
  K  K1  1  0.75000000  0.25000000  0.50000000  1
  Na  Na2  1  0.75000000  0.75000000  0.76785252  1
  Na  Na3  1  0.25000000  0.25000000  0.23214748  1
  Nb  Nb4  1  0.75000000  0.75000000  0.23715985  1
  Nb  Nb5  1  0.25000000  0.25000000  0.76284015  1
  O  O6  1  0.75000000  0.75000000  0.03388057  1
  O  O7  1  0.25000000  0.25000000  0.96611943  1
  F  F8  1  0.75000000  0.75000000  0.49004180  1
  F  F9  1  0.25000000  0.25000000  0.50995820  1
  F  F10  1  0.97881079  0.52118921  0.27530634  1
  F  F11  1  0.52118921  0.52118921  0.27530634  1
  F  F12  1  0.97881079  0.97881079  0.27530634  1
  F  F13  1  0.52118921  0.97881079  0.27530634  1
  F  F14  1  0.02118921  0.47881079  0.72469366  1
  F  F15  1  0.47881079  0.47881079  0.72469366  1
  F  F16  1  0.02118921  0.02118921  0.72469366  1
  F  F17  1  0.47881079  0.02118921  0.72469366  1
