# generated using pymatgen
data_Tb7CoI12
_symmetry_space_group_name_H-M   'P 1'
_cell_length_a   9.79291597
_cell_length_b   9.79291597
_cell_length_c   9.79291554
_cell_angle_alpha   106.85070254
_cell_angle_beta   106.85070259
_cell_angle_gamma   106.85069922
_symmetry_Int_Tables_number   1
_chemical_formula_structural   Tb7CoI12
_chemical_formula_sum   'Tb7 Co1 I12'
_cell_volume   785.29871702
_cell_formula_units_Z   1
loop_
 _symmetry_equiv_pos_site_id
 _symmetry_equiv_pos_as_xyz
  1  'x, y, z'
loop_
 _atom_site_type_symbol
 _atom_site_label
 _atom_site_symmetry_multiplicity
 _atom_site_fract_x
 _atom_site_fract_y
 _atom_site_fract_z
 _atom_site_occupancy
  Tb  Tb0  1  0.50000000  0.50000000  0.50000000  1
  Tb  Tb1  1  0.97757809  0.90760760  0.71104739  1
  Tb  Tb2  1  0.90760760  0.71104739  0.97757809  1
  Tb  Tb3  1  0.71104739  0.97757809  0.90760760  1
  Tb  Tb4  1  0.02242191  0.09239240  0.28895261  1
  Tb  Tb5  1  0.09239240  0.28895261  0.02242191  1
  Tb  Tb6  1  0.28895261  0.02242191  0.09239240  1
  Co  Co7  1  -0.00000000  -0.00000000  -0.00000000  1
  I  I8  1  0.83911331  0.53578130  0.61296644  1
  I  I9  1  0.53578130  0.61296644  0.83911331  1
  I  I10  1  0.61296644  0.83911331  0.53578130  1
  I  I11  1  0.16088669  0.46421870  0.38703356  1
  I  I12  1  0.46421870  0.38703356  0.16088669  1
  I  I13  1  0.38703356  0.16088669  0.46421870  1
  I  I14  1  0.32174385  0.92792460  0.77452624  1
  I  I15  1  0.92792460  0.77452624  0.32174385  1
  I  I16  1  0.77452624  0.32174385  0.92792460  1
  I  I17  1  0.67825615  0.07207540  0.22547376  1
  I  I18  1  0.07207540  0.22547376  0.67825615  1
  I  I19  1  0.22547376  0.67825615  0.07207540  1
