# generated using pymatgen
data_Eu3(GaAs2)2
_symmetry_space_group_name_H-M   'P 1'
_cell_length_a   6.77468337
_cell_length_b   8.50432321
_cell_length_c   8.50432321
_cell_angle_alpha   76.18712584
_cell_angle_beta   90.91534537
_cell_angle_gamma   90.91534537
_symmetry_Int_Tables_number   1
_chemical_formula_structural   Eu3(GaAs2)2
_chemical_formula_sum   'Eu6 Ga4 As8'
_cell_volume   475.70129200
_cell_formula_units_Z   2
loop_
 _symmetry_equiv_pos_site_id
 _symmetry_equiv_pos_as_xyz
  1  'x, y, z'
loop_
 _atom_site_type_symbol
 _atom_site_label
 _atom_site_symmetry_multiplicity
 _atom_site_fract_x
 _atom_site_fract_y
 _atom_site_fract_z
 _atom_site_occupancy
  Eu  Eu0  1  0.03115350  0.75225838  0.00311551  1
  Eu  Eu1  1  0.46884650  0.99688449  0.24774162  1
  Eu  Eu2  1  0.96884650  0.24774162  0.99688449  1
  Eu  Eu3  1  0.53115350  0.00311551  0.75225838  1
  Eu  Eu4  1  0.75000000  0.60039250  0.39960750  1
  Eu  Eu5  1  0.25000000  0.39960750  0.60039250  1
  Ga  Ga6  1  0.58444910  0.58186488  0.82534083  1
  Ga  Ga7  1  0.91555090  0.17465917  0.41813512  1
  Ga  Ga8  1  0.41555090  0.41813512  0.17465917  1
  Ga  Ga9  1  0.08444910  0.82534083  0.58186488  1
  As  As10  1  0.52460073  0.71504156  0.06069509  1
  As  As11  1  0.97539927  0.93930491  0.28495844  1
  As  As12  1  0.47539927  0.28495844  0.93930491  1
  As  As13  1  0.02460073  0.06069509  0.71504156  1
  As  As14  1  0.93344750  0.56496677  0.74291475  1
  As  As15  1  0.56655250  0.25708525  0.43503323  1
  As  As16  1  0.06655250  0.43503323  0.25708525  1
  As  As17  1  0.43344750  0.74291475  0.56496677  1
