# generated using pymatgen
data_Er3Tl5
_symmetry_space_group_name_H-M   'P 1'
_cell_length_a   6.48365421
_cell_length_b   6.48365421
_cell_length_c   10.60243550
_cell_angle_alpha   90.00000000
_cell_angle_beta   90.00000000
_cell_angle_gamma   104.69586695
_symmetry_Int_Tables_number   1
_chemical_formula_structural   Er3Tl5
_chemical_formula_sum   'Er6 Tl10'
_cell_volume   431.12206906
_cell_formula_units_Z   2
loop_
 _symmetry_equiv_pos_site_id
 _symmetry_equiv_pos_as_xyz
  1  'x, y, z'
loop_
 _atom_site_type_symbol
 _atom_site_label
 _atom_site_symmetry_multiplicity
 _atom_site_fract_x
 _atom_site_fract_y
 _atom_site_fract_z
 _atom_site_occupancy
  Er  Er0  1  0.61713841  0.61713841  0.25000000  1
  Er  Er1  1  0.38286159  0.38286159  0.75000000  1
  Er  Er2  1  0.79497694  0.20502306  0.50000000  1
  Er  Er3  1  0.79497694  0.20502306  -0.00000000  1
  Er  Er4  1  0.20502306  0.79497694  0.50000000  1
  Er  Er5  1  0.20502306  0.79497694  0.00000000  1
  Tl  Tl6  1  0.00203188  0.00203188  0.25000000  1
  Tl  Tl7  1  0.99796812  0.99796812  0.75000000  1
  Tl  Tl8  1  0.30211977  0.30211977  0.04321719  1
  Tl  Tl9  1  0.69788023  0.69788023  0.95678281  1
  Tl  Tl10  1  0.30211977  0.30211977  0.45678281  1
  Tl  Tl11  1  0.69788023  0.69788023  0.54321719  1
  Tl  Tl12  1  0.06155939  0.51601244  0.25000000  1
  Tl  Tl13  1  0.48398756  0.93844061  0.75000000  1
  Tl  Tl14  1  0.93844061  0.48398756  0.75000000  1
  Tl  Tl15  1  0.51601244  0.06155939  0.25000000  1
