# generated using pymatgen
data_Ce4Se3N2
_symmetry_space_group_name_H-M   'P 1'
_cell_length_a   6.41680990
_cell_length_b   8.20388196
_cell_length_c   8.20388196
_cell_angle_alpha   75.55016101
_cell_angle_beta   90.14797578
_cell_angle_gamma   90.14797578
_symmetry_Int_Tables_number   1
_chemical_formula_structural   Ce4Se3N2
_chemical_formula_sum   'Ce8 Se6 N4'
_cell_volume   418.21095465
_cell_formula_units_Z   2
loop_
 _symmetry_equiv_pos_site_id
 _symmetry_equiv_pos_as_xyz
  1  'x, y, z'
loop_
 _atom_site_type_symbol
 _atom_site_label
 _atom_site_symmetry_multiplicity
 _atom_site_fract_x
 _atom_site_fract_y
 _atom_site_fract_z
 _atom_site_occupancy
  Ce  Ce0  1  0.47005020  0.80570131  0.44290584  1
  Ce  Ce1  1  0.02994980  0.55709416  0.19429869  1
  Ce  Ce2  1  0.52994980  0.19429869  0.55709416  1
  Ce  Ce3  1  0.97005020  0.44290584  0.80570131  1
  Ce  Ce4  1  0.42662836  0.24145232  0.08720097  1
  Ce  Ce5  1  0.07337164  0.91279903  0.75854768  1
  Ce  Ce6  1  0.57337164  0.75854768  0.91279903  1
  Ce  Ce7  1  0.92662836  0.08720097  0.24145232  1
  Se  Se8  1  0.25000000  0.90157705  0.09842295  1
  Se  Se9  1  0.75000000  0.09842295  0.90157705  1
  Se  Se10  1  0.46652099  0.48584362  0.74432454  1
  Se  Se11  1  0.03347901  0.25567546  0.51415638  1
  Se  Se12  1  0.53347901  0.51415638  0.25567546  1
  Se  Se13  1  0.96652099  0.74432454  0.48584362  1
  N  N14  1  0.41366799  0.91946672  0.66795174  1
  N  N15  1  0.08633201  0.33204826  0.08053328  1
  N  N16  1  0.58633201  0.08053328  0.33204826  1
  N  N17  1  0.91366799  0.66795174  0.91946672  1
