# generated using pymatgen
data_Tb5Pb3
_symmetry_space_group_name_H-M   'P 1'
_cell_length_a   6.67885191
_cell_length_b   9.08359385
_cell_length_c   9.08440743
_cell_angle_alpha   119.99704379
_cell_angle_beta   90.00000000
_cell_angle_gamma   90.00000000
_symmetry_Int_Tables_number   1
_chemical_formula_structural   Tb5Pb3
_chemical_formula_sum   'Tb10 Pb6'
_cell_volume   477.30907659
_cell_formula_units_Z   2
loop_
 _symmetry_equiv_pos_site_id
 _symmetry_equiv_pos_as_xyz
  1  'x, y, z'
loop_
 _atom_site_type_symbol
 _atom_site_label
 _atom_site_symmetry_multiplicity
 _atom_site_fract_x
 _atom_site_fract_y
 _atom_site_fract_z
 _atom_site_occupancy
  Tb  Tb0  1  0.50000018  0.33333705  0.66672400  1
  Tb  Tb1  1  0.50000018  0.66661305  0.33327600  1
  Tb  Tb2  1  0.00000018  0.66666295  0.33327600  1
  Tb  Tb3  1  0.00000018  0.33338695  0.66672400  1
  Tb  Tb4  1  0.75000207  0.23888094  0.00000000  1
  Tb  Tb5  1  0.74999859  0.76114523  0.76113939  1
  Tb  Tb6  1  0.74999859  0.00000585  0.23886061  1
  Tb  Tb7  1  0.25000207  0.76111906  1.00000000  1
  Tb  Tb8  1  0.24999859  0.23885477  0.23886061  1
  Tb  Tb9  1  0.24999859  -0.00000585  0.76113939  1
  Pb  Pb10  1  0.74999234  0.60574744  0.00000000  1
  Pb  Pb11  1  0.75000402  0.39427234  0.39423264  1
  Pb  Pb12  1  0.75000402  0.00003969  0.60576736  1
  Pb  Pb13  1  0.24999234  0.39425256  1.00000000  1
  Pb  Pb14  1  0.25000402  0.60572766  0.60576736  1
  Pb  Pb15  1  0.25000402  0.99996031  0.39423264  1
