# generated using pymatgen
data_Y3In5
_symmetry_space_group_name_H-M   'P 1'
_cell_length_a   6.40393853
_cell_length_b   6.40393853
_cell_length_c   10.43418717
_cell_angle_alpha   90.00000000
_cell_angle_beta   90.00000000
_cell_angle_gamma   101.44067595
_symmetry_Int_Tables_number   1
_chemical_formula_structural   Y3In5
_chemical_formula_sum   'Y6 In10'
_cell_volume   419.40816695
_cell_formula_units_Z   2
loop_
 _symmetry_equiv_pos_site_id
 _symmetry_equiv_pos_as_xyz
  1  'x, y, z'
loop_
 _atom_site_type_symbol
 _atom_site_label
 _atom_site_symmetry_multiplicity
 _atom_site_fract_x
 _atom_site_fract_y
 _atom_site_fract_z
 _atom_site_occupancy
  Y  Y0  1  0.62379027  0.62379027  0.25000000  1
  Y  Y1  1  0.37620973  0.37620973  0.75000000  1
  Y  Y2  1  0.79685577  0.20314423  0.50000000  1
  Y  Y3  1  0.79685577  0.20314423  -0.00000000  1
  Y  Y4  1  0.20314423  0.79685577  0.50000000  1
  Y  Y5  1  0.20314423  0.79685577  -0.00000000  1
  In  In6  1  0.00756725  0.00756725  0.25000000  1
  In  In7  1  0.99243275  0.99243275  0.75000000  1
  In  In8  1  0.30795911  0.30795911  0.04467701  1
  In  In9  1  0.69204089  0.69204089  0.95532299  1
  In  In10  1  0.30795911  0.30795911  0.45532299  1
  In  In11  1  0.69204089  0.69204089  0.54467701  1
  In  In12  1  0.07784436  0.51109548  0.25000000  1
  In  In13  1  0.48890452  0.92215564  0.75000000  1
  In  In14  1  0.92215564  0.48890452  0.75000000  1
  In  In15  1  0.51109548  0.07784436  0.25000000  1
