# generated using pymatgen
data_NdGePd2
_symmetry_space_group_name_H-M   'P 1'
_cell_length_a   5.80239530
_cell_length_b   7.59440782
_cell_length_c   7.14041139
_cell_angle_alpha   90.00000000
_cell_angle_beta   90.00000000
_cell_angle_gamma   90.00000000
_symmetry_Int_Tables_number   1
_chemical_formula_structural   NdGePd2
_chemical_formula_sum   'Nd4 Ge4 Pd8'
_cell_volume   314.64762777
_cell_formula_units_Z   4
loop_
 _symmetry_equiv_pos_site_id
 _symmetry_equiv_pos_as_xyz
  1  'x, y, z'
loop_
 _atom_site_type_symbol
 _atom_site_label
 _atom_site_symmetry_multiplicity
 _atom_site_fract_x
 _atom_site_fract_y
 _atom_site_fract_z
 _atom_site_occupancy
  Nd  Nd0  1  0.85518199  0.52379202  0.25000000  1
  Nd  Nd1  1  0.64481801  0.02379202  0.25000000  1
  Nd  Nd2  1  0.14481801  0.47620798  0.75000000  1
  Nd  Nd3  1  0.35518199  0.97620798  0.75000000  1
  Ge  Ge4  1  0.14328453  0.87803548  0.25000000  1
  Ge  Ge5  1  0.35671547  0.37803548  0.25000000  1
  Ge  Ge6  1  0.85671547  0.12196452  0.75000000  1
  Ge  Ge7  1  0.64328453  0.62196452  0.75000000  1
  Pd  Pd8  1  0.41125438  0.68142670  0.05267714  1
  Pd  Pd9  1  0.08874562  0.18142670  0.44732286  1
  Pd  Pd10  1  0.58874562  0.31857330  0.55267714  1
  Pd  Pd11  1  0.91125438  0.81857330  0.94732286  1
  Pd  Pd12  1  0.58874562  0.31857330  0.94732286  1
  Pd  Pd13  1  0.91125438  0.81857330  0.55267714  1
  Pd  Pd14  1  0.41125438  0.68142670  0.44732286  1
  Pd  Pd15  1  0.08874562  0.18142670  0.05267714  1
