# generated using pymatgen
data_Sm(CoB)4
_symmetry_space_group_name_H-M   'P 1'
_cell_length_a   3.80176432
_cell_length_b   7.01641865
_cell_length_c   7.01641865
_cell_angle_alpha   90.00000000
_cell_angle_beta   90.00000000
_cell_angle_gamma   90.00000000
_symmetry_Int_Tables_number   1
_chemical_formula_structural   Sm(CoB)4
_chemical_formula_sum   'Sm2 Co8 B8'
_cell_volume   187.16135426
_cell_formula_units_Z   2
loop_
 _symmetry_equiv_pos_site_id
 _symmetry_equiv_pos_as_xyz
  1  'x, y, z'
loop_
 _atom_site_type_symbol
 _atom_site_label
 _atom_site_symmetry_multiplicity
 _atom_site_fract_x
 _atom_site_fract_y
 _atom_site_fract_z
 _atom_site_occupancy
  Sm  Sm0  1  0.25000000  0.25000000  0.25000000  1
  Sm  Sm1  1  0.75000000  0.75000000  0.75000000  1
  Co  Co2  1  0.14317913  0.39242507  0.63369075  1
  Co  Co3  1  0.14317913  0.10757493  0.86630925  1
  Co  Co4  1  0.64317913  0.13369075  0.60757493  1
  Co  Co5  1  0.64317913  0.36630925  0.89242507  1
  Co  Co6  1  0.85682087  0.60757493  0.36630925  1
  Co  Co7  1  0.85682087  0.89242507  0.13369075  1
  Co  Co8  1  0.35682087  0.86630925  0.39242507  1
  Co  Co9  1  0.35682087  0.63369075  0.10757493  1
  B  B10  1  0.35399131  0.91235246  0.04785830  1
  B  B11  1  0.35399131  0.58764754  0.45214170  1
  B  B12  1  0.85399131  0.54785830  0.08764754  1
  B  B13  1  0.85399131  0.95214170  0.41235246  1
  B  B14  1  0.64600869  0.08764754  0.95214170  1
  B  B15  1  0.64600869  0.41235246  0.54785830  1
  B  B16  1  0.14600869  0.45214170  0.91235246  1
  B  B17  1  0.14600869  0.04785830  0.58764754  1
