# generated using pymatgen
data_CsSnF3
_symmetry_space_group_name_H-M   'P 1'
_cell_length_a   4.96134616
_cell_length_b   6.66926536
_cell_length_c   14.60059414
_cell_angle_alpha   90.00000000
_cell_angle_beta   91.10289060
_cell_angle_gamma   90.00000000
_symmetry_Int_Tables_number   1
_chemical_formula_structural   CsSnF3
_chemical_formula_sum   'Cs4 Sn4 F12'
_cell_volume   483.02275669
_cell_formula_units_Z   4
loop_
 _symmetry_equiv_pos_site_id
 _symmetry_equiv_pos_as_xyz
  1  'x, y, z'
loop_
 _atom_site_type_symbol
 _atom_site_label
 _atom_site_symmetry_multiplicity
 _atom_site_fract_x
 _atom_site_fract_y
 _atom_site_fract_z
 _atom_site_occupancy
  Cs  Cs0  1  0.23787240  0.97740036  0.35835900  1
  Cs  Cs1  1  0.73787240  0.52259964  0.85835900  1
  Cs  Cs2  1  0.76212760  0.02259964  0.64164100  1
  Cs  Cs3  1  0.26212760  0.47740036  0.14164100  1
  Sn  Sn4  1  0.24935900  0.02456533  0.88430021  1
  Sn  Sn5  1  0.74935900  0.47543467  0.38430021  1
  Sn  Sn6  1  0.75064100  0.97543467  0.11569979  1
  Sn  Sn7  1  0.25064100  0.52456533  0.61569979  1
  F  F8  1  0.29330341  0.18400193  0.76325807  1
  F  F9  1  0.79330341  0.31599807  0.26325807  1
  F  F10  1  0.70669659  0.81599807  0.23674193  1
  F  F11  1  0.20669659  0.68400193  0.73674193  1
  F  F12  1  0.82864007  0.04952775  0.86007209  1
  F  F13  1  0.32864007  0.45047225  0.36007209  1
  F  F14  1  0.17135993  0.95047225  0.13992791  1
  F  F15  1  0.67135993  0.54952775  0.63992791  1
  F  F16  1  0.24194101  0.30359342  0.94883355  1
  F  F17  1  0.74194101  0.19640658  0.44883355  1
  F  F18  1  0.75805899  0.69640658  0.05116645  1
  F  F19  1  0.25805899  0.80359342  0.55116645  1
