# generated using pymatgen
data_La7Ir3
_symmetry_space_group_name_H-M   'P 1'
_cell_length_a   6.47986635
_cell_length_b   10.28367979
_cell_length_c   10.28367979
_cell_angle_alpha   119.97375747
_cell_angle_beta   90.00000000
_cell_angle_gamma   90.00000000
_symmetry_Int_Tables_number   1
_chemical_formula_structural   La7Ir3
_chemical_formula_sum   'La14 Ir6'
_cell_volume   593.62003952
_cell_formula_units_Z   2
loop_
 _symmetry_equiv_pos_site_id
 _symmetry_equiv_pos_as_xyz
  1  'x, y, z'
loop_
 _atom_site_type_symbol
 _atom_site_label
 _atom_site_symmetry_multiplicity
 _atom_site_fract_x
 _atom_site_fract_y
 _atom_site_fract_z
 _atom_site_occupancy
  La  La0  1  0.46735998  0.33329910  0.66670090  1
  La  La1  1  0.96735998  0.66670090  0.33329910  1
  La  La2  1  0.24995720  0.12551898  0.87448102  1
  La  La3  1  0.24996518  0.74887789  0.87446467  1
  La  La4  1  0.24996518  0.12553533  0.25112211  1
  La  La5  1  0.74995720  0.87448102  0.12551898  1
  La  La6  1  0.74996518  0.25112211  0.12553533  1
  La  La7  1  0.74996518  0.87446467  0.74887789  1
  La  La8  1  0.44004032  0.54014840  0.45985160  1
  La  La9  1  0.43989501  0.91974468  0.45993296  1
  La  La10  1  0.43989501  0.54006704  0.08025532  1
  La  La11  1  0.94004032  0.45985160  0.54014840  1
  La  La12  1  0.93989501  0.08025532  0.54006704  1
  La  La13  1  0.93989501  0.45993296  0.91974468  1
  Ir  Ir14  1  0.18796763  0.81114729  0.18885271  1
  Ir  Ir15  1  0.18797725  0.37769070  0.18885883  1
  Ir  Ir16  1  0.18797725  0.81114117  0.62230930  1
  Ir  Ir17  1  0.68796763  0.18885271  0.81114729  1
  Ir  Ir18  1  0.68797725  0.62230930  0.81114117  1
  Ir  Ir19  1  0.68797725  0.18885883  0.37769070  1
