# generated using pymatgen
data_Tm3Ge3Ru2
_symmetry_space_group_name_H-M   'P 1'
_cell_length_a   4.24088671
_cell_length_b   5.75388256
_cell_length_c   13.80600406
_cell_angle_alpha   90.00000000
_cell_angle_beta   90.00000000
_cell_angle_gamma   111.62460686
_symmetry_Int_Tables_number   1
_chemical_formula_structural   Tm3Ge3Ru2
_chemical_formula_sum   'Tm6 Ge6 Ru4'
_cell_volume   313.17733644
_cell_formula_units_Z   2
loop_
 _symmetry_equiv_pos_site_id
 _symmetry_equiv_pos_as_xyz
  1  'x, y, z'
loop_
 _atom_site_type_symbol
 _atom_site_label
 _atom_site_symmetry_multiplicity
 _atom_site_fract_x
 _atom_site_fract_y
 _atom_site_fract_z
 _atom_site_occupancy
  Tm  Tm0  1  0.07726003  0.15452007  0.38632022  1
  Tm  Tm1  1  0.92273997  0.84547993  0.61367978  1
  Tm  Tm2  1  0.07726003  0.15452007  0.11367978  1
  Tm  Tm3  1  0.92273997  0.84547993  0.88632022  1
  Tm  Tm4  1  0.35361143  0.70722285  0.25000000  1
  Tm  Tm5  1  0.64638857  0.29277715  0.75000000  1
  Ge  Ge6  1  0.38566679  0.77133359  0.45943635  1
  Ge  Ge7  1  0.61433321  0.22866641  0.54056365  1
  Ge  Ge8  1  0.38566679  0.77133359  0.04056365  1
  Ge  Ge9  1  0.61433321  0.22866641  0.95943635  1
  Ge  Ge10  1  0.66096504  0.32193008  0.25000000  1
  Ge  Ge11  1  0.33903496  0.67806992  0.75000000  1
  Ru  Ru12  1  0.21275882  0.42551765  0.91665671  1
  Ru  Ru13  1  0.78724118  0.57448235  0.08334329  1
  Ru  Ru14  1  0.21275882  0.42551765  0.58334329  1
  Ru  Ru15  1  0.78724118  0.57448235  0.41665671  1
