# generated using pymatgen
data_Pu2Zn17
_symmetry_space_group_name_H-M   'P 1'
_cell_length_a   6.82510479
_cell_length_b   6.82510479
_cell_length_c   6.82510529
_cell_angle_alpha   82.64297690
_cell_angle_beta   82.64297690
_cell_angle_gamma   82.64297638
_symmetry_Int_Tables_number   1
_chemical_formula_structural   Pu2Zn17
_chemical_formula_sum   'Pu2 Zn17'
_cell_volume   310.69297294
_cell_formula_units_Z   1
loop_
 _symmetry_equiv_pos_site_id
 _symmetry_equiv_pos_as_xyz
  1  'x, y, z'
loop_
 _atom_site_type_symbol
 _atom_site_label
 _atom_site_symmetry_multiplicity
 _atom_site_fract_x
 _atom_site_fract_y
 _atom_site_fract_z
 _atom_site_occupancy
  Pu  Pu0  1  0.66506767  0.66506767  0.66506767  1
  Pu  Pu1  1  0.33493233  0.33493233  0.33493233  1
  Zn  Zn2  1  0.00000000  -0.00000000  0.50000000  1
  Zn  Zn3  1  0.00000000  0.50000000  0.00000000  1
  Zn  Zn4  1  0.50000000  -0.00000000  0.00000000  1
  Zn  Zn5  1  0.30061708  0.69938292  0.00000000  1
  Zn  Zn6  1  0.69938292  0.00000000  0.30061708  1
  Zn  Zn7  1  1.00000000  0.30061708  0.69938292  1
  Zn  Zn8  1  0.30061708  1.00000000  0.69938292  1
  Zn  Zn9  1  0.00000000  0.69938292  0.30061708  1
  Zn  Zn10  1  0.69938292  0.30061708  -0.00000000  1
  Zn  Zn11  1  0.35218852  0.35218852  0.83780820  1
  Zn  Zn12  1  0.35218852  0.83780820  0.35218852  1
  Zn  Zn13  1  0.83780820  0.35218852  0.35218852  1
  Zn  Zn14  1  0.64781148  0.64781148  0.16219180  1
  Zn  Zn15  1  0.64781148  0.16219180  0.64781148  1
  Zn  Zn16  1  0.16219180  0.64781148  0.64781148  1
  Zn  Zn17  1  0.89845228  0.89845228  0.89845228  1
  Zn  Zn18  1  0.10154772  0.10154772  0.10154772  1
