# generated using pymatgen
data_HoGa2Co3
_symmetry_space_group_name_H-M   'P 1'
_cell_length_a   3.84128938
_cell_length_b   8.93050453
_cell_length_c   8.94031755
_cell_angle_alpha   119.96369574
_cell_angle_beta   90.00000000
_cell_angle_gamma   90.00000000
_symmetry_Int_Tables_number   1
_chemical_formula_structural   HoGa2Co3
_chemical_formula_sum   'Ho3 Ga6 Co9'
_cell_volume   265.70232637
_cell_formula_units_Z   3
loop_
 _symmetry_equiv_pos_site_id
 _symmetry_equiv_pos_as_xyz
  1  'x, y, z'
loop_
 _atom_site_type_symbol
 _atom_site_label
 _atom_site_symmetry_multiplicity
 _atom_site_fract_x
 _atom_site_fract_y
 _atom_site_fract_z
 _atom_site_occupancy
  Ho  Ho0  1  0.00000000  0.00002150  0.00000000  1
  Ho  Ho1  1  0.50000000  0.33325577  0.66656336  1
  Ho  Ho2  1  0.50000000  0.66669241  0.33343664  1
  Ga  Ga3  1  0.50000000  0.31446085  1.00000000  1
  Ga  Ga4  1  0.50000000  0.68556168  0.68547790  1
  Ga  Ga5  1  0.50000000  0.00008379  0.31452210  1
  Ga  Ga6  1  0.50000000  0.68553363  0.00000000  1
  Ga  Ga7  1  0.50000000  0.31442448  0.31452718  1
  Ga  Ga8  1  0.50000000  0.99989730  0.68547282  1
  Co  Co9  1  0.00000000  0.49999512  -0.00000000  1
  Co  Co10  1  -0.00000000  0.49999724  0.50000223  1
  Co  Co11  1  0.00000000  0.99999501  0.49999777  1
  Co  Co12  1  -0.00000000  0.18319233  0.36639730  1
  Co  Co13  1  0.00000000  0.18347283  0.81665249  1
  Co  Co14  1  0.00000000  0.63317916  0.81665761  1
  Co  Co15  1  0.00000000  0.81679502  0.63360270  1
  Co  Co16  1  0.00000000  0.36682033  0.18334751  1
  Co  Co17  1  0.00000000  0.81652155  0.18334239  1
