# generated using pymatgen
data_Nd5Bi3
_symmetry_space_group_name_H-M   'P 1'
_cell_length_a   6.58177281
_cell_length_b   9.54675396
_cell_length_c   9.53939442
_cell_angle_alpha   120.02552028
_cell_angle_beta   90.00000000
_cell_angle_gamma   90.00000000
_symmetry_Int_Tables_number   1
_chemical_formula_structural   Nd5Bi3
_chemical_formula_sum   'Nd10 Bi6'
_cell_volume   518.96529278
_cell_formula_units_Z   2
loop_
 _symmetry_equiv_pos_site_id
 _symmetry_equiv_pos_as_xyz
  1  'x, y, z'
loop_
 _atom_site_type_symbol
 _atom_site_label
 _atom_site_symmetry_multiplicity
 _atom_site_fract_x
 _atom_site_fract_y
 _atom_site_fract_z
 _atom_site_occupancy
  Nd  Nd0  1  0.49999934  0.33336913  0.66673402  1
  Nd  Nd1  1  0.49999934  0.66663511  0.33326598  1
  Nd  Nd2  1  0.99999934  0.66663087  0.33326598  1
  Nd  Nd3  1  0.99999934  0.33336489  0.66673402  1
  Nd  Nd4  1  0.75000044  0.24868745  0.00000000  1
  Nd  Nd5  1  0.75000117  0.75184424  0.75156752  1
  Nd  Nd6  1  0.75000117  0.00027671  0.24843248  1
  Nd  Nd7  1  0.25000044  0.75131255  1.00000000  1
  Nd  Nd8  1  0.25000117  0.24815576  0.24843248  1
  Nd  Nd9  1  0.25000117  0.99972329  0.75156752  1
  Bi  Bi10  1  0.74999845  0.61317729  1.00000000  1
  Bi  Bi11  1  0.75000004  0.38700997  0.38702322  1
  Bi  Bi12  1  0.75000004  -0.00001325  0.61297678  1
  Bi  Bi13  1  0.24999845  0.38682271  0.00000000  1
  Bi  Bi14  1  0.25000004  0.61299003  0.61297678  1
  Bi  Bi15  1  0.25000004  0.00001325  0.38702322  1
