# generated using pymatgen
data_Eu5As3
_symmetry_space_group_name_H-M   'P 1'
_cell_length_a   6.88373256
_cell_length_b   8.87960577
_cell_length_c   8.87973857
_cell_angle_alpha   119.99949945
_cell_angle_beta   90.00000000
_cell_angle_gamma   90.00000000
_symmetry_Int_Tables_number   1
_chemical_formula_structural   Eu5As3
_chemical_formula_sum   'Eu10 As6'
_cell_volume   470.05716366
_cell_formula_units_Z   2
loop_
 _symmetry_equiv_pos_site_id
 _symmetry_equiv_pos_as_xyz
  1  'x, y, z'
loop_
 _atom_site_type_symbol
 _atom_site_label
 _atom_site_symmetry_multiplicity
 _atom_site_fract_x
 _atom_site_fract_y
 _atom_site_fract_z
 _atom_site_occupancy
  Eu  Eu0  1  0.50001022  0.33333605  0.66668430  1
  Eu  Eu1  1  0.50001022  0.66665175  0.33331570  1
  Eu  Eu2  1  0.00001022  0.66666395  0.33331570  1
  Eu  Eu3  1  0.00001022  0.33334825  0.66668430  1
  Eu  Eu4  1  0.74999209  0.25534219  1.00000000  1
  Eu  Eu5  1  0.74998630  0.74461418  0.74460070  1
  Eu  Eu6  1  0.74998630  0.00001348  0.25539930  1
  Eu  Eu7  1  0.24999209  0.74465781  0.00000000  1
  Eu  Eu8  1  0.24998630  0.25538582  0.25539930  1
  Eu  Eu9  1  0.24998630  -0.00001348  0.74460070  1
  As  As10  1  0.75000208  0.61024226  -0.00000000  1
  As  As11  1  0.75000639  0.38974764  0.38975335  1
  As  As12  1  0.75000639  0.99999429  0.61024665  1
  As  As13  1  0.25000208  0.38975774  0.00000000  1
  As  As14  1  0.25000639  0.61025236  0.61024665  1
  As  As15  1  0.25000639  0.00000571  0.38975335  1
