# generated using pymatgen
data_La2InNi2
_symmetry_space_group_name_H-M   'P 1'
_cell_length_a   3.84043800
_cell_length_b   7.65585954
_cell_length_c   15.61574654
_cell_angle_alpha   90.00000000
_cell_angle_beta   90.00000000
_cell_angle_gamma   90.00000000
_symmetry_Int_Tables_number   1
_chemical_formula_structural   La2InNi2
_chemical_formula_sum   'La8 In4 Ni8'
_cell_volume   459.13189831
_cell_formula_units_Z   4
loop_
 _symmetry_equiv_pos_site_id
 _symmetry_equiv_pos_as_xyz
  1  'x, y, z'
loop_
 _atom_site_type_symbol
 _atom_site_label
 _atom_site_symmetry_multiplicity
 _atom_site_fract_x
 _atom_site_fract_y
 _atom_site_fract_z
 _atom_site_occupancy
  La  La0  1  0.00000000  0.60650045  0.21618161  1
  La  La1  1  0.00000000  0.39349955  0.78381839  1
  La  La2  1  0.00000000  0.10650045  0.28381839  1
  La  La3  1  0.00000000  0.89349955  0.71618161  1
  La  La4  1  -0.00000000  0.74719813  0.96409558  1
  La  La5  1  0.00000000  0.25280187  0.03590442  1
  La  La6  1  -0.00000000  0.24719813  0.53590442  1
  La  La7  1  0.00000000  0.75280187  0.46409558  1
  In  In8  1  0.50000000  0.42346088  0.37092682  1
  In  In9  1  0.50000000  0.57653912  0.62907318  1
  In  In10  1  0.50000000  0.92346088  0.12907318  1
  In  In11  1  0.50000000  0.07653912  0.87092682  1
  Ni  Ni12  1  0.50000000  0.55554917  0.07437484  1
  Ni  Ni13  1  0.50000000  0.44445083  0.92562516  1
  Ni  Ni14  1  0.50000000  0.05554917  0.42562516  1
  Ni  Ni15  1  0.50000000  0.94445083  0.57437484  1
  Ni  Ni16  1  0.50000000  0.30652979  0.18152938  1
  Ni  Ni17  1  0.50000000  0.69347021  0.81847062  1
  Ni  Ni18  1  0.50000000  0.80652979  0.31847062  1
  Ni  Ni19  1  0.50000000  0.19347021  0.68152938  1
