# generated using pymatgen
data_La7Pd3
_symmetry_space_group_name_H-M   'P 1'
_cell_length_a   6.63058621
_cell_length_b   10.38851936
_cell_length_c   10.38851936
_cell_angle_alpha   119.99506622
_cell_angle_beta   90.00000000
_cell_angle_gamma   90.00000000
_symmetry_Int_Tables_number   1
_chemical_formula_structural   La7Pd3
_chemical_formula_sum   'La14 Pd6'
_cell_volume   619.74274805
_cell_formula_units_Z   2
loop_
 _symmetry_equiv_pos_site_id
 _symmetry_equiv_pos_as_xyz
  1  'x, y, z'
loop_
 _atom_site_type_symbol
 _atom_site_label
 _atom_site_symmetry_multiplicity
 _atom_site_fract_x
 _atom_site_fract_y
 _atom_site_fract_z
 _atom_site_occupancy
  La  La0  1  0.45802717  0.33332496  0.66667504  1
  La  La1  1  0.95802717  0.66667504  0.33332496  1
  La  La2  1  0.24907300  0.12568510  0.87431490  1
  La  La3  1  0.24907690  0.74871927  0.87435474  1
  La  La4  1  0.24907690  0.12564526  0.25128073  1
  La  La5  1  0.74907300  0.87431490  0.12568510  1
  La  La6  1  0.74907690  0.25128073  0.12564526  1
  La  La7  1  0.74907690  0.87435474  0.74871927  1
  La  La8  1  0.43898555  0.53840272  0.46159728  1
  La  La9  1  0.43905184  0.92320705  0.46163022  1
  La  La10  1  0.43905184  0.53836978  0.07679295  1
  La  La11  1  0.93898555  0.46159728  0.53840272  1
  La  La12  1  0.93905184  0.07679295  0.53836978  1
  La  La13  1  0.93905184  0.46163022  0.92320705  1
  Pd  Pd14  1  0.19022988  0.81216333  0.18783667  1
  Pd  Pd15  1  0.19021346  0.37569827  0.18786851  1
  Pd  Pd16  1  0.19021346  0.81213149  0.62430173  1
  Pd  Pd17  1  0.69022988  0.18783667  0.81216333  1
  Pd  Pd18  1  0.69021346  0.62430173  0.81213149  1
  Pd  Pd19  1  0.69021346  0.18786851  0.37569827  1
