# generated using pymatgen
data_Cr3N2
_symmetry_space_group_name_H-M   'P 1'
_cell_length_a   2.86535763
_cell_length_b   2.86535763
_cell_length_c   6.11320015
_cell_angle_alpha   103.55379611
_cell_angle_beta   103.55379611
_cell_angle_gamma   90.00000000
_symmetry_Int_Tables_number   1
_chemical_formula_structural   Cr3N2
_chemical_formula_sum   'Cr3 N2'
_cell_volume   47.35419694
_cell_formula_units_Z   1
loop_
 _symmetry_equiv_pos_site_id
 _symmetry_equiv_pos_as_xyz
  1  'x, y, z'
loop_
 _atom_site_type_symbol
 _atom_site_label
 _atom_site_symmetry_multiplicity
 _atom_site_fract_x
 _atom_site_fract_y
 _atom_site_fract_z
 _atom_site_occupancy
  Cr  Cr0  1  -0.00000000  -0.00000000  0.00000000  1
  Cr  Cr1  1  0.65315374  0.65315374  0.30630748  1
  Cr  Cr2  1  0.34684626  0.34684626  0.69369252  1
  N  N3  1  0.83165056  0.83165056  0.66330112  1
  N  N4  1  0.16834944  0.16834944  0.33669888  1
