# generated using pymatgen
data_Lu2Si5Ni3
_symmetry_space_group_name_H-M   'P 1'
_cell_length_a   5.57838133
_cell_length_b   7.80159729
_cell_length_c   7.80159729
_cell_angle_alpha   76.31819837
_cell_angle_beta   69.05231442
_cell_angle_gamma   69.05231442
_symmetry_Int_Tables_number   1
_chemical_formula_structural   Lu2Si5Ni3
_chemical_formula_sum   'Lu4 Si10 Ni6'
_cell_volume   293.82087221
_cell_formula_units_Z   2
loop_
 _symmetry_equiv_pos_site_id
 _symmetry_equiv_pos_as_xyz
  1  'x, y, z'
loop_
 _atom_site_type_symbol
 _atom_site_label
 _atom_site_symmetry_multiplicity
 _atom_site_fract_x
 _atom_site_fract_y
 _atom_site_fract_z
 _atom_site_occupancy
  Lu  Lu0  1  0.36981575  0.39388216  0.86648633  1
  Lu  Lu1  1  0.63018425  0.60611784  0.13351367  1
  Lu  Lu2  1  0.86981575  0.86648633  0.39388216  1
  Lu  Lu3  1  0.13018425  0.13351367  0.60611784  1
  Si  Si4  1  0.25000000  0.50000000  0.50000000  1
  Si  Si5  1  0.75000000  0.50000000  0.50000000  1
  Si  Si6  1  0.01377890  0.23622110  0.23622110  1
  Si  Si7  1  0.48622110  0.76377890  0.76377890  1
  Si  Si8  1  0.98622110  0.76377890  0.76377890  1
  Si  Si9  1  0.51377890  0.23622110  0.23622110  1
  Si  Si10  1  0.10884056  0.73963438  0.04268450  1
  Si  Si11  1  0.89115944  0.26036562  0.95731550  1
  Si  Si12  1  0.60884056  0.04268450  0.73963438  1
  Si  Si13  1  0.39115944  0.95731550  0.26036562  1
  Ni  Ni14  1  0.25000000  0.00000000  -0.00000000  1
  Ni  Ni15  1  0.75000000  0.00000000  -0.00000000  1
  Ni  Ni16  1  0.13388109  0.48357182  0.24866600  1
  Ni  Ni17  1  0.86611891  0.51642818  0.75133400  1
  Ni  Ni18  1  0.63388109  0.24866600  0.48357182  1
  Ni  Ni19  1  0.36611891  0.75133400  0.51642818  1
