# generated using pymatgen
data_TmCrTeO6
_symmetry_space_group_name_H-M   'P 1'
_cell_length_a   5.17427788
_cell_length_b   5.17411560
_cell_length_c   9.65199562
_cell_angle_alpha   90.00126377
_cell_angle_beta   89.99936816
_cell_angle_gamma   119.99896557
_symmetry_Int_Tables_number   1
_chemical_formula_structural   TmCrTeO6
_chemical_formula_sum   'Tm2 Cr2 Te2 O12'
_cell_volume   223.78869836
_cell_formula_units_Z   2
loop_
 _symmetry_equiv_pos_site_id
 _symmetry_equiv_pos_as_xyz
  1  'x, y, z'
loop_
 _atom_site_type_symbol
 _atom_site_label
 _atom_site_symmetry_multiplicity
 _atom_site_fract_x
 _atom_site_fract_y
 _atom_site_fract_z
 _atom_site_occupancy
  Tm  Tm0  1  0.00000000  0.00000000  0.00000000  1
  Tm  Tm1  1  0.00000000  0.00000000  0.50000000  1
  Cr  Cr2  1  0.33309386  0.66654693  0.25000000  1
  Cr  Cr3  1  0.66690614  0.33345307  0.75000000  1
  Te  Te4  1  0.33331566  0.66665783  0.75000000  1
  Te  Te5  1  0.66668434  0.33334217  0.25000000  1
  O  O6  1  0.36192682  0.35170820  0.13800627  1
  O  O7  1  0.64829055  0.01019524  0.13799625  1
  O  O8  1  0.98981246  0.63808405  0.13800249  1
  O  O9  1  0.63807318  0.64829180  0.86199373  1
  O  O10  1  0.35170945  0.98980476  0.86200375  1
  O  O11  1  0.01018754  0.36191595  0.86199751  1
  O  O12  1  0.64829055  0.63809532  0.36200375  1
  O  O13  1  0.36192682  0.01021862  0.36199373  1
  O  O14  1  0.98981246  0.35172841  0.36199751  1
  O  O15  1  0.35170945  0.36190468  0.63799625  1
  O  O16  1  0.63807318  0.98978138  0.63800627  1
  O  O17  1  0.01018754  0.64827159  0.63800249  1
