# generated using pymatgen
data_La5Bi3
_symmetry_space_group_name_H-M   'P 1'
_cell_length_a   6.65876204
_cell_length_b   9.75966924
_cell_length_c   9.76941367
_cell_angle_alpha   119.96701252
_cell_angle_beta   90.00000000
_cell_angle_gamma   90.00000000
_symmetry_Int_Tables_number   1
_chemical_formula_structural   La5Bi3
_chemical_formula_sum   'La10 Bi6'
_cell_volume   550.01177965
_cell_formula_units_Z   2
loop_
 _symmetry_equiv_pos_site_id
 _symmetry_equiv_pos_as_xyz
  1  'x, y, z'
loop_
 _atom_site_type_symbol
 _atom_site_label
 _atom_site_symmetry_multiplicity
 _atom_site_fract_x
 _atom_site_fract_y
 _atom_site_fract_z
 _atom_site_occupancy
  La  La0  1  0.50001094  0.33334494  0.66669684  1
  La  La1  1  0.50001094  0.66664810  0.33330316  1
  La  La2  1  0.00001094  0.66665506  0.33330316  1
  La  La3  1  0.00001094  0.33335190  0.66669684  1
  La  La4  1  0.75000463  0.25224948  0.00000000  1
  La  La5  1  0.74999065  0.74750911  0.74770207  1
  La  La6  1  0.74999065  0.99980704  0.25229793  1
  La  La7  1  0.25000463  0.74775052  1.00000000  1
  La  La8  1  0.24999065  0.25249089  0.25229793  1
  La  La9  1  0.24999065  0.00019296  0.74770207  1
  Bi  Bi10  1  0.74999532  0.61560213  0.00000000  1
  Bi  Bi11  1  0.74999844  0.38430561  0.38431813  1
  Bi  Bi12  1  0.74999844  0.99998748  0.61568187  1
  Bi  Bi13  1  0.24999532  0.38439787  1.00000000  1
  Bi  Bi14  1  0.24999844  0.61569439  0.61568187  1
  Bi  Bi15  1  0.24999844  0.00001252  0.38431813  1
