# generated using pymatgen
data_Nd3Co
_symmetry_space_group_name_H-M   'P 1'
_cell_length_a   6.40242113
_cell_length_b   7.09271518
_cell_length_c   9.87518679
_cell_angle_alpha   90.00000000
_cell_angle_beta   90.00000000
_cell_angle_gamma   90.00000000
_symmetry_Int_Tables_number   1
_chemical_formula_structural   Nd3Co
_chemical_formula_sum   'Nd12 Co4'
_cell_volume   448.43765892
_cell_formula_units_Z   4
loop_
 _symmetry_equiv_pos_site_id
 _symmetry_equiv_pos_as_xyz
  1  'x, y, z'
loop_
 _atom_site_type_symbol
 _atom_site_label
 _atom_site_symmetry_multiplicity
 _atom_site_fract_x
 _atom_site_fract_y
 _atom_site_fract_z
 _atom_site_occupancy
  Nd  Nd0  1  0.35857734  0.53934757  0.25000000  1
  Nd  Nd1  1  0.14142266  0.03934757  0.25000000  1
  Nd  Nd2  1  0.64142266  0.46065243  0.75000000  1
  Nd  Nd3  1  0.85857734  0.96065243  0.75000000  1
  Nd  Nd4  1  0.82374940  0.66675781  0.07023658  1
  Nd  Nd5  1  0.67625060  0.16675781  0.42976342  1
  Nd  Nd6  1  0.17625060  0.33324219  0.57023658  1
  Nd  Nd7  1  0.32374940  0.83324219  0.92976342  1
  Nd  Nd8  1  0.17625060  0.33324219  0.92976342  1
  Nd  Nd9  1  0.32374940  0.83324219  0.57023658  1
  Nd  Nd10  1  0.82374940  0.66675781  0.42976342  1
  Nd  Nd11  1  0.67625060  0.16675781  0.07023658  1
  Co  Co12  1  0.56131601  0.88405235  0.25000000  1
  Co  Co13  1  0.93868399  0.38405235  0.25000000  1
  Co  Co14  1  0.43868399  0.11594765  0.75000000  1
  Co  Co15  1  0.06131601  0.61594765  0.75000000  1
