# generated using pymatgen
data_Sr5Tl3
_symmetry_space_group_name_H-M   'P 1'
_cell_length_a   8.99173524
_cell_length_b   8.99173524
_cell_length_c   10.14726576
_cell_angle_alpha   116.29941108
_cell_angle_beta   116.29941108
_cell_angle_gamma   90.00000000
_symmetry_Int_Tables_number   1
_chemical_formula_structural   Sr5Tl3
_chemical_formula_sum   'Sr10 Tl6'
_cell_volume   639.39708341
_cell_formula_units_Z   2
loop_
 _symmetry_equiv_pos_site_id
 _symmetry_equiv_pos_as_xyz
  1  'x, y, z'
loop_
 _atom_site_type_symbol
 _atom_site_label
 _atom_site_symmetry_multiplicity
 _atom_site_fract_x
 _atom_site_fract_y
 _atom_site_fract_z
 _atom_site_occupancy
  Sr  Sr0  1  0.50000000  0.50000000  0.00000000  1
  Sr  Sr1  1  0.00000000  0.00000000  0.00000000  1
  Sr  Sr2  1  0.02480797  0.52480797  0.70868832  1
  Sr  Sr3  1  0.68388035  0.18388035  0.70868832  1
  Sr  Sr4  1  0.18388035  0.02480797  0.70868832  1
  Sr  Sr5  1  0.52480797  0.68388035  0.70868832  1
  Sr  Sr6  1  0.97519203  0.47519203  0.29131168  1
  Sr  Sr7  1  0.31611965  0.81611965  0.29131168  1
  Sr  Sr8  1  0.81611965  0.97519203  0.29131168  1
  Sr  Sr9  1  0.47519203  0.31611965  0.29131168  1
  Tl  Tl10  1  0.25000000  0.25000000  0.50000000  1
  Tl  Tl11  1  0.75000000  0.75000000  0.50000000  1
  Tl  Tl12  1  0.37668691  0.87668691  0.00000000  1
  Tl  Tl13  1  0.62331309  0.12331309  0.00000000  1
  Tl  Tl14  1  0.12331309  0.37668691  0.00000000  1
  Tl  Tl15  1  0.87668691  0.62331309  0.00000000  1
