# generated using pymatgen
data_Cr3N4
_symmetry_space_group_name_H-M   'P 1'
_cell_length_a   4.81213296
_cell_length_b   5.89242301
_cell_length_c   9.94836287
_cell_angle_alpha   90.00000000
_cell_angle_beta   90.00000000
_cell_angle_gamma   90.00000000
_symmetry_Int_Tables_number   1
_chemical_formula_structural   Cr3N4
_chemical_formula_sum   'Cr12 N16'
_cell_volume   282.08705264
_cell_formula_units_Z   4
loop_
 _symmetry_equiv_pos_site_id
 _symmetry_equiv_pos_as_xyz
  1  'x, y, z'
loop_
 _atom_site_type_symbol
 _atom_site_label
 _atom_site_symmetry_multiplicity
 _atom_site_fract_x
 _atom_site_fract_y
 _atom_site_fract_z
 _atom_site_occupancy
  Cr  Cr0  1  0.50000000  -0.00000000  0.50000000  1
  Cr  Cr1  1  0.00000000  0.50000000  0.00000000  1
  Cr  Cr2  1  0.50000000  0.50000000  0.50000000  1
  Cr  Cr3  1  0.00000000  -0.00000000  0.00000000  1
  Cr  Cr4  1  0.48963249  0.75000000  0.23816335  1
  Cr  Cr5  1  0.01036751  0.75000000  0.73816335  1
  Cr  Cr6  1  0.51036751  0.25000000  0.76183665  1
  Cr  Cr7  1  0.98963249  0.25000000  0.26183665  1
  Cr  Cr8  1  0.91446638  0.75000000  0.40878693  1
  Cr  Cr9  1  0.58553362  0.75000000  0.90878693  1
  Cr  Cr10  1  0.08553362  0.25000000  0.59121307  1
  Cr  Cr11  1  0.41446638  0.25000000  0.09121307  1
  N  N12  1  0.27932449  0.75000000  0.41467821  1
  N  N13  1  0.22067551  0.75000000  0.91467821  1
  N  N14  1  0.72067551  0.25000000  0.58532179  1
  N  N15  1  0.77932449  0.25000000  0.08532179  1
  N  N16  1  0.74429944  0.75000000  0.07092638  1
  N  N17  1  0.75570056  0.75000000  0.57092638  1
  N  N18  1  0.25570056  0.25000000  0.92907362  1
  N  N19  1  0.24429944  0.25000000  0.42907362  1
  N  N20  1  0.75035500  -0.01416079  0.33281785  1
  N  N21  1  0.74964500  0.51416079  0.83281785  1
  N  N22  1  0.24964500  0.48583921  0.66718215  1
  N  N23  1  0.25035500  1.01416079  0.16718215  1
  N  N24  1  0.24964500  1.01416079  0.66718215  1
  N  N25  1  0.25035500  0.48583921  0.16718215  1
  N  N26  1  0.75035500  0.51416079  0.33281785  1
  N  N27  1  0.74964500  -0.01416079  0.83281785  1
