# generated using pymatgen
data_KCO3
_symmetry_space_group_name_H-M   'P 1'
_cell_length_a   4.00571135
_cell_length_b   5.78696633
_cell_length_c   15.19001144
_cell_angle_alpha   90.00000000
_cell_angle_beta   84.42982682
_cell_angle_gamma   90.00000000
_symmetry_Int_Tables_number   1
_chemical_formula_structural   KCO3
_chemical_formula_sum   'K4 C4 O12'
_cell_volume   350.45570932
_cell_formula_units_Z   4
loop_
 _symmetry_equiv_pos_site_id
 _symmetry_equiv_pos_as_xyz
  1  'x, y, z'
loop_
 _atom_site_type_symbol
 _atom_site_label
 _atom_site_symmetry_multiplicity
 _atom_site_fract_x
 _atom_site_fract_y
 _atom_site_fract_z
 _atom_site_occupancy
  K  K0  1  0.34566363  0.52686698  0.35019310  1
  K  K1  1  0.15433637  0.02686698  0.14980690  1
  K  K2  1  0.65433637  0.47313302  0.64980690  1
  K  K3  1  0.84566363  0.97313302  0.85019310  1
  C  C4  1  0.76383554  0.02941337  0.37137880  1
  C  C5  1  0.73616446  0.52941337  0.12862120  1
  C  C6  1  0.23616446  0.97058663  0.62862120  1
  C  C7  1  0.26383554  0.47058663  0.87137880  1
  O  O8  1  0.61255225  0.03810731  0.30004743  1
  O  O9  1  0.88744775  0.53810731  0.19995257  1
  O  O10  1  0.38744775  0.96189269  0.69995257  1
  O  O11  1  0.11255225  0.46189269  0.80004743  1
  O  O12  1  0.85381858  0.21844092  0.40594952  1
  O  O13  1  0.64618142  0.71844092  0.09405048  1
  O  O14  1  0.14618142  0.78155908  0.59405048  1
  O  O15  1  0.35381858  0.28155908  0.90594952  1
  O  O16  1  0.82146994  0.83251008  0.40490633  1
  O  O17  1  0.67853006  0.33251008  0.09509367  1
  O  O18  1  0.17853006  0.16748992  0.59509367  1
  O  O19  1  0.32146994  0.66748992  0.90490633  1
