# generated using pymatgen
data_Pr3Ni
_symmetry_space_group_name_H-M   'P 1'
_cell_length_a   6.56358350
_cell_length_b   7.08408688
_cell_length_c   10.08851436
_cell_angle_alpha   90.00000000
_cell_angle_beta   90.00000000
_cell_angle_gamma   90.00000000
_symmetry_Int_Tables_number   1
_chemical_formula_structural   Pr3Ni
_chemical_formula_sum   'Pr12 Ni4'
_cell_volume   469.08560940
_cell_formula_units_Z   4
loop_
 _symmetry_equiv_pos_site_id
 _symmetry_equiv_pos_as_xyz
  1  'x, y, z'
loop_
 _atom_site_type_symbol
 _atom_site_label
 _atom_site_symmetry_multiplicity
 _atom_site_fract_x
 _atom_site_fract_y
 _atom_site_fract_z
 _atom_site_occupancy
  Pr  Pr0  1  0.32632775  0.67513794  0.06632539  1
  Pr  Pr1  1  0.17367225  0.17513794  0.43367461  1
  Pr  Pr2  1  0.67367225  0.32486206  0.56632539  1
  Pr  Pr3  1  0.82632775  0.82486206  0.93367461  1
  Pr  Pr4  1  0.67367225  0.32486206  0.93367461  1
  Pr  Pr5  1  0.82632775  0.82486206  0.56632539  1
  Pr  Pr6  1  0.32632775  0.67513794  0.43367461  1
  Pr  Pr7  1  0.17367225  0.17513794  0.06632539  1
  Pr  Pr8  1  0.85647457  0.53916698  0.25000000  1
  Pr  Pr9  1  0.64352543  0.03916698  0.25000000  1
  Pr  Pr10  1  0.14352543  0.46083302  0.75000000  1
  Pr  Pr11  1  0.35647457  0.96083302  0.75000000  1
  Ni  Ni12  1  0.06621613  0.89102640  0.25000000  1
  Ni  Ni13  1  0.43378387  0.39102640  0.25000000  1
  Ni  Ni14  1  0.93378387  0.10897360  0.75000000  1
  Ni  Ni15  1  0.56621613  0.60897360  0.75000000  1
