# generated using pymatgen
data_Ce7Ir3
_symmetry_space_group_name_H-M   'P 1'
_cell_length_a   6.13728677
_cell_length_b   9.88074007
_cell_length_c   9.88074007
_cell_angle_alpha   120.00441068
_cell_angle_beta   90.00000000
_cell_angle_gamma   90.00000000
_symmetry_Int_Tables_number   1
_chemical_formula_structural   Ce7Ir3
_chemical_formula_sum   'Ce14 Ir6'
_cell_volume   518.87971589
_cell_formula_units_Z   2
loop_
 _symmetry_equiv_pos_site_id
 _symmetry_equiv_pos_as_xyz
  1  'x, y, z'
loop_
 _atom_site_type_symbol
 _atom_site_label
 _atom_site_symmetry_multiplicity
 _atom_site_fract_x
 _atom_site_fract_y
 _atom_site_fract_z
 _atom_site_occupancy
  Ce  Ce0  1  0.45342350  0.33340840  0.66659160  1
  Ce  Ce1  1  0.95342350  0.66659160  0.33340840  1
  Ce  Ce2  1  0.24751647  0.12844778  0.87155222  1
  Ce  Ce3  1  0.24747119  0.74292266  0.87145536  1
  Ce  Ce4  1  0.24747119  0.12854464  0.25707734  1
  Ce  Ce5  1  0.74751647  0.87155222  0.12844778  1
  Ce  Ce6  1  0.74747119  0.25707734  0.12854464  1
  Ce  Ce7  1  0.74747119  0.87145536  0.74292266  1
  Ce  Ce8  1  0.45602584  0.53757265  0.46242735  1
  Ce  Ce9  1  0.45591894  0.92476887  0.46244360  1
  Ce  Ce10  1  0.45591894  0.53755640  0.07523113  1
  Ce  Ce11  1  0.95602584  0.46242735  0.53757265  1
  Ce  Ce12  1  0.95591894  0.07523113  0.53755640  1
  Ce  Ce13  1  0.95591894  0.46244360  0.92476887  1
  Ir  Ir14  1  0.19834549  0.81321725  0.18678275  1
  Ir  Ir15  1  0.19845422  0.37359040  0.18690983  1
  Ir  Ir16  1  0.19845422  0.81309017  0.62640960  1
  Ir  Ir17  1  0.69834549  0.18678275  0.81321725  1
  Ir  Ir18  1  0.69845422  0.62640960  0.81309017  1
  Ir  Ir19  1  0.69845422  0.18690983  0.37359040  1
