# generated using pymatgen
data_Eu7Au3
_symmetry_space_group_name_H-M   'P 1'
_cell_length_a   6.81095505
_cell_length_b   10.82967226
_cell_length_c   10.82967226
_cell_angle_alpha   120.00103709
_cell_angle_beta   90.00000000
_cell_angle_gamma   90.00000000
_symmetry_Int_Tables_number   1
_chemical_formula_structural   Eu7Au3
_chemical_formula_sum   'Eu14 Au6'
_cell_volume   691.77479568
_cell_formula_units_Z   2
loop_
 _symmetry_equiv_pos_site_id
 _symmetry_equiv_pos_as_xyz
  1  'x, y, z'
loop_
 _atom_site_type_symbol
 _atom_site_label
 _atom_site_symmetry_multiplicity
 _atom_site_fract_x
 _atom_site_fract_y
 _atom_site_fract_z
 _atom_site_occupancy
  Eu  Eu0  1  0.46150343  0.33332697  0.66667303  1
  Eu  Eu1  1  0.96150343  0.66667303  0.33332697  1
  Eu  Eu2  1  0.25162188  0.12532749  0.87467251  1
  Eu  Eu3  1  0.25160003  0.74930823  0.87459660  1
  Eu  Eu4  1  0.25160003  0.12540340  0.25069177  1
  Eu  Eu5  1  0.75162188  0.87467251  0.12532749  1
  Eu  Eu6  1  0.75160003  0.25069177  0.12540340  1
  Eu  Eu7  1  0.75160003  0.87459660  0.74930823  1
  Eu  Eu8  1  0.45578824  0.53981356  0.46018644  1
  Eu  Eu9  1  0.45578162  0.92018670  0.46010766  1
  Eu  Eu10  1  0.45578162  0.53989234  0.07981330  1
  Eu  Eu11  1  0.95578824  0.46018644  0.53981356  1
  Eu  Eu12  1  0.95578162  0.07981330  0.53989234  1
  Eu  Eu13  1  0.95578162  0.46010766  0.92018670  1
  Au  Au14  1  0.19127154  0.81105244  0.18894756  1
  Au  Au15  1  0.19152580  0.37780482  0.18884001  1
  Au  Au16  1  0.19152580  0.81115999  0.62219518  1
  Au  Au17  1  0.69127154  0.18894756  0.81105244  1
  Au  Au18  1  0.69152580  0.62219518  0.81115999  1
  Au  Au19  1  0.69152580  0.18884001  0.37780482  1
