# generated using pymatgen
data_Ho5Ge3
_symmetry_space_group_name_H-M   'P 1'
_cell_length_a   6.37430677
_cell_length_b   8.48040302
_cell_length_c   8.48193099
_cell_angle_alpha   119.99404321
_cell_angle_beta   90.00000000
_cell_angle_gamma   90.00000000
_symmetry_Int_Tables_number   1
_chemical_formula_structural   Ho5Ge3
_chemical_formula_sum   'Ho10 Ge6'
_cell_volume   397.10091183
_cell_formula_units_Z   2
loop_
 _symmetry_equiv_pos_site_id
 _symmetry_equiv_pos_as_xyz
  1  'x, y, z'
loop_
 _atom_site_type_symbol
 _atom_site_label
 _atom_site_symmetry_multiplicity
 _atom_site_fract_x
 _atom_site_fract_y
 _atom_site_fract_z
 _atom_site_occupancy
  Ho  Ho0  1  0.50000095  0.33333937  0.66670997  1
  Ho  Ho1  1  0.50000095  0.66662940  0.33329003  1
  Ho  Ho2  1  0.00000095  0.66666063  0.33329003  1
  Ho  Ho3  1  0.00000095  0.33337060  0.66670997  1
  Ho  Ho4  1  0.75000751  0.24331494  1.00000000  1
  Ho  Ho5  1  0.74999603  0.75663130  0.75667265  1
  Ho  Ho6  1  0.74999603  0.99995865  0.24332735  1
  Ho  Ho7  1  0.25000751  0.75668506  0.00000000  1
  Ho  Ho8  1  0.24999603  0.24336870  0.24332735  1
  Ho  Ho9  1  0.24999603  0.00004135  0.75667265  1
  Ge  Ge10  1  0.74999402  0.60723054  1.00000000  1
  Ge  Ge11  1  0.75000225  0.39276809  0.39264596  1
  Ge  Ge12  1  0.75000225  0.00012213  0.60735404  1
  Ge  Ge13  1  0.24999402  0.39276946  0.00000000  1
  Ge  Ge14  1  0.25000225  0.60723191  0.60735404  1
  Ge  Ge15  1  0.25000225  0.99987787  0.39264596  1
