# generated using pymatgen
data_Gd3Pt
_symmetry_space_group_name_H-M   'P 1'
_cell_length_a   6.53727811
_cell_length_b   7.18022681
_cell_length_c   9.76492833
_cell_angle_alpha   89.87548226
_cell_angle_beta   89.93842080
_cell_angle_gamma   90.12049391
_symmetry_Int_Tables_number   1
_chemical_formula_structural   Gd3Pt
_chemical_formula_sum   'Gd12 Pt4'
_cell_volume   458.35497027
_cell_formula_units_Z   4
loop_
 _symmetry_equiv_pos_site_id
 _symmetry_equiv_pos_as_xyz
  1  'x, y, z'
loop_
 _atom_site_type_symbol
 _atom_site_label
 _atom_site_symmetry_multiplicity
 _atom_site_fract_x
 _atom_site_fract_y
 _atom_site_fract_z
 _atom_site_occupancy
  Gd  Gd0  1  0.32504506  0.67936838  0.06035699  1
  Gd  Gd1  1  0.17504446  0.17859630  0.43881699  1
  Gd  Gd2  1  0.67543419  0.32120648  0.56104301  1
  Gd  Gd3  1  0.82504542  0.82069690  0.93902690  1
  Gd  Gd4  1  0.67762742  0.31950036  0.93937405  1
  Gd  Gd5  1  0.82228185  0.81952293  0.56110306  1
  Gd  Gd6  1  0.32277339  0.68114110  0.43881597  1
  Gd  Gd7  1  0.17793885  0.18027566  0.06072017  1
  Gd  Gd8  1  0.86489981  0.52995733  0.24951483  1
  Gd  Gd9  1  0.63424244  0.03004585  0.24914885  1
  Gd  Gd10  1  0.13439410  0.46970194  0.75068790  1
  Gd  Gd11  1  0.36507772  0.97000353  0.75029882  1
  Pt  Pt12  1  0.05499162  0.88745176  0.24826212  1
  Pt  Pt13  1  0.44517250  0.38783211  0.25069688  1
  Pt  Pt14  1  0.94525033  0.11253449  0.74989711  1
  Pt  Pt15  1  0.55478085  0.61216489  0.75223634  1
