# generated using pymatgen
data_Ce2Zn5Sn
_symmetry_space_group_name_H-M   'P 1'
_cell_length_a   4.43110092
_cell_length_b   8.51837401
_cell_length_c   8.93571434
_cell_angle_alpha   90.00000000
_cell_angle_beta   90.00000000
_cell_angle_gamma   105.07544514
_symmetry_Int_Tables_number   1
_chemical_formula_structural   Ce2Zn5Sn
_chemical_formula_sum   'Ce4 Zn10 Sn2'
_cell_volume   325.67750805
_cell_formula_units_Z   2
loop_
 _symmetry_equiv_pos_site_id
 _symmetry_equiv_pos_as_xyz
  1  'x, y, z'
loop_
 _atom_site_type_symbol
 _atom_site_label
 _atom_site_symmetry_multiplicity
 _atom_site_fract_x
 _atom_site_fract_y
 _atom_site_fract_z
 _atom_site_occupancy
  Ce  Ce0  1  0.79226860  0.58453719  0.25000000  1
  Ce  Ce1  1  0.20773140  0.41546281  0.75000000  1
  Ce  Ce2  1  0.00000000  0.00000000  0.50000000  1
  Ce  Ce3  1  0.00000000  0.00000000  0.00000000  1
  Zn  Zn4  1  0.18571560  0.37143121  0.39394697  1
  Zn  Zn5  1  0.81428440  0.62856879  0.60605303  1
  Zn  Zn6  1  0.18571560  0.37143121  0.10605303  1
  Zn  Zn7  1  0.81428440  0.62856879  0.89394697  1
  Zn  Zn8  1  0.34302038  0.68604076  0.48343277  1
  Zn  Zn9  1  0.65697962  0.31395924  0.51656723  1
  Zn  Zn10  1  0.34302038  0.68604076  0.01656723  1
  Zn  Zn11  1  0.65697962  0.31395924  0.98343277  1
  Zn  Zn12  1  0.60506560  0.21013119  0.25000000  1
  Zn  Zn13  1  0.39493440  0.78986881  0.75000000  1
  Sn  Sn14  1  0.44363438  0.88726875  0.25000000  1
  Sn  Sn15  1  0.55636562  0.11273125  0.75000000  1
