# generated using pymatgen
data_LiAlS2
_symmetry_space_group_name_H-M   'P 1'
_cell_length_a   6.26320386
_cell_length_b   6.55088778
_cell_length_c   7.92065426
_cell_angle_alpha   90.00000000
_cell_angle_beta   90.00000000
_cell_angle_gamma   90.00000000
_symmetry_Int_Tables_number   1
_chemical_formula_structural   LiAlS2
_chemical_formula_sum   'Li4 Al4 S8'
_cell_volume   324.98084538
_cell_formula_units_Z   4
loop_
 _symmetry_equiv_pos_site_id
 _symmetry_equiv_pos_as_xyz
  1  'x, y, z'
loop_
 _atom_site_type_symbol
 _atom_site_label
 _atom_site_symmetry_multiplicity
 _atom_site_fract_x
 _atom_site_fract_y
 _atom_site_fract_z
 _atom_site_occupancy
  Li  Li0  1  0.11818618  0.91615889  0.37650109  1
  Li  Li1  1  0.61818618  0.08384111  0.62349891  1
  Li  Li2  1  0.61818618  0.58384111  0.87650109  1
  Li  Li3  1  0.11818618  0.41615889  0.12349891  1
  Al  Al4  1  0.62059110  0.57304842  0.37367500  1
  Al  Al5  1  0.12059110  0.42695158  0.62632500  1
  Al  Al6  1  0.12059110  0.92695158  0.87367500  1
  Al  Al7  1  0.62059110  0.07304842  0.12632500  1
  S  S8  1  0.98523263  0.56455040  0.38697343  1
  S  S9  1  0.48523263  0.43544960  0.61302657  1
  S  S10  1  0.48523263  0.93544960  0.88697343  1
  S  S11  1  0.98523263  0.06455040  0.11302657  1
  S  S12  1  0.01099009  0.59517448  0.86103428  1
  S  S13  1  0.51099009  0.40482552  0.13896572  1
  S  S14  1  0.51099009  0.90482552  0.36103428  1
  S  S15  1  0.01099009  0.09517448  0.63896572  1
