# generated using pymatgen
data_Y2Co17
_symmetry_space_group_name_H-M   'P 1'
_cell_length_a   6.28216290
_cell_length_b   6.28216290
_cell_length_c   6.28216323
_cell_angle_alpha   82.90395391
_cell_angle_beta   82.90395391
_cell_angle_gamma   82.90395466
_symmetry_Int_Tables_number   1
_chemical_formula_structural   Y2Co17
_chemical_formula_sum   'Y2 Co17'
_cell_volume   242.66542030
_cell_formula_units_Z   1
loop_
 _symmetry_equiv_pos_site_id
 _symmetry_equiv_pos_as_xyz
  1  'x, y, z'
loop_
 _atom_site_type_symbol
 _atom_site_label
 _atom_site_symmetry_multiplicity
 _atom_site_fract_x
 _atom_site_fract_y
 _atom_site_fract_z
 _atom_site_occupancy
  Y  Y0  1  0.65577481  0.65577481  0.65577481  1
  Y  Y1  1  0.34422519  0.34422519  0.34422519  1
  Co  Co2  1  -0.00000000  0.00000000  0.50000000  1
  Co  Co3  1  -0.00000000  0.50000000  0.00000000  1
  Co  Co4  1  0.50000000  0.00000000  0.00000000  1
  Co  Co5  1  0.28817469  0.71182531  0.00000000  1
  Co  Co6  1  0.71182531  0.00000000  0.28817469  1
  Co  Co7  1  1.00000000  0.28817469  0.71182531  1
  Co  Co8  1  0.28817469  1.00000000  0.71182531  1
  Co  Co9  1  0.00000000  0.71182531  0.28817469  1
  Co  Co10  1  0.71182531  0.28817469  0.00000000  1
  Co  Co11  1  0.34545748  0.34545748  0.84997691  1
  Co  Co12  1  0.34545748  0.84997691  0.34545748  1
  Co  Co13  1  0.84997691  0.34545748  0.34545748  1
  Co  Co14  1  0.65454252  0.65454252  0.15002309  1
  Co  Co15  1  0.65454252  0.15002309  0.65454252  1
  Co  Co16  1  0.15002309  0.65454252  0.65454252  1
  Co  Co17  1  0.90350848  0.90350848  0.90350848  1
  Co  Co18  1  0.09649152  0.09649152  0.09649152  1
