# generated using pymatgen
data_Pr2Si5Pt3
_symmetry_space_group_name_H-M   'P 1'
_cell_length_a   6.13982018
_cell_length_b   8.30438071
_cell_length_c   8.30438071
_cell_angle_alpha   74.50657533
_cell_angle_beta   68.30451703
_cell_angle_gamma   68.30451703
_symmetry_Int_Tables_number   1
_chemical_formula_structural   Pr2Si5Pt3
_chemical_formula_sum   'Pr4 Si10 Pt6'
_cell_volume   361.35671862
_cell_formula_units_Z   2
loop_
 _symmetry_equiv_pos_site_id
 _symmetry_equiv_pos_as_xyz
  1  'x, y, z'
loop_
 _atom_site_type_symbol
 _atom_site_label
 _atom_site_symmetry_multiplicity
 _atom_site_fract_x
 _atom_site_fract_y
 _atom_site_fract_z
 _atom_site_occupancy
  Pr  Pr0  1  0.37228252  0.39425248  0.86118248  1
  Pr  Pr1  1  0.62771748  0.60574752  0.13881752  1
  Pr  Pr2  1  0.87228252  0.86118248  0.39425248  1
  Pr  Pr3  1  0.12771748  0.13881752  0.60574752  1
  Si  Si4  1  0.25000000  0.50000000  0.50000000  1
  Si  Si5  1  0.75000000  0.50000000  0.50000000  1
  Si  Si6  1  0.02094185  0.22905815  0.22905815  1
  Si  Si7  1  0.47905815  0.77094185  0.77094185  1
  Si  Si8  1  0.97905815  0.77094185  0.77094185  1
  Si  Si9  1  0.52094185  0.22905815  0.22905815  1
  Si  Si10  1  0.11447595  0.73628717  0.03476094  1
  Si  Si11  1  0.88552405  0.26371283  0.96523906  1
  Si  Si12  1  0.61447595  0.03476094  0.73628717  1
  Si  Si13  1  0.38552405  0.96523906  0.26371283  1
  Pt  Pt14  1  0.25000000  -0.00000000  -0.00000000  1
  Pt  Pt15  1  0.75000000  -0.00000000  -0.00000000  1
  Pt  Pt16  1  0.13643649  0.47313897  0.25398805  1
  Pt  Pt17  1  0.86356351  0.52686103  0.74601195  1
  Pt  Pt18  1  0.63643649  0.25398805  0.47313897  1
  Pt  Pt19  1  0.36356351  0.74601195  0.52686103  1
