# generated using pymatgen
data_Er3In5
_symmetry_space_group_name_H-M   'P 1'
_cell_length_a   6.38539500
_cell_length_b   6.38539500
_cell_length_c   10.34061410
_cell_angle_alpha   90.00000000
_cell_angle_beta   90.00000000
_cell_angle_gamma   102.10920115
_symmetry_Int_Tables_number   1
_chemical_formula_structural   Er3In5
_chemical_formula_sum   'Er6 In10'
_cell_volume   412.23939881
_cell_formula_units_Z   2
loop_
 _symmetry_equiv_pos_site_id
 _symmetry_equiv_pos_as_xyz
  1  'x, y, z'
loop_
 _atom_site_type_symbol
 _atom_site_label
 _atom_site_symmetry_multiplicity
 _atom_site_fract_x
 _atom_site_fract_y
 _atom_site_fract_z
 _atom_site_occupancy
  Er  Er0  1  0.62853237  0.62853237  0.25000000  1
  Er  Er1  1  0.37146763  0.37146763  0.75000000  1
  Er  Er2  1  0.79690144  0.20309856  0.50000000  1
  Er  Er3  1  0.79690144  0.20309856  0.00000000  1
  Er  Er4  1  0.20309856  0.79690144  0.50000000  1
  Er  Er5  1  0.20309856  0.79690144  0.00000000  1
  In  In6  1  0.01282713  0.01282713  0.25000000  1
  In  In7  1  0.98717287  0.98717287  0.75000000  1
  In  In8  1  0.31049591  0.31049591  0.04650699  1
  In  In9  1  0.68950409  0.68950409  0.95349301  1
  In  In10  1  0.31049591  0.31049591  0.45349301  1
  In  In11  1  0.68950409  0.68950409  0.54650699  1
  In  In12  1  0.06931001  0.50760341  0.25000000  1
  In  In13  1  0.49239659  0.93068999  0.75000000  1
  In  In14  1  0.93068999  0.49239659  0.75000000  1
  In  In15  1  0.50760341  0.06931001  0.25000000  1
