# generated using pymatgen
data_Nd5Pb3
_symmetry_space_group_name_H-M   'P 1'
_cell_length_a   6.91315362
_cell_length_b   9.42509201
_cell_length_c   9.42516192
_cell_angle_alpha   119.99975308
_cell_angle_beta   90.00000000
_cell_angle_gamma   90.00000000
_symmetry_Int_Tables_number   1
_chemical_formula_structural   Nd5Pb3
_chemical_formula_sum   'Nd10 Pb6'
_cell_volume   531.84164161
_cell_formula_units_Z   2
loop_
 _symmetry_equiv_pos_site_id
 _symmetry_equiv_pos_as_xyz
  1  'x, y, z'
loop_
 _atom_site_type_symbol
 _atom_site_label
 _atom_site_symmetry_multiplicity
 _atom_site_fract_x
 _atom_site_fract_y
 _atom_site_fract_z
 _atom_site_occupancy
  Nd  Nd0  1  0.50017103  0.33339776  0.66656490  1
  Nd  Nd1  1  0.50017103  0.66683286  0.33343510  1
  Nd  Nd2  1  0.00017103  0.66660224  0.33343510  1
  Nd  Nd3  1  0.00017103  0.33316714  0.66656490  1
  Nd  Nd4  1  0.75061946  0.24058559  0.00000000  1
  Nd  Nd5  1  0.75059009  0.75960588  0.75959328  1
  Nd  Nd6  1  0.75059009  0.00001260  0.24040672  1
  Nd  Nd7  1  0.25061946  0.75941441  1.00000000  1
  Nd  Nd8  1  0.25059009  0.24039412  0.24040672  1
  Nd  Nd9  1  0.25059009  0.99998740  0.75959328  1
  Pb  Pb10  1  0.74942139  0.60705796  0.00000000  1
  Pb  Pb11  1  0.74921846  0.39273977  0.39275472  1
  Pb  Pb12  1  0.74921846  -0.00001495  0.60724528  1
  Pb  Pb13  1  0.24942139  0.39294204  1.00000000  1
  Pb  Pb14  1  0.24921846  0.60726023  0.60724528  1
  Pb  Pb15  1  0.24921846  0.00001495  0.39275472  1
