# generated using pymatgen
data_Tb7Rh3
_symmetry_space_group_name_H-M   'P 1'
_cell_length_a   6.21568986
_cell_length_b   9.85738896
_cell_length_c   9.85738896
_cell_angle_alpha   119.99850466
_cell_angle_beta   90.00000000
_cell_angle_gamma   90.00000000
_symmetry_Int_Tables_number   1
_chemical_formula_structural   Tb7Rh3
_chemical_formula_sum   'Tb14 Rh6'
_cell_volume   523.05854283
_cell_formula_units_Z   2
loop_
 _symmetry_equiv_pos_site_id
 _symmetry_equiv_pos_as_xyz
  1  'x, y, z'
loop_
 _atom_site_type_symbol
 _atom_site_label
 _atom_site_symmetry_multiplicity
 _atom_site_fract_x
 _atom_site_fract_y
 _atom_site_fract_z
 _atom_site_occupancy
  Tb  Tb0  1  0.45824585  0.33332908  0.66667092  1
  Tb  Tb1  1  0.95824585  0.66667092  0.33332908  1
  Tb  Tb2  1  0.25436281  0.12407898  0.87592102  1
  Tb  Tb3  1  0.25448735  0.75190098  0.87595425  1
  Tb  Tb4  1  0.25448735  0.12404575  0.24809902  1
  Tb  Tb5  1  0.75436281  0.87592102  0.12407898  1
  Tb  Tb6  1  0.75448735  0.24809902  0.12404575  1
  Tb  Tb7  1  0.75448735  0.87595425  0.75190098  1
  Tb  Tb8  1  0.44409264  0.54064513  0.45935487  1
  Tb  Tb9  1  0.44398913  0.91867459  0.45937235  1
  Tb  Tb10  1  0.44398913  0.54062765  0.08132541  1
  Tb  Tb11  1  0.94409264  0.45935487  0.54064513  1
  Tb  Tb12  1  0.94398913  0.08132541  0.54062765  1
  Tb  Tb13  1  0.94398913  0.45937235  0.91867459  1
  Rh  Rh14  1  0.17988852  0.81002948  0.18997052  1
  Rh  Rh15  1  0.17972860  0.38001360  0.19008029  1
  Rh  Rh16  1  0.17972860  0.80991971  0.61998640  1
  Rh  Rh17  1  0.67988852  0.18997052  0.81002948  1
  Rh  Rh18  1  0.67972860  0.61998640  0.80991971  1
  Rh  Rh19  1  0.67972860  0.19008029  0.38001360  1
