# generated using pymatgen
data_Tm2Ge5Ru3
_symmetry_space_group_name_H-M   'P 1'
_cell_length_a   5.74230382
_cell_length_b   8.44961908
_cell_length_c   8.44961908
_cell_angle_alpha   71.15684019
_cell_angle_beta   70.13551713
_cell_angle_gamma   70.13551713
_symmetry_Int_Tables_number   1
_chemical_formula_structural   Tm2Ge5Ru3
_chemical_formula_sum   'Tm4 Ge10 Ru6'
_cell_volume   352.52010971
_cell_formula_units_Z   2
loop_
 _symmetry_equiv_pos_site_id
 _symmetry_equiv_pos_as_xyz
  1  'x, y, z'
loop_
 _atom_site_type_symbol
 _atom_site_label
 _atom_site_symmetry_multiplicity
 _atom_site_fract_x
 _atom_site_fract_y
 _atom_site_fract_z
 _atom_site_occupancy
  Tm  Tm0  1  0.36084062  0.40776202  0.87055673  1
  Tm  Tm1  1  0.63915938  0.59223798  0.12944327  1
  Tm  Tm2  1  0.86084062  0.87055673  0.40776202  1
  Tm  Tm3  1  0.13915938  0.12944327  0.59223798  1
  Ge  Ge4  1  0.25000000  0.50000000  0.50000000  1
  Ge  Ge5  1  0.75000000  0.50000000  0.50000000  1
  Ge  Ge6  1  0.04309924  0.20690076  0.20690076  1
  Ge  Ge7  1  0.45690076  0.79309924  0.79309924  1
  Ge  Ge8  1  0.95690076  0.79309924  0.79309924  1
  Ge  Ge9  1  0.54309924  0.20690076  0.20690076  1
  Ge  Ge10  1  0.08770155  0.73609993  0.08849698  1
  Ge  Ge11  1  0.91229845  0.26390007  0.91150302  1
  Ge  Ge12  1  0.58770155  0.08849698  0.73609993  1
  Ge  Ge13  1  0.41229845  0.91150302  0.26390007  1
  Ru  Ru14  1  0.25000000  -0.00000000  -0.00000000  1
  Ru  Ru15  1  0.75000000  -0.00000000  -0.00000000  1
  Ru  Ru16  1  0.14795916  0.44373756  0.26034411  1
  Ru  Ru17  1  0.85204084  0.55626244  0.73965589  1
  Ru  Ru18  1  0.64795916  0.26034411  0.44373756  1
  Ru  Ru19  1  0.35204084  0.73965589  0.55626244  1
