# generated using pymatgen
data_Mg6CdSb
_symmetry_space_group_name_H-M   'P 1'
_cell_length_a   6.28596915
_cell_length_b   6.47727225
_cell_length_c   5.31113101
_cell_angle_alpha   90.00000000
_cell_angle_beta   90.00000000
_cell_angle_gamma   121.01194422
_symmetry_Int_Tables_number   1
_chemical_formula_structural   Mg6CdSb
_chemical_formula_sum   'Mg6 Cd1 Sb1'
_cell_volume   185.33719829
_cell_formula_units_Z   1
loop_
 _symmetry_equiv_pos_site_id
 _symmetry_equiv_pos_as_xyz
  1  'x, y, z'
loop_
 _atom_site_type_symbol
 _atom_site_label
 _atom_site_symmetry_multiplicity
 _atom_site_fract_x
 _atom_site_fract_y
 _atom_site_fract_z
 _atom_site_occupancy
  Mg  Mg0  1  0.66742362  0.33317102  0.25000000  1
  Mg  Mg1  1  0.66742362  0.83425160  0.25000000  1
  Mg  Mg2  1  0.33351729  0.16823150  0.75000000  1
  Mg  Mg3  1  0.33351729  0.66528679  0.75000000  1
  Mg  Mg4  1  0.83380141  0.16690120  0.75000000  1
  Mg  Mg5  1  0.83223430  0.66611765  0.75000000  1
  Cd  Cd6  1  0.16544749  0.33272325  0.25000000  1
  Sb  Sb7  1  0.16663498  0.83331699  0.25000000  1
