# generated using pymatgen
data_Gd5Pb3
_symmetry_space_group_name_H-M   'P 1'
_cell_length_a   6.74609181
_cell_length_b   9.20040623
_cell_length_c   9.19876042
_cell_angle_alpha   119.96345061
_cell_angle_beta   89.99975635
_cell_angle_gamma   89.99964433
_symmetry_Int_Tables_number   1
_chemical_formula_structural   Gd5Pb3
_chemical_formula_sum   'Gd10 Pb6'
_cell_volume   494.62836891
_cell_formula_units_Z   2
loop_
 _symmetry_equiv_pos_site_id
 _symmetry_equiv_pos_as_xyz
  1  'x, y, z'
loop_
 _atom_site_type_symbol
 _atom_site_label
 _atom_site_symmetry_multiplicity
 _atom_site_fract_x
 _atom_site_fract_y
 _atom_site_fract_z
 _atom_site_occupancy
  Gd  Gd0  1  0.49970676  0.33348666  0.66713818  1
  Gd  Gd1  1  0.49979387  0.66612954  0.33268322  1
  Gd  Gd2  1  0.00026767  0.66616407  0.33268013  1
  Gd  Gd3  1  0.00030158  0.33344751  0.66681382  1
  Gd  Gd4  1  0.75006746  0.23943372  0.00033305  1
  Gd  Gd5  1  0.75053515  0.76101922  0.76076095  1
  Gd  Gd6  1  0.75021028  0.99970194  0.23887859  1
  Gd  Gd7  1  0.24957244  0.76093921  0.00032835  1
  Gd  Gd8  1  0.24997863  0.23929629  0.23898509  1
  Gd  Gd9  1  0.24954402  0.99991252  0.76099936  1
  Pb  Pb10  1  0.74998877  0.60469203  0.00009259  1
  Pb  Pb11  1  0.74987255  0.39552435  0.39581141  1
  Pb  Pb12  1  0.74994774  0.00039893  0.60446355  1
  Pb  Pb13  1  0.24997516  0.39526673  0.99963141  1
  Pb  Pb14  1  0.25010712  0.60463377  0.60470531  1
  Pb  Pb15  1  0.25013080  -0.00004648  0.39569498  1
