# generated using pymatgen
data_Ho2Co17
_symmetry_space_group_name_H-M   'P 1'
_cell_length_a   6.25865645
_cell_length_b   6.25865645
_cell_length_c   6.25865648
_cell_angle_alpha   82.74570503
_cell_angle_beta   82.74570503
_cell_angle_gamma   82.74569815
_symmetry_Int_Tables_number   1
_chemical_formula_structural   Ho2Co17
_chemical_formula_sum   'Ho2 Co17'
_cell_volume   239.72641109
_cell_formula_units_Z   1
loop_
 _symmetry_equiv_pos_site_id
 _symmetry_equiv_pos_as_xyz
  1  'x, y, z'
loop_
 _atom_site_type_symbol
 _atom_site_label
 _atom_site_symmetry_multiplicity
 _atom_site_fract_x
 _atom_site_fract_y
 _atom_site_fract_z
 _atom_site_occupancy
  Ho  Ho0  1  0.65618327  0.65618327  0.65618327  1
  Ho  Ho1  1  0.34381673  0.34381673  0.34381673  1
  Co  Co2  1  0.00000000  0.00000000  0.50000000  1
  Co  Co3  1  0.00000000  0.50000000  -0.00000000  1
  Co  Co4  1  0.50000000  0.00000000  -0.00000000  1
  Co  Co5  1  0.28898751  0.71101249  -0.00000000  1
  Co  Co6  1  0.71101249  1.00000000  0.28898751  1
  Co  Co7  1  0.00000000  0.28898751  0.71101249  1
  Co  Co8  1  0.28898751  0.00000000  0.71101249  1
  Co  Co9  1  1.00000000  0.71101249  0.28898751  1
  Co  Co10  1  0.71101249  0.28898751  -0.00000000  1
  Co  Co11  1  0.34603640  0.34603640  0.84986313  1
  Co  Co12  1  0.34603640  0.84986313  0.34603640  1
  Co  Co13  1  0.84986313  0.34603640  0.34603640  1
  Co  Co14  1  0.65396360  0.65396360  0.15013687  1
  Co  Co15  1  0.65396360  0.15013687  0.65396360  1
  Co  Co16  1  0.15013687  0.65396360  0.65396360  1
  Co  Co17  1  0.90264672  0.90264672  0.90264672  1
  Co  Co18  1  0.09735328  0.09735328  0.09735328  1
