# generated using pymatgen
data_BaPd(IO3)4
_symmetry_space_group_name_H-M   'P 1'
_cell_length_a   6.01964088
_cell_length_b   7.51575541
_cell_length_c   8.18090664
_cell_angle_alpha   105.44987515
_cell_angle_beta   94.58112822
_cell_angle_gamma   112.85498360
_symmetry_Int_Tables_number   1
_chemical_formula_structural   BaPd(IO3)4
_chemical_formula_sum   'Ba1 Pd1 I4 O12'
_cell_volume   321.65938008
_cell_formula_units_Z   1
loop_
 _symmetry_equiv_pos_site_id
 _symmetry_equiv_pos_as_xyz
  1  'x, y, z'
loop_
 _atom_site_type_symbol
 _atom_site_label
 _atom_site_symmetry_multiplicity
 _atom_site_fract_x
 _atom_site_fract_y
 _atom_site_fract_z
 _atom_site_occupancy
  Ba  Ba0  1  0.02547732  0.74379292  0.75436231  1
  Pd  Pd1  1  0.25601290  0.74159040  0.22609980  1
  I  I2  1  0.33073182  0.38466243  0.92472382  1
  I  I3  1  0.33240345  0.44199563  0.44345813  1
  I  I4  1  0.63524169  0.08811459  0.60127863  1
  I  I5  1  0.71203805  0.04706372  0.09312295  1
  O  O6  1  0.14279562  0.53369042  0.98671529  1
  O  O7  1  0.44973239  0.38970812  0.13822731  1
  O  O8  1  0.05823618  0.13864722  0.84525015  1
  O  O9  1  0.11665055  0.52897052  0.34470125  1
  O  O10  1  0.20060301  0.45026078  0.63920101  1
  O  O11  1  0.60959493  0.68308550  0.52651693  1
  O  O12  1  0.32250435  0.95450523  0.45675743  1
  O  O13  1  0.65739415  0.34468080  0.63238032  1
  O  O14  1  0.50655674  0.05070891  0.79291094  1
  O  O15  1  0.37550363  0.95301552  0.10286542  1
  O  O16  1  0.84197850  0.08594010  0.31618970  1
  O  O17  1  0.72066473  0.80623718  0.97928860  1
