# generated using pymatgen
data_Dy2Sn5Rh3
_symmetry_space_group_name_H-M   'P 1'
_cell_length_a   4.39801158
_cell_length_b   7.33453522
_cell_length_c   13.45591651
_cell_angle_alpha   90.00000000
_cell_angle_beta   99.40563362
_cell_angle_gamma   90.00000000
_symmetry_Int_Tables_number   1
_chemical_formula_structural   Dy2Sn5Rh3
_chemical_formula_sum   'Dy4 Sn10 Rh6'
_cell_volume   428.21712939
_cell_formula_units_Z   2
loop_
 _symmetry_equiv_pos_site_id
 _symmetry_equiv_pos_as_xyz
  1  'x, y, z'
loop_
 _atom_site_type_symbol
 _atom_site_label
 _atom_site_symmetry_multiplicity
 _atom_site_fract_x
 _atom_site_fract_y
 _atom_site_fract_z
 _atom_site_occupancy
  Dy  Dy0  1  0.17294817  0.74470181  0.34589635  1
  Dy  Dy1  1  0.82705183  0.24470181  0.65410365  1
  Dy  Dy2  1  0.47592583  0.76331272  0.95185166  1
  Dy  Dy3  1  0.52407417  0.26331272  0.04814834  1
  Sn  Sn4  1  0.88054374  0.76942458  0.76108749  1
  Sn  Sn5  1  0.11945626  0.26942458  0.23891251  1
  Sn  Sn6  1  0.70463998  0.44992521  0.40927997  1
  Sn  Sn7  1  0.29536002  0.94992521  0.59072003  1
  Sn  Sn8  1  0.59631896  0.88549910  0.19263791  1
  Sn  Sn9  1  0.40368104  0.38549910  0.80736209  1
  Sn  Sn10  1  0.95230465  0.10266609  0.90460929  1
  Sn  Sn11  1  0.04769535  0.60266609  0.09539071  1
  Sn  Sn12  1  0.29061814  0.52268703  0.58123628  1
  Sn  Sn13  1  0.70938186  0.02268703  0.41876372  1
  Rh  Rh14  1  0.05016241  0.98110237  0.10032482  1
  Rh  Rh15  1  0.94983759  0.48110237  0.89967518  1
  Rh  Rh16  1  0.77654507  0.73505156  0.55309014  1
  Rh  Rh17  1  0.22345493  0.23505156  0.44690986  1
  Rh  Rh18  1  0.39414263  0.01762952  0.78828526  1
  Rh  Rh19  1  0.60585737  0.51762952  0.21171474  1
