# generated using pymatgen
data_Pr7Pd3
_symmetry_space_group_name_H-M   'P 1'
_cell_length_a   6.54549589
_cell_length_b   10.31336413
_cell_length_c   10.31336413
_cell_angle_alpha   120.32495907
_cell_angle_beta   90.00000000
_cell_angle_gamma   90.00000000
_symmetry_Int_Tables_number   1
_chemical_formula_structural   Pr7Pd3
_chemical_formula_sum   'Pr14 Pd6'
_cell_volume   600.95569781
_cell_formula_units_Z   2
loop_
 _symmetry_equiv_pos_site_id
 _symmetry_equiv_pos_as_xyz
  1  'x, y, z'
loop_
 _atom_site_type_symbol
 _atom_site_label
 _atom_site_symmetry_multiplicity
 _atom_site_fract_x
 _atom_site_fract_y
 _atom_site_fract_z
 _atom_site_occupancy
  Pr  Pr0  1  0.45188107  0.33314379  0.66685621  1
  Pr  Pr1  1  0.95188107  0.66685621  0.33314379  1
  Pr  Pr2  1  0.24367718  0.12629715  0.87370285  1
  Pr  Pr3  1  0.24454673  0.74721268  0.87358121  1
  Pr  Pr4  1  0.24454673  0.12641879  0.25278732  1
  Pr  Pr5  1  0.74367718  0.87370285  0.12629715  1
  Pr  Pr6  1  0.74454673  0.25278732  0.12641879  1
  Pr  Pr7  1  0.74454673  0.87358121  0.74721268  1
  Pr  Pr8  1  0.44478102  0.53821683  0.46178317  1
  Pr  Pr9  1  0.44568097  0.92336024  0.46167613  1
  Pr  Pr10  1  0.44568097  0.53832387  0.07663976  1
  Pr  Pr11  1  0.94478102  0.46178317  0.53821683  1
  Pr  Pr12  1  0.94568097  0.07663976  0.53832387  1
  Pr  Pr13  1  0.94568097  0.46167613  0.92336024  1
  Pd  Pd14  1  0.19083319  0.81130609  0.18869391  1
  Pd  Pd15  1  0.19068608  0.37774546  0.18904480  1
  Pd  Pd16  1  0.19068608  0.81095520  0.62225454  1
  Pd  Pd17  1  0.69083319  0.18869391  0.81130609  1
  Pd  Pd18  1  0.69068608  0.62225454  0.81095520  1
  Pd  Pd19  1  0.69068608  0.18904480  0.37774546  1
