# generated using pymatgen
data_Zr5AlSb3
_symmetry_space_group_name_H-M   'P 1'
_cell_length_a   5.88218486
_cell_length_b   8.71226796
_cell_length_c   8.71226903
_cell_angle_alpha   119.99999207
_cell_angle_beta   90.00000000
_cell_angle_gamma   90.00000000
_symmetry_Int_Tables_number   1
_chemical_formula_structural   Zr5AlSb3
_chemical_formula_sum   'Zr10 Al2 Sb6'
_cell_volume   386.66230678
_cell_formula_units_Z   2
loop_
 _symmetry_equiv_pos_site_id
 _symmetry_equiv_pos_as_xyz
  1  'x, y, z'
loop_
 _atom_site_type_symbol
 _atom_site_label
 _atom_site_symmetry_multiplicity
 _atom_site_fract_x
 _atom_site_fract_y
 _atom_site_fract_z
 _atom_site_occupancy
  Zr  Zr0  1  0.74999963  0.27033030  0.00000000  1
  Zr  Zr1  1  0.75000021  0.72967826  0.72966044  1
  Zr  Zr2  1  0.75000021  0.00001782  0.27033956  1
  Zr  Zr3  1  0.24999963  0.72966970  1.00000000  1
  Zr  Zr4  1  0.25000021  0.27032174  0.27033956  1
  Zr  Zr5  1  0.25000021  0.99998218  0.72966044  1
  Zr  Zr6  1  0.49999977  0.33333677  0.66666518  1
  Zr  Zr7  1  0.49999977  0.66667160  0.33333482  1
  Zr  Zr8  1  -0.00000023  0.66666323  0.33333482  1
  Zr  Zr9  1  -0.00000023  0.33332840  0.66666518  1
  Al  Al10  1  0.49999981  0.00000071  0.00000000  1
  Al  Al11  1  0.99999981  0.99999929  -0.00000000  1
  Sb  Sb12  1  0.74999643  0.61213478  1.00000000  1
  Sb  Sb13  1  0.75000208  0.38787860  0.38788730  1
  Sb  Sb14  1  0.75000208  0.99999131  0.61211270  1
  Sb  Sb15  1  0.24999643  0.38786522  0.00000000  1
  Sb  Sb16  1  0.25000208  0.61212140  0.61211270  1
  Sb  Sb17  1  0.25000208  0.00000869  0.38788730  1
