# generated using pymatgen
data_Zn(Co2O5)2
_symmetry_space_group_name_H-M   'P 1'
_cell_length_a   4.52818532
_cell_length_b   5.03534427
_cell_length_c   7.60323131
_cell_angle_alpha   109.34949918
_cell_angle_beta   89.90898895
_cell_angle_gamma   90.27847574
_symmetry_Int_Tables_number   1
_chemical_formula_structural   Zn(Co2O5)2
_chemical_formula_sum   'Zn1 Co4 O10'
_cell_volume   163.56684281
_cell_formula_units_Z   1
loop_
 _symmetry_equiv_pos_site_id
 _symmetry_equiv_pos_as_xyz
  1  'x, y, z'
loop_
 _atom_site_type_symbol
 _atom_site_label
 _atom_site_symmetry_multiplicity
 _atom_site_fract_x
 _atom_site_fract_y
 _atom_site_fract_z
 _atom_site_occupancy
  Zn  Zn0  1  -0.00000000  0.60000000  0.20000000  1
  Co  Co1  1  0.00007960  0.99864810  0.99722197  1
  Co  Co2  1  -0.00007960  0.20135190  0.40277803  1
  Co  Co3  1  0.99999331  0.80187036  0.60377184  1
  Co  Co4  1  0.00000669  0.39812964  0.79622816  1
  O  O5  1  0.20682003  0.32014802  0.98601418  1
  O  O6  1  0.21053663  0.95800649  0.19995679  1
  O  O7  1  0.20693554  0.53403541  0.41393092  1
  O  O8  1  0.20562154  0.13558457  0.60139993  1
  O  O9  1  0.20558089  0.73415078  0.79841013  1
  O  O10  1  0.79437846  0.06441543  0.79860007  1
  O  O11  1  0.79306446  0.66596459  0.98606908  1
  O  O12  1  0.78946337  0.24199351  0.20004321  1
  O  O13  1  0.79317997  0.87985198  0.41398582  1
  O  O14  1  0.79441911  0.46584922  0.60158987  1
