# generated using pymatgen
data_Ce3Ni13B2
_symmetry_space_group_name_H-M   'P 1'
_cell_length_a   4.92844886
_cell_length_b   4.92600765
_cell_length_c   10.99245571
_cell_angle_alpha   89.99951989
_cell_angle_beta   90.00095985
_cell_angle_gamma   120.01639022
_symmetry_Int_Tables_number   1
_chemical_formula_structural   Ce3Ni13B2
_chemical_formula_sum   'Ce3 Ni13 B2'
_cell_volume   231.07818116
_cell_formula_units_Z   1
loop_
 _symmetry_equiv_pos_site_id
 _symmetry_equiv_pos_as_xyz
  1  'x, y, z'
loop_
 _atom_site_type_symbol
 _atom_site_label
 _atom_site_symmetry_multiplicity
 _atom_site_fract_x
 _atom_site_fract_y
 _atom_site_fract_z
 _atom_site_occupancy
  Ce  Ce0  1  0.99997143  0.00000000  -0.00004092  1
  Ce  Ce1  1  0.99996265  0.00000000  0.33088026  1
  Ce  Ce2  1  0.00011895  0.00000000  0.66906988  1
  Ni  Ni3  1  0.50002823  1.00000000  0.49995962  1
  Ni  Ni4  1  0.50001506  0.50000033  0.50012300  1
  Ni  Ni5  1  0.00001473  0.49999967  0.50012300  1
  Ni  Ni6  1  0.33284592  0.66576062  0.31793570  1
  Ni  Ni7  1  0.66708531  0.33423938  0.31793570  1
  Ni  Ni8  1  0.66681162  0.33352835  0.68213206  1
  Ni  Ni9  1  0.33328327  0.66647165  0.68213206  1
  Ni  Ni10  1  0.49998753  1.00000000  0.13287872  1
  Ni  Ni11  1  0.49999490  0.50001338  0.13271526  1
  Ni  Ni12  1  0.99998152  0.49998662  0.13271526  1
  Ni  Ni13  1  0.49995822  0.00000000  0.86711953  1
  Ni  Ni14  1  0.49996190  0.50000391  0.86717527  1
  Ni  Ni15  1  0.99995798  0.49999609  0.86717527  1
  B  B16  1  0.33337707  0.66683336  -0.00001483  1
  B  B17  1  0.66654371  0.33316664  -0.00001483  1
