# generated using pymatgen
data_Ho7Rh3
_symmetry_space_group_name_H-M   'P 1'
_cell_length_a   6.16262344
_cell_length_b   9.77828372
_cell_length_c   9.77828372
_cell_angle_alpha   119.98244197
_cell_angle_beta   90.00000000
_cell_angle_gamma   90.00000000
_symmetry_Int_Tables_number   1
_chemical_formula_structural   Ho7Rh3
_chemical_formula_sum   'Ho14 Rh6'
_cell_volume   510.38551779
_cell_formula_units_Z   2
loop_
 _symmetry_equiv_pos_site_id
 _symmetry_equiv_pos_as_xyz
  1  'x, y, z'
loop_
 _atom_site_type_symbol
 _atom_site_label
 _atom_site_symmetry_multiplicity
 _atom_site_fract_x
 _atom_site_fract_y
 _atom_site_fract_z
 _atom_site_occupancy
  Ho  Ho0  1  0.45376891  0.33329153  0.66670847  1
  Ho  Ho1  1  0.95376891  0.66670847  0.33329153  1
  Ho  Ho2  1  0.25286388  0.12439610  0.87560390  1
  Ho  Ho3  1  0.25298054  0.75134127  0.87589061  1
  Ho  Ho4  1  0.25298054  0.12410939  0.24865873  1
  Ho  Ho5  1  0.75286388  0.87560390  0.12439610  1
  Ho  Ho6  1  0.75298054  0.24865873  0.12410939  1
  Ho  Ho7  1  0.75298054  0.87589061  0.75134127  1
  Ho  Ho8  1  0.44832774  0.54044993  0.45955007  1
  Ho  Ho9  1  0.44765104  0.91926461  0.45965824  1
  Ho  Ho10  1  0.44765104  0.54034176  0.08073539  1
  Ho  Ho11  1  0.94832774  0.45955007  0.54044993  1
  Ho  Ho12  1  0.94765104  0.08073539  0.54034176  1
  Ho  Ho13  1  0.94765104  0.45965824  0.91926461  1
  Rh  Rh14  1  0.18147457  0.80967668  0.19032332  1
  Rh  Rh15  1  0.18165088  0.38045704  0.19040979  1
  Rh  Rh16  1  0.18165088  0.80959021  0.61954296  1
  Rh  Rh17  1  0.68147457  0.19032332  0.80967668  1
  Rh  Rh18  1  0.68165088  0.61954296  0.80959021  1
  Rh  Rh19  1  0.68165088  0.19040979  0.38045704  1
