# generated using pymatgen
data_Ca5Sn3H
_symmetry_space_group_name_H-M   'P 1'
_cell_length_a   8.19046281
_cell_length_b   8.19046281
_cell_length_c   9.45528174
_cell_angle_alpha   115.66546020
_cell_angle_beta   115.66546020
_cell_angle_gamma   90.00000000
_symmetry_Int_Tables_number   1
_chemical_formula_structural   Ca5Sn3H
_chemical_formula_sum   'Ca10 Sn6 H2'
_cell_volume   501.38265528
_cell_formula_units_Z   2
loop_
 _symmetry_equiv_pos_site_id
 _symmetry_equiv_pos_as_xyz
  1  'x, y, z'
loop_
 _atom_site_type_symbol
 _atom_site_label
 _atom_site_symmetry_multiplicity
 _atom_site_fract_x
 _atom_site_fract_y
 _atom_site_fract_z
 _atom_site_occupancy
  Ca  Ca0  1  0.50000000  0.50000000  0.00000000  1
  Ca  Ca1  1  -0.00000000  -0.00000000  0.00000000  1
  Ca  Ca2  1  0.01014197  0.51014197  0.69581954  1
  Ca  Ca3  1  0.68567757  0.18567757  0.69581954  1
  Ca  Ca4  1  0.18567757  0.01014197  0.69581954  1
  Ca  Ca5  1  0.51014197  0.68567757  0.69581954  1
  Ca  Ca6  1  0.98985803  0.48985803  0.30418046  1
  Ca  Ca7  1  0.31432243  0.81432243  0.30418046  1
  Ca  Ca8  1  0.81432243  0.98985803  0.30418046  1
  Ca  Ca9  1  0.48985803  0.31432243  0.30418046  1
  Sn  Sn10  1  0.25000000  0.25000000  0.50000000  1
  Sn  Sn11  1  0.75000000  0.75000000  0.50000000  1
  Sn  Sn12  1  0.37272932  0.87272932  0.00000000  1
  Sn  Sn13  1  0.62727068  0.12727068  1.00000000  1
  Sn  Sn14  1  0.12727068  0.37272932  0.00000000  1
  Sn  Sn15  1  0.87272932  0.62727068  0.00000000  1
  H  H16  1  0.75000000  0.25000000  0.50000000  1
  H  H17  1  0.25000000  0.75000000  0.50000000  1
