# generated using pymatgen
data_Na3MoCl6
_symmetry_space_group_name_H-M   'P 1'
_cell_length_a   6.95258262
_cell_length_b   6.95280695
_cell_length_c   12.32368753
_cell_angle_alpha   90.00004027
_cell_angle_beta   89.99997992
_cell_angle_gamma   120.00106954
_symmetry_Int_Tables_number   1
_chemical_formula_structural   Na3MoCl6
_chemical_formula_sum   'Na6 Mo2 Cl12'
_cell_volume   515.90882734
_cell_formula_units_Z   2
loop_
 _symmetry_equiv_pos_site_id
 _symmetry_equiv_pos_as_xyz
  1  'x, y, z'
loop_
 _atom_site_type_symbol
 _atom_site_label
 _atom_site_symmetry_multiplicity
 _atom_site_fract_x
 _atom_site_fract_y
 _atom_site_fract_z
 _atom_site_occupancy
  Na  Na0  1  0.66663556  0.33333073  0.45911750  1
  Na  Na1  1  0.33336444  0.66669517  0.95911750  1
  Na  Na2  1  0.33336444  0.66666927  0.54088250  1
  Na  Na3  1  0.66663556  0.33330483  0.04088250  1
  Na  Na4  1  0.00000716  0.00000358  0.25000000  1
  Na  Na5  1  0.99999284  0.99999642  0.75000000  1
  Mo  Mo6  1  0.33333575  0.66666787  0.25000000  1
  Mo  Mo7  1  0.66666425  0.33333213  0.75000000  1
  Cl  Cl8  1  0.05320161  0.68149902  0.36827688  1
  Cl  Cl9  1  0.31848416  0.37169683  0.36827400  1
  Cl  Cl10  1  0.62831707  0.94680151  0.36827357  1
  Cl  Cl11  1  0.94679839  0.62829741  0.86827688  1
  Cl  Cl12  1  0.37168293  0.31848444  0.86827357  1
  Cl  Cl13  1  0.68151584  0.05321268  0.86827400  1
  Cl  Cl14  1  0.94679839  0.31850098  0.63172312  1
  Cl  Cl15  1  0.68151584  0.62830317  0.63172600  1
  Cl  Cl16  1  0.37168293  0.05319849  0.63172643  1
  Cl  Cl17  1  0.05320161  0.37170259  0.13172312  1
  Cl  Cl18  1  0.62831707  0.68151556  0.13172643  1
  Cl  Cl19  1  0.31848416  0.94678732  0.13172600  1
