# generated using pymatgen
data_Tb3Ir
_symmetry_space_group_name_H-M   'P 1'
_cell_length_a   6.37004165
_cell_length_b   7.26395695
_cell_length_c   9.35835682
_cell_angle_alpha   90.00000000
_cell_angle_beta   90.00000000
_cell_angle_gamma   90.00000000
_symmetry_Int_Tables_number   1
_chemical_formula_structural   Tb3Ir
_chemical_formula_sum   'Tb12 Ir4'
_cell_volume   433.02715709
_cell_formula_units_Z   4
loop_
 _symmetry_equiv_pos_site_id
 _symmetry_equiv_pos_as_xyz
  1  'x, y, z'
loop_
 _atom_site_type_symbol
 _atom_site_label
 _atom_site_symmetry_multiplicity
 _atom_site_fract_x
 _atom_site_fract_y
 _atom_site_fract_z
 _atom_site_occupancy
  Tb  Tb0  1  0.32872722  0.67638408  0.06350173  1
  Tb  Tb1  1  0.17127278  0.17638408  0.43649827  1
  Tb  Tb2  1  0.67127278  0.32361592  0.56350173  1
  Tb  Tb3  1  0.82872722  0.82361592  0.93649827  1
  Tb  Tb4  1  0.67127278  0.32361592  0.93649827  1
  Tb  Tb5  1  0.82872722  0.82361592  0.56350173  1
  Tb  Tb6  1  0.32872722  0.67638408  0.43649827  1
  Tb  Tb7  1  0.17127278  0.17638408  0.06350173  1
  Tb  Tb8  1  0.86539849  0.53525846  0.25000000  1
  Tb  Tb9  1  0.63460151  0.03525846  0.25000000  1
  Tb  Tb10  1  0.13460151  0.46474154  0.75000000  1
  Tb  Tb11  1  0.36539849  0.96474154  0.75000000  1
  Ir  Ir12  1  0.05141624  0.88174872  0.25000000  1
  Ir  Ir13  1  0.44858376  0.38174872  0.25000000  1
  Ir  Ir14  1  0.94858376  0.11825128  0.75000000  1
  Ir  Ir15  1  0.55141624  0.61825128  0.75000000  1
