# generated using pymatgen
data_Sm2Te3
_symmetry_space_group_name_H-M   'P 1'
_cell_length_a   4.38134929
_cell_length_b   11.98682302
_cell_length_c   12.21341730
_cell_angle_alpha   90.00000000
_cell_angle_beta   90.00000000
_cell_angle_gamma   90.00000000
_symmetry_Int_Tables_number   1
_chemical_formula_structural   Sm2Te3
_chemical_formula_sum   'Sm8 Te12'
_cell_volume   641.42984996
_cell_formula_units_Z   4
loop_
 _symmetry_equiv_pos_site_id
 _symmetry_equiv_pos_as_xyz
  1  'x, y, z'
loop_
 _atom_site_type_symbol
 _atom_site_label
 _atom_site_symmetry_multiplicity
 _atom_site_fract_x
 _atom_site_fract_y
 _atom_site_fract_z
 _atom_site_occupancy
  Sm  Sm0  1  0.25000000  0.18690096  0.48457137  1
  Sm  Sm1  1  0.25000000  0.31309904  0.98457137  1
  Sm  Sm2  1  0.75000000  0.81309904  0.51542863  1
  Sm  Sm3  1  0.75000000  0.68690096  0.01542863  1
  Sm  Sm4  1  0.75000000  0.50172054  0.69621650  1
  Sm  Sm5  1  0.75000000  0.99827946  0.19621650  1
  Sm  Sm6  1  0.25000000  0.49827946  0.30378350  1
  Sm  Sm7  1  0.25000000  0.00172054  0.80378350  1
  Te  Te8  1  0.25000000  0.62362349  0.54274587  1
  Te  Te9  1  0.25000000  0.87637651  0.04274587  1
  Te  Te10  1  0.75000000  0.37637651  0.45725413  1
  Te  Te11  1  0.75000000  0.12362349  0.95725413  1
  Te  Te12  1  0.75000000  0.05599330  0.61904096  1
  Te  Te13  1  0.75000000  0.44400670  0.11904096  1
  Te  Te14  1  0.25000000  0.94400670  0.38095904  1
  Te  Te15  1  0.25000000  0.55599330  0.88095904  1
  Te  Te16  1  0.25000000  0.30397180  0.72519495  1
  Te  Te17  1  0.25000000  0.19602820  0.22519495  1
  Te  Te18  1  0.75000000  0.69602820  0.27480505  1
  Te  Te19  1  0.75000000  0.80397180  0.77480505  1
