# generated using pymatgen
data_CsHSO3
_symmetry_space_group_name_H-M   'P 1'
_cell_length_a   4.71841760
_cell_length_b   4.71841854
_cell_length_c   4.71841781
_cell_angle_alpha   87.11054374
_cell_angle_beta   87.11054412
_cell_angle_gamma   87.11055219
_symmetry_Int_Tables_number   1
_chemical_formula_structural   CsHSO3
_chemical_formula_sum   'Cs1 H1 S1 O3'
_cell_volume   104.66068576
_cell_formula_units_Z   1
loop_
 _symmetry_equiv_pos_site_id
 _symmetry_equiv_pos_as_xyz
  1  'x, y, z'
loop_
 _atom_site_type_symbol
 _atom_site_label
 _atom_site_symmetry_multiplicity
 _atom_site_fract_x
 _atom_site_fract_y
 _atom_site_fract_z
 _atom_site_occupancy
  Cs  Cs0  1  0.99568564  0.99568564  0.99568564  1
  H  H1  1  0.59737284  0.59737284  0.59737284  1
  S  S2  1  0.43924662  0.43924662  0.43924662  1
  O  O3  1  0.51918973  0.51918973  0.14091544  1
  O  O4  1  0.51918973  0.14091544  0.51918973  1
  O  O5  1  0.14091544  0.51918973  0.51918973  1
