# generated using pymatgen
data_Pr3Ir
_symmetry_space_group_name_H-M   'P 1'
_cell_length_a   6.58856302
_cell_length_b   7.42721579
_cell_length_c   9.99093284
_cell_angle_alpha   90.00000000
_cell_angle_beta   90.00000000
_cell_angle_gamma   90.00000000
_symmetry_Int_Tables_number   1
_chemical_formula_structural   Pr3Ir
_chemical_formula_sum   'Pr12 Ir4'
_cell_volume   488.90309439
_cell_formula_units_Z   4
loop_
 _symmetry_equiv_pos_site_id
 _symmetry_equiv_pos_as_xyz
  1  'x, y, z'
loop_
 _atom_site_type_symbol
 _atom_site_label
 _atom_site_symmetry_multiplicity
 _atom_site_fract_x
 _atom_site_fract_y
 _atom_site_fract_z
 _atom_site_occupancy
  Pr  Pr0  1  0.32879546  0.67493588  0.06612544  1
  Pr  Pr1  1  0.17120454  0.17493588  0.43387456  1
  Pr  Pr2  1  0.67120454  0.32506412  0.56612544  1
  Pr  Pr3  1  0.82879546  0.82506412  0.93387456  1
  Pr  Pr4  1  0.67120454  0.32506412  0.93387456  1
  Pr  Pr5  1  0.82879546  0.82506412  0.56612544  1
  Pr  Pr6  1  0.32879546  0.67493588  0.43387456  1
  Pr  Pr7  1  0.17120454  0.17493588  0.06612544  1
  Pr  Pr8  1  0.86092440  0.53385683  0.25000000  1
  Pr  Pr9  1  0.63907560  0.03385683  0.25000000  1
  Pr  Pr10  1  0.13907560  0.46614317  0.75000000  1
  Pr  Pr11  1  0.36092440  0.96614317  0.75000000  1
  Ir  Ir12  1  0.06372972  0.88283989  0.25000000  1
  Ir  Ir13  1  0.43627028  0.38283989  0.25000000  1
  Ir  Ir14  1  0.93627028  0.11716011  0.75000000  1
  Ir  Ir15  1  0.56372972  0.61716011  0.75000000  1
