# generated using pymatgen
data_Cs2TlAsF6
_symmetry_space_group_name_H-M   'P 1'
_cell_length_a   6.77469880
_cell_length_b   6.77469896
_cell_length_c   6.77469895
_cell_angle_alpha   59.99999943
_cell_angle_beta   59.99999915
_cell_angle_gamma   59.99999916
_symmetry_Int_Tables_number   1
_chemical_formula_structural   Cs2TlAsF6
_chemical_formula_sum   'Cs2 Tl1 As1 F6'
_cell_volume   219.86443747
_cell_formula_units_Z   1
loop_
 _symmetry_equiv_pos_site_id
 _symmetry_equiv_pos_as_xyz
  1  'x, y, z'
loop_
 _atom_site_type_symbol
 _atom_site_label
 _atom_site_symmetry_multiplicity
 _atom_site_fract_x
 _atom_site_fract_y
 _atom_site_fract_z
 _atom_site_occupancy
  Cs  Cs0  1  0.25000000  0.25000000  0.25000000  1
  Cs  Cs1  1  0.75000000  0.75000000  0.75000000  1
  Tl  Tl2  1  0.50000000  0.50000000  0.50000000  1
  As  As3  1  -0.00000000  -0.00000000  0.00000000  1
  F  F4  1  0.21704041  0.78295959  0.21704040  1
  F  F5  1  0.78295959  0.78295960  0.21704041  1
  F  F6  1  0.78295959  0.21704041  0.78295960  1
  F  F7  1  0.78295959  0.21704041  0.21704041  1
  F  F8  1  0.21704041  0.78295959  0.78295959  1
  F  F9  1  0.21704041  0.21704040  0.78295959  1
