# generated using pymatgen
data_LaNO4
_symmetry_space_group_name_H-M   'P 1'
_cell_length_a   5.63927958
_cell_length_b   7.30353663
_cell_length_c   9.57852453
_cell_angle_alpha   90.00000000
_cell_angle_beta   90.00000000
_cell_angle_gamma   90.00000000
_symmetry_Int_Tables_number   1
_chemical_formula_structural   LaNO4
_chemical_formula_sum   'La4 N4 O16'
_cell_volume   394.50767238
_cell_formula_units_Z   4
loop_
 _symmetry_equiv_pos_site_id
 _symmetry_equiv_pos_as_xyz
  1  'x, y, z'
loop_
 _atom_site_type_symbol
 _atom_site_label
 _atom_site_symmetry_multiplicity
 _atom_site_fract_x
 _atom_site_fract_y
 _atom_site_fract_z
 _atom_site_occupancy
  La  La0  1  0.75000000  0.31630895  0.66754497  1
  La  La1  1  0.75000000  0.81630895  0.83245503  1
  La  La2  1  0.25000000  0.68369105  0.33245503  1
  La  La3  1  0.25000000  0.18369105  0.16754497  1
  N  N4  1  0.75000000  0.29471882  0.33487789  1
  N  N5  1  0.75000000  0.79471882  0.16512211  1
  N  N6  1  0.25000000  0.70528118  0.66512211  1
  N  N7  1  0.25000000  0.20528118  0.83487789  1
  O  O8  1  0.94435465  0.33083738  0.39581562  1
  O  O9  1  0.55564535  0.83083738  0.10418438  1
  O  O10  1  0.44435465  0.66916262  0.60418438  1
  O  O11  1  0.05564535  0.16916262  0.89581562  1
  O  O12  1  0.05564535  0.66916262  0.60418438  1
  O  O13  1  0.44435465  0.16916262  0.89581562  1
  O  O14  1  0.55564535  0.33083738  0.39581562  1
  O  O15  1  0.94435465  0.83083738  0.10418438  1
  O  O16  1  0.75000000  0.22035181  0.21522040  1
  O  O17  1  0.75000000  0.72035181  0.28477960  1
  O  O18  1  0.25000000  0.77964819  0.78477960  1
  O  O19  1  0.25000000  0.27964819  0.71522040  1
  O  O20  1  0.75000000  0.02478921  0.67179825  1
  O  O21  1  0.75000000  0.52478921  0.82820175  1
  O  O22  1  0.25000000  0.97521079  0.32820175  1
  O  O23  1  0.25000000  0.47521079  0.17179825  1
