# generated using pymatgen
data_YMg6Zn
_symmetry_space_group_name_H-M   'P 1'
_cell_length_a   6.76961955
_cell_length_b   6.10467758
_cell_length_c   5.03756880
_cell_angle_alpha   90.00000000
_cell_angle_beta   90.00000000
_cell_angle_gamma   116.80066341
_symmetry_Int_Tables_number   1
_chemical_formula_structural   YMg6Zn
_chemical_formula_sum   'Y1 Mg6 Zn1'
_cell_volume   185.82127109
_cell_formula_units_Z   1
loop_
 _symmetry_equiv_pos_site_id
 _symmetry_equiv_pos_as_xyz
  1  'x, y, z'
loop_
 _atom_site_type_symbol
 _atom_site_label
 _atom_site_symmetry_multiplicity
 _atom_site_fract_x
 _atom_site_fract_y
 _atom_site_fract_z
 _atom_site_occupancy
  Y  Y0  1  0.12652935  0.31326417  0.25000000  1
  Mg  Mg1  1  0.63817827  0.32133613  0.25000000  1
  Mg  Mg2  1  0.63817827  0.81684114  0.25000000  1
  Mg  Mg3  1  0.34437232  0.17178641  0.75000000  1
  Mg  Mg4  1  0.34437232  0.67258691  0.75000000  1
  Mg  Mg5  1  0.81205837  0.15602968  0.75000000  1
  Mg  Mg6  1  0.88506736  0.69253418  0.75000000  1
  Zn  Zn7  1  0.21124375  0.85562138  0.25000000  1
