# generated using pymatgen
data_BaCeCuS3
_symmetry_space_group_name_H-M   'P 1'
_cell_length_a   4.20653750
_cell_length_b   11.12043918
_cell_length_c   11.91883209
_cell_angle_alpha   90.00000000
_cell_angle_beta   90.00000000
_cell_angle_gamma   90.00000000
_symmetry_Int_Tables_number   1
_chemical_formula_structural   BaCeCuS3
_chemical_formula_sum   'Ba4 Ce4 Cu4 S12'
_cell_volume   557.54561644
_cell_formula_units_Z   4
loop_
 _symmetry_equiv_pos_site_id
 _symmetry_equiv_pos_as_xyz
  1  'x, y, z'
loop_
 _atom_site_type_symbol
 _atom_site_label
 _atom_site_symmetry_multiplicity
 _atom_site_fract_x
 _atom_site_fract_y
 _atom_site_fract_z
 _atom_site_occupancy
  Ba  Ba0  1  0.75000000  0.68499149  0.00691392  1
  Ba  Ba1  1  0.75000000  0.18499149  0.49308608  1
  Ba  Ba2  1  0.25000000  0.31500851  0.99308608  1
  Ba  Ba3  1  0.25000000  0.81500851  0.50691392  1
  Ce  Ce4  1  0.75000000  0.00813330  0.81481521  1
  Ce  Ce5  1  0.75000000  0.50813330  0.68518479  1
  Ce  Ce6  1  0.25000000  0.99186670  0.18518479  1
  Ce  Ce7  1  0.25000000  0.49186670  0.31481521  1
  Cu  Cu8  1  0.25000000  0.24778147  0.70967117  1
  Cu  Cu9  1  0.25000000  0.74778147  0.79032883  1
  Cu  Cu10  1  0.75000000  0.75221853  0.29032883  1
  Cu  Cu11  1  0.75000000  0.25221853  0.20967117  1
  S  S12  1  0.75000000  0.27396793  0.79789782  1
  S  S13  1  0.75000000  0.77396793  0.70210218  1
  S  S14  1  0.25000000  0.72603207  0.20210218  1
  S  S15  1  0.25000000  0.22603207  0.29789782  1
  S  S16  1  0.75000000  0.10818728  0.06376454  1
  S  S17  1  0.75000000  0.60818728  0.43623546  1
  S  S18  1  0.25000000  0.89181272  0.93623546  1
  S  S19  1  0.25000000  0.39181272  0.56376454  1
  S  S20  1  0.25000000  0.05019706  0.65217366  1
  S  S21  1  0.25000000  0.55019706  0.84782634  1
  S  S22  1  0.75000000  0.94980294  0.34782634  1
  S  S23  1  0.75000000  0.44980294  0.15217366  1
