# generated using pymatgen
data_YMg6Sn
_symmetry_space_group_name_H-M   'P 1'
_cell_length_a   6.60814455
_cell_length_b   6.60814396
_cell_length_c   5.12678618
_cell_angle_alpha   90.00000000
_cell_angle_beta   90.00000000
_cell_angle_gamma   119.55087022
_symmetry_Int_Tables_number   1
_chemical_formula_structural   YMg6Sn
_chemical_formula_sum   'Y1 Mg6 Sn1'
_cell_volume   194.75231491
_cell_formula_units_Z   1
loop_
 _symmetry_equiv_pos_site_id
 _symmetry_equiv_pos_as_xyz
  1  'x, y, z'
loop_
 _atom_site_type_symbol
 _atom_site_label
 _atom_site_symmetry_multiplicity
 _atom_site_fract_x
 _atom_site_fract_y
 _atom_site_fract_z
 _atom_site_occupancy
  Y  Y0  1  0.17128688  0.32871312  0.25000000  1
  Mg  Mg1  1  0.16621181  0.82546064  0.25000000  1
  Mg  Mg2  1  0.67453936  0.33378819  0.25000000  1
  Mg  Mg3  1  0.66427346  0.83572654  0.25000000  1
  Mg  Mg4  1  0.34084020  0.68114067  0.75000000  1
  Mg  Mg5  1  0.81885933  0.15915980  0.75000000  1
  Mg  Mg6  1  0.83197243  0.66802757  0.75000000  1
  Sn  Sn7  1  0.33201653  0.16798347  0.75000000  1
