# generated using pymatgen
data_Dy2Cu(SO6)2
_symmetry_space_group_name_H-M   'P 1'
_cell_length_a   6.37217992
_cell_length_b   6.84328435
_cell_length_c   10.43700466
_cell_angle_alpha   90.00000000
_cell_angle_beta   97.86381151
_cell_angle_gamma   90.00000000
_symmetry_Int_Tables_number   1
_chemical_formula_structural   Dy2Cu(SO6)2
_chemical_formula_sum   'Dy4 Cu2 S4 O24'
_cell_volume   450.84275678
_cell_formula_units_Z   2
loop_
 _symmetry_equiv_pos_site_id
 _symmetry_equiv_pos_as_xyz
  1  'x, y, z'
loop_
 _atom_site_type_symbol
 _atom_site_label
 _atom_site_symmetry_multiplicity
 _atom_site_fract_x
 _atom_site_fract_y
 _atom_site_fract_z
 _atom_site_occupancy
  Dy  Dy0  1  0.07780771  0.49469820  0.32218390  1
  Dy  Dy1  1  0.92219229  0.99469820  0.17781610  1
  Dy  Dy2  1  0.92219229  0.50530180  0.67781610  1
  Dy  Dy3  1  0.07780771  0.00530180  0.82218390  1
  Cu  Cu4  1  -0.00000000  0.50000000  0.00000000  1
  Cu  Cu5  1  -0.00000000  -0.00000000  0.50000000  1
  S  S6  1  0.63230481  0.67103586  0.37326479  1
  S  S7  1  0.36769519  0.17103586  0.12673521  1
  S  S8  1  0.36769519  0.32896414  0.62673521  1
  S  S9  1  0.63230481  0.82896414  0.87326479  1
  O  O10  1  0.93900074  0.33516719  0.13011306  1
  O  O11  1  0.06099926  0.83516719  0.36988694  1
  O  O12  1  0.06099926  0.66483281  0.86988694  1
  O  O13  1  0.93900074  0.16483281  0.63011306  1
  O  O14  1  0.94135556  0.32129220  0.87261418  1
  O  O15  1  0.05864444  0.82129220  0.62738582  1
  O  O16  1  0.05864444  0.67870780  0.12738582  1
  O  O17  1  0.94135556  0.17870780  0.37261418  1
  O  O18  1  0.74761631  0.69440316  0.25351870  1
  O  O19  1  0.25238369  0.19440316  0.24648130  1
  O  O20  1  0.25238369  0.30559684  0.74648130  1
  O  O21  1  0.74761631  0.80559684  0.75351870  1
  O  O22  1  0.43708629  0.56051977  0.33123827  1
  O  O23  1  0.56291371  0.06051977  0.16876173  1
  O  O24  1  0.56291371  0.43948023  0.66876173  1
  O  O25  1  0.43708629  0.93948023  0.83123827  1
  O  O26  1  0.78831828  0.54027997  0.45698083  1
  O  O27  1  0.21168172  0.04027997  0.04301917  1
  O  O28  1  0.21168172  0.45972003  0.54301917  1
  O  O29  1  0.78831828  0.95972003  0.95698083  1
  O  O30  1  0.59993062  0.85563790  0.43353760  1
  O  O31  1  0.40006938  0.35563790  0.06646240  1
  O  O32  1  0.40006938  0.14436210  0.56646240  1
  O  O33  1  0.59993062  0.64436210  0.93353760  1
