# generated using pymatgen
data_Sm5Pb4
_symmetry_space_group_name_H-M   'P 1'
_cell_length_a   8.37797850
_cell_length_b   8.48656328
_cell_length_c   16.06057092
_cell_angle_alpha   90.00000000
_cell_angle_beta   90.00000000
_cell_angle_gamma   90.00000000
_symmetry_Int_Tables_number   1
_chemical_formula_structural   Sm5Pb4
_chemical_formula_sum   'Sm20 Pb16'
_cell_volume   1141.91052241
_cell_formula_units_Z   4
loop_
 _symmetry_equiv_pos_site_id
 _symmetry_equiv_pos_as_xyz
  1  'x, y, z'
loop_
 _atom_site_type_symbol
 _atom_site_label
 _atom_site_symmetry_multiplicity
 _atom_site_fract_x
 _atom_site_fract_y
 _atom_site_fract_z
 _atom_site_occupancy
  Sm  Sm0  1  0.37760963  0.84020464  0.88089698  1
  Sm  Sm1  1  0.87760963  0.65979536  0.61910302  1
  Sm  Sm2  1  0.62239037  0.15979536  0.38089698  1
  Sm  Sm3  1  0.12239037  0.34020464  0.11910302  1
  Sm  Sm4  1  0.62239037  0.15979536  0.11910302  1
  Sm  Sm5  1  0.12239037  0.34020464  0.38089698  1
  Sm  Sm6  1  0.37760963  0.84020464  0.61910302  1
  Sm  Sm7  1  0.87760963  0.65979536  0.88089698  1
  Sm  Sm8  1  0.53146183  0.32149122  0.89904391  1
  Sm  Sm9  1  0.03146183  0.17850878  0.60095609  1
  Sm  Sm10  1  0.46853817  0.67850878  0.39904391  1
  Sm  Sm11  1  0.96853817  0.82149122  0.10095609  1
  Sm  Sm12  1  0.46853817  0.67850878  0.10095609  1
  Sm  Sm13  1  0.96853817  0.82149122  0.39904391  1
  Sm  Sm14  1  0.53146183  0.32149122  0.60095609  1
  Sm  Sm15  1  0.03146183  0.17850878  0.89904391  1
  Sm  Sm16  1  0.20829192  0.50310657  0.75000000  1
  Sm  Sm17  1  0.70829192  0.99689343  0.75000000  1
  Sm  Sm18  1  0.79170808  0.49689343  0.25000000  1
  Sm  Sm19  1  0.29170808  0.00310657  0.25000000  1
  Pb  Pb20  1  0.28057016  0.03193918  0.04298155  1
  Pb  Pb21  1  0.78057016  0.46806082  0.45701845  1
  Pb  Pb22  1  0.71942984  0.96806082  0.54298155  1
  Pb  Pb23  1  0.21942984  0.53193918  0.95701845  1
  Pb  Pb24  1  0.71942984  0.96806082  0.95701845  1
  Pb  Pb25  1  0.21942984  0.53193918  0.54298155  1
  Pb  Pb26  1  0.28057016  0.03193918  0.45701845  1
  Pb  Pb27  1  0.78057016  0.46806082  0.04298155  1
  Pb  Pb28  1  0.57325035  0.62648525  0.75000000  1
  Pb  Pb29  1  0.07325035  0.87351475  0.75000000  1
  Pb  Pb30  1  0.42674965  0.37351475  0.25000000  1
  Pb  Pb31  1  0.92674965  0.12648525  0.25000000  1
  Pb  Pb32  1  0.34050642  0.14835333  0.75000000  1
  Pb  Pb33  1  0.84050642  0.35164667  0.75000000  1
  Pb  Pb34  1  0.65949358  0.85164667  0.25000000  1
  Pb  Pb35  1  0.15949358  0.64835333  0.25000000  1
