# generated using pymatgen
data_Pr5Pb3
_symmetry_space_group_name_H-M   'P 1'
_cell_length_a   7.17104198
_cell_length_b   9.72249751
_cell_length_c   9.70366852
_cell_angle_alpha   120.06421102
_cell_angle_beta   90.00000000
_cell_angle_gamma   90.00000000
_symmetry_Int_Tables_number   1
_chemical_formula_structural   Pr5Pb3
_chemical_formula_sum   'Pr10 Pb6'
_cell_volume   585.52483851
_cell_formula_units_Z   2
loop_
 _symmetry_equiv_pos_site_id
 _symmetry_equiv_pos_as_xyz
  1  'x, y, z'
loop_
 _atom_site_type_symbol
 _atom_site_label
 _atom_site_symmetry_multiplicity
 _atom_site_fract_x
 _atom_site_fract_y
 _atom_site_fract_z
 _atom_site_occupancy
  Pr  Pr0  1  0.49989705  0.33340889  0.66686991  1
  Pr  Pr1  1  0.49989705  0.66653898  0.33313009  1
  Pr  Pr2  1  0.99989705  0.66659111  0.33313009  1
  Pr  Pr3  1  0.99989705  0.33346102  0.66686991  1
  Pr  Pr4  1  0.75012985  0.24156179  0.00000000  1
  Pr  Pr5  1  0.75003610  0.75883056  0.75892589  1
  Pr  Pr6  1  0.75003610  0.99990468  0.24107411  1
  Pr  Pr7  1  0.25012985  0.75843821  1.00000000  1
  Pr  Pr8  1  0.25003610  0.24116944  0.24107411  1
  Pr  Pr9  1  0.25003610  0.00009532  0.75892589  1
  Pb  Pb10  1  0.74961550  0.60478990  0.00000000  1
  Pb  Pb11  1  0.75019417  0.39523738  0.39532955  1
  Pb  Pb12  1  0.75019417  0.99990783  0.60467045  1
  Pb  Pb13  1  0.24961550  0.39521010  1.00000000  1
  Pb  Pb14  1  0.25019417  0.60476262  0.60467045  1
  Pb  Pb15  1  0.25019417  0.00009217  0.39532955  1
