# generated using pymatgen
data_BaRuO5
_symmetry_space_group_name_H-M   'P 1'
_cell_length_a   9.81220977
_cell_length_b   9.81220977
_cell_length_c   10.51091318
_cell_angle_alpha   62.17562703
_cell_angle_beta   62.17562703
_cell_angle_gamma   60.00000140
_symmetry_Int_Tables_number   1
_chemical_formula_structural   BaRuO5
_chemical_formula_sum   'Ba6 Ru6 O30'
_cell_volume   738.21685316
_cell_formula_units_Z   6
loop_
 _symmetry_equiv_pos_site_id
 _symmetry_equiv_pos_as_xyz
  1  'x, y, z'
loop_
 _atom_site_type_symbol
 _atom_site_label
 _atom_site_symmetry_multiplicity
 _atom_site_fract_x
 _atom_site_fract_y
 _atom_site_fract_z
 _atom_site_occupancy
  Ba  Ba0  1  0.50000000  0.50000000  0.50000000  1
  Ba  Ba1  1  -0.00000000  0.00000000  0.00000000  1
  Ba  Ba2  1  0.66180702  0.66180702  0.01457894  1
  Ba  Ba3  1  0.16180702  0.16180702  0.51457894  1
  Ba  Ba4  1  0.33819298  0.33819298  0.98542106  1
  Ba  Ba5  1  0.83819298  0.83819298  0.48542106  1
  Ru  Ru6  1  0.40027522  0.09972478  0.75000000  1
  Ru  Ru7  1  0.09972478  0.75000000  0.75000000  1
  Ru  Ru8  1  0.75000000  0.40027522  0.75000000  1
  Ru  Ru9  1  0.90027522  0.25000000  0.25000000  1
  Ru  Ru10  1  0.25000000  0.59972478  0.25000000  1
  Ru  Ru11  1  0.59972478  0.90027522  0.25000000  1
  O  O12  1  0.58224754  0.91775246  0.75000000  1
  O  O13  1  0.91775246  0.75000000  0.75000000  1
  O  O14  1  0.75000000  0.58224754  0.75000000  1
  O  O15  1  0.08224754  0.25000000  0.25000000  1
  O  O16  1  0.25000000  0.41775246  0.25000000  1
  O  O17  1  0.41775246  0.08224754  0.25000000  1
  O  O18  1  0.25721842  0.12845715  0.92804680  1
  O  O19  1  0.12845715  0.68627763  0.92804680  1
  O  O20  1  0.68627763  0.25721842  0.92804680  1
  O  O21  1  0.75721842  0.18627763  0.42804680  1
  O  O22  1  0.18627763  0.62845715  0.42804680  1
  O  O23  1  0.62845715  0.75721842  0.42804680  1
  O  O24  1  0.74278158  0.87154285  0.07195320  1
  O  O25  1  0.87154285  0.31372237  0.07195320  1
  O  O26  1  0.31372237  0.74278158  0.07195320  1
  O  O27  1  0.24278158  0.81372237  0.57195320  1
  O  O28  1  0.81372237  0.37154285  0.57195320  1
  O  O29  1  0.37154285  0.24278158  0.57195320  1
  O  O30  1  0.50313554  0.21445379  0.74759485  1
  O  O31  1  0.21445379  0.53481582  0.74759485  1
  O  O32  1  0.53481582  0.50313554  0.74759485  1
  O  O33  1  0.00313554  0.03481582  0.24759485  1
  O  O34  1  0.03481582  0.71445379  0.24759485  1
  O  O35  1  0.71445379  0.00313554  0.24759485  1
  O  O36  1  0.49686446  0.78554621  0.25240515  1
  O  O37  1  0.78554621  0.46518418  0.25240515  1
  O  O38  1  0.46518418  0.49686446  0.25240515  1
  O  O39  1  0.99686446  0.96518418  0.75240515  1
  O  O40  1  0.96518418  0.28554621  0.75240515  1
  O  O41  1  0.28554621  0.99686446  0.75240515  1
