# generated using pymatgen
data_GdSnGe
_symmetry_space_group_name_H-M   'P 1'
_cell_length_a   4.12950290
_cell_length_b   4.33686664
_cell_length_c   8.52723633
_cell_angle_alpha   104.73181653
_cell_angle_beta   90.00000000
_cell_angle_gamma   90.00000000
_symmetry_Int_Tables_number   1
_chemical_formula_structural   GdSnGe
_chemical_formula_sum   'Gd2 Sn2 Ge2'
_cell_volume   147.69490441
_cell_formula_units_Z   2
loop_
 _symmetry_equiv_pos_site_id
 _symmetry_equiv_pos_as_xyz
  1  'x, y, z'
loop_
 _atom_site_type_symbol
 _atom_site_label
 _atom_site_symmetry_multiplicity
 _atom_site_fract_x
 _atom_site_fract_y
 _atom_site_fract_z
 _atom_site_occupancy
  Gd  Gd0  1  0.25000000  0.59499636  0.18999271  1
  Gd  Gd1  1  0.75000000  0.40500364  0.81000729  1
  Sn  Sn2  1  0.25000000  0.24390955  0.48781910  1
  Sn  Sn3  1  0.75000000  0.75609045  0.51218090  1
  Ge  Ge4  1  0.25000000  0.94786773  0.89573546  1
  Ge  Ge5  1  0.75000000  0.05213227  0.10426454  1
