# generated using pymatgen
data_TbBe13
_symmetry_space_group_name_H-M   'P 1'
_cell_length_a   7.20753777
_cell_length_b   7.20753778
_cell_length_c   7.20753778
_cell_angle_alpha   59.99999999
_cell_angle_beta   59.99999998
_cell_angle_gamma   59.99999997
_symmetry_Int_Tables_number   1
_chemical_formula_structural   TbBe13
_chemical_formula_sum   'Tb2 Be26'
_cell_volume   264.75598351
_cell_formula_units_Z   2
loop_
 _symmetry_equiv_pos_site_id
 _symmetry_equiv_pos_as_xyz
  1  'x, y, z'
loop_
 _atom_site_type_symbol
 _atom_site_label
 _atom_site_symmetry_multiplicity
 _atom_site_fract_x
 _atom_site_fract_y
 _atom_site_fract_z
 _atom_site_occupancy
  Be  Be0  1  0.00000000  0.00000000  0.00000000  1
  Be  Be1  1  0.50000000  0.50000000  0.50000000  1
  Be  Be2  1  0.29013394  0.06275464  0.93724536  1
  Be  Be3  1  0.43724536  0.56275464  0.79013394  1
  Be  Be4  1  0.79013394  0.20986606  0.43724536  1
  Be  Be5  1  0.43724536  0.79013394  0.20986606  1
  Be  Be6  1  0.56275464  0.20986606  0.79013394  1
  Be  Be7  1  0.56275464  0.79013394  0.43724536  1
  Be  Be8  1  0.79013394  0.56275464  0.20986606  1
  Be  Be9  1  0.93724536  0.29013394  0.06275464  1
  Be  Be10  1  0.06275464  0.93724536  0.29013394  1
  Be  Be11  1  0.70986606  0.29013394  0.93724536  1
  Be  Be12  1  0.06275464  0.70986606  0.93724536  1
  Be  Be13  1  0.70986606  0.06275464  0.29013394  1
  Be  Be14  1  0.93724536  0.06275464  0.70986606  1
  Be  Be15  1  0.29013394  0.93724536  0.70986606  1
  Be  Be16  1  0.29013394  0.70986606  0.06275464  1
  Be  Be17  1  0.79013394  0.43724536  0.56275464  1
  Be  Be18  1  0.20986606  0.79013394  0.56275464  1
  Be  Be19  1  0.20986606  0.43724536  0.79013394  1
  Be  Be20  1  0.43724536  0.20986606  0.56275464  1
  Be  Be21  1  0.56275464  0.43724536  0.20986606  1
  Be  Be22  1  0.20986606  0.56275464  0.43724536  1
  Be  Be23  1  0.93724536  0.70986606  0.29013394  1
  Be  Be24  1  0.70986606  0.93724536  0.06275464  1
  Be  Be25  1  0.06275464  0.29013394  0.70986606  1
  Tb  Tb26  1  0.25000000  0.25000000  0.25000000  1
  Tb  Tb27  1  0.75000000  0.75000000  0.75000000  1
