# generated using pymatgen
data_CaMg6Ga
_symmetry_space_group_name_H-M   'P 1'
_cell_length_a   6.56202436
_cell_length_b   6.56202380
_cell_length_c   5.09260600
_cell_angle_alpha   90.00000000
_cell_angle_beta   90.00000000
_cell_angle_gamma   119.43411251
_symmetry_Int_Tables_number   1
_chemical_formula_structural   CaMg6Ga
_chemical_formula_sum   'Ca1 Mg6 Ga1'
_cell_volume   190.98298261
_cell_formula_units_Z   1
loop_
 _symmetry_equiv_pos_site_id
 _symmetry_equiv_pos_as_xyz
  1  'x, y, z'
loop_
 _atom_site_type_symbol
 _atom_site_label
 _atom_site_symmetry_multiplicity
 _atom_site_fract_x
 _atom_site_fract_y
 _atom_site_fract_z
 _atom_site_occupancy
  Ca  Ca0  1  0.17325485  0.32674515  0.25000000  1
  Mg  Mg1  1  0.17611795  0.83868207  0.25000000  1
  Mg  Mg2  1  0.66131793  0.32388205  0.25000000  1
  Mg  Mg3  1  0.66412207  0.83587793  0.25000000  1
  Mg  Mg4  1  0.33988077  0.68283865  0.75000000  1
  Mg  Mg5  1  0.81716135  0.16011923  0.75000000  1
  Mg  Mg6  1  0.83291662  0.66708338  0.75000000  1
  Ga  Ga7  1  0.33522846  0.16477154  0.75000000  1
