# generated using pymatgen
data_TbHSO5
_symmetry_space_group_name_H-M   'P 1'
_cell_length_a   8.07615151
_cell_length_b   8.26677636
_cell_length_c   10.99300684
_cell_angle_alpha   90.00000000
_cell_angle_beta   90.00000000
_cell_angle_gamma   93.97979198
_symmetry_Int_Tables_number   1
_chemical_formula_structural   TbHSO5
_chemical_formula_sum   'Tb8 H8 S8 O40'
_cell_volume   732.16441666
_cell_formula_units_Z   8
loop_
 _symmetry_equiv_pos_site_id
 _symmetry_equiv_pos_as_xyz
  1  'x, y, z'
loop_
 _atom_site_type_symbol
 _atom_site_label
 _atom_site_symmetry_multiplicity
 _atom_site_fract_x
 _atom_site_fract_y
 _atom_site_fract_z
 _atom_site_occupancy
  Tb  Tb0  1  0.83833267  0.62585156  0.06103932  1
  Tb  Tb1  1  0.33833267  0.12585156  0.43896068  1
  Tb  Tb2  1  0.16166733  0.37414844  0.93896068  1
  Tb  Tb3  1  0.66166733  0.87414844  0.56103932  1
  Tb  Tb4  1  0.81112444  0.09013683  0.07474031  1
  Tb  Tb5  1  0.31112444  0.59013683  0.42525969  1
  Tb  Tb6  1  0.18887556  0.90986317  0.92525969  1
  Tb  Tb7  1  0.68887556  0.40986317  0.57474031  1
  H  H8  1  0.84153400  0.87098672  0.87618353  1
  H  H9  1  0.34153400  0.37098672  0.62381647  1
  H  H10  1  0.15846600  0.12901328  0.12381647  1
  H  H11  1  0.65846600  0.62901328  0.37618353  1
  H  H12  1  0.18857853  0.64765106  0.09141244  1
  H  H13  1  0.68857853  0.14765106  0.40858756  1
  H  H14  1  0.81142147  0.35234894  0.90858756  1
  H  H15  1  0.31142147  0.85234894  0.59141244  1
  S  S16  1  0.95776271  0.36559257  0.30954132  1
  S  S17  1  0.45776271  0.86559257  0.19045868  1
  S  S18  1  0.04223729  0.63440743  0.69045868  1
  S  S19  1  0.54223729  0.13440743  0.80954132  1
  S  S20  1  0.50017482  0.36571625  0.17185508  1
  S  S21  1  0.00017482  0.86571625  0.32814492  1
  S  S22  1  0.49982518  0.63428375  0.82814492  1
  S  S23  1  0.99982518  0.13428375  0.67185508  1
  O  O24  1  0.35699469  0.40134386  0.09470244  1
  O  O25  1  0.85699469  0.90134386  0.40529756  1
  O  O26  1  0.64300531  0.59865614  0.90529756  1
  O  O27  1  0.14300531  0.09865614  0.59470244  1
  O  O28  1  0.57287321  0.21760561  0.12882794  1
  O  O29  1  0.07287321  0.71760561  0.37117206  1
  O  O30  1  0.42712679  0.78239439  0.87117206  1
  O  O31  1  0.92712679  0.28239439  0.62882794  1
  O  O32  1  0.62839811  0.50231419  0.17210959  1
  O  O33  1  0.12839811  0.00231419  0.32789041  1
  O  O34  1  0.37160189  0.49768581  0.82789041  1
  O  O35  1  0.87160189  0.99768581  0.67210959  1
  O  O36  1  0.43949302  0.34458546  0.30107340  1
  O  O37  1  0.93949302  0.84458546  0.19892660  1
  O  O38  1  0.56050698  0.65541454  0.69892660  1
  O  O39  1  0.06050698  0.15541454  0.80107340  1
  O  O40  1  0.83871550  0.42953724  0.39671704  1
  O  O41  1  0.33871550  0.92953724  0.10328296  1
  O  O42  1  0.16128450  0.57046276  0.60328296  1
  O  O43  1  0.66128450  0.07046276  0.89671704  1
  O  O44  1  0.12078154  0.35019356  0.37216478  1
  O  O45  1  0.62078154  0.85019356  0.12783522  1
  O  O46  1  0.87921846  0.64980644  0.62783522  1
  O  O47  1  0.37921846  0.14980644  0.87216478  1
  O  O48  1  0.98666580  0.47735817  0.20507163  1
  O  O49  1  0.48666580  0.97735817  0.29492837  1
  O  O50  1  0.01333420  0.52264183  0.79492837  1
  O  O51  1  0.51333420  0.02264183  0.70507163  1
  O  O52  1  0.88720385  0.20617086  0.26390439  1
  O  O53  1  0.38720385  0.70617086  0.23609561  1
  O  O54  1  0.11279615  0.79382914  0.73609561  1
  O  O55  1  0.61279615  0.29382914  0.76390439  1
  O  O56  1  0.90054655  0.86881464  0.95371144  1
  O  O57  1  0.40054655  0.36881464  0.54628856  1
  O  O58  1  0.09945345  0.13118536  0.04628856  1
  O  O59  1  0.59945345  0.63118536  0.45371144  1
  O  O60  1  0.12783526  0.64384243  0.01405886  1
  O  O61  1  0.62783526  0.14384243  0.48594114  1
  O  O62  1  0.87216474  0.35615757  0.98594114  1
  O  O63  1  0.37216474  0.85615757  0.51405886  1
