# generated using pymatgen
data_Ba3TmIrRuO9
_symmetry_space_group_name_H-M   'P 1'
_cell_length_a   5.92643535
_cell_length_b   5.92682814
_cell_length_c   14.61042087
_cell_angle_alpha   90.00000000
_cell_angle_beta   90.00000000
_cell_angle_gamma   59.99780751
_symmetry_Int_Tables_number   1
_chemical_formula_structural   Ba3TmIrRuO9
_chemical_formula_sum   'Ba6 Tm2 Ir2 Ru2 O18'
_cell_volume   444.42619418
_cell_formula_units_Z   2
loop_
 _symmetry_equiv_pos_site_id
 _symmetry_equiv_pos_as_xyz
  1  'x, y, z'
loop_
 _atom_site_type_symbol
 _atom_site_label
 _atom_site_symmetry_multiplicity
 _atom_site_fract_x
 _atom_site_fract_y
 _atom_site_fract_z
 _atom_site_occupancy
  Ba  Ba0  1  0.33336859  0.33331570  0.40616847  1
  Ba  Ba1  1  0.66662831  0.66668585  0.59398732  1
  Ba  Ba2  1  0.66663141  0.66668430  0.90616847  1
  Ba  Ba3  1  0.33337169  0.33331415  0.09398732  1
  Ba  Ba4  1  -0.00000057  0.00000029  0.74989767  1
  Ba  Ba5  1  0.00000057  -0.00000029  0.24989767  1
  Tm  Tm6  1  0.99999494  0.00000253  0.50084355  1
  Tm  Tm7  1  0.00000506  0.99999747  0.00084355  1
  Ir  Ir8  1  0.33333848  0.33333076  0.66345822  1
  Ir  Ir9  1  0.66666152  0.66666924  0.16345822  1
  Ru  Ru10  1  0.66665763  0.66667118  0.33775711  1
  Ru  Ru11  1  0.33334237  0.33332882  0.83775711  1
  O  O12  1  0.49022852  0.01954569  0.75035848  1
  O  O13  1  0.01959036  0.49020482  0.75036488  1
  O  O14  1  0.49022852  0.49022579  0.75035848  1
  O  O15  1  0.50977148  0.98045431  0.25035848  1
  O  O16  1  0.98040964  0.50979518  0.25036488  1
  O  O17  1  0.50977148  0.50977421  0.25035848  1
  O  O18  1  0.17531221  0.64940973  0.91313521  1
  O  O19  1  0.64937878  0.17531061  0.91313371  1
  O  O20  1  0.17531221  0.17527806  0.91313521  1
  O  O21  1  0.82554614  0.34889468  0.08580205  1
  O  O22  1  0.34887911  0.82556045  0.08579761  1
  O  O23  1  0.82554614  0.82555918  0.08580205  1
  O  O24  1  0.82468779  0.35059027  0.41313521  1
  O  O25  1  0.35062122  0.82468939  0.41313371  1
  O  O26  1  0.82468779  0.82472194  0.41313521  1
  O  O27  1  0.17445386  0.65110532  0.58580205  1
  O  O28  1  0.65112089  0.17443955  0.58579761  1
  O  O29  1  0.17445386  0.17444082  0.58580205  1
