# generated using pymatgen
data_K2LaTa5O15
_symmetry_space_group_name_H-M   'P 1'
_cell_length_a   3.95260541
_cell_length_b   12.71519454
_cell_length_c   12.71519454
_cell_angle_alpha   90.00000000
_cell_angle_beta   90.00000000
_cell_angle_gamma   90.00000000
_symmetry_Int_Tables_number   1
_chemical_formula_structural   K2LaTa5O15
_chemical_formula_sum   'K4 La2 Ta10 O30'
_cell_volume   639.04211287
_cell_formula_units_Z   2
loop_
 _symmetry_equiv_pos_site_id
 _symmetry_equiv_pos_as_xyz
  1  'x, y, z'
loop_
 _atom_site_type_symbol
 _atom_site_label
 _atom_site_symmetry_multiplicity
 _atom_site_fract_x
 _atom_site_fract_y
 _atom_site_fract_z
 _atom_site_occupancy
  K  K0  1  -0.00000000  0.17096647  0.67096647  1
  K  K1  1  0.00000000  0.82903353  0.32903353  1
  K  K2  1  0.00000000  0.32903353  0.17096647  1
  K  K3  1  -0.00000000  0.67096647  0.82903353  1
  La  La4  1  -0.00000000  0.50000000  0.50000000  1
  La  La5  1  0.00000000  -0.00000000  -0.00000000  1
  Ta  Ta6  1  0.50000000  -0.00000000  0.50000000  1
  Ta  Ta7  1  0.50000000  0.50000000  0.00000000  1
  Ta  Ta8  1  0.50000000  0.71456348  0.57524841  1
  Ta  Ta9  1  0.50000000  0.28543652  0.42475159  1
  Ta  Ta10  1  0.50000000  0.78543652  0.07524841  1
  Ta  Ta11  1  0.50000000  0.21456348  0.92475159  1
  Ta  Ta12  1  0.50000000  0.57524841  0.28543652  1
  Ta  Ta13  1  0.50000000  0.42475159  0.71456348  1
  Ta  Ta14  1  0.50000000  0.07524841  0.21456348  1
  Ta  Ta15  1  0.50000000  0.92475159  0.78543652  1
  O  O16  1  -0.00000000  -0.00000000  0.50000000  1
  O  O17  1  -0.00000000  0.50000000  -0.00000000  1
  O  O18  1  0.50000000  0.28502593  0.78502593  1
  O  O19  1  0.50000000  0.71497407  0.21497407  1
  O  O20  1  0.50000000  0.21497407  0.28502593  1
  O  O21  1  0.50000000  0.78502593  0.71497407  1
  O  O22  1  -0.00000000  0.69647262  0.57539500  1
  O  O23  1  0.00000000  0.30352738  0.42460500  1
  O  O24  1  0.00000000  0.80352738  0.07539500  1
  O  O25  1  -0.00000000  0.19647262  0.92460500  1
  O  O26  1  0.00000000  0.57539500  0.30352738  1
  O  O27  1  -0.00000000  0.42460500  0.69647262  1
  O  O28  1  0.00000000  0.07539500  0.19647262  1
  O  O29  1  -0.00000000  0.92460500  0.80352738  1
  O  O30  1  0.50000000  0.50260974  0.84294389  1
  O  O31  1  0.50000000  0.49739026  0.15705611  1
  O  O32  1  0.50000000  0.99739026  0.34294389  1
  O  O33  1  0.50000000  0.00260974  0.65705611  1
  O  O34  1  0.50000000  0.84294389  0.49739026  1
  O  O35  1  0.50000000  0.15705611  0.50260974  1
  O  O36  1  0.50000000  0.34294389  0.00260974  1
  O  O37  1  0.50000000  0.65705611  0.99739026  1
  O  O38  1  0.50000000  0.56256106  0.63279188  1
  O  O39  1  0.50000000  0.43743894  0.36720812  1
  O  O40  1  0.50000000  0.93743894  0.13279188  1
  O  O41  1  0.50000000  0.06256106  0.86720812  1
  O  O42  1  0.50000000  0.63279188  0.43743894  1
  O  O43  1  0.50000000  0.36720812  0.56256106  1
  O  O44  1  0.50000000  0.13279188  0.06256106  1
  O  O45  1  0.50000000  0.86720812  0.93743894  1
