# generated using pymatgen
data_Zr2(TiGa)3
_symmetry_space_group_name_H-M   'P 1'
_cell_length_a   5.58267262
_cell_length_b   7.84072408
_cell_length_c   7.84072382
_cell_angle_alpha   59.96091655
_cell_angle_beta   90.00000000
_cell_angle_gamma   90.00000000
_symmetry_Int_Tables_number   1
_chemical_formula_structural   Zr2(TiGa)3
_chemical_formula_sum   'Zr4 Ti6 Ga6'
_cell_volume   297.10772670
_cell_formula_units_Z   2
loop_
 _symmetry_equiv_pos_site_id
 _symmetry_equiv_pos_as_xyz
  1  'x, y, z'
loop_
 _atom_site_type_symbol
 _atom_site_label
 _atom_site_symmetry_multiplicity
 _atom_site_fract_x
 _atom_site_fract_y
 _atom_site_fract_z
 _atom_site_occupancy
  Zr  Zr0  1  0.50000011  0.33334973  0.33333069  1
  Zr  Zr1  1  0.50000011  0.66666931  0.66665027  1
  Zr  Zr2  1  0.00000011  0.66665027  0.66666931  1
  Zr  Zr3  1  0.00000011  0.33333069  0.33334973  1
  Ti  Ti4  1  0.74999838  0.23425926  0.76574074  1
  Ti  Ti5  1  0.75000102  0.76532287  0.99994262  1
  Ti  Ti6  1  0.75000102  0.00005738  0.23467713  1
  Ti  Ti7  1  0.24999838  0.76574074  0.23425926  1
  Ti  Ti8  1  0.25000102  0.23467713  0.00005738  1
  Ti  Ti9  1  0.25000102  0.99994262  0.76532287  1
  Ga  Ga10  1  0.74999006  0.61644659  0.38355341  1
  Ga  Ga11  1  0.75000465  0.38357643  0.00010041  1
  Ga  Ga12  1  0.75000465  0.99989959  0.61642357  1
  Ga  Ga13  1  0.24999006  0.38355341  0.61644659  1
  Ga  Ga14  1  0.25000465  0.61642357  0.99989959  1
  Ga  Ga15  1  0.25000465  0.00010041  0.38357643  1
