# generated using pymatgen
data_LiAlPt
_symmetry_space_group_name_H-M   'P 1'
_cell_length_a   4.17655342
_cell_length_b   4.17395246
_cell_length_c   5.42787162
_cell_angle_alpha   89.90430852
_cell_angle_beta   89.96103440
_cell_angle_gamma   120.06622658
_symmetry_Int_Tables_number   1
_chemical_formula_structural   LiAlPt
_chemical_formula_sum   'Li2 Al2 Pt2'
_cell_volume   81.89063803
_cell_formula_units_Z   2
loop_
 _symmetry_equiv_pos_site_id
 _symmetry_equiv_pos_as_xyz
  1  'x, y, z'
loop_
 _atom_site_type_symbol
 _atom_site_label
 _atom_site_symmetry_multiplicity
 _atom_site_fract_x
 _atom_site_fract_y
 _atom_site_fract_z
 _atom_site_occupancy
  Li  Li0  1  0.66664179  0.33367460  0.24996933  1
  Li  Li1  1  0.33337924  0.66636792  0.75003111  1
  Al  Al2  1  0.66665007  0.33364609  0.74958399  1
  Al  Al3  1  0.33332507  0.66630205  0.25041585  1
  Pt  Pt4  1  0.99999835  0.00000392  0.00014185  1
  Pt  Pt5  1  0.00000547  0.00000542  0.49985788  1
