# generated using pymatgen
data_Ce2AlNO3
_symmetry_space_group_name_H-M   'P 1'
_cell_length_a   3.74540958
_cell_length_b   3.74540958
_cell_length_c   6.75485100
_cell_angle_alpha   106.09545896
_cell_angle_beta   106.09545896
_cell_angle_gamma   90.00000000
_symmetry_Int_Tables_number   1
_chemical_formula_structural   Ce2AlNO3
_chemical_formula_sum   'Ce2 Al1 N1 O3'
_cell_volume   87.17076076
_cell_formula_units_Z   1
loop_
 _symmetry_equiv_pos_site_id
 _symmetry_equiv_pos_as_xyz
  1  'x, y, z'
loop_
 _atom_site_type_symbol
 _atom_site_label
 _atom_site_symmetry_multiplicity
 _atom_site_fract_x
 _atom_site_fract_y
 _atom_site_fract_z
 _atom_site_occupancy
  Ce  Ce0  1  0.51768683  0.51768683  0.03537366  1
  Ce  Ce1  1  0.81170993  0.81170993  0.62341985  1
  Al  Al2  1  0.15977563  0.15977563  0.31955126  1
  N  N3  1  0.99607636  0.99607636  0.99215272  1
  O  O4  1  0.16905199  0.66905199  0.33810398  1
  O  O5  1  0.66905199  0.16905199  0.33810398  1
  O  O6  1  0.32934728  0.32934728  0.65869455  1
