# generated using pymatgen
data_GdAg2
_symmetry_space_group_name_H-M   'P 1'
_cell_length_a   3.72768786
_cell_length_b   3.79106035
_cell_length_c   5.39665444
_cell_angle_alpha   110.51040499
_cell_angle_beta   110.20439923
_cell_angle_gamma   90.00000000
_symmetry_Int_Tables_number   1
_chemical_formula_structural   GdAg2
_chemical_formula_sum   'Gd1 Ag2'
_cell_volume   66.39671020
_cell_formula_units_Z   1
loop_
 _symmetry_equiv_pos_site_id
 _symmetry_equiv_pos_as_xyz
  1  'x, y, z'
loop_
 _atom_site_type_symbol
 _atom_site_label
 _atom_site_symmetry_multiplicity
 _atom_site_fract_x
 _atom_site_fract_y
 _atom_site_fract_z
 _atom_site_occupancy
  Ag  Ag0  1  0.32761057  0.32832996  0.65522115  1
  Ag  Ag1  1  0.67238943  0.67167004  0.34477885  1
  Gd  Gd2  1  0.00000000  0.00000000  0.00000000  1
