# generated using pymatgen
data_Sm2InGe2
_symmetry_space_group_name_H-M   'P 1'
_cell_length_a   4.30829197
_cell_length_b   7.50206857
_cell_length_c   7.50206857
_cell_angle_alpha   90.00000000
_cell_angle_beta   90.00000000
_cell_angle_gamma   90.00000000
_symmetry_Int_Tables_number   1
_chemical_formula_structural   Sm2InGe2
_chemical_formula_sum   'Sm4 In2 Ge4'
_cell_volume   242.47512180
_cell_formula_units_Z   2
loop_
 _symmetry_equiv_pos_site_id
 _symmetry_equiv_pos_as_xyz
  1  'x, y, z'
loop_
 _atom_site_type_symbol
 _atom_site_label
 _atom_site_symmetry_multiplicity
 _atom_site_fract_x
 _atom_site_fract_y
 _atom_site_fract_z
 _atom_site_occupancy
  Ge  Ge0  1  0.00000000  0.62042877  0.12042877  1
  Ge  Ge1  1  0.00000000  0.87957123  0.62042877  1
  Ge  Ge2  1  0.00000000  0.12042877  0.37957123  1
  Ge  Ge3  1  0.00000000  0.37957123  0.87957123  1
  In  In4  1  0.00000000  0.00000000  0.00000000  1
  In  In5  1  0.00000000  0.50000000  0.50000000  1
  Sm  Sm6  1  0.50000000  0.82113009  0.32113009  1
  Sm  Sm7  1  0.50000000  0.67886991  0.82113009  1
  Sm  Sm8  1  0.50000000  0.32113009  0.17886991  1
  Sm  Sm9  1  0.50000000  0.17886991  0.67886991  1
