# generated using pymatgen
data_Mg(BiO3)2
_symmetry_space_group_name_H-M   'P 1'
_cell_length_a   4.93234806
_cell_length_b   4.93234806
_cell_length_c   9.93245856
_cell_angle_alpha   90.00000000
_cell_angle_beta   90.00000000
_cell_angle_gamma   90.00000000
_symmetry_Int_Tables_number   1
_chemical_formula_structural   Mg(BiO3)2
_chemical_formula_sum   'Mg2 Bi4 O12'
_cell_volume   241.63742182
_cell_formula_units_Z   2
loop_
 _symmetry_equiv_pos_site_id
 _symmetry_equiv_pos_as_xyz
  1  'x, y, z'
loop_
 _atom_site_type_symbol
 _atom_site_label
 _atom_site_symmetry_multiplicity
 _atom_site_fract_x
 _atom_site_fract_y
 _atom_site_fract_z
 _atom_site_occupancy
  O  O0  1  0.69121375  0.69121375  0.66424434  1
  O  O1  1  0.30878625  0.30878625  0.66424434  1
  O  O2  1  0.69121375  0.69121375  0.33575566  1
  O  O3  1  0.19121375  0.80878625  0.16424434  1
  O  O4  1  0.80878625  0.19121375  0.16424434  1
  O  O5  1  0.80878625  0.19121375  0.83575566  1
  O  O6  1  0.30264655  0.30264655  0.00000000  1
  O  O7  1  0.19735345  0.80264655  0.50000000  1
  O  O8  1  0.80264655  0.19735345  0.50000000  1
  O  O9  1  0.69735345  0.69735345  0.00000000  1
  O  O10  1  0.30878625  0.30878625  0.33575566  1
  O  O11  1  0.19121375  0.80878625  0.83575566  1
  Mg  Mg12  1  0.00000000  0.00000000  0.00000000  1
  Mg  Mg13  1  0.50000000  0.50000000  0.50000000  1
  Bi  Bi14  1  0.50000000  0.50000000  0.83295635  1
  Bi  Bi15  1  0.00000000  0.00000000  0.33295635  1
  Bi  Bi16  1  0.50000000  0.50000000  0.16704365  1
  Bi  Bi17  1  0.00000000  0.00000000  0.66704365  1
