# generated using pymatgen
data_NaMg14Ti
_symmetry_space_group_name_H-M   'P 1'
_cell_length_a   6.43702021
_cell_length_b   6.43701967
_cell_length_c   10.19852667
_cell_angle_alpha   90.00000000
_cell_angle_beta   90.00000000
_cell_angle_gamma   120.00000271
_symmetry_Int_Tables_number   1
_chemical_formula_structural   NaMg14Ti
_chemical_formula_sum   'Na1 Mg14 Ti1'
_cell_volume   365.96349368
_cell_formula_units_Z   1
loop_
 _symmetry_equiv_pos_site_id
 _symmetry_equiv_pos_as_xyz
  1  'x, y, z'
loop_
 _atom_site_type_symbol
 _atom_site_label
 _atom_site_symmetry_multiplicity
 _atom_site_fract_x
 _atom_site_fract_y
 _atom_site_fract_z
 _atom_site_occupancy
  Na  Na0  1  0.16666700  0.33333300  0.62500000  1
  Mg  Mg1  1  0.16973047  0.83486474  0.12500000  1
  Mg  Mg2  1  0.16939282  0.83469591  0.62500000  1
  Mg  Mg3  1  0.66513526  0.33026953  0.12500000  1
  Mg  Mg4  1  0.66530409  0.33060718  0.62500000  1
  Mg  Mg5  1  0.66513526  0.83486474  0.12500000  1
  Mg  Mg6  1  0.66530409  0.83469591  0.62500000  1
  Mg  Mg7  1  0.33164868  0.16835132  0.36872887  1
  Mg  Mg8  1  0.33164868  0.16835132  0.88127113  1
  Mg  Mg9  1  0.33164868  0.66329836  0.36872887  1
  Mg  Mg10  1  0.33164868  0.66329836  0.88127113  1
  Mg  Mg11  1  0.83670164  0.16835132  0.36872887  1
  Mg  Mg12  1  0.83670164  0.16835132  0.88127113  1
  Mg  Mg13  1  0.83333300  0.66666700  0.37522518  1
  Mg  Mg14  1  0.83333300  0.66666700  0.87477482  1
  Ti  Ti15  1  0.16666700  0.33333300  0.12500000  1
