# generated using pymatgen
data_K2Co2(SO4)3
_symmetry_space_group_name_H-M   'P 1'
_cell_length_a   10.06846387
_cell_length_b   10.06846387
_cell_length_c   10.06846387
_cell_angle_alpha   90.00000000
_cell_angle_beta   90.00000000
_cell_angle_gamma   90.00000000
_symmetry_Int_Tables_number   1
_chemical_formula_structural   K2Co2(SO4)3
_chemical_formula_sum   'K8 Co8 S12 O48'
_cell_volume   1020.68010096
_cell_formula_units_Z   4
loop_
 _symmetry_equiv_pos_site_id
 _symmetry_equiv_pos_as_xyz
  1  'x, y, z'
loop_
 _atom_site_type_symbol
 _atom_site_label
 _atom_site_symmetry_multiplicity
 _atom_site_fract_x
 _atom_site_fract_y
 _atom_site_fract_z
 _atom_site_occupancy
  O  O0  1  0.25214200  0.59454562  0.66058194  1
  O  O1  1  0.75214183  0.90545488  0.33941773  1
  O  O2  1  0.74785767  0.09454579  0.83941756  1
  O  O3  1  0.90545488  0.33941773  0.75214183  1
  O  O4  1  0.83941756  0.74785767  0.09454579  1
  O  O5  1  0.33941773  0.75214183  0.90545488  1
  O  O6  1  0.59454562  0.66058194  0.25214200  1
  O  O7  1  0.66058194  0.25214200  0.59454562  1
  O  O8  1  0.09454579  0.83941756  0.74785767  1
  O  O9  1  0.40545405  0.16058211  0.24785784  1
  O  O10  1  0.16058211  0.24785784  0.40545405  1
  O  O11  1  0.24785784  0.40545405  0.16058211  1
  O  O12  1  0.25936533  0.49915114  0.44186091  1
  O  O13  1  0.75936517  0.00084969  0.55813876  1
  O  O14  1  0.74063434  0.99915097  0.05813892  1
  O  O15  1  0.00084969  0.55813876  0.75936517  1
  O  O16  1  0.05813892  0.74063434  0.99915097  1
  O  O17  1  0.55813876  0.75936517  0.00084969  1
  O  O18  1  0.99611818  0.57896462  0.17122313  1
  O  O19  1  0.44186091  0.25936533  0.49915114  1
  O  O20  1  0.99915097  0.05813892  0.74063434  1
  O  O21  1  0.50084953  0.94186174  0.24063450  1
  O  O22  1  0.94186174  0.24063450  0.50084953  1
  O  O23  1  0.24063450  0.50084953  0.94186174  1
  O  O24  1  0.42103505  0.67122396  0.50388133  1
  O  O25  1  0.92103488  0.82877654  0.49611834  1
  O  O26  1  0.57896462  0.17122313  0.99611818  1
  O  O27  1  0.82877654  0.49611834  0.92103488  1
  O  O28  1  0.31010434  0.27497434  0.96340875  1
  O  O29  1  0.96340875  0.31010434  0.27497434  1
  O  O30  1  0.27497434  0.96340875  0.31010434  1
  O  O31  1  0.22502549  0.03659192  0.81010417  1
  O  O32  1  0.46340792  0.18989550  0.72502632  1
  O  O33  1  0.72502632  0.46340792  0.18989550  1
  O  O34  1  0.53659175  0.68989633  0.77497418  1
  O  O35  1  0.03659192  0.81010417  0.22502549  1
  O  O36  1  0.77497418  0.53659175  0.68989633  1
  O  O37  1  0.81010417  0.22502549  0.03659192  1
  O  O38  1  0.68989633  0.77497418  0.53659175  1
  O  O39  1  0.18989550  0.72502632  0.46340792  1
  O  O40  1  0.07896479  0.32877670  0.00388149  1
  O  O41  1  0.00388149  0.07896479  0.32877670  1
  O  O42  1  0.32877670  0.00388149  0.07896479  1
  O  O43  1  0.17122313  0.99611818  0.57896462  1
  O  O44  1  0.50388133  0.42103505  0.67122396  1
  O  O45  1  0.67122396  0.50388133  0.42103505  1
  O  O46  1  0.49611834  0.92103488  0.82877654  1
  O  O47  1  0.49915114  0.44186091  0.25936533  1
  S  S48  1  0.28096130  0.62342858  0.51923578  1
  S  S49  1  0.78096113  0.87657092  0.48076389  1
  S  S50  1  0.71903937  0.12342875  0.98076373  1
  S  S51  1  0.87657092  0.48076389  0.78096113  1
  S  S52  1  0.98076373  0.71903937  0.12342875  1
  S  S53  1  0.48076389  0.78096113  0.87657092  1
  S  S54  1  0.62342858  0.51923578  0.28096130  1
  S  S55  1  0.51923578  0.28096130  0.62342858  1
  S  S56  1  0.12342875  0.98076373  0.71903937  1
  S  S57  1  0.21903953  0.37657109  0.01923594  1
  S  S58  1  0.01923594  0.21903953  0.37657109  1
  S  S59  1  0.37657109  0.01923594  0.21903953  1
  K  K60  1  0.68464588  0.18464604  0.31535379  1
  K  K61  1  0.31535379  0.68464588  0.18464604  1
  K  K62  1  0.94937422  0.55062628  0.44937339  1
  K  K63  1  0.18464604  0.31535379  0.68464588  1
  K  K64  1  0.05062645  0.05062645  0.05062645  1
  K  K65  1  0.44937339  0.94937422  0.55062628  1
  K  K66  1  0.55062628  0.44937339  0.94937422  1
  K  K67  1  0.81535462  0.81535462  0.81535462  1
  Co  Co68  1  0.33467721  0.33467721  0.33467721  1
  Co  Co69  1  0.16532262  0.66532246  0.83467705  1
  Co  Co70  1  0.83467705  0.16532262  0.66532246  1
  Co  Co71  1  0.66532246  0.83467705  0.16532262  1
  Co  Co72  1  0.59301269  0.59301269  0.59301269  1
  Co  Co73  1  0.09301286  0.90698681  0.40698698  1
  Co  Co74  1  0.40698698  0.09301286  0.90698681  1
  Co  Co75  1  0.90698681  0.40698698  0.09301286  1
