# generated using pymatgen
data_GdZnPO
_symmetry_space_group_name_H-M   'P 1'
_cell_length_a   10.46709694
_cell_length_b   10.46709687
_cell_length_c   10.46709752
_cell_angle_alpha   21.67139596
_cell_angle_beta   21.67139687
_cell_angle_gamma   21.67139553
_symmetry_Int_Tables_number   1
_chemical_formula_structural   GdZnPO
_chemical_formula_sum   'Gd2 Zn2 P2 O2'
_cell_volume   137.04801242
_cell_formula_units_Z   2
loop_
 _symmetry_equiv_pos_site_id
 _symmetry_equiv_pos_as_xyz
  1  'x, y, z'
loop_
 _atom_site_type_symbol
 _atom_site_label
 _atom_site_symmetry_multiplicity
 _atom_site_fract_x
 _atom_site_fract_y
 _atom_site_fract_z
 _atom_site_occupancy
  O  O0  1  0.30529215  0.30529215  0.30529215  1
  Zn  Zn1  1  0.19627818  0.19627818  0.19627818  1
  P  P2  1  0.88751625  0.88751625  0.88751625  1
  O  O3  1  0.69471582  0.69471582  0.69471582  1
  Gd  Gd4  1  0.61961789  0.61961789  0.61961789  1
  Gd  Gd5  1  0.38039036  0.38039036  0.38039036  1
  Zn  Zn6  1  0.80371664  0.80371664  0.80371664  1
  P  P7  1  0.11247270  0.11247270  0.11247270  1
