# generated using pymatgen
data_NaSrMg14
_symmetry_space_group_name_H-M   'P 1'
_cell_length_a   6.66689818
_cell_length_b   6.66689759
_cell_length_c   10.51662033
_cell_angle_alpha   90.00000000
_cell_angle_beta   90.00000000
_cell_angle_gamma   120.00000291
_symmetry_Int_Tables_number   1
_chemical_formula_structural   NaSrMg14
_chemical_formula_sum   'Na1 Sr1 Mg14'
_cell_volume   404.81297209
_cell_formula_units_Z   1
loop_
 _symmetry_equiv_pos_site_id
 _symmetry_equiv_pos_as_xyz
  1  'x, y, z'
loop_
 _atom_site_type_symbol
 _atom_site_label
 _atom_site_symmetry_multiplicity
 _atom_site_fract_x
 _atom_site_fract_y
 _atom_site_fract_z
 _atom_site_occupancy
  Na  Na0  1  0.16666700  0.33333300  0.12500000  1
  Sr  Sr1  1  0.16666700  0.33333300  0.62500000  1
  Mg  Mg2  1  0.16899226  0.83449563  0.12500000  1
  Mg  Mg3  1  0.17352098  0.83675999  0.62500000  1
  Mg  Mg4  1  0.66550437  0.33100774  0.12500000  1
  Mg  Mg5  1  0.66324001  0.32647902  0.62500000  1
  Mg  Mg6  1  0.66550437  0.83449563  0.12500000  1
  Mg  Mg7  1  0.66324001  0.83675999  0.62500000  1
  Mg  Mg8  1  0.33841405  0.16158595  0.36963233  1
  Mg  Mg9  1  0.33841405  0.16158595  0.88036767  1
  Mg  Mg10  1  0.33841405  0.67682910  0.36963233  1
  Mg  Mg11  1  0.33841405  0.67682910  0.88036767  1
  Mg  Mg12  1  0.82317090  0.16158595  0.36963233  1
  Mg  Mg13  1  0.82317090  0.16158595  0.88036767  1
  Mg  Mg14  1  0.83333300  0.66666700  0.37764910  1
  Mg  Mg15  1  0.83333300  0.66666700  0.87235090  1
