# generated using pymatgen
data_ZnCu7(CO5)4
_symmetry_space_group_name_H-M   'P 1'
_cell_length_a   3.10645809
_cell_length_b   8.98670768
_cell_length_c   12.33068255
_cell_angle_alpha   89.96064127
_cell_angle_beta   90.16945070
_cell_angle_gamma   96.31487610
_symmetry_Int_Tables_number   1
_chemical_formula_structural   ZnCu7(CO5)4
_chemical_formula_sum   'Zn1 Cu7 C4 O20'
_cell_volume   342.14339827
_cell_formula_units_Z   1
loop_
 _symmetry_equiv_pos_site_id
 _symmetry_equiv_pos_as_xyz
  1  'x, y, z'
loop_
 _atom_site_type_symbol
 _atom_site_label
 _atom_site_symmetry_multiplicity
 _atom_site_fract_x
 _atom_site_fract_y
 _atom_site_fract_z
 _atom_site_occupancy
  Zn  Zn0  1  0.40085748  0.72690767  0.10266394  1
  Cu  Cu1  1  0.92459210  0.99695393  0.22182934  1
  Cu  Cu2  1  0.08717938  0.49946112  0.71631317  1
  Cu  Cu3  1  0.08005270  0.00299252  0.77992307  1
  Cu  Cu4  1  0.91309976  0.49945235  0.28496764  1
  Cu  Cu5  1  0.59372777  0.76706868  0.61258202  1
  Cu  Cu6  1  0.59588459  0.26811667  0.88702553  1
  Cu  Cu7  1  0.40949906  0.23186757  0.38686736  1
  C  C8  1  0.47902731  0.77188819  0.37071842  1
  C  C9  1  0.52294179  0.73017151  0.86190808  1
  C  C10  1  0.51965958  0.22991821  0.63187876  1
  C  C11  1  0.47777573  0.27046947  0.13481949  1
  O  O12  1  0.31255352  0.63264142  0.37258971  1
  O  O13  1  0.67855639  0.87008326  0.86475279  1
  O  O14  1  0.67223060  0.37049692  0.63114807  1
  O  O15  1  0.32047767  0.13058807  0.13378709  1
  O  O16  1  0.93438217  0.86924274  0.10318350  1
  O  O17  1  0.07365152  0.63398822  0.59704145  1
  O  O18  1  0.07184610  0.13529268  0.90047542  1
  O  O19  1  0.92773102  0.36577243  0.40239077  1
  O  O20  1  0.64584327  0.83536732  0.45466721  1
  O  O21  1  0.35057408  0.66450789  0.94318470  1
  O  O22  1  0.35937755  0.16434272  0.54895395  1
  O  O23  1  0.64196397  0.33527770  0.05220099  1
  O  O24  1  0.88085840  0.60732296  0.16036920  1
  O  O25  1  0.10606331  0.88898560  0.65623672  1
  O  O26  1  0.10984496  0.38788514  0.84225172  1
  O  O27  1  0.89842098  0.11080181  0.34486229  1
  O  O28  1  0.48206469  0.84495121  0.27819342  1
  O  O29  1  0.53354352  0.65669235  0.76851454  1
  O  O30  1  0.52138310  0.15679473  0.72522224  1
  O  O31  1  0.47433594  0.34369694  0.22847741  1
