# generated using pymatgen
data_GdBi
_symmetry_space_group_name_H-M   'P 1'
_cell_length_a   4.52456430
_cell_length_b   4.52374974
_cell_length_c   4.52503456
_cell_angle_alpha   59.97028133
_cell_angle_beta   59.94738743
_cell_angle_gamma   59.96950860
_symmetry_Int_Tables_number   1
_chemical_formula_structural   GdBi
_chemical_formula_sum   'Gd1 Bi1'
_cell_volume   65.43523152
_cell_formula_units_Z   1
loop_
 _symmetry_equiv_pos_site_id
 _symmetry_equiv_pos_as_xyz
  1  'x, y, z'
loop_
 _atom_site_type_symbol
 _atom_site_label
 _atom_site_symmetry_multiplicity
 _atom_site_fract_x
 _atom_site_fract_y
 _atom_site_fract_z
 _atom_site_occupancy
  Gd  Gd0  1  0.49999975  0.50000016  0.49999995  1
  Bi  Bi1  1  0.00000025  0.99999984  0.00000005  1
