# generated using pymatgen
data_LiCdBO3
_symmetry_space_group_name_H-M   'P 1'
_cell_length_a   8.43390639
_cell_length_b   8.43390639
_cell_length_c   3.31594672
_cell_angle_alpha   90.00000000
_cell_angle_beta   90.00000000
_cell_angle_gamma   119.99999994
_symmetry_Int_Tables_number   1
_chemical_formula_structural   LiCdBO3
_chemical_formula_sum   'Li3 Cd3 B3 O9'
_cell_volume   204.26583265
_cell_formula_units_Z   3
loop_
 _symmetry_equiv_pos_site_id
 _symmetry_equiv_pos_as_xyz
  1  'x, y, z'
loop_
 _atom_site_type_symbol
 _atom_site_label
 _atom_site_symmetry_multiplicity
 _atom_site_fract_x
 _atom_site_fract_y
 _atom_site_fract_z
 _atom_site_occupancy
  Li  Li0  1  0.29097490  0.00806914  0.50000000  1
  Li  Li1  1  0.71709424  0.70902510  0.50000000  1
  Li  Li2  1  0.99193086  0.28290576  0.50000000  1
  B  B3  1  0.00000000  0.00000000  0.00000000  1
  B  B4  1  0.66666667  0.33333333  0.50000000  1
  B  B5  1  0.33333333  0.66666667  0.50000000  1
  O  O6  1  0.18774315  0.06319051  0.00000000  1
  O  O7  1  0.93680949  0.12455263  0.00000000  1
  O  O8  1  0.87544737  0.81225685  0.00000000  1
  O  O9  1  0.24959453  0.47636657  0.50000000  1
  O  O10  1  0.22677204  0.75040547  0.50000000  1
  O  O11  1  0.52363343  0.77322796  0.50000000  1
  O  O12  1  0.58201418  0.43866087  0.50000000  1
  O  O13  1  0.85664669  0.41798582  0.50000000  1
  O  O14  1  0.56133913  0.14335331  0.50000000  1
  Cd  Cd15  1  0.63059929  0.99509192  0.00000000  1
  Cd  Cd16  1  0.00490808  0.63550737  0.00000000  1
  Cd  Cd17  1  0.36449263  0.36940071  0.00000000  1
