# generated using pymatgen
data_Mg14SiSb
_symmetry_space_group_name_H-M   'P 1'
_cell_length_a   6.33032218
_cell_length_b   6.33032167
_cell_length_c   10.21943827
_cell_angle_alpha   90.00000000
_cell_angle_beta   90.00000000
_cell_angle_gamma   120.00000268
_symmetry_Int_Tables_number   1
_chemical_formula_structural   Mg14SiSb
_chemical_formula_sum   'Mg14 Si1 Sb1'
_cell_volume   354.65757255
_cell_formula_units_Z   1
loop_
 _symmetry_equiv_pos_site_id
 _symmetry_equiv_pos_as_xyz
  1  'x, y, z'
loop_
 _atom_site_type_symbol
 _atom_site_label
 _atom_site_symmetry_multiplicity
 _atom_site_fract_x
 _atom_site_fract_y
 _atom_site_fract_z
 _atom_site_occupancy
  Mg  Mg0  1  0.16525936  0.83262918  0.12500000  1
  Mg  Mg1  1  0.16580800  0.83290350  0.62500000  1
  Mg  Mg2  1  0.66737082  0.33474064  0.12500000  1
  Mg  Mg3  1  0.66709650  0.33419200  0.62500000  1
  Mg  Mg4  1  0.66737082  0.83262918  0.12500000  1
  Mg  Mg5  1  0.66709650  0.83290350  0.62500000  1
  Mg  Mg6  1  0.33419776  0.16580224  0.36937657  1
  Mg  Mg7  1  0.33419776  0.16580224  0.88062343  1
  Mg  Mg8  1  0.33419776  0.66839652  0.36937657  1
  Mg  Mg9  1  0.33419776  0.66839652  0.88062343  1
  Mg  Mg10  1  0.83160348  0.16580224  0.36937657  1
  Mg  Mg11  1  0.83160348  0.16580224  0.88062343  1
  Mg  Mg12  1  0.83333300  0.66666700  0.37572501  1
  Mg  Mg13  1  0.83333300  0.66666700  0.87427499  1
  Si  Si14  1  0.16666700  0.33333300  0.12500000  1
  Sb  Sb15  1  0.16666700  0.33333300  0.62500000  1
