# generated using pymatgen
data_Nb3Zn3N
_symmetry_space_group_name_H-M   'P 1'
_cell_length_a   8.29883796
_cell_length_b   8.29883796
_cell_length_c   8.29883796
_cell_angle_alpha   60.00000000
_cell_angle_beta   60.00000000
_cell_angle_gamma   60.00000000
_symmetry_Int_Tables_number   1
_chemical_formula_structural   Nb3Zn3N
_chemical_formula_sum   'Nb12 Zn12 N4'
_cell_volume   404.14467147
_cell_formula_units_Z   4
loop_
 _symmetry_equiv_pos_site_id
 _symmetry_equiv_pos_as_xyz
  1  'x, y, z'
loop_
 _atom_site_type_symbol
 _atom_site_label
 _atom_site_symmetry_multiplicity
 _atom_site_fract_x
 _atom_site_fract_y
 _atom_site_fract_z
 _atom_site_occupancy
  Nb  Nb0  1  0.56880977  0.93119023  0.93119023  1
  Nb  Nb1  1  0.56880977  0.56880977  0.93119023  1
  Nb  Nb2  1  0.56880977  0.93119023  0.56880977  1
  Nb  Nb3  1  0.93119023  0.56880977  0.56880977  1
  Nb  Nb4  1  0.93119023  0.93119023  0.56880977  1
  Nb  Nb5  1  0.93119023  0.56880977  0.93119023  1
  Nb  Nb6  1  0.68119023  0.31880977  0.31880977  1
  Nb  Nb7  1  0.68119023  0.68119023  0.31880977  1
  Nb  Nb8  1  0.68119023  0.31880977  0.68119023  1
  Nb  Nb9  1  0.31880977  0.68119023  0.68119023  1
  Nb  Nb10  1  0.31880977  0.31880977  0.68119023  1
  Nb  Nb11  1  0.31880977  0.68119023  0.31880977  1
  Zn  Zn12  1  0.00324152  0.33225283  0.33225283  1
  Zn  Zn13  1  0.33225283  0.33225283  0.00324152  1
  Zn  Zn14  1  0.33225283  0.00324152  0.33225283  1
  Zn  Zn15  1  0.33225283  0.33225283  0.33225283  1
  Zn  Zn16  1  0.24675848  0.91774717  0.91774717  1
  Zn  Zn17  1  0.91774717  0.91774717  0.24675848  1
  Zn  Zn18  1  0.91774717  0.24675848  0.91774717  1
  Zn  Zn19  1  0.91774717  0.91774717  0.91774717  1
  Zn  Zn20  1  0.62500000  0.12500000  0.12500000  1
  Zn  Zn21  1  0.12500000  0.12500000  0.62500000  1
  Zn  Zn22  1  0.12500000  0.62500000  0.12500000  1
  Zn  Zn23  1  0.12500000  0.12500000  0.12500000  1
  N  N24  1  0.12500000  0.62500000  0.62500000  1
  N  N25  1  0.62500000  0.62500000  0.12500000  1
  N  N26  1  0.62500000  0.12500000  0.62500000  1
  N  N27  1  0.62500000  0.62500000  0.62500000  1
