# generated using pymatgen
data_EuRh2
_symmetry_space_group_name_H-M   'P 1'
_cell_length_a   5.40604037
_cell_length_b   5.40585589
_cell_length_c   5.40705119
_cell_angle_alpha   60.01858997
_cell_angle_beta   60.01507229
_cell_angle_gamma   59.99683392
_symmetry_Int_Tables_number   1
_chemical_formula_structural   EuRh2
_chemical_formula_sum   'Eu2 Rh4'
_cell_volume   111.76074069
_cell_formula_units_Z   2
loop_
 _symmetry_equiv_pos_site_id
 _symmetry_equiv_pos_as_xyz
  1  'x, y, z'
loop_
 _atom_site_type_symbol
 _atom_site_label
 _atom_site_symmetry_multiplicity
 _atom_site_fract_x
 _atom_site_fract_y
 _atom_site_fract_z
 _atom_site_occupancy
  Eu  Eu0  1  0.12498245  0.12499074  0.12496913  1
  Eu  Eu1  1  0.87499470  0.87501276  0.87502623  1
  Rh  Rh2  1  0.50002889  0.49998932  0.99999159  1
  Rh  Rh3  1  0.49999518  0.00000056  0.49997971  1
  Rh  Rh4  1  0.49999251  0.49999814  0.50001414  1
  Rh  Rh5  1  0.00000626  0.50000849  0.50001920  1
