# generated using pymatgen
data_GdInPd2
_symmetry_space_group_name_H-M   'P 1'
_cell_length_a   4.84906496
_cell_length_b   4.84356783
_cell_length_c   4.85285258
_cell_angle_alpha   60.05276629
_cell_angle_beta   59.89986343
_cell_angle_gamma   59.97042656
_symmetry_Int_Tables_number   1
_chemical_formula_structural   GdInPd2
_chemical_formula_sum   'Gd1 In1 Pd2'
_cell_volume   80.54735450
_cell_formula_units_Z   1
loop_
 _symmetry_equiv_pos_site_id
 _symmetry_equiv_pos_as_xyz
  1  'x, y, z'
loop_
 _atom_site_type_symbol
 _atom_site_label
 _atom_site_symmetry_multiplicity
 _atom_site_fract_x
 _atom_site_fract_y
 _atom_site_fract_z
 _atom_site_occupancy
  Gd  Gd0  1  0.49997985  0.50003450  0.49999328  1
  In  In1  1  0.00001909  -0.00002143  0.00000244  1
  Pd  Pd2  1  0.25012390  0.24993547  0.25004392  1
  Pd  Pd3  1  0.74987716  0.75005146  0.74996035  1
