# generated using pymatgen
data_Ba2Ti(GeO4)2
_symmetry_space_group_name_H-M   'P 1'
_cell_length_a   8.84839837
_cell_length_b   8.84839837
_cell_length_c   10.97440546
_cell_angle_alpha   90.00000000
_cell_angle_beta   90.00000000
_cell_angle_gamma   90.00046836
_symmetry_Int_Tables_number   1
_chemical_formula_structural   Ba2Ti(GeO4)2
_chemical_formula_sum   'Ba8 Ti4 Ge8 O32'
_cell_volume   859.23178764
_cell_formula_units_Z   4
loop_
 _symmetry_equiv_pos_site_id
 _symmetry_equiv_pos_as_xyz
  1  'x, y, z'
loop_
 _atom_site_type_symbol
 _atom_site_label
 _atom_site_symmetry_multiplicity
 _atom_site_fract_x
 _atom_site_fract_y
 _atom_site_fract_z
 _atom_site_occupancy
  O  O0  1  0.00000000  0.50000000  0.88181920  1
  O  O1  1  0.50000000  0.00000000  0.88181920  1
  O  O2  1  0.62809417  0.37190583  0.90313870  1
  O  O3  1  0.37190583  0.62809417  0.90313870  1
  O  O4  1  0.19851160  0.58085302  0.67066706  1
  O  O5  1  0.58085302  0.19851160  0.67066706  1
  O  O6  1  0.41914698  0.80148840  0.67066706  1
  O  O7  1  0.00000000  0.00000000  0.67701697  1
  O  O8  1  0.08085523  0.30148431  0.67070605  1
  O  O9  1  0.91914477  0.69851569  0.67070605  1
  O  O10  1  0.30148431  0.08085523  0.17070605  1
  O  O11  1  0.69851569  0.91914477  0.17070605  1
  O  O12  1  0.91914477  0.69851569  0.17070605  1
  O  O13  1  0.08085523  0.30148431  0.17070605  1
  O  O14  1  0.00000000  0.00000000  0.17701697  1
  O  O15  1  0.41914698  0.80148840  0.17066706  1
  O  O16  1  0.58085302  0.19851160  0.17066706  1
  O  O17  1  0.19851160  0.58085302  0.17066706  1
  O  O18  1  0.80148840  0.41914698  0.17066706  1
  O  O19  1  0.50000000  0.50000000  0.17693130  1
  O  O20  1  0.12811812  0.12811812  0.40319747  1
  O  O21  1  0.87188188  0.87188188  0.40319747  1
  O  O22  1  0.30148431  0.08085523  0.67070605  1
  O  O23  1  0.62809417  0.37190583  0.40313870  1
  O  O24  1  0.50000000  0.00000000  0.38181920  1
  O  O25  1  0.00000000  0.50000000  0.38181920  1
  O  O26  1  0.37190583  0.62809417  0.40313870  1
  O  O27  1  0.12811812  0.12811812  0.90319747  1
  O  O28  1  0.50000000  0.50000000  0.67693130  1
  O  O29  1  0.80148840  0.41914698  0.67066706  1
  O  O30  1  0.69851569  0.91914477  0.67070605  1
  O  O31  1  0.87188188  0.87188188  0.90319747  1
  Ti  Ti32  1  0.00000000  0.50000000  0.22679709  1
  Ti  Ti33  1  0.50000000  0.00000000  0.22679709  1
  Ti  Ti34  1  0.50000000  0.00000000  0.72679709  1
  Ti  Ti35  1  0.00000000  0.50000000  0.72679709  1
  Ge  Ge36  1  0.13229856  0.13229856  0.74574386  1
  Ge  Ge37  1  0.36771123  0.63228877  0.74569257  1
  Ge  Ge38  1  0.86770144  0.86770144  0.74574386  1
  Ge  Ge39  1  0.63228877  0.36771123  0.74569257  1
  Ge  Ge40  1  0.63228877  0.36771123  0.24569257  1
  Ge  Ge41  1  0.36771123  0.63228877  0.24569257  1
  Ge  Ge42  1  0.13229856  0.13229856  0.24574386  1
  Ge  Ge43  1  0.86770144  0.86770144  0.24574386  1
  Ba  Ba44  1  0.32814513  0.32814513  0.50777177  1
  Ba  Ba45  1  0.17185946  0.82814054  0.50781897  1
  Ba  Ba46  1  0.67185487  0.67185487  0.50777177  1
  Ba  Ba47  1  0.82814054  0.17185946  0.50781897  1
  Ba  Ba48  1  0.82814054  0.17185946  0.00781897  1
  Ba  Ba49  1  0.17185946  0.82814054  0.00781897  1
  Ba  Ba50  1  0.67185487  0.67185487  0.00777177  1
  Ba  Ba51  1  0.32814513  0.32814513  0.00777177  1
