# generated using pymatgen
data_Mg14CuSi
_symmetry_space_group_name_H-M   'P 1'
_cell_length_a   6.17318724
_cell_length_b   6.17318739
_cell_length_c   10.18396506
_cell_angle_alpha   90.00000000
_cell_angle_beta   90.00000000
_cell_angle_gamma   119.99999917
_symmetry_Int_Tables_number   1
_chemical_formula_structural   Mg14CuSi
_chemical_formula_sum   'Mg14 Cu1 Si1'
_cell_volume   336.09840110
_cell_formula_units_Z   1
loop_
 _symmetry_equiv_pos_site_id
 _symmetry_equiv_pos_as_xyz
  1  'x, y, z'
loop_
 _atom_site_type_symbol
 _atom_site_label
 _atom_site_symmetry_multiplicity
 _atom_site_fract_x
 _atom_site_fract_y
 _atom_site_fract_z
 _atom_site_occupancy
  Mg  Mg0  1  0.16566476  0.83283188  0.12500000  1
  Mg  Mg1  1  0.16610104  0.83305002  0.62500000  1
  Mg  Mg2  1  0.66716812  0.33433524  0.12500000  1
  Mg  Mg3  1  0.66694998  0.33389896  0.62500000  1
  Mg  Mg4  1  0.66716812  0.83283188  0.12500000  1
  Mg  Mg5  1  0.66694998  0.83305002  0.62500000  1
  Mg  Mg6  1  0.32902844  0.17097156  0.37245331  1
  Mg  Mg7  1  0.32902844  0.17097156  0.87754669  1
  Mg  Mg8  1  0.32902844  0.65805788  0.37245331  1
  Mg  Mg9  1  0.32902844  0.65805788  0.87754669  1
  Mg  Mg10  1  0.84194212  0.17097156  0.37245331  1
  Mg  Mg11  1  0.84194212  0.17097156  0.87754669  1
  Mg  Mg12  1  0.83333300  0.66666700  0.37344194  1
  Mg  Mg13  1  0.83333300  0.66666700  0.87655806  1
  Cu  Cu14  1  0.16666700  0.33333300  0.12500000  1
  Si  Si15  1  0.16666700  0.33333300  0.62500000  1
