# generated using pymatgen
data_Sc2NiRu
_symmetry_space_group_name_H-M   'P 1'
_cell_length_a   4.51835301
_cell_length_b   4.51837278
_cell_length_c   4.51835288
_cell_angle_alpha   60.00003386
_cell_angle_beta   60.00021494
_cell_angle_gamma   60.00009784
_symmetry_Int_Tables_number   1
_chemical_formula_structural   Sc2NiRu
_chemical_formula_sum   'Sc2 Ni1 Ru1'
_cell_volume   65.22716487
_cell_formula_units_Z   1
loop_
 _symmetry_equiv_pos_site_id
 _symmetry_equiv_pos_as_xyz
  1  'x, y, z'
loop_
 _atom_site_type_symbol
 _atom_site_label
 _atom_site_symmetry_multiplicity
 _atom_site_fract_x
 _atom_site_fract_y
 _atom_site_fract_z
 _atom_site_occupancy
  Sc  Sc0  1  0.99999922  -0.00000018  0.99999928  1
  Sc  Sc1  1  0.50000077  0.49999963  0.49999964  1
  Ni  Ni2  1  0.24999870  0.24999910  0.25000042  1
  Ru  Ru3  1  0.74999931  0.74999945  0.74999867  1
