# generated using pymatgen
data_HfMg14Cu
_symmetry_space_group_name_H-M   'P 1'
_cell_length_a   6.32762684
_cell_length_b   6.23536640
_cell_length_c   10.06626476
_cell_angle_alpha   90.00000000
_cell_angle_beta   90.00000000
_cell_angle_gamma   119.51884443
_symmetry_Int_Tables_number   1
_chemical_formula_structural   HfMg14Cu
_chemical_formula_sum   'Hf1 Mg14 Cu1'
_cell_volume   345.61065069
_cell_formula_units_Z   1
loop_
 _symmetry_equiv_pos_site_id
 _symmetry_equiv_pos_as_xyz
  1  'x, y, z'
loop_
 _atom_site_type_symbol
 _atom_site_label
 _atom_site_symmetry_multiplicity
 _atom_site_fract_x
 _atom_site_fract_y
 _atom_site_fract_z
 _atom_site_occupancy
  Hf  Hf0  1  0.15114422  0.82557161  0.12500000  1
  Mg  Mg1  1  0.16622351  0.33311126  0.62500000  1
  Mg  Mg2  1  0.17089101  0.83544501  0.62500000  1
  Mg  Mg3  1  0.64944095  0.33507718  0.12500000  1
  Mg  Mg4  1  0.66603410  0.32938117  0.62500000  1
  Mg  Mg5  1  0.64944095  0.81436277  0.12500000  1
  Mg  Mg6  1  0.66603410  0.83665193  0.62500000  1
  Mg  Mg7  1  0.33082547  0.16664930  0.36676536  1
  Mg  Mg8  1  0.33082547  0.16664930  0.88323464  1
  Mg  Mg9  1  0.33082547  0.66417717  0.36676536  1
  Mg  Mg10  1  0.33082547  0.66417717  0.88323464  1
  Mg  Mg11  1  0.84698648  0.17349374  0.35731494  1
  Mg  Mg12  1  0.84698648  0.17349374  0.89268506  1
  Mg  Mg13  1  0.83935415  0.66967757  0.37721795  1
  Mg  Mg14  1  0.83935415  0.66967757  0.87278205  1
  Cu  Cu15  1  0.18480804  0.34240352  0.12500000  1
