# generated using pymatgen
data_Te2Mo(WS2)3
_symmetry_space_group_name_H-M   'P 1'
_cell_length_a   3.27414564
_cell_length_b   3.27415519
_cell_length_c   38.98438624
_cell_angle_alpha   89.99658934
_cell_angle_beta   90.00000000
_cell_angle_gamma   119.99990348
_symmetry_Int_Tables_number   1
_chemical_formula_structural   Te2Mo(WS2)3
_chemical_formula_sum   'Te2 Mo1 W3 S6'
_cell_volume   361.92535495
_cell_formula_units_Z   1
loop_
 _symmetry_equiv_pos_site_id
 _symmetry_equiv_pos_as_xyz
  1  'x, y, z'
loop_
 _atom_site_type_symbol
 _atom_site_label
 _atom_site_symmetry_multiplicity
 _atom_site_fract_x
 _atom_site_fract_y
 _atom_site_fract_z
 _atom_site_occupancy
  Te  Te0  1  0.33331496  0.66663092  0.33134934  1
  Te  Te1  1  0.33333643  0.66667386  0.23182261  1
  Mo  Mo2  1  0.33336191  0.66672383  0.09272462  1
  W  W3  1  0.33316996  0.66633992  0.47083340  1
  W  W4  1  0.66665982  0.33331964  0.28161864  1
  W  W5  1  0.66679974  0.33359948  0.65777035  1
  S  S6  1  0.33343686  0.66687473  0.69736136  1
  S  S7  1  0.66674465  0.33348830  0.05331428  1
  S  S8  1  0.66651594  0.33303087  0.43122143  1
  S  S9  1  0.66671289  0.33342479  0.13214686  1
  S  S10  1  0.66648225  0.33296350  0.51042368  1
  S  S11  1  0.33346458  0.66693016  0.61816143  1
