# generated using pymatgen
data_Ti2CoTc
_symmetry_space_group_name_H-M   'P 1'
_cell_length_a   4.29122969
_cell_length_b   4.29123016
_cell_length_c   4.29123024
_cell_angle_alpha   60.00000049
_cell_angle_beta   59.99998872
_cell_angle_gamma   59.99999095
_symmetry_Int_Tables_number   1
_chemical_formula_structural   Ti2CoTc
_chemical_formula_sum   'Ti2 Co1 Tc1'
_cell_volume   55.87664514
_cell_formula_units_Z   1
loop_
 _symmetry_equiv_pos_site_id
 _symmetry_equiv_pos_as_xyz
  1  'x, y, z'
loop_
 _atom_site_type_symbol
 _atom_site_label
 _atom_site_symmetry_multiplicity
 _atom_site_fract_x
 _atom_site_fract_y
 _atom_site_fract_z
 _atom_site_occupancy
  Ti  Ti0  1  0.00000001  -0.00000001  0.00000001  1
  Ti  Ti1  1  0.50000001  0.50000004  0.50000002  1
  Co  Co2  1  0.25000002  0.25000002  0.25000001  1
  Tc  Tc3  1  0.75000096  0.75000095  0.75000095  1
