# generated using pymatgen
data_TeMoWS3
_symmetry_space_group_name_H-M   'P 1'
_cell_length_a   3.27362920
_cell_length_b   3.27373309
_cell_length_c   37.23453826
_cell_angle_alpha   90.00002369
_cell_angle_beta   90.00000000
_cell_angle_gamma   119.99895025
_symmetry_Int_Tables_number   1
_chemical_formula_structural   TeMoWS3
_chemical_formula_sum   'Te2 Mo2 W2 S6'
_cell_volume   345.58425856
_cell_formula_units_Z   2
loop_
 _symmetry_equiv_pos_site_id
 _symmetry_equiv_pos_as_xyz
  1  'x, y, z'
loop_
 _atom_site_type_symbol
 _atom_site_label
 _atom_site_symmetry_multiplicity
 _atom_site_fract_x
 _atom_site_fract_y
 _atom_site_fract_z
 _atom_site_occupancy
  Te  Te0  1  0.33335023  0.66670145  0.33393613  1
  Te  Te1  1  0.33337476  0.66675052  0.22965515  1
  Mo  Mo2  1  0.33331263  0.66662527  0.09386583  1
  Mo  Mo3  1  0.33329222  0.66658445  0.46972078  1
  W  W4  1  0.66668531  0.33337062  0.28179761  1
  W  W5  1  0.66668814  0.33337629  0.65753397  1
  S  S6  1  0.33335366  0.66670832  0.69906567  1
  S  S7  1  0.66665060  0.33330020  0.05254932  1
  S  S8  1  0.66663842  0.33327584  0.42837535  1
  S  S9  1  0.66665022  0.33329944  0.13522340  1
  S  S10  1  0.66665251  0.33330402  0.51102830  1
  S  S11  1  0.33335129  0.66670357  0.61599650  1
