# generated using pymatgen
data_Pm2NiRh
_symmetry_space_group_name_H-M   'P 1'
_cell_length_a   4.93578441
_cell_length_b   4.93580355
_cell_length_c   4.93589615
_cell_angle_alpha   59.99633501
_cell_angle_beta   59.99662555
_cell_angle_gamma   59.99824344
_symmetry_Int_Tables_number   1
_chemical_formula_structural   Pm2NiRh
_chemical_formula_sum   'Pm2 Ni1 Rh1'
_cell_volume   85.02295440
_cell_formula_units_Z   1
loop_
 _symmetry_equiv_pos_site_id
 _symmetry_equiv_pos_as_xyz
  1  'x, y, z'
loop_
 _atom_site_type_symbol
 _atom_site_label
 _atom_site_symmetry_multiplicity
 _atom_site_fract_x
 _atom_site_fract_y
 _atom_site_fract_z
 _atom_site_occupancy
  Pm  Pm0  1  -0.00000682  0.99999145  0.99999219  1
  Pm  Pm1  1  0.50000800  0.50000727  0.50000876  1
  Ni  Ni2  1  0.25000113  0.24999997  0.25000008  1
  Rh  Rh3  1  0.74999770  0.75000131  0.74999897  1
