# generated using pymatgen
data_Te6Mo3WS2
_symmetry_space_group_name_H-M   'P 1'
_cell_length_a   3.45744122
_cell_length_b   3.45747013
_cell_length_c   39.26373300
_cell_angle_alpha   89.98952045
_cell_angle_beta   90.00000000
_cell_angle_gamma   119.99972336
_symmetry_Int_Tables_number   1
_chemical_formula_structural   Te6Mo3WS2
_chemical_formula_sum   'Te6 Mo3 W1 S2'
_cell_volume   406.47764259
_cell_formula_units_Z   1
loop_
 _symmetry_equiv_pos_site_id
 _symmetry_equiv_pos_as_xyz
  1  'x, y, z'
loop_
 _atom_site_type_symbol
 _atom_site_label
 _atom_site_symmetry_multiplicity
 _atom_site_fract_x
 _atom_site_fract_y
 _atom_site_fract_z
 _atom_site_occupancy
  Te  Te0  1  0.33340660  0.66681420  0.32886578  1
  Te  Te1  1  0.33338264  0.66676628  0.70487595  1
  Te  Te2  1  0.66647496  0.33294892  0.42250778  1
  Te  Te3  1  0.66662788  0.33325475  0.51663217  1
  Te  Te4  1  0.33346171  0.66692441  0.23417924  1
  Te  Te5  1  0.33345907  0.66691915  0.61069949  1
  Mo  Mo6  1  0.33326383  0.66652766  0.09403137  1
  Mo  Mo7  1  0.33322389  0.66644779  0.46956953  1
  Mo  Mo8  1  0.66674272  0.33348543  0.65780166  1
  W  W9  1  0.66677582  0.33355164  0.28151306  1
  S  S10  1  0.66668694  0.33337287  0.05611778  1
  S  S11  1  0.66649395  0.33298690  0.13195420  1
