# generated using pymatgen
data_Pm2CuRh
_symmetry_space_group_name_H-M   'P 1'
_cell_length_a   5.00956771
_cell_length_b   5.00956483
_cell_length_c   5.00958315
_cell_angle_alpha   59.99902021
_cell_angle_beta   59.99873057
_cell_angle_gamma   59.99957206
_symmetry_Int_Tables_number   1
_chemical_formula_structural   Pm2CuRh
_chemical_formula_sum   'Pm2 Cu1 Rh1'
_cell_volume   88.89514799
_cell_formula_units_Z   1
loop_
 _symmetry_equiv_pos_site_id
 _symmetry_equiv_pos_as_xyz
  1  'x, y, z'
loop_
 _atom_site_type_symbol
 _atom_site_label
 _atom_site_symmetry_multiplicity
 _atom_site_fract_x
 _atom_site_fract_y
 _atom_site_fract_z
 _atom_site_occupancy
  Pm  Pm0  1  -0.00000082  -0.00000127  0.00000021  1
  Pm  Pm1  1  0.50000133  0.49999985  0.49999896  1
  Cu  Cu2  1  0.24999914  0.24999959  0.24999853  1
  Rh  Rh3  1  0.74999835  0.74999983  0.75000030  1
