# generated using pymatgen
data_Y3Mn3Ga2Si
_symmetry_space_group_name_H-M   'P 1'
_cell_length_a   4.15293786
_cell_length_b   7.00975313
_cell_length_c   7.00483595
_cell_angle_alpha   59.93075779
_cell_angle_beta   90.00000000
_cell_angle_gamma   90.00000000
_symmetry_Int_Tables_number   1
_chemical_formula_structural   Y3Mn3Ga2Si
_chemical_formula_sum   'Y3 Mn3 Ga2 Si1'
_cell_volume   176.47504958
_cell_formula_units_Z   1
loop_
 _symmetry_equiv_pos_site_id
 _symmetry_equiv_pos_as_xyz
  1  'x, y, z'
loop_
 _atom_site_type_symbol
 _atom_site_label
 _atom_site_symmetry_multiplicity
 _atom_site_fract_x
 _atom_site_fract_y
 _atom_site_fract_z
 _atom_site_occupancy
  Y  Y0  1  0.50000000  0.57669272  0.41969439  1
  Y  Y1  1  0.50000000  0.42050085  0.00332010  1
  Y  Y2  1  0.50000000  0.00311553  0.57659684  1
  Mn  Mn3  1  0.00000000  0.22718411  0.75944382  1
  Mn  Mn4  1  0.00000000  0.75988262  0.01294098  1
  Mn  Mn5  1  -0.00000000  0.01232738  0.22790519  1
  Ga  Ga6  1  0.50000000  -0.00002788  0.00028646  1
  Ga  Ga7  1  0.00000000  0.66678315  0.66648538  1
  Si  Si8  1  -0.00000000  0.33344152  0.33342684  1
