# generated using pymatgen
data_LiSc2Au
_symmetry_space_group_name_H-M   'P 1'
_cell_length_a   4.79648073
_cell_length_b   4.79645912
_cell_length_c   4.79642428
_cell_angle_alpha   59.97876929
_cell_angle_beta   59.98004468
_cell_angle_gamma   59.97989264
_symmetry_Int_Tables_number   1
_chemical_formula_structural   LiSc2Au
_chemical_formula_sum   'Li1 Sc2 Au1'
_cell_volume   77.99105557
_cell_formula_units_Z   1
loop_
 _symmetry_equiv_pos_site_id
 _symmetry_equiv_pos_as_xyz
  1  'x, y, z'
loop_
 _atom_site_type_symbol
 _atom_site_label
 _atom_site_symmetry_multiplicity
 _atom_site_fract_x
 _atom_site_fract_y
 _atom_site_fract_z
 _atom_site_occupancy
  Li  Li0  1  0.75000027  0.75000047  0.75000020  1
  Sc  Sc1  1  0.99999513  0.99999529  0.99999531  1
  Sc  Sc2  1  0.50000515  0.50000354  0.50000447  1
  Au  Au3  1  0.24999945  0.25000070  0.25000003  1
