# generated using pymatgen
data_PaGaAu2
_symmetry_space_group_name_H-M   'P 1'
_cell_length_a   4.90390019
_cell_length_b   4.90384273
_cell_length_c   4.90373944
_cell_angle_alpha   59.95070129
_cell_angle_beta   59.94837044
_cell_angle_gamma   59.94787186
_symmetry_Int_Tables_number   1
_chemical_formula_structural   PaGaAu2
_chemical_formula_sum   'Pa1 Ga1 Au2'
_cell_volume   83.28901629
_cell_formula_units_Z   1
loop_
 _symmetry_equiv_pos_site_id
 _symmetry_equiv_pos_as_xyz
  1  'x, y, z'
loop_
 _atom_site_type_symbol
 _atom_site_label
 _atom_site_symmetry_multiplicity
 _atom_site_fract_x
 _atom_site_fract_y
 _atom_site_fract_z
 _atom_site_occupancy
  Pa  Pa0  1  0.74999859  0.74999989  0.75000299  1
  Ga  Ga1  1  0.24999993  0.24999734  0.24999983  1
  Au  Au2  1  0.50000276  0.49999889  0.49999394  1
  Au  Au3  1  0.99999671  0.00000188  0.00000124  1
