# generated using pymatgen
data_HoCl3
_symmetry_space_group_name_H-M   'P 1'
_cell_length_a   9.92195196
_cell_length_b   9.92194838
_cell_length_c   3.58653341
_cell_angle_alpha   90.00000000
_cell_angle_beta   90.00000000
_cell_angle_gamma   119.99998697
_symmetry_Int_Tables_number   1
_chemical_formula_structural   HoCl3
_chemical_formula_sum   'Ho2 Cl6'
_cell_volume   305.77336505
_cell_formula_units_Z   2
loop_
 _symmetry_equiv_pos_site_id
 _symmetry_equiv_pos_as_xyz
  1  'x, y, z'
loop_
 _atom_site_type_symbol
 _atom_site_label
 _atom_site_symmetry_multiplicity
 _atom_site_fract_x
 _atom_site_fract_y
 _atom_site_fract_z
 _atom_site_occupancy
  Ho  Ho0  1  0.33333300  0.66666700  0.75000000  1
  Ho  Ho1  1  0.66666700  0.33333300  0.24999800  1
  Cl  Cl2  1  0.21917259  0.43834518  0.24999800  1
  Cl  Cl3  1  0.56165382  0.78082741  0.24999800  1
  Cl  Cl4  1  0.21917359  0.78082741  0.24999800  1
  Cl  Cl5  1  0.78082741  0.56165482  0.75000000  1
  Cl  Cl6  1  0.43834518  0.21917259  0.75000000  1
  Cl  Cl7  1  0.78082841  0.21917259  0.75000000  1
