# generated using pymatgen
data_TbInRh2
_symmetry_space_group_name_H-M   'P 1'
_cell_length_a   4.71936907
_cell_length_b   4.71936320
_cell_length_c   4.71936861
_cell_angle_alpha   59.99997740
_cell_angle_beta   60.00006042
_cell_angle_gamma   59.99984521
_symmetry_Int_Tables_number   1
_chemical_formula_structural   TbInRh2
_chemical_formula_sum   'Tb1 In1 Rh2'
_cell_volume   74.32516146
_cell_formula_units_Z   1
loop_
 _symmetry_equiv_pos_site_id
 _symmetry_equiv_pos_as_xyz
  1  'x, y, z'
loop_
 _atom_site_type_symbol
 _atom_site_label
 _atom_site_symmetry_multiplicity
 _atom_site_fract_x
 _atom_site_fract_y
 _atom_site_fract_z
 _atom_site_occupancy
  Tb  Tb0  1  0.74999948  0.74999960  0.74999964  1
  In  In1  1  0.24999897  0.24999906  0.24999979  1
  Rh  Rh2  1  0.00000012  -0.00000047  -0.00000020  1
  Rh  Rh3  1  0.49999943  0.49999981  0.49999877  1
