# generated using pymatgen
data_Te2Mo3WS6
_symmetry_space_group_name_H-M   'P 1'
_cell_length_a   3.27605416
_cell_length_b   3.27641023
_cell_length_c   38.06898736
_cell_angle_alpha   90.00062559
_cell_angle_beta   90.00000000
_cell_angle_gamma   119.99640509
_symmetry_Int_Tables_number   1
_chemical_formula_structural   Te2Mo3WS6
_chemical_formula_sum   'Te2 Mo3 W1 S6'
_cell_volume   353.88897523
_cell_formula_units_Z   1
loop_
 _symmetry_equiv_pos_site_id
 _symmetry_equiv_pos_as_xyz
  1  'x, y, z'
loop_
 _atom_site_type_symbol
 _atom_site_label
 _atom_site_symmetry_multiplicity
 _atom_site_fract_x
 _atom_site_fract_y
 _atom_site_fract_z
 _atom_site_occupancy
  Te  Te0  1  0.66666822  0.33333544  0.41886917  1
  Te  Te1  1  0.66668557  0.33337014  0.52060016  1
  Mo  Mo2  1  0.33330495  0.66660990  0.09384341  1
  Mo  Mo3  1  0.66674484  0.33348967  0.28136854  1
  Mo  Mo4  1  0.66659138  0.33318277  0.65799912  1
  W  W5  1  0.33337467  0.66674934  0.46973607  1
  S  S6  1  0.33332395  0.66664889  0.32172292  1
  S  S7  1  0.33337769  0.66675637  0.69841633  1
  S  S8  1  0.66660582  0.33321065  0.05339795  1
  S  S9  1  0.66661856  0.33323612  0.13425434  1
  S  S10  1  0.33332366  0.66664831  0.24098270  1
  S  S11  1  0.33338070  0.66676239  0.61755730  1
