# generated using pymatgen
data_TeMoWS3
_symmetry_space_group_name_H-M   'P 1'
_cell_length_a   3.27355129
_cell_length_b   3.27377151
_cell_length_c   39.65945260
_cell_angle_alpha   89.99694075
_cell_angle_beta   90.00000000
_cell_angle_gamma   119.99777476
_symmetry_Int_Tables_number   1
_chemical_formula_structural   TeMoWS3
_chemical_formula_sum   'Te2 Mo2 W2 S6'
_cell_volume   368.09049108
_cell_formula_units_Z   2
loop_
 _symmetry_equiv_pos_site_id
 _symmetry_equiv_pos_as_xyz
  1  'x, y, z'
loop_
 _atom_site_type_symbol
 _atom_site_label
 _atom_site_symmetry_multiplicity
 _atom_site_fract_x
 _atom_site_fract_y
 _atom_site_fract_z
 _atom_site_occupancy
  Te  Te0  1  0.66684987  0.33369874  0.42018017  1
  Te  Te1  1  0.66639055  0.33278009  0.51810700  1
  Mo  Mo2  1  0.33321173  0.66642345  0.09348273  1
  Mo  Mo3  1  0.66675809  0.33351617  0.28049033  1
  W  W4  1  0.33327980  0.66655960  0.46914635  1
  W  W5  1  0.66675510  0.33351020  0.65981820  1
  S  S6  1  0.33334926  0.66669951  0.31925137  1
  S  S7  1  0.33333843  0.66667786  0.69869456  1
  S  S8  1  0.66646192  0.33292283  0.05468604  1
  S  S9  1  0.66661025  0.33321950  0.13228138  1
  S  S10  1  0.33351280  0.66702660  0.24171508  1
  S  S11  1  0.33348222  0.66696544  0.62089479  1
