# generated using pymatgen
data_TeMoWS3
_symmetry_space_group_name_H-M   'P 1'
_cell_length_a   3.27515293
_cell_length_b   3.27514964
_cell_length_c   37.20105652
_cell_angle_alpha   89.99987449
_cell_angle_beta   90.00000000
_cell_angle_gamma   120.00003315
_symmetry_Int_Tables_number   1
_chemical_formula_structural   TeMoWS3
_chemical_formula_sum   'Te2 Mo2 W2 S6'
_cell_volume   345.57991358
_cell_formula_units_Z   2
loop_
 _symmetry_equiv_pos_site_id
 _symmetry_equiv_pos_as_xyz
  1  'x, y, z'
loop_
 _atom_site_type_symbol
 _atom_site_label
 _atom_site_symmetry_multiplicity
 _atom_site_fract_x
 _atom_site_fract_y
 _atom_site_fract_z
 _atom_site_occupancy
  Te  Te0  1  0.33335190  0.66670481  0.70965328  1
  Te  Te1  1  0.33336115  0.66672330  0.60548533  1
  Mo  Mo2  1  0.33330810  0.66661620  0.09391807  1
  Mo  Mo3  1  0.66668350  0.33336701  0.28180280  1
  W  W4  1  0.33330871  0.66661741  0.46959917  1
  W  W5  1  0.66669106  0.33338211  0.65760328  1
  S  S6  1  0.33335606  0.66671312  0.32315028  1
  S  S7  1  0.66664595  0.33329090  0.05256755  1
  S  S8  1  0.66664559  0.33329017  0.42810327  1
  S  S9  1  0.66664623  0.33329145  0.13529629  1
  S  S10  1  0.66664654  0.33329208  0.51111533  1
  S  S11  1  0.33335522  0.66671143  0.24045336  1
