# generated using pymatgen
data_HfCdRh2
_symmetry_space_group_name_H-M   'P 1'
_cell_length_a   4.57247050
_cell_length_b   4.57246351
_cell_length_c   4.57247738
_cell_angle_alpha   59.99993467
_cell_angle_beta   59.99998414
_cell_angle_gamma   59.99995452
_symmetry_Int_Tables_number   1
_chemical_formula_structural   HfCdRh2
_chemical_formula_sum   'Hf1 Cd1 Rh2'
_cell_volume   67.59853949
_cell_formula_units_Z   1
loop_
 _symmetry_equiv_pos_site_id
 _symmetry_equiv_pos_as_xyz
  1  'x, y, z'
loop_
 _atom_site_type_symbol
 _atom_site_label
 _atom_site_symmetry_multiplicity
 _atom_site_fract_x
 _atom_site_fract_y
 _atom_site_fract_z
 _atom_site_occupancy
  Hf  Hf0  1  0.74999998  0.75000001  0.74999963  1
  Cd  Cd1  1  0.25000003  0.24999999  0.25000026  1
  Rh  Rh2  1  0.00000047  0.99999930  0.00000024  1
  Rh  Rh3  1  0.49999952  0.50000070  0.49999987  1
