# generated using pymatgen
data_Te2Mo3WS6
_symmetry_space_group_name_H-M   'P 1'
_cell_length_a   3.27746619
_cell_length_b   3.27772532
_cell_length_c   36.41468311
_cell_angle_alpha   90.00811670
_cell_angle_beta   90.00000000
_cell_angle_gamma   119.99738471
_symmetry_Int_Tables_number   1
_chemical_formula_structural   Te2Mo3WS6
_chemical_formula_sum   'Te2 Mo3 W1 S6'
_cell_volume   338.78906294
_cell_formula_units_Z   1
loop_
 _symmetry_equiv_pos_site_id
 _symmetry_equiv_pos_as_xyz
  1  'x, y, z'
loop_
 _atom_site_type_symbol
 _atom_site_label
 _atom_site_symmetry_multiplicity
 _atom_site_fract_x
 _atom_site_fract_y
 _atom_site_fract_z
 _atom_site_occupancy
  Te  Te0  1  0.33344422  0.66688944  0.71079334  1
  Te  Te1  1  0.33329688  0.66659475  0.60441050  1
  Mo  Mo2  1  0.33331864  0.66663729  0.09393774  1
  Mo  Mo3  1  0.33334058  0.66668117  0.46957033  1
  Mo  Mo4  1  0.66662856  0.33325711  0.28182182  1
  W  W5  1  0.66669341  0.33338681  0.65762983  1
  S  S6  1  0.33338785  0.66677671  0.32399217  1
  S  S7  1  0.66660634  0.33321168  0.05170032  1
  S  S8  1  0.66659502  0.33318903  0.42742842  1
  S  S9  1  0.66667832  0.33335565  0.13614903  1
  S  S10  1  0.66666862  0.33333625  0.51174802  1
  S  S11  1  0.33334156  0.66668411  0.23956646  1
