# generated using pymatgen
data_TmTlRh2
_symmetry_space_group_name_H-M   'P 1'
_cell_length_a   4.70726681
_cell_length_b   4.70727430
_cell_length_c   4.70726790
_cell_angle_alpha   59.99987309
_cell_angle_beta   60.00000681
_cell_angle_gamma   60.00008214
_symmetry_Int_Tables_number   1
_chemical_formula_structural   TmTlRh2
_chemical_formula_sum   'Tm1 Tl1 Rh2'
_cell_volume   73.75510977
_cell_formula_units_Z   1
loop_
 _symmetry_equiv_pos_site_id
 _symmetry_equiv_pos_as_xyz
  1  'x, y, z'
loop_
 _atom_site_type_symbol
 _atom_site_label
 _atom_site_symmetry_multiplicity
 _atom_site_fract_x
 _atom_site_fract_y
 _atom_site_fract_z
 _atom_site_occupancy
  Tm  Tm0  1  0.75000010  0.74999955  0.74999936  1
  Tl  Tl1  1  0.24999907  0.25000054  0.24999980  1
  Rh  Rh2  1  0.99999972  0.99999919  0.00000166  1
  Rh  Rh3  1  0.50000011  0.49999972  0.49999818  1
