# generated using pymatgen
data_Mg14CuNi
_symmetry_space_group_name_H-M   'P 1'
_cell_length_a   6.25965090
_cell_length_b   6.25965042
_cell_length_c   9.63245086
_cell_angle_alpha   90.00000000
_cell_angle_beta   90.00000000
_cell_angle_gamma   120.00000255
_symmetry_Int_Tables_number   1
_chemical_formula_structural   Mg14CuNi
_chemical_formula_sum   'Mg14 Cu1 Ni1'
_cell_volume   326.86439490
_cell_formula_units_Z   1
loop_
 _symmetry_equiv_pos_site_id
 _symmetry_equiv_pos_as_xyz
  1  'x, y, z'
loop_
 _atom_site_type_symbol
 _atom_site_label
 _atom_site_symmetry_multiplicity
 _atom_site_fract_x
 _atom_site_fract_y
 _atom_site_fract_z
 _atom_site_occupancy
  Mg  Mg0  1  0.16545429  0.83272664  0.12500000  1
  Mg  Mg1  1  0.16554410  0.83277155  0.62500000  1
  Mg  Mg2  1  0.66727336  0.33454571  0.12500000  1
  Mg  Mg3  1  0.66722845  0.33445590  0.62500000  1
  Mg  Mg4  1  0.66727336  0.83272664  0.12500000  1
  Mg  Mg5  1  0.66722845  0.83277155  0.62500000  1
  Mg  Mg6  1  0.32451180  0.17548820  0.37662528  1
  Mg  Mg7  1  0.32451180  0.17548820  0.87337472  1
  Mg  Mg8  1  0.32451180  0.64902459  0.37662528  1
  Mg  Mg9  1  0.32451180  0.64902459  0.87337472  1
  Mg  Mg10  1  0.85097541  0.17548820  0.37662528  1
  Mg  Mg11  1  0.85097541  0.17548820  0.87337472  1
  Mg  Mg12  1  0.83333300  0.66666700  0.37348644  1
  Mg  Mg13  1  0.83333300  0.66666700  0.87651356  1
  Cu  Cu14  1  0.16666700  0.33333300  0.12500000  1
  Ni  Ni15  1  0.16666700  0.33333300  0.62500000  1
