# generated using pymatgen
data_CaSn5S11
_symmetry_space_group_name_H-M   'P 1'
_cell_length_a   9.79468338
_cell_length_b   9.91299863
_cell_length_c   17.30194040
_cell_angle_alpha   90.00000000
_cell_angle_beta   90.00000000
_cell_angle_gamma   97.63543074
_symmetry_Int_Tables_number   1
_chemical_formula_structural   CaSn5S11
_chemical_formula_sum   'Ca4 Sn20 S44'
_cell_volume   1665.03145938
_cell_formula_units_Z   4
loop_
 _symmetry_equiv_pos_site_id
 _symmetry_equiv_pos_as_xyz
  1  'x, y, z'
loop_
 _atom_site_type_symbol
 _atom_site_label
 _atom_site_symmetry_multiplicity
 _atom_site_fract_x
 _atom_site_fract_y
 _atom_site_fract_z
 _atom_site_occupancy
  Ca  Ca0  1  0.66097265  0.77644090  0.42695014  1
  Ca  Ca1  1  0.16097265  0.27644090  0.07304986  1
  Ca  Ca2  1  0.33902735  0.22355910  0.57304986  1
  Ca  Ca3  1  0.83902735  0.72355910  0.92695014  1
  Sn  Sn4  1  0.46528099  0.69715134  0.16937818  1
  Sn  Sn5  1  0.96528099  0.19715134  0.33062182  1
  Sn  Sn6  1  0.53471901  0.30284866  0.83062182  1
  Sn  Sn7  1  0.03471901  0.80284866  0.66937818  1
  Sn  Sn8  1  0.85627746  0.82824268  0.16772663  1
  Sn  Sn9  1  0.35627746  0.32824268  0.33227337  1
  Sn  Sn10  1  0.14372254  0.17175732  0.83227337  1
  Sn  Sn11  1  0.64372254  0.67175732  0.66772663  1
  Sn  Sn12  1  0.59826704  0.07831038  0.17203655  1
  Sn  Sn13  1  0.09826704  0.57831038  0.32796345  1
  Sn  Sn14  1  0.40173296  0.92168962  0.82796345  1
  Sn  Sn15  1  0.90173296  0.42168962  0.67203655  1
  Sn  Sn16  1  0.72822461  0.44386251  0.17244327  1
  Sn  Sn17  1  0.22822461  0.94386251  0.32755673  1
  Sn  Sn18  1  0.27177539  0.55613749  0.82755673  1
  Sn  Sn19  1  0.77177539  0.05613749  0.67244327  1
  Sn  Sn20  1  0.26969653  0.76336673  0.51027749  1
  Sn  Sn21  1  0.76969653  0.26336673  0.98972251  1
  Sn  Sn22  1  0.73030347  0.23663327  0.48972251  1
  Sn  Sn23  1  0.23030347  0.73663327  0.01027749  1
  S  S24  1  0.52908722  0.51413809  0.26390638  1
  S  S25  1  0.02908722  0.01413809  0.23609362  1
  S  S26  1  0.47091278  0.48586191  0.73609362  1
  S  S27  1  0.97091278  0.98586191  0.76390638  1
  S  S28  1  0.87135702  0.62700946  0.26213445  1
  S  S29  1  0.37135702  0.12700946  0.23786555  1
  S  S30  1  0.12864298  0.37299054  0.73786555  1
  S  S31  1  0.62864298  0.87299054  0.76213445  1
  S  S32  1  0.23321828  0.74440104  0.23630230  1
  S  S33  1  0.73321828  0.24440104  0.26369770  1
  S  S34  1  0.76678172  0.25559896  0.76369770  1
  S  S35  1  0.26678172  0.75559896  0.73630230  1
  S  S36  1  0.63654065  0.86329263  0.25444274  1
  S  S37  1  0.13654065  0.36329263  0.24555726  1
  S  S38  1  0.36345935  0.13670737  0.74555726  1
  S  S39  1  0.86345935  0.63670737  0.75444274  1
  S  S40  1  0.56067862  0.28181256  0.08493731  1
  S  S41  1  0.06067862  0.78181256  0.41506269  1
  S  S42  1  0.43932138  0.71818744  0.91506269  1
  S  S43  1  0.93932138  0.21818744  0.58493731  1
  S  S44  1  0.29610233  0.54403928  0.08756553  1
  S  S45  1  0.79610233  0.04403928  0.41243447  1
  S  S46  1  0.70389767  0.45596072  0.91243447  1
  S  S47  1  0.20389767  0.95596072  0.58756553  1
  S  S48  1  0.92280998  0.40634614  0.08299798  1
  S  S49  1  0.42280998  0.90634614  0.41700202  1
  S  S50  1  0.07719002  0.59365386  0.91700202  1
  S  S51  1  0.57719002  0.09365386  0.58299798  1
  S  S52  1  0.77079967  0.01375441  0.07940405  1
  S  S53  1  0.27079967  0.51375441  0.42059595  1
  S  S54  1  0.22920033  0.98624559  0.92059595  1
  S  S55  1  0.72920033  0.48624559  0.57940405  1
  S  S56  1  0.41183187  0.89591952  0.09091835  1
  S  S57  1  0.91183187  0.39591952  0.40908165  1
  S  S58  1  0.58816813  0.10408048  0.90908165  1
  S  S59  1  0.08816813  0.60408048  0.59091835  1
  S  S60  1  0.68268692  0.65312426  0.08989215  1
  S  S61  1  0.18268692  0.15312426  0.41010785  1
  S  S62  1  0.31731308  0.34687574  0.91010785  1
  S  S63  1  0.81731308  0.84687574  0.58989215  1
  S  S64  1  0.01747956  0.83951879  0.05112750  1
  S  S65  1  0.51747956  0.33951879  0.44887250  1
  S  S66  1  0.98252044  0.16048121  0.94887250  1
  S  S67  1  0.48252044  0.66048121  0.55112750  1
