# generated using pymatgen
data_Te6Mo3WS2
_symmetry_space_group_name_H-M   'P 1'
_cell_length_a   3.45756617
_cell_length_b   3.45757724
_cell_length_c   39.02798185
_cell_angle_alpha   89.99083930
_cell_angle_beta   90.00000000
_cell_angle_gamma   119.99989415
_symmetry_Int_Tables_number   1
_chemical_formula_structural   Te6Mo3WS2
_chemical_formula_sum   'Te6 Mo3 W1 S2'
_cell_volume   404.06345532
_cell_formula_units_Z   1
loop_
 _symmetry_equiv_pos_site_id
 _symmetry_equiv_pos_as_xyz
  1  'x, y, z'
loop_
 _atom_site_type_symbol
 _atom_site_label
 _atom_site_symmetry_multiplicity
 _atom_site_fract_x
 _atom_site_fract_y
 _atom_site_fract_z
 _atom_site_occupancy
  Te  Te0  1  0.33334084  0.66668267  0.32898199  1
  Te  Te1  1  0.33335267  0.66670635  0.70535438  1
  Te  Te2  1  0.66663693  0.33327286  0.42231385  1
  Te  Te3  1  0.66664143  0.33328185  0.51706674  1
  Te  Te4  1  0.33338611  0.66677322  0.23413762  1
  Te  Te5  1  0.33335958  0.66672016  0.61007466  1
  Mo  Mo6  1  0.33330443  0.66660885  0.09391341  1
  Mo  Mo7  1  0.33330684  0.66661368  0.46970538  1
  Mo  Mo8  1  0.66670720  0.33341440  0.28157895  1
  W  W9  1  0.66668598  0.33337196  0.65774796  1
  S  S10  1  0.66664413  0.33328726  0.05583313  1
  S  S11  1  0.66663387  0.33326674  0.13203993  1
