# generated using pymatgen
data_Ga2IrRu
_symmetry_space_group_name_H-M   'P 1'
_cell_length_a   4.32021811
_cell_length_b   4.32019111
_cell_length_c   4.32006293
_cell_angle_alpha   60.00325503
_cell_angle_beta   60.00182612
_cell_angle_gamma   60.00451909
_symmetry_Int_Tables_number   1
_chemical_formula_structural   Ga2IrRu
_chemical_formula_sum   'Ga2 Ir1 Ru1'
_cell_volume   57.01842478
_cell_formula_units_Z   1
loop_
 _symmetry_equiv_pos_site_id
 _symmetry_equiv_pos_as_xyz
  1  'x, y, z'
loop_
 _atom_site_type_symbol
 _atom_site_label
 _atom_site_symmetry_multiplicity
 _atom_site_fract_x
 _atom_site_fract_y
 _atom_site_fract_z
 _atom_site_occupancy
  Ga  Ga0  1  0.49999855  0.50000024  0.50000008  1
  Ga  Ga1  1  0.00000012  -0.00000059  0.00000034  1
  Ir  Ir2  1  0.24999920  0.25000252  0.24999862  1
  Ru  Ru3  1  0.75000213  0.74999783  0.75000095  1
