# generated using pymatgen
data_LuTaOs2
_symmetry_space_group_name_H-M   'P 1'
_cell_length_a   4.59881528
_cell_length_b   4.59881390
_cell_length_c   4.59883637
_cell_angle_alpha   59.99985423
_cell_angle_beta   60.00026311
_cell_angle_gamma   60.00027023
_symmetry_Int_Tables_number   1
_chemical_formula_structural   LuTaOs2
_chemical_formula_sum   'Lu1 Ta1 Os2'
_cell_volume   68.77427693
_cell_formula_units_Z   1
loop_
 _symmetry_equiv_pos_site_id
 _symmetry_equiv_pos_as_xyz
  1  'x, y, z'
loop_
 _atom_site_type_symbol
 _atom_site_label
 _atom_site_symmetry_multiplicity
 _atom_site_fract_x
 _atom_site_fract_y
 _atom_site_fract_z
 _atom_site_occupancy
  Lu  Lu0  1  0.24999934  0.24999966  0.25000238  1
  Ta  Ta1  1  0.74999917  0.75000078  0.75000052  1
  Os  Os2  1  0.00000019  0.00000009  0.99999797  1
  Os  Os3  1  0.50000230  0.50000047  0.50000013  1
