# generated using pymatgen
data_Mg14ZnCo
_symmetry_space_group_name_H-M   'P 1'
_cell_length_a   6.26223667
_cell_length_b   6.26223618
_cell_length_c   9.74640246
_cell_angle_alpha   90.00000000
_cell_angle_beta   90.00000000
_cell_angle_gamma   120.00000253
_symmetry_Int_Tables_number   1
_chemical_formula_structural   Mg14ZnCo
_chemical_formula_sum   'Mg14 Zn1 Co1'
_cell_volume   331.00448743
_cell_formula_units_Z   1
loop_
 _symmetry_equiv_pos_site_id
 _symmetry_equiv_pos_as_xyz
  1  'x, y, z'
loop_
 _atom_site_type_symbol
 _atom_site_label
 _atom_site_symmetry_multiplicity
 _atom_site_fract_x
 _atom_site_fract_y
 _atom_site_fract_z
 _atom_site_occupancy
  Mg  Mg0  1  0.16680468  0.83340184  0.12500000  1
  Mg  Mg1  1  0.16531013  0.83265456  0.62500000  1
  Mg  Mg2  1  0.66659816  0.33319532  0.12500000  1
  Mg  Mg3  1  0.66734544  0.33468987  0.62500000  1
  Mg  Mg4  1  0.66659816  0.83340184  0.12500000  1
  Mg  Mg5  1  0.66734544  0.83265456  0.62500000  1
  Mg  Mg6  1  0.32477429  0.17522571  0.38093410  1
  Mg  Mg7  1  0.32477429  0.17522571  0.86906590  1
  Mg  Mg8  1  0.32477429  0.64954958  0.38093410  1
  Mg  Mg9  1  0.32477429  0.64954958  0.86906590  1
  Mg  Mg10  1  0.85045042  0.17522571  0.38093410  1
  Mg  Mg11  1  0.85045042  0.17522571  0.86906590  1
  Mg  Mg12  1  0.83333300  0.66666700  0.37251949  1
  Mg  Mg13  1  0.83333300  0.66666700  0.87748051  1
  Zn  Zn14  1  0.16666700  0.33333300  0.12500000  1
  Co  Co15  1  0.16666700  0.33333300  0.62500000  1
