# generated using pymatgen
data_Al2CoIr
_symmetry_space_group_name_H-M   'P 1'
_cell_length_a   4.17493134
_cell_length_b   4.17493159
_cell_length_c   4.17493114
_cell_angle_alpha   59.99996476
_cell_angle_beta   59.99999003
_cell_angle_gamma   59.99997798
_symmetry_Int_Tables_number   1
_chemical_formula_structural   Al2CoIr
_chemical_formula_sum   'Al2 Co1 Ir1'
_cell_volume   51.45561801
_cell_formula_units_Z   1
loop_
 _symmetry_equiv_pos_site_id
 _symmetry_equiv_pos_as_xyz
  1  'x, y, z'
loop_
 _atom_site_type_symbol
 _atom_site_label
 _atom_site_symmetry_multiplicity
 _atom_site_fract_x
 _atom_site_fract_y
 _atom_site_fract_z
 _atom_site_occupancy
  Al  Al0  1  0.50000001  0.50000005  0.50000005  1
  Al  Al1  1  0.00000006  0.00000006  0.00000003  1
  Co  Co2  1  0.24999936  0.24999925  0.24999923  1
  Ir  Ir3  1  0.75000057  0.75000064  0.75000068  1
