# generated using pymatgen
data_YMg14Mn
_symmetry_space_group_name_H-M   'P 1'
_cell_length_a   6.44458498
_cell_length_b   6.44458444
_cell_length_c   10.27680146
_cell_angle_alpha   90.00000000
_cell_angle_beta   90.00000000
_cell_angle_gamma   120.00000275
_symmetry_Int_Tables_number   1
_chemical_formula_structural   YMg14Mn
_chemical_formula_sum   'Y1 Mg14 Mn1'
_cell_volume   369.63957261
_cell_formula_units_Z   1
loop_
 _symmetry_equiv_pos_site_id
 _symmetry_equiv_pos_as_xyz
  1  'x, y, z'
loop_
 _atom_site_type_symbol
 _atom_site_label
 _atom_site_symmetry_multiplicity
 _atom_site_fract_x
 _atom_site_fract_y
 _atom_site_fract_z
 _atom_site_occupancy
  Y  Y0  1  0.16666700  0.33333300  0.62500000  1
  Mg  Mg1  1  0.16543328  0.83271614  0.12500000  1
  Mg  Mg2  1  0.17819571  0.83909736  0.62500000  1
  Mg  Mg3  1  0.66728386  0.33456672  0.12500000  1
  Mg  Mg4  1  0.66090264  0.32180429  0.62500000  1
  Mg  Mg5  1  0.66728386  0.83271614  0.12500000  1
  Mg  Mg6  1  0.66090264  0.83909736  0.62500000  1
  Mg  Mg7  1  0.33142975  0.16857025  0.36544667  1
  Mg  Mg8  1  0.33142975  0.16857025  0.88455333  1
  Mg  Mg9  1  0.33142975  0.66286050  0.36544667  1
  Mg  Mg10  1  0.33142975  0.66286050  0.88455333  1
  Mg  Mg11  1  0.83713950  0.16857025  0.36544667  1
  Mg  Mg12  1  0.83713950  0.16857025  0.88455333  1
  Mg  Mg13  1  0.83333300  0.66666700  0.37976951  1
  Mg  Mg14  1  0.83333300  0.66666700  0.87023049  1
  Mn  Mn15  1  0.16666700  0.33333300  0.12500000  1
