# generated using pymatgen
data_LiVRh2
_symmetry_space_group_name_H-M   'P 1'
_cell_length_a   4.19156026
_cell_length_b   4.19156366
_cell_length_c   4.19156784
_cell_angle_alpha   59.99985000
_cell_angle_beta   59.99989810
_cell_angle_gamma   59.99991953
_symmetry_Int_Tables_number   1
_chemical_formula_structural   LiVRh2
_chemical_formula_sum   'Li1 V1 Rh2'
_cell_volume   52.07295117
_cell_formula_units_Z   1
loop_
 _symmetry_equiv_pos_site_id
 _symmetry_equiv_pos_as_xyz
  1  'x, y, z'
loop_
 _atom_site_type_symbol
 _atom_site_label
 _atom_site_symmetry_multiplicity
 _atom_site_fract_x
 _atom_site_fract_y
 _atom_site_fract_z
 _atom_site_occupancy
  Li  Li0  1  0.24999999  0.24999981  0.25000033  1
  V  V1  1  0.75000000  0.74999975  0.75000037  1
  Rh  Rh2  1  0.00000119  0.00000151  0.99999904  1
  Rh  Rh3  1  0.49999982  0.49999993  0.50000127  1
