# generated using pymatgen
data_V3C2
_symmetry_space_group_name_H-M   'P 1'
_cell_length_a   2.95520222
_cell_length_b   2.95520222
_cell_length_c   27.56275361
_cell_angle_alpha   90.00000000
_cell_angle_beta   90.00000000
_cell_angle_gamma   60.00000843
_symmetry_Int_Tables_number   1
_chemical_formula_structural   V3C2
_chemical_formula_sum   'V12 C8'
_cell_volume   208.46237489
_cell_formula_units_Z   4
loop_
 _symmetry_equiv_pos_site_id
 _symmetry_equiv_pos_as_xyz
  1  'x, y, z'
loop_
 _atom_site_type_symbol
 _atom_site_label
 _atom_site_symmetry_multiplicity
 _atom_site_fract_x
 _atom_site_fract_y
 _atom_site_fract_z
 _atom_site_occupancy
  V  V0  1  0.33333300  0.33333300  0.20850121  1
  V  V1  1  0.66666700  0.66666700  0.54234099  1
  V  V2  1  0.00000000  0.00000000  0.87653268  1
  V  V3  1  0.00000000  0.00000000  0.12483179  1
  V  V4  1  0.33333300  0.33333300  0.45680032  1
  V  V5  1  0.66666700  0.66666700  0.79099301  1
  V  V6  1  0.33333300  0.33333300  0.04377927  1
  V  V7  1  0.66666700  0.66666700  0.37412168  1
  V  V8  1  0.00000000  0.00000000  0.70860489  1
  V  V9  1  0.00000000  0.00000000  0.28955373  1
  V  V10  1  0.33333300  0.33333300  0.62472811  1
  V  V11  1  0.66666700  0.66666700  0.95921232  1
  C  C12  1  -0.00000000  -0.00000000  0.49962128  1
  C  C13  1  0.33333300  0.33333300  0.83371172  1
  C  C14  1  0.66666700  0.66666700  0.24879007  1
  C  C15  1  0.00000000  0.00000000  0.58902760  1
  C  C16  1  0.33333300  0.33333300  0.92331317  1
  C  C17  1  0.66666700  0.66666700  0.08454393  1
  C  C18  1  -0.00000000  -0.00000000  0.41001983  1
  C  C19  1  0.33333300  0.33333300  0.74430540  1
