# generated using pymatgen
data_Lu2GaCu
_symmetry_space_group_name_H-M   'P 1'
_cell_length_a   4.88185941
_cell_length_b   4.88186230
_cell_length_c   4.88186385
_cell_angle_alpha   59.99945963
_cell_angle_beta   59.99949978
_cell_angle_gamma   59.99957558
_symmetry_Int_Tables_number   1
_chemical_formula_structural   Lu2GaCu
_chemical_formula_sum   'Lu2 Ga1 Cu1'
_cell_volume   82.26908189
_cell_formula_units_Z   1
loop_
 _symmetry_equiv_pos_site_id
 _symmetry_equiv_pos_as_xyz
  1  'x, y, z'
loop_
 _atom_site_type_symbol
 _atom_site_label
 _atom_site_symmetry_multiplicity
 _atom_site_fract_x
 _atom_site_fract_y
 _atom_site_fract_z
 _atom_site_occupancy
  Lu  Lu0  1  0.00000353  0.00000050  -0.00000455  1
  Lu  Lu1  1  0.49999654  0.50000386  0.50000121  1
  Ga  Ga2  1  0.74999763  0.75000049  0.75000144  1
  Cu  Cu3  1  0.25000331  0.24999615  0.25000290  1
