# generated using pymatgen
data_LaAg2Sn
_symmetry_space_group_name_H-M   'P 1'
_cell_length_a   5.14017377
_cell_length_b   5.14019344
_cell_length_c   5.14014578
_cell_angle_alpha   60.00001219
_cell_angle_beta   60.00023527
_cell_angle_gamma   59.99997260
_symmetry_Int_Tables_number   1
_chemical_formula_structural   LaAg2Sn
_chemical_formula_sum   'La1 Ag2 Sn1'
_cell_volume   96.03254213
_cell_formula_units_Z   1
loop_
 _symmetry_equiv_pos_site_id
 _symmetry_equiv_pos_as_xyz
  1  'x, y, z'
loop_
 _atom_site_type_symbol
 _atom_site_label
 _atom_site_symmetry_multiplicity
 _atom_site_fract_x
 _atom_site_fract_y
 _atom_site_fract_z
 _atom_site_occupancy
  La  La0  1  0.25000281  0.24999798  0.25000393  1
  Ag  Ag1  1  0.00000017  0.00000087  0.99999774  1
  Ag  Ag2  1  0.49999884  0.50000167  0.49999985  1
  Sn  Sn3  1  0.75000018  0.75000147  0.75000047  1
