# generated using pymatgen
data_HoLuZn2
_symmetry_space_group_name_H-M   'P 1'
_cell_length_a   4.98403558
_cell_length_b   4.98417710
_cell_length_c   4.98412881
_cell_angle_alpha   59.99907289
_cell_angle_beta   59.99900182
_cell_angle_gamma   60.00042199
_symmetry_Int_Tables_number   1
_chemical_formula_structural   HoLuZn2
_chemical_formula_sum   'Ho1 Lu1 Zn2'
_cell_volume   87.54753547
_cell_formula_units_Z   1
loop_
 _symmetry_equiv_pos_site_id
 _symmetry_equiv_pos_as_xyz
  1  'x, y, z'
loop_
 _atom_site_type_symbol
 _atom_site_label
 _atom_site_symmetry_multiplicity
 _atom_site_fract_x
 _atom_site_fract_y
 _atom_site_fract_z
 _atom_site_occupancy
  Ho  Ho0  1  0.25000433  0.24999062  0.25000757  1
  Lu  Lu1  1  0.74999690  0.75000254  0.74999440  1
  Zn  Zn2  1  0.99999773  0.00000527  -0.00000260  1
  Zn  Zn3  1  0.50000104  0.50000157  0.50000063  1
