# generated using pymatgen
data_Re2C
_symmetry_space_group_name_H-M   'P 1'
_cell_length_a   2.86611381
_cell_length_b   2.86593658
_cell_length_c   9.91511325
_cell_angle_alpha   89.99928025
_cell_angle_beta   89.99965539
_cell_angle_gamma   119.99991328
_symmetry_Int_Tables_number   1
_chemical_formula_structural   Re2C
_chemical_formula_sum   'Re4 C2'
_cell_volume   70.53240586
_cell_formula_units_Z   2
loop_
 _symmetry_equiv_pos_site_id
 _symmetry_equiv_pos_as_xyz
  1  'x, y, z'
loop_
 _atom_site_type_symbol
 _atom_site_label
 _atom_site_symmetry_multiplicity
 _atom_site_fract_x
 _atom_site_fract_y
 _atom_site_fract_z
 _atom_site_occupancy
  Re  Re0  1  0.33326940  0.66667367  0.60838595  1
  Re  Re1  1  0.66663597  0.33336840  0.10838644  1
  Re  Re2  1  0.66667734  0.33332378  0.39162367  1
  Re  Re3  1  0.33332501  0.66663524  0.89160621  1
  C  C4  1  0.33331236  0.66663303  0.24999580  1
  C  C5  1  0.66667292  0.33336687  0.75000193  1
