# generated using pymatgen
data_Mg14VSn
_symmetry_space_group_name_H-M   'P 1'
_cell_length_a   6.32281296
_cell_length_b   6.23941508
_cell_length_c   10.34465145
_cell_angle_alpha   90.00000000
_cell_angle_beta   90.00000000
_cell_angle_gamma   119.56463452
_symmetry_Int_Tables_number   1
_chemical_formula_structural   Mg14VSn
_chemical_formula_sum   'Mg14 V1 Sn1'
_cell_volume   354.96808024
_cell_formula_units_Z   1
loop_
 _symmetry_equiv_pos_site_id
 _symmetry_equiv_pos_as_xyz
  1  'x, y, z'
loop_
 _atom_site_type_symbol
 _atom_site_label
 _atom_site_symmetry_multiplicity
 _atom_site_fract_x
 _atom_site_fract_y
 _atom_site_fract_z
 _atom_site_occupancy
  Mg  Mg0  1  0.16651890  0.33325895  0.62500000  1
  Mg  Mg1  1  0.16656471  0.83328186  0.62500000  1
  Mg  Mg2  1  0.66732747  0.33294559  0.12500000  1
  Mg  Mg3  1  0.66640765  0.33328324  0.62500000  1
  Mg  Mg4  1  0.66732747  0.83438087  0.12500000  1
  Mg  Mg5  1  0.66640765  0.83312341  0.62500000  1
  Mg  Mg6  1  0.33221571  0.16934784  0.37345237  1
  Mg  Mg7  1  0.33221571  0.16934784  0.87654763  1
  Mg  Mg8  1  0.33221571  0.66286887  0.37345237  1
  Mg  Mg9  1  0.33221571  0.66286887  0.87654763  1
  Mg  Mg10  1  0.83708951  0.16854525  0.37388609  1
  Mg  Mg11  1  0.83708951  0.16854525  0.87611391  1
  Mg  Mg12  1  0.83254448  0.66627274  0.37685471  1
  Mg  Mg13  1  0.83254448  0.66627274  0.87314529  1
  V  V14  1  0.16561513  0.33280707  0.12500000  1
  Sn  Sn15  1  0.16570020  0.83284960  0.12500000  1
