# generated using pymatgen
data_ZrInRh2
_symmetry_space_group_name_H-M   'P 1'
_cell_length_a   4.61446329
_cell_length_b   4.61516060
_cell_length_c   4.61458362
_cell_angle_alpha   59.99641917
_cell_angle_beta   59.96473635
_cell_angle_gamma   59.98972125
_symmetry_Int_Tables_number   1
_chemical_formula_structural   ZrInRh2
_chemical_formula_sum   'Zr1 In1 Rh2'
_cell_volume   69.46470312
_cell_formula_units_Z   1
loop_
 _symmetry_equiv_pos_site_id
 _symmetry_equiv_pos_as_xyz
  1  'x, y, z'
loop_
 _atom_site_type_symbol
 _atom_site_label
 _atom_site_symmetry_multiplicity
 _atom_site_fract_x
 _atom_site_fract_y
 _atom_site_fract_z
 _atom_site_occupancy
  Zr  Zr0  1  0.75006314  0.75010351  0.74986553  1
  In  In1  1  0.24989924  0.24998481  0.25008844  1
  Rh  Rh2  1  0.99993610  0.00002777  -0.00004507  1
  Rh  Rh3  1  0.50010152  0.49988390  0.50009109  1
