# generated using pymatgen
data_CeYIn2
_symmetry_space_group_name_H-M   'P 1'
_cell_length_a   5.40199602
_cell_length_b   5.40198514
_cell_length_c   5.40202102
_cell_angle_alpha   59.99985174
_cell_angle_beta   59.99982017
_cell_angle_gamma   59.99968482
_symmetry_Int_Tables_number   1
_chemical_formula_structural   CeYIn2
_chemical_formula_sum   'Ce1 Y1 In2'
_cell_volume   111.46712658
_cell_formula_units_Z   1
loop_
 _symmetry_equiv_pos_site_id
 _symmetry_equiv_pos_as_xyz
  1  'x, y, z'
loop_
 _atom_site_type_symbol
 _atom_site_label
 _atom_site_symmetry_multiplicity
 _atom_site_fract_x
 _atom_site_fract_y
 _atom_site_fract_z
 _atom_site_occupancy
  Ce  Ce0  1  0.24999973  0.25000018  0.24999995  1
  Y  Y1  1  0.74999920  0.74999904  0.74999911  1
  In  In2  1  0.00000006  0.99999981  0.00000026  1
  In  In3  1  0.50000100  0.50000097  0.50000067  1
