# generated using pymatgen
data_TeWS
_symmetry_space_group_name_H-M   'P 1'
_cell_length_a   3.35983795
_cell_length_b   3.35984604
_cell_length_c   39.38924489
_cell_angle_alpha   90.00190429
_cell_angle_beta   90.00000000
_cell_angle_gamma   119.99992026
_symmetry_Int_Tables_number   1
_chemical_formula_structural   TeWS
_chemical_formula_sum   'Te4 W4 S4'
_cell_volume   385.07590397
_cell_formula_units_Z   4
loop_
 _symmetry_equiv_pos_site_id
 _symmetry_equiv_pos_as_xyz
  1  'x, y, z'
loop_
 _atom_site_type_symbol
 _atom_site_label
 _atom_site_symmetry_multiplicity
 _atom_site_fract_x
 _atom_site_fract_y
 _atom_site_fract_z
 _atom_site_occupancy
  Te  Te0  1  0.33338244  0.66676588  0.70703032  1
  Te  Te1  1  0.66665725  0.33331351  0.42032823  1
  Te  Te2  1  0.66667414  0.33334729  0.51677988  1
  Te  Te3  1  0.33331943  0.66663986  0.61057635  1
  W  W4  1  0.33329635  0.66659271  0.09391409  1
  W  W5  1  0.33333049  0.66666097  0.46849210  1
  W  W6  1  0.66668918  0.33337837  0.28163482  1
  W  W7  1  0.66668302  0.33336605  0.65881211  1
  S  S8  1  0.33336386  0.66672872  0.32019824  1
  S  S9  1  0.66661558  0.33323016  0.05539270  1
  S  S10  1  0.66664452  0.33328805  0.13246796  1
  S  S11  1  0.33334372  0.66668844  0.24312119  1
