# generated using pymatgen
data_TeWS
_symmetry_space_group_name_H-M   'P 1'
_cell_length_a   3.36029198
_cell_length_b   3.36029058
_cell_length_c   38.36830275
_cell_angle_alpha   90.00019985
_cell_angle_beta   90.00000000
_cell_angle_gamma   120.00001380
_symmetry_Int_Tables_number   1
_chemical_formula_structural   TeWS
_chemical_formula_sum   'Te4 W4 S4'
_cell_volume   375.19497156
_cell_formula_units_Z   4
loop_
 _symmetry_equiv_pos_site_id
 _symmetry_equiv_pos_as_xyz
  1  'x, y, z'
loop_
 _atom_site_type_symbol
 _atom_site_label
 _atom_site_symmetry_multiplicity
 _atom_site_fract_x
 _atom_site_fract_y
 _atom_site_fract_z
 _atom_site_occupancy
  Te  Te0  1  0.33335694  0.66671488  0.70709217  1
  Te  Te1  1  0.66664306  0.33328512  0.04436583  1
  Te  Te2  1  0.66664796  0.33329493  0.14346595  1
  Te  Te3  1  0.33335204  0.66670507  0.60799205  1
  W  W4  1  0.33331077  0.66662154  0.09389669  1
  W  W5  1  0.33331124  0.66662247  0.46965415  1
  W  W6  1  0.66668876  0.33337753  0.28180385  1
  W  W7  1  0.66668923  0.33337846  0.65756131  1
  S  S8  1  0.33335471  0.66671043  0.32136404  1
  S  S9  1  0.66664529  0.33328957  0.43009396  1
  S  S10  1  0.66664604  0.33329107  0.50921979  1
  S  S11  1  0.33335396  0.66670893  0.24223821  1
