# generated using pymatgen
data_UB2Ru3
_symmetry_space_group_name_H-M   'P 1'
_cell_length_a   11.04154370
_cell_length_b   11.04154383
_cell_length_c   5.93591275
_cell_angle_alpha   90.00000000
_cell_angle_beta   90.00000000
_cell_angle_gamma   119.99999963
_symmetry_Int_Tables_number   1
_chemical_formula_structural   UB2Ru3
_chemical_formula_sum   'U8 B16 Ru24'
_cell_volume   626.72603827
_cell_formula_units_Z   8
loop_
 _symmetry_equiv_pos_site_id
 _symmetry_equiv_pos_as_xyz
  1  'x, y, z'
loop_
 _atom_site_type_symbol
 _atom_site_label
 _atom_site_symmetry_multiplicity
 _atom_site_fract_x
 _atom_site_fract_y
 _atom_site_fract_z
 _atom_site_occupancy
  U  U0  1  0.50000000  0.00000000  0.50000000  1
  U  U1  1  0.00000000  0.00000000  0.50000000  1
  U  U2  1  0.50000000  0.50000000  0.50000000  1
  U  U3  1  0.00000000  0.50000000  0.50000000  1
  U  U4  1  0.00000000  0.50000000  0.00000000  1
  U  U5  1  0.50000000  0.00000000  0.00000000  1
  U  U6  1  0.50000000  0.50000000  0.00000000  1
  U  U7  1  0.00000000  0.00000000  0.00000000  1
  B  B8  1  0.66666700  0.33333300  0.00013798  1
  B  B9  1  0.66699150  0.83368226  0.49994938  1
  B  B10  1  0.83330924  0.66699150  0.50005062  1
  B  B11  1  0.83347628  0.66722402  0.00001026  1
  B  B12  1  0.33300850  0.16631774  0.50005062  1
  B  B13  1  0.16631774  0.83330924  0.49994938  1
  B  B14  1  0.83368226  0.16669076  0.50005062  1
  B  B15  1  0.33333300  0.66666700  0.49995631  1
  B  B16  1  0.83374774  0.16652372  0.00001026  1
  B  B17  1  0.33277598  0.16625226  0.00001026  1
  B  B18  1  0.66666700  0.33333300  0.50004369  1
  B  B19  1  0.33333300  0.66666700  0.99986202  1
  B  B20  1  0.16669076  0.33300850  0.49994938  1
  B  B21  1  0.66722402  0.83374774  0.99998974  1
  B  B22  1  0.16625226  0.83347628  0.99998974  1
  B  B23  1  0.16652372  0.33277598  0.99998974  1
  Ru  Ru24  1  0.24994427  0.24987651  0.74998241  1
  Ru  Ru25  1  0.25042088  0.25033704  0.25009409  1
  Ru  Ru26  1  0.74972747  0.24975186  0.75018205  1
  Ru  Ru27  1  0.00008384  0.25042088  0.74990591  1
  Ru  Ru28  1  0.24981913  0.74979303  0.74997879  1
  Ru  Ru29  1  0.49997390  0.75018087  0.74997879  1
  Ru  Ru30  1  0.75018087  0.25020697  0.25002121  1
  Ru  Ru31  1  0.75012349  0.00006776  0.74998241  1
  Ru  Ru32  1  0.75005573  0.75012349  0.25001759  1
  Ru  Ru33  1  0.25020697  0.50002610  0.74997879  1
  Ru  Ru34  1  0.24975186  0.50002440  0.24981795  1
  Ru  Ru35  1  0.99991616  0.74957912  0.25009409  1
  Ru  Ru36  1  0.50002610  0.24981913  0.25002121  1
  Ru  Ru37  1  0.25027253  0.75024814  0.24981795  1
  Ru  Ru38  1  0.00006776  0.24994427  0.25001759  1
  Ru  Ru39  1  0.99993224  0.75005573  0.74998241  1
  Ru  Ru40  1  0.49997560  0.74972747  0.24981795  1
  Ru  Ru41  1  0.74979303  0.49997390  0.25002121  1
  Ru  Ru42  1  0.24987651  0.99993224  0.25001759  1
  Ru  Ru43  1  0.74966296  0.00008384  0.25009409  1
  Ru  Ru44  1  0.50002440  0.25027253  0.75018205  1
  Ru  Ru45  1  0.25033704  0.99991616  0.74990591  1
  Ru  Ru46  1  0.75024814  0.49997560  0.75018205  1
  Ru  Ru47  1  0.74957912  0.74966296  0.74990591  1
