# generated using pymatgen
data_Ce(PO3)4
_symmetry_space_group_name_H-M   'P 1'
_cell_length_a   9.13782300
_cell_length_b   14.00086018
_cell_length_c   16.64961662
_cell_angle_alpha   65.13662254
_cell_angle_beta   90.03728803
_cell_angle_gamma   90.08868846
_symmetry_Int_Tables_number   1
_chemical_formula_structural   Ce(PO3)4
_chemical_formula_sum   'Ce8 P32 O96'
_cell_volume   1932.67258464
_cell_formula_units_Z   8
loop_
 _symmetry_equiv_pos_site_id
 _symmetry_equiv_pos_as_xyz
  1  'x, y, z'
loop_
 _atom_site_type_symbol
 _atom_site_label
 _atom_site_symmetry_multiplicity
 _atom_site_fract_x
 _atom_site_fract_y
 _atom_site_fract_z
 _atom_site_occupancy
  Ce  Ce0  1  0.25000000  0.06945941  0.86108118  1
  Ce  Ce1  1  0.75000000  0.93054059  0.13891882  1
  Ce  Ce2  1  0.25036522  0.57909241  0.36138685  1
  Ce  Ce3  1  0.24963478  0.05952074  0.36138685  1
  Ce  Ce4  1  0.74963478  0.42090759  0.63861315  1
  Ce  Ce5  1  0.75036522  0.94047926  0.63861315  1
  Ce  Ce6  1  0.25000000  0.56815095  0.86369811  1
  Ce  Ce7  1  0.75000000  0.43184905  0.13630189  1
  P  P8  1  0.01194182  0.63506715  0.51803127  1
  P  P9  1  0.48805818  0.84690159  0.51803127  1
  P  P10  1  0.98805818  0.36493285  0.48196873  1
  P  P11  1  0.51194182  0.15309841  0.48196873  1
  P  P12  1  0.02744851  0.13433537  0.51757113  1
  P  P13  1  0.47255149  0.34809351  0.51757113  1
  P  P14  1  0.97255149  0.86566463  0.48242887  1
  P  P15  1  0.52744851  0.65190649  0.48242887  1
  P  P16  1  0.01705032  0.84956736  0.01327527  1
  P  P17  1  0.48294968  0.13715737  0.01327527  1
  P  P18  1  0.98294968  0.15043264  0.98672473  1
  P  P19  1  0.51705032  0.86284263  0.98672473  1
  P  P20  1  0.02212572  0.34444309  0.02253018  1
  P  P21  1  0.47787428  0.63302672  0.02253018  1
  P  P22  1  0.97787428  0.65555691  0.97746982  1
  P  P23  1  0.52212572  0.36697328  0.97746982  1
  P  P24  1  0.63986470  0.66967127  0.31385291  1
  P  P25  1  0.86013530  0.01647582  0.31385291  1
  P  P26  1  0.36013530  0.33032873  0.68614709  1
  P  P27  1  0.13986470  0.98352418  0.68614709  1
  P  P28  1  0.63344867  0.17074346  0.31371564  1
  P  P29  1  0.86655133  0.51554090  0.31371564  1
  P  P30  1  0.36655133  0.82925654  0.68628436  1
  P  P31  1  0.13344867  0.48445910  0.68628436  1
  P  P32  1  0.36187985  0.48351100  0.18996832  1
  P  P33  1  0.13812015  0.32652068  0.18996832  1
  P  P34  1  0.63812015  0.51648900  0.81003168  1
  P  P35  1  0.86187985  0.67347932  0.81003168  1
  P  P36  1  0.36515076  0.98497221  0.18157502  1
  P  P37  1  0.13484924  0.83345277  0.18157502  1
  P  P38  1  0.63484924  0.01502779  0.81842498  1
  P  P39  1  0.86515076  0.16654723  0.81842498  1
  O  O40  1  0.04835165  0.25840521  0.48123719  1
  O  O41  1  0.45164835  0.26035760  0.48123719  1
  O  O42  1  0.95164835  0.74159479  0.51876281  1
  O  O43  1  0.54835165  0.73964240  0.51876281  1
  O  O44  1  0.24410915  0.91980086  0.64804252  1
  O  O45  1  0.25589085  0.43215663  0.64804252  1
  O  O46  1  0.75589085  0.08019914  0.35195748  1
  O  O47  1  0.74410915  0.56784337  0.35195748  1
  O  O48  1  0.25000000  0.92850926  0.14298148  1
  O  O49  1  0.75000000  0.07149074  0.85701852  1
  O  O50  1  0.25000000  0.42459820  0.15080359  1
  O  O51  1  0.75000000  0.57540180  0.84919641  1
  O  O52  1  0.63268090  0.40289619  0.89417520  1
  O  O53  1  0.86731910  0.70292861  0.89417520  1
  O  O54  1  0.36731910  0.59710381  0.10582480  1
  O  O55  1  0.13268090  0.29707139  0.10582480  1
  O  O56  1  0.62473788  0.90252988  0.90190493  1
  O  O57  1  0.87526212  0.19556519  0.90190493  1
  O  O58  1  0.37526212  0.09747012  0.09809507  1
  O  O59  1  0.12473788  0.80443481  0.09809507  1
  O  O60  1  0.87816272  0.40267300  0.39811877  1
  O  O61  1  0.62183728  0.19920823  0.39811877  1
  O  O62  1  0.12183728  0.59732700  0.60188123  1
  O  O63  1  0.37816272  0.80079177  0.60188123  1
  O  O64  1  0.86237241  0.90409327  0.39892412  1
  O  O65  1  0.63762759  0.69698261  0.39892412  1
  O  O66  1  0.13762759  0.09590673  0.60107588  1
  O  O67  1  0.36237241  0.30301739  0.60107588  1
  O  O68  1  0.95657906  0.74072801  0.01679050  1
  O  O69  1  0.54342094  0.24248149  0.01679050  1
  O  O70  1  0.04342094  0.25927199  0.98320950  1
  O  O71  1  0.45657906  0.75751851  0.98320950  1
  O  O72  1  0.88262227  0.56141284  0.54018259  1
  O  O73  1  0.61737773  0.89840458  0.54018259  1
  O  O74  1  0.11737773  0.43858716  0.45981741  1
  O  O75  1  0.38262227  0.10159542  0.45981741  1
  O  O76  1  0.90918666  0.34429640  0.56612482  1
  O  O77  1  0.59081334  0.08957878  0.56612482  1
  O  O78  1  0.09081334  0.65570360  0.43387518  1
  O  O79  1  0.40918666  0.91042122  0.43387518  1
  O  O80  1  0.87500172  0.09924088  0.55060836  1
  O  O81  1  0.62499828  0.35015076  0.55060836  1
  O  O82  1  0.12499828  0.90075912  0.44939164  1
  O  O83  1  0.37500172  0.64984924  0.44939164  1
  O  O84  1  0.08393292  0.10598398  0.44586763  1
  O  O85  1  0.41606708  0.44814839  0.44586763  1
  O  O86  1  0.91606708  0.89401602  0.55413237  1
  O  O87  1  0.58393292  0.55185161  0.55413237  1
  O  O88  1  0.61078092  0.06239487  0.03386965  1
  O  O89  1  0.88921908  0.90373547  0.03386965  1
  O  O90  1  0.38921908  0.93760513  0.96613035  1
  O  O91  1  0.11078092  0.09626453  0.96613035  1
  O  O92  1  0.39887865  0.15957116  0.93035534  1
  O  O93  1  0.10112135  0.91007350  0.93035534  1
  O  O94  1  0.60112135  0.84042884  0.06964466  1
  O  O95  1  0.89887865  0.08992650  0.06964466  1
  O  O96  1  0.63152012  0.60011464  0.05434809  1
  O  O97  1  0.86847988  0.34553727  0.05434809  1
  O  O98  1  0.36847988  0.39988536  0.94565191  1
  O  O99  1  0.13152012  0.65446273  0.94565191  1
  O  O100  1  0.41939472  0.60047614  0.95314825  1
  O  O101  1  0.08060528  0.44637561  0.95314825  1
  O  O102  1  0.58060528  0.39952386  0.04685175  1
  O  O103  1  0.91939472  0.55362439  0.04685175  1
  O  O104  1  0.49055680  0.63986500  0.29497660  1
  O  O105  1  0.00944320  0.06515840  0.29497660  1
  O  O106  1  0.50944320  0.36013500  0.70502340  1
  O  O107  1  0.99055680  0.93484160  0.70502340  1
  O  O108  1  0.77974599  0.99926159  0.24201709  1
  O  O109  1  0.72025401  0.75872131  0.24201709  1
  O  O110  1  0.22025401  0.00073841  0.75798291  1
  O  O111  1  0.27974599  0.24127869  0.75798291  1
  O  O112  1  0.49161341  0.12856800  0.29734964  1
  O  O113  1  0.00838659  0.57408236  0.29734964  1
  O  O114  1  0.50838659  0.87143200  0.70265036  1
  O  O115  1  0.99161341  0.42591764  0.70265036  1
  O  O116  1  0.79869366  0.49794440  0.23847813  1
  O  O117  1  0.70130634  0.26357746  0.23847813  1
  O  O118  1  0.20130634  0.50205560  0.76152187  1
  O  O119  1  0.29869366  0.73642254  0.76152187  1
  O  O120  1  0.00932375  0.63731064  0.79471623  1
  O  O121  1  0.49067625  0.56797313  0.79471623  1
  O  O122  1  0.99067625  0.36268936  0.20528377  1
  O  O123  1  0.50932375  0.43202687  0.20528377  1
  O  O124  1  0.71190722  0.50115403  0.73547221  1
  O  O125  1  0.78809278  0.76337377  0.73547221  1
  O  O126  1  0.28809278  0.49884597  0.26452779  1
  O  O127  1  0.21190722  0.23662623  0.26452779  1
  O  O128  1  0.00974307  0.12973526  0.79968496  1
  O  O129  1  0.49025693  0.07057978  0.79968496  1
  O  O130  1  0.99025693  0.87026474  0.20031504  1
  O  O131  1  0.50974307  0.92942022  0.20031504  1
  O  O132  1  0.70933381  0.99722169  0.74544611  1
  O  O133  1  0.79066619  0.25733221  0.74544611  1
  O  O134  1  0.29066619  0.00277831  0.25455389  1
  O  O135  1  0.20933381  0.74266779  0.25455389  1
