# generated using pymatgen
data_Ca5(RuN3)2
_symmetry_space_group_name_H-M   'P 1'
_cell_length_a   10.08703453
_cell_length_b   6.47268877
_cell_length_c   12.61936189
_cell_angle_alpha   90.00000000
_cell_angle_beta   102.69986397
_cell_angle_gamma   90.00000000
_symmetry_Int_Tables_number   1
_chemical_formula_structural   Ca5(RuN3)2
_chemical_formula_sum   'Ca20 Ru8 N24'
_cell_volume   803.76392968
_cell_formula_units_Z   4
loop_
 _symmetry_equiv_pos_site_id
 _symmetry_equiv_pos_as_xyz
  1  'x, y, z'
loop_
 _atom_site_type_symbol
 _atom_site_label
 _atom_site_symmetry_multiplicity
 _atom_site_fract_x
 _atom_site_fract_y
 _atom_site_fract_z
 _atom_site_occupancy
  Ca  Ca0  1  0.50000000  0.12601687  0.75000000  1
  Ca  Ca1  1  0.50000000  0.87398313  0.25000000  1
  Ca  Ca2  1  0.43740742  0.75948986  0.49963912  1
  Ca  Ca3  1  0.56259258  0.75948986  0.00036088  1
  Ca  Ca4  1  0.56259258  0.24051014  0.50036088  1
  Ca  Ca5  1  0.43740742  0.24051014  0.99963912  1
  Ca  Ca6  1  0.84060180  0.11071652  0.78090922  1
  Ca  Ca7  1  0.15939820  0.11071652  0.71909078  1
  Ca  Ca8  1  0.15939820  0.88928348  0.21909078  1
  Ca  Ca9  1  0.84060180  0.88928348  0.28090922  1
  Ca  Ca10  1  0.00000000  0.62601687  0.75000000  1
  Ca  Ca11  1  0.00000000  0.37398313  0.25000000  1
  Ca  Ca12  1  0.93740742  0.25948986  0.49963912  1
  Ca  Ca13  1  0.06259258  0.25948986  0.00036088  1
  Ca  Ca14  1  0.06259258  0.74051014  0.50036088  1
  Ca  Ca15  1  0.93740742  0.74051014  0.99963912  1
  Ca  Ca16  1  0.34060180  0.61071652  0.78090922  1
  Ca  Ca17  1  0.65939820  0.61071652  0.71909078  1
  Ca  Ca18  1  0.65939820  0.38928348  0.21909078  1
  Ca  Ca19  1  0.34060180  0.38928348  0.28090922  1
  Ru  Ru20  1  0.22991100  0.90803359  0.94136075  1
  Ru  Ru21  1  0.77008900  0.90803359  0.55863925  1
  Ru  Ru22  1  0.77008900  0.09196641  0.05863925  1
  Ru  Ru23  1  0.22991100  0.09196641  0.44136075  1
  Ru  Ru24  1  0.72991100  0.40803359  0.94136075  1
  Ru  Ru25  1  0.27008900  0.40803359  0.55863925  1
  Ru  Ru26  1  0.27008900  0.59196641  0.05863925  1
  Ru  Ru27  1  0.72991100  0.59196641  0.44136075  1
  N  N28  1  0.35770476  0.96586559  0.85403971  1
  N  N29  1  0.64229524  0.96586559  0.64596029  1
  N  N30  1  0.64229524  0.03413441  0.14596029  1
  N  N31  1  0.35770476  0.03413441  0.35403971  1
  N  N32  1  0.70528611  0.03157034  0.91313642  1
  N  N33  1  0.29471389  0.03157034  0.58686358  1
  N  N34  1  0.29471389  0.96842966  0.08686358  1
  N  N35  1  0.70528611  0.96842966  0.41313642  1
  N  N36  1  0.04616347  0.96250127  0.87383228  1
  N  N37  1  0.95383653  0.96250127  0.62616772  1
  N  N38  1  0.95383653  0.03749873  0.12616772  1
  N  N39  1  0.04616347  0.03749873  0.37383228  1
  N  N40  1  0.85770476  0.46586559  0.85403971  1
  N  N41  1  0.14229524  0.46586559  0.64596029  1
  N  N42  1  0.14229524  0.53413441  0.14596029  1
  N  N43  1  0.85770476  0.53413441  0.35403971  1
  N  N44  1  0.20528611  0.53157034  0.91313642  1
  N  N45  1  0.79471389  0.53157034  0.58686358  1
  N  N46  1  0.79471389  0.46842966  0.08686358  1
  N  N47  1  0.20528611  0.46842966  0.41313642  1
  N  N48  1  0.54616347  0.46250127  0.87383228  1
  N  N49  1  0.45383653  0.46250127  0.62616772  1
  N  N50  1  0.45383653  0.53749873  0.12616772  1
  N  N51  1  0.54616347  0.53749873  0.37383228  1
