# generated using pymatgen
data_Sr8Co3N8
_symmetry_space_group_name_H-M   'P 1'
_cell_length_a   9.73236115
_cell_length_b   5.33827086
_cell_length_c   7.46021294
_cell_angle_alpha   89.99999959
_cell_angle_beta   74.80167892
_cell_angle_gamma   74.08246047
_symmetry_Int_Tables_number   1
_chemical_formula_structural   Sr8Co3N8
_chemical_formula_sum   'Sr8 Co3 N8'
_cell_volume   358.60908710
_cell_formula_units_Z   1
loop_
 _symmetry_equiv_pos_site_id
 _symmetry_equiv_pos_as_xyz
  1  'x, y, z'
loop_
 _atom_site_type_symbol
 _atom_site_label
 _atom_site_symmetry_multiplicity
 _atom_site_fract_x
 _atom_site_fract_y
 _atom_site_fract_z
 _atom_site_occupancy
  Sr  Sr0  1  0.05906764  0.97046568  0.73544792  1
  Sr  Sr1  1  0.94093236  0.02953432  0.26455208  1
  Sr  Sr2  1  0.66601756  0.66699172  0.47285323  1
  Sr  Sr3  1  0.33398244  0.33300828  0.52714677  1
  Sr  Sr4  1  0.80842910  0.59578595  0.95951261  1
  Sr  Sr5  1  0.19157090  0.40421405  0.04048739  1
  Sr  Sr6  1  0.59925443  0.20037328  0.80991456  1
  Sr  Sr7  1  0.40074557  0.79962672  0.19008544  1
  Co  Co8  1  -0.00000000  0.50000000  0.50000000  1
  Co  Co9  1  0.37360514  0.81319793  0.79413951  1
  Co  Co10  1  0.62639486  0.18680207  0.20586049  1
  N  N11  1  0.21260382  0.89369859  0.98851091  1
  N  N12  1  0.78739618  0.10630141  0.01148909  1
  N  N13  1  0.35416336  0.82291882  0.56816692  1
  N  N14  1  0.64583664  0.17708118  0.43183308  1
  N  N15  1  0.55147315  0.72426343  0.83312291  1
  N  N16  1  0.44852685  0.27573657  0.16687709  1
  N  N17  1  0.05159441  0.47420330  0.71478175  1
  N  N18  1  0.94840559  0.52579670  0.28521825  1
