# generated using pymatgen
data_TeWS
_symmetry_space_group_name_H-M   'P 1'
_cell_length_a   3.36070145
_cell_length_b   3.36069222
_cell_length_c   38.39031729
_cell_angle_alpha   89.99997291
_cell_angle_beta   90.00000000
_cell_angle_gamma   120.00009095
_symmetry_Int_Tables_number   1
_chemical_formula_structural   TeWS
_chemical_formula_sum   'Te4 W4 S4'
_cell_volume   375.50057746
_cell_formula_units_Z   4
loop_
 _symmetry_equiv_pos_site_id
 _symmetry_equiv_pos_as_xyz
  1  'x, y, z'
loop_
 _atom_site_type_symbol
 _atom_site_label
 _atom_site_symmetry_multiplicity
 _atom_site_fract_x
 _atom_site_fract_y
 _atom_site_fract_z
 _atom_site_occupancy
  Te  Te0  1  0.33335203  0.66670505  0.33132854  1
  Te  Te1  1  0.33335605  0.66671309  0.70706422  1
  Te  Te2  1  0.33335075  0.66670250  0.23224967  1
  Te  Te3  1  0.33335142  0.66670384  0.60801417  1
  W  W4  1  0.33331290  0.66662581  0.09391034  1
  W  W5  1  0.33329781  0.66659562  0.46967178  1
  W  W6  1  0.66668742  0.33337483  0.28180503  1
  W  W7  1  0.66668839  0.33337678  0.65755683  1
  S  S8  1  0.66664768  0.33329436  0.05437110  1
  S  S9  1  0.66665370  0.33330641  0.43013130  1
  S  S10  1  0.66664810  0.33329520  0.13345559  1
  S  S11  1  0.66665375  0.33330650  0.50918945  1
