# generated using pymatgen
data_CaFe(PO3)4
_symmetry_space_group_name_H-M   'P 1'
_cell_length_a   7.60477494
_cell_length_b   7.59766691
_cell_length_c   10.11556755
_cell_angle_alpha   98.47061087
_cell_angle_beta   110.87387561
_cell_angle_gamma   109.30032538
_symmetry_Int_Tables_number   1
_chemical_formula_structural   CaFe(PO3)4
_chemical_formula_sum   'Ca2 Fe2 P8 O24'
_cell_volume   491.57648744
_cell_formula_units_Z   2
loop_
 _symmetry_equiv_pos_site_id
 _symmetry_equiv_pos_as_xyz
  1  'x, y, z'
loop_
 _atom_site_type_symbol
 _atom_site_label
 _atom_site_symmetry_multiplicity
 _atom_site_fract_x
 _atom_site_fract_y
 _atom_site_fract_z
 _atom_site_occupancy
  Ca  Ca0  1  0.70449918  0.95320596  0.75021912  1
  Ca  Ca1  1  0.29716405  0.04653733  0.24979706  1
  Fe  Fe2  1  0.49999463  0.49924535  0.50016164  1
  Fe  Fe3  1  0.50044353  0.99928486  0.99984226  1
  P  P4  1  0.50279890  0.31901170  0.80548394  1
  P  P5  1  0.01472737  0.69696753  0.69431871  1
  P  P6  1  0.49787115  0.68016176  0.19502597  1
  P  P7  1  0.98630151  0.30272833  0.30485264  1
  P  P8  1  0.75322860  0.71832869  0.02504521  1
  P  P9  1  0.19513569  0.72847902  0.47551961  1
  P  P10  1  0.24864318  0.28069966  0.97597565  1
  P  P11  1  0.80641817  0.27123547  0.52422419  1
  O  O12  1  0.31466805  0.32045549  0.84392557  1
  O  O13  1  0.97806568  0.47032129  0.65556774  1
  O  O14  1  0.68606221  0.67890908  0.15664526  1
  O  O15  1  0.02376424  0.52963568  0.34369405  1
  O  O16  1  0.70264170  0.50130957  0.93508018  1
  O  O17  1  0.06819693  0.76813377  0.56532256  1
  O  O18  1  0.29798502  0.49743098  0.06564175  1
  O  O19  1  0.93239187  0.23146266  0.43367157  1
  O  O20  1  0.46405442  0.35297813  0.65833840  1
  O  O21  1  0.19539786  0.80531600  0.84178605  1
  O  O22  1  0.53670453  0.64646841  0.34225056  1
  O  O23  1  0.80574564  0.19450620  0.15733951  1
  O  O24  1  0.53663937  0.13775668  0.82752609  1
  O  O25  1  0.81122811  0.70821993  0.67180780  1
  O  O26  1  0.46388016  0.86122486  0.17248803  1
  O  O27  1  0.18969348  0.29102285  0.32759825  1
  O  O28  1  0.61920684  0.80143350  0.92725297  1
  O  O29  1  0.37553737  0.69157439  0.57317556  1
  O  O30  1  0.38438082  0.19897908  0.07378243  1
  O  O31  1  0.62543584  0.30775917  0.42704822  1
  O  O32  1  0.97993742  0.82916509  0.08964391  1
  O  O33  1  0.24201916  0.89102164  0.41129653  1
  O  O34  1  0.02224306  0.16805995  0.91202489  1
  O  O35  1  0.76086426  0.10920392  0.58914411  1
