# generated using pymatgen
data_Na4Mg3P4O15
_symmetry_space_group_name_H-M   'P 1'
_cell_length_a   18.20090018
_cell_length_b   6.59298909
_cell_length_c   10.63309796
_cell_angle_alpha   90.00000000
_cell_angle_beta   90.00000000
_cell_angle_gamma   90.00000000
_symmetry_Int_Tables_number   1
_chemical_formula_structural   Na4Mg3P4O15
_chemical_formula_sum   'Na16 Mg12 P16 O60'
_cell_volume   1275.95406507
_cell_formula_units_Z   4
loop_
 _symmetry_equiv_pos_site_id
 _symmetry_equiv_pos_as_xyz
  1  'x, y, z'
loop_
 _atom_site_type_symbol
 _atom_site_label
 _atom_site_symmetry_multiplicity
 _atom_site_fract_x
 _atom_site_fract_y
 _atom_site_fract_z
 _atom_site_occupancy
  Na  Na0  1  0.89318437  0.07004966  0.23557922  1
  Na  Na1  1  0.10681563  0.57004966  0.76442078  1
  Na  Na2  1  0.60681563  0.57004966  0.73557922  1
  Na  Na3  1  0.39318437  0.07004966  0.26442078  1
  Na  Na4  1  0.79377844  0.49043381  0.75169151  1
  Na  Na5  1  0.20622156  0.99043381  0.24830849  1
  Na  Na6  1  0.70622156  0.99043381  0.25169151  1
  Na  Na7  1  0.29377844  0.49043381  0.74830849  1
  Na  Na8  1  0.99226032  0.45792118  0.52485103  1
  Na  Na9  1  0.00773968  0.95792118  0.47514897  1
  Na  Na10  1  0.50773968  0.95792118  0.02485103  1
  Na  Na11  1  0.49226032  0.45792118  0.97514897  1
  Na  Na12  1  0.96130141  0.31388759  0.95884352  1
  Na  Na13  1  0.03869859  0.81388759  0.04115648  1
  Na  Na14  1  0.53869859  0.81388759  0.45884352  1
  Na  Na15  1  0.46130141  0.31388759  0.54115648  1
  Mg  Mg16  1  0.63972678  0.23905664  0.00584602  1
  Mg  Mg17  1  0.36027322  0.73905664  0.99415398  1
  Mg  Mg18  1  0.86027322  0.73905664  0.50584602  1
  Mg  Mg19  1  0.13972678  0.23905664  0.49415398  1
  Mg  Mg20  1  0.73932818  0.97125337  0.75555337  1
  Mg  Mg21  1  0.26067182  0.47125337  0.24444663  1
  Mg  Mg22  1  0.76067182  0.47125337  0.25555337  1
  Mg  Mg23  1  0.23932818  0.97125337  0.74444663  1
  Mg  Mg24  1  0.66666452  0.24984601  0.49479474  1
  Mg  Mg25  1  0.33333548  0.74984601  0.50520526  1
  Mg  Mg26  1  0.83333548  0.74984601  0.99479474  1
  Mg  Mg27  1  0.16666452  0.24984601  0.00520526  1
  P  P28  1  0.81990959  0.23194941  0.51225629  1
  P  P29  1  0.18009041  0.73194941  0.48774371  1
  P  P30  1  0.68009041  0.73194941  0.01225629  1
  P  P31  1  0.31990959  0.23194941  0.98774371  1
  P  P32  1  0.79193954  0.24211001  0.99691769  1
  P  P33  1  0.20806046  0.74211001  0.00308231  1
  P  P34  1  0.70806046  0.74211001  0.49691769  1
  P  P35  1  0.29193954  0.24211001  0.50308231  1
  P  P36  1  0.56919872  0.09968599  0.73610703  1
  P  P37  1  0.43080128  0.59968599  0.26389297  1
  P  P38  1  0.93080128  0.59968599  0.23610703  1
  P  P39  1  0.06919872  0.09968599  0.76389297  1
  P  P40  1  0.44853568  0.78897444  0.72914129  1
  P  P41  1  0.55146432  0.28897444  0.27085871  1
  P  P42  1  0.05146432  0.28897444  0.22914129  1
  P  P43  1  0.94853568  0.78897444  0.77085871  1
  O  O44  1  0.56131378  0.21206659  0.86230241  1
  O  O45  1  0.43868622  0.71206659  0.13769759  1
  O  O46  1  0.93868622  0.71206659  0.36230241  1
  O  O47  1  0.06131378  0.21206659  0.63769759  1
  O  O48  1  0.73659636  0.20251523  0.88583846  1
  O  O49  1  0.26340364  0.70251523  0.11416154  1
  O  O50  1  0.76340364  0.70251523  0.38583846  1
  O  O51  1  0.23659636  0.20251523  0.61416154  1
  O  O52  1  0.84248938  0.06131086  0.02381635  1
  O  O53  1  0.15751062  0.56131086  0.97618365  1
  O  O54  1  0.65751062  0.56131086  0.52381635  1
  O  O55  1  0.34248938  0.06131086  0.47618365  1
  O  O56  1  0.83811007  0.43205749  0.96405277  1
  O  O57  1  0.16188993  0.93205749  0.03594723  1
  O  O58  1  0.66188993  0.93205749  0.46405277  1
  O  O59  1  0.33811007  0.43205749  0.53594723  1
  O  O60  1  0.58407036  0.24679102  0.62740693  1
  O  O61  1  0.41592964  0.74679102  0.37259307  1
  O  O62  1  0.91592964  0.74679102  0.12740693  1
  O  O63  1  0.08407036  0.24679102  0.87259307  1
  O  O64  1  0.76807771  0.25744798  0.39520110  1
  O  O65  1  0.23192229  0.75744798  0.60479890  1
  O  O66  1  0.73192229  0.75744798  0.89520110  1
  O  O67  1  0.26807771  0.25744798  0.10479890  1
  O  O68  1  0.86349648  0.42684244  0.54355569  1
  O  O69  1  0.13650352  0.92684244  0.45644431  1
  O  O70  1  0.63650352  0.92684244  0.04355569  1
  O  O71  1  0.36349648  0.42684244  0.95644431  1
  O  O72  1  0.87209280  0.05163366  0.48761272  1
  O  O73  1  0.12790720  0.55163366  0.51238728  1
  O  O74  1  0.62790720  0.55163366  0.98761272  1
  O  O75  1  0.37209280  0.05163366  0.01238728  1
  O  O76  1  0.76082688  0.77219638  0.61279464  1
  O  O77  1  0.23917312  0.27219638  0.38720536  1
  O  O78  1  0.73917312  0.27219638  0.11279464  1
  O  O79  1  0.26082688  0.77219638  0.88720536  1
  O  O80  1  0.76357202  0.19659632  0.62293992  1
  O  O81  1  0.23642798  0.69659632  0.37706008  1
  O  O82  1  0.73642798  0.69659632  0.12293992  1
  O  O83  1  0.26357202  0.19659632  0.87706008  1
  O  O84  1  0.87572766  0.42653875  0.24143630  1
  O  O85  1  0.12427234  0.92653875  0.75856370  1
  O  O86  1  0.62427234  0.92653875  0.74143630  1
  O  O87  1  0.37572766  0.42653875  0.25856370  1
  O  O88  1  0.48693545  0.01356409  0.70139357  1
  O  O89  1  0.51306455  0.51356409  0.29860643  1
  O  O90  1  0.01306455  0.51356409  0.20139357  1
  O  O91  1  0.98693545  0.01356409  0.79860643  1
  O  O92  1  0.36864542  0.81294803  0.68748712  1
  O  O93  1  0.63135458  0.31294803  0.31251288  1
  O  O94  1  0.13135458  0.31294803  0.18748712  1
  O  O95  1  0.86864542  0.81294803  0.81251288  1
  O  O96  1  0.49150301  0.63897423  0.64887418  1
  O  O97  1  0.50849699  0.13897423  0.35112582  1
  O  O98  1  0.00849699  0.13897423  0.14887418  1
  O  O99  1  0.99150301  0.63897423  0.85112582  1
  O  O100  1  0.45430320  0.75164885  0.87144150  1
  O  O101  1  0.54569680  0.25164885  0.12855850  1
  O  O102  1  0.04569680  0.25164885  0.37144150  1
  O  O103  1  0.95430320  0.75164885  0.62855850  1
