# generated using pymatgen
data_TeWS
_symmetry_space_group_name_H-M   'P 1'
_cell_length_a   3.35759538
_cell_length_b   3.35759695
_cell_length_c   39.39591026
_cell_angle_alpha   89.99750953
_cell_angle_beta   90.00000000
_cell_angle_gamma   119.99998450
_symmetry_Int_Tables_number   1
_chemical_formula_structural   TeWS
_chemical_formula_sum   'Te4 W4 S4'
_cell_volume   384.62610697
_cell_formula_units_Z   4
loop_
 _symmetry_equiv_pos_site_id
 _symmetry_equiv_pos_as_xyz
  1  'x, y, z'
loop_
 _atom_site_type_symbol
 _atom_site_label
 _atom_site_symmetry_multiplicity
 _atom_site_fract_x
 _atom_site_fract_y
 _atom_site_fract_z
 _atom_site_occupancy
  Te  Te0  1  0.33334263  0.66668625  0.32904113  1
  Te  Te1  1  0.66665737  0.33331375  0.42241687  1
  Te  Te2  1  0.66661572  0.33323044  0.51897902  1
  Te  Te3  1  0.33338428  0.66676956  0.23247898  1
  W  W4  1  0.33329989  0.66659978  0.09382138  1
  W  W5  1  0.33330517  0.66661034  0.47073749  1
  W  W6  1  0.66669483  0.33338966  0.28072051  1
  W  W7  1  0.66670011  0.33340022  0.65763662  1
  S  S8  1  0.33335963  0.66672027  0.69613873  1
  S  S9  1  0.66664037  0.33327973  0.05531927  1
  S  S10  1  0.66662368  0.33324636  0.13235818  1
  S  S11  1  0.33337632  0.66675364  0.61909982  1
