# generated using pymatgen
data_KVN2
_symmetry_space_group_name_H-M   'P 1'
_cell_length_a   5.71496072
_cell_length_b   11.49090219
_cell_length_c   16.02342754
_cell_angle_alpha   90.00000000
_cell_angle_beta   90.00000000
_cell_angle_gamma   90.00000000
_symmetry_Int_Tables_number   1
_chemical_formula_structural   KVN2
_chemical_formula_sum   'K16 V16 N32'
_cell_volume   1052.25936228
_cell_formula_units_Z   16
loop_
 _symmetry_equiv_pos_site_id
 _symmetry_equiv_pos_as_xyz
  1  'x, y, z'
loop_
 _atom_site_type_symbol
 _atom_site_label
 _atom_site_symmetry_multiplicity
 _atom_site_fract_x
 _atom_site_fract_y
 _atom_site_fract_z
 _atom_site_occupancy
  K  K0  1  0.24485949  0.00098183  0.43686982  1
  K  K1  1  0.74485949  0.49901817  0.56313018  1
  K  K2  1  0.75514051  0.50098183  0.06313018  1
  K  K3  1  0.25514051  0.99901817  0.93686982  1
  K  K4  1  0.75514051  0.99901817  0.56313018  1
  K  K5  1  0.25514051  0.50098183  0.43686982  1
  K  K6  1  0.24485949  0.49901817  0.93686982  1
  K  K7  1  0.74485949  0.00098183  0.06313018  1
  K  K8  1  0.30991809  0.25771199  0.31208297  1
  K  K9  1  0.80991809  0.24228801  0.68791703  1
  K  K10  1  0.69008191  0.75771199  0.18791703  1
  K  K11  1  0.19008191  0.74228801  0.81208297  1
  K  K12  1  0.69008191  0.74228801  0.68791703  1
  K  K13  1  0.19008191  0.75771199  0.31208297  1
  K  K14  1  0.30991809  0.24228801  0.81208297  1
  K  K15  1  0.80991809  0.25771199  0.18791703  1
  V  V16  1  0.73916632  0.00761828  0.31252974  1
  V  V17  1  0.23916632  0.49238172  0.68747026  1
  V  V18  1  0.26083368  0.50761828  0.18747026  1
  V  V19  1  0.76083368  0.99238172  0.81252974  1
  V  V20  1  0.26083368  0.99238172  0.68747026  1
  V  V21  1  0.76083368  0.50761828  0.31252974  1
  V  V22  1  0.73916632  0.49238172  0.81252974  1
  V  V23  1  0.23916632  0.00761828  0.18747026  1
  V  V24  1  0.78805281  0.26142218  0.43825635  1
  V  V25  1  0.28805281  0.23857782  0.56174365  1
  V  V26  1  0.21194719  0.76142218  0.06174365  1
  V  V27  1  0.71194719  0.73857782  0.93825635  1
  V  V28  1  0.21194719  0.73857782  0.56174365  1
  V  V29  1  0.71194719  0.76142218  0.43825635  1
  V  V30  1  0.78805281  0.23857782  0.93825635  1
  V  V31  1  0.28805281  0.26142218  0.06174365  1
  N  N32  1  0.08632622  0.26981230  0.47737697  1
  N  N33  1  0.58632622  0.23018770  0.52262303  1
  N  N34  1  0.91367378  0.76981230  0.02262303  1
  N  N35  1  0.41367378  0.73018770  0.97737697  1
  N  N36  1  0.91367378  0.73018770  0.52262303  1
  N  N37  1  0.41367378  0.76981230  0.47737697  1
  N  N38  1  0.08632622  0.23018770  0.97737697  1
  N  N39  1  0.58632622  0.26981230  0.02262303  1
  N  N40  1  0.70751495  0.39998148  0.39300663  1
  N  N41  1  0.20751495  0.10001852  0.60699337  1
  N  N42  1  0.29248505  0.89998148  0.10699337  1
  N  N43  1  0.79248505  0.60001852  0.89300663  1
  N  N44  1  0.29248505  0.60001852  0.60699337  1
  N  N45  1  0.79248505  0.89998148  0.39300663  1
  N  N46  1  0.70751495  0.10001852  0.89300663  1
  N  N47  1  0.20751495  0.39998148  0.10699337  1
  N  N48  1  0.76911666  0.15117070  0.35752722  1
  N  N49  1  0.26911666  0.34882930  0.64247278  1
  N  N50  1  0.23088334  0.65117070  0.14247278  1
  N  N51  1  0.73088334  0.84882930  0.85752722  1
  N  N52  1  0.23088334  0.84882930  0.64247278  1
  N  N53  1  0.73088334  0.65117070  0.35752722  1
  N  N54  1  0.76911666  0.34882930  0.85752722  1
  N  N55  1  0.26911666  0.15117070  0.14247278  1
  N  N56  1  0.55359252  0.48892457  0.22806040  1
  N  N57  1  0.05359252  0.01107543  0.77193960  1
  N  N58  1  0.44640748  0.98892457  0.27193960  1
  N  N59  1  0.94640748  0.51107543  0.72806040  1
  N  N60  1  0.44640748  0.51107543  0.77193960  1
  N  N61  1  0.94640748  0.98892457  0.22806040  1
  N  N62  1  0.55359252  0.01107543  0.72806040  1
  N  N63  1  0.05359252  0.48892457  0.27193960  1
