# generated using pymatgen
data_Zn(CuO2)2
_symmetry_space_group_name_H-M   'P 1'
_cell_length_a   5.47489983
_cell_length_b   5.47490025
_cell_length_c   6.66595468
_cell_angle_alpha   114.24639208
_cell_angle_beta   114.24639136
_cell_angle_gamma   89.99999782
_symmetry_Int_Tables_number   1
_chemical_formula_structural   Zn(CuO2)2
_chemical_formula_sum   'Zn2 Cu4 O8'
_cell_volume   162.65894259
_cell_formula_units_Z   2
loop_
 _symmetry_equiv_pos_site_id
 _symmetry_equiv_pos_as_xyz
  1  'x, y, z'
loop_
 _atom_site_type_symbol
 _atom_site_label
 _atom_site_symmetry_multiplicity
 _atom_site_fract_x
 _atom_site_fract_y
 _atom_site_fract_z
 _atom_site_occupancy
  Zn  Zn0  1  0.37500000  0.62500000  0.75000000  1
  Zn  Zn1  1  0.62500000  0.37500000  0.25000000  1
  Cu  Cu2  1  -0.00000000  0.00000000  0.50000000  1
  Cu  Cu3  1  -0.00000000  0.50000000  -0.00000000  1
  Cu  Cu4  1  0.50000000  0.00000000  0.50000000  1
  Cu  Cu5  1  -0.00000000  0.00000000  -0.00000000  1
  O  O6  1  0.74643049  0.76883570  0.49286098  1
  O  O7  1  0.77597572  0.25356951  0.00713902  1
  O  O8  1  0.23116430  0.25356951  0.00713902  1
  O  O9  1  0.25356951  0.23116430  0.50713902  1
  O  O10  1  0.25356951  0.77597572  0.50713902  1
  O  O11  1  0.22402428  0.74643049  0.99286098  1
  O  O12  1  0.74643049  0.22402428  0.49286098  1
  O  O13  1  0.76883570  0.74643049  0.99286098  1
