# generated using pymatgen
data_Ca3Mn3(AsO4)4
_symmetry_space_group_name_H-M   'P 1'
_cell_length_a   5.24923631
_cell_length_b   9.28126075
_cell_length_c   15.78869554
_cell_angle_alpha   94.59014240
_cell_angle_beta   90.00000000
_cell_angle_gamma   90.00000000
_symmetry_Int_Tables_number   1
_chemical_formula_structural   Ca3Mn3(AsO4)4
_chemical_formula_sum   'Ca6 Mn6 As8 O32'
_cell_volume   766.75069843
_cell_formula_units_Z   2
loop_
 _symmetry_equiv_pos_site_id
 _symmetry_equiv_pos_as_xyz
  1  'x, y, z'
loop_
 _atom_site_type_symbol
 _atom_site_label
 _atom_site_symmetry_multiplicity
 _atom_site_fract_x
 _atom_site_fract_y
 _atom_site_fract_z
 _atom_site_occupancy
  Ca  Ca0  1  0.96033658  0.04462793  0.73012035  1
  Ca  Ca1  1  0.46033658  0.45537207  0.76987965  1
  Ca  Ca2  1  0.03966342  0.95537207  0.26987965  1
  Ca  Ca3  1  0.53966342  0.54462793  0.23012035  1
  Ca  Ca4  1  0.00000000  -0.00000000  -0.00000000  1
  Ca  Ca5  1  0.50000000  0.50000000  0.50000000  1
  Mn  Mn6  1  0.01590537  0.31457950  0.12241214  1
  Mn  Mn7  1  0.98409463  0.68541950  0.87758786  1
  Mn  Mn8  1  0.51590537  0.18542050  0.37758786  1
  Mn  Mn9  1  0.48409463  0.81458050  0.62241214  1
  Mn  Mn10  1  0.50000000  0.50000000  -0.00000000  1
  Mn  Mn11  1  0.00000000  -0.00000000  0.50000000  1
  As  As12  1  0.49393480  0.88126920  0.84294279  1
  As  As13  1  0.00772382  0.33764941  0.90091958  1
  As  As14  1  0.50772382  0.16235059  0.59908042  1
  As  As15  1  0.49227618  0.83764941  0.40091958  1
  As  As16  1  0.50606520  0.11873080  0.15705721  1
  As  As17  1  0.99227618  0.66235059  0.09908042  1
  As  As18  1  0.00606520  0.38126920  0.34294279  1
  As  As19  1  0.99393480  0.61873080  0.65705721  1
  O  O20  1  0.05893071  0.57383807  0.75914222  1
  O  O21  1  0.55353620  0.25398762  0.51029828  1
  O  O22  1  0.11533723  0.24677443  0.81027614  1
  O  O23  1  0.08401013  0.79735665  0.64786126  1
  O  O24  1  0.88466277  0.75322557  0.18972386  1
  O  O25  1  0.44106929  0.07383807  0.25914222  1
  O  O26  1  0.61533723  0.25322557  0.68972386  1
  O  O27  1  0.80116025  0.89990589  0.39375238  1
  O  O28  1  0.83808813  0.50006417  0.40771691  1
  O  O29  1  0.94106929  0.42616193  0.24085778  1
  O  O30  1  0.41598987  0.29735665  0.14786126  1
  O  O31  1  0.19883975  0.10009411  0.60624762  1
  O  O32  1  0.19374040  0.49468735  0.91536683  1
  O  O33  1  0.16191187  0.49993583  0.59228309  1
  O  O34  1  0.83423655  0.10744822  0.14093944  1
  O  O35  1  0.33423655  0.39255178  0.35906056  1
  O  O36  1  0.69374040  0.00531265  0.58463317  1
  O  O37  1  0.38466277  0.74677443  0.31027614  1
  O  O38  1  0.33808813  -0.00006417  0.09228309  1
  O  O39  1  0.30116025  0.60009411  0.10624762  1
  O  O40  1  0.66576345  0.60744822  0.64093944  1
  O  O41  1  0.16576345  0.89255178  0.85906056  1
  O  O42  1  0.44646380  0.74601238  0.48970172  1
  O  O43  1  0.05353620  0.24601238  0.98970172  1
  O  O44  1  0.80625960  0.50531265  0.08463317  1
  O  O45  1  0.55893071  0.92616193  0.74085778  1
  O  O46  1  0.91598987  0.20264335  0.35213874  1
  O  O47  1  0.66191187  0.00006417  0.90771691  1
  O  O48  1  0.94646380  0.75398762  0.01029828  1
  O  O49  1  0.69883975  0.39990589  0.89375238  1
  O  O50  1  0.30625960  0.99468735  0.41536683  1
  O  O51  1  0.58401013  0.70264335  0.85213874  1
