# generated using pymatgen
data_Zn(NiO2)2
_symmetry_space_group_name_H-M   'P 1'
_cell_length_a   5.67409785
_cell_length_b   5.67409835
_cell_length_c   5.98663821
_cell_angle_alpha   118.28755501
_cell_angle_beta   118.28755333
_cell_angle_gamma   89.99999189
_symmetry_Int_Tables_number   1
_chemical_formula_structural   Zn(NiO2)2
_chemical_formula_sum   'Zn2 Ni4 O8'
_cell_volume   143.05096310
_cell_formula_units_Z   2
loop_
 _symmetry_equiv_pos_site_id
 _symmetry_equiv_pos_as_xyz
  1  'x, y, z'
loop_
 _atom_site_type_symbol
 _atom_site_label
 _atom_site_symmetry_multiplicity
 _atom_site_fract_x
 _atom_site_fract_y
 _atom_site_fract_z
 _atom_site_occupancy
  Zn  Zn0  1  0.37500000  0.62500000  0.75000000  1
  Zn  Zn1  1  0.62500000  0.37500000  0.25000000  1
  Ni  Ni2  1  -0.00000000  -0.00000000  0.50000000  1
  Ni  Ni3  1  -0.00000000  0.50000000  -0.00000000  1
  Ni  Ni4  1  0.50000000  -0.00000000  0.50000000  1
  Ni  Ni5  1  -0.00000000  -0.00000000  -0.00000000  1
  O  O6  1  0.76161107  0.78695722  0.52322114  1
  O  O7  1  0.76373707  0.23838893  0.97677886  1
  O  O8  1  0.21304278  0.23838893  0.97677886  1
  O  O9  1  0.23838893  0.21304278  0.47677886  1
  O  O10  1  0.23838893  0.76373707  0.47677886  1
  O  O11  1  0.23626293  0.76161107  0.02322114  1
  O  O12  1  0.76161107  0.23626293  0.52322114  1
  O  O13  1  0.78695722  0.76161107  0.02322114  1
