# generated using pymatgen
data_V3AgO8
_symmetry_space_group_name_H-M   'P 1'
_cell_length_a   3.61223487
_cell_length_b   7.36742979
_cell_length_c   12.47519794
_cell_angle_alpha   108.09733776
_cell_angle_beta   90.00000000
_cell_angle_gamma   90.00000000
_symmetry_Int_Tables_number   1
_chemical_formula_structural   V3AgO8
_chemical_formula_sum   'V6 Ag2 O16'
_cell_volume   315.57699445
_cell_formula_units_Z   2
loop_
 _symmetry_equiv_pos_site_id
 _symmetry_equiv_pos_as_xyz
  1  'x, y, z'
loop_
 _atom_site_type_symbol
 _atom_site_label
 _atom_site_symmetry_multiplicity
 _atom_site_fract_x
 _atom_site_fract_y
 _atom_site_fract_z
 _atom_site_occupancy
  V  V0  1  0.25000000  0.20332103  0.08269062  1
  V  V1  1  0.25000000  0.06596917  0.81080738  1
  V  V2  1  0.25000000  0.86067155  0.54386368  1
  V  V3  1  0.75000000  0.13932845  0.45613632  1
  V  V4  1  0.75000000  0.79667897  0.91730938  1
  V  V5  1  0.75000000  0.93403083  0.18919262  1
  Ag  Ag6  1  0.25000000  0.49146556  0.68079536  1
  Ag  Ag7  1  0.75000000  0.50853444  0.31920464  1
  O  O8  1  0.25000000  0.20137010  0.72807003  1
  O  O9  1  0.25000000  0.41228337  0.18409082  1
  O  O10  1  0.25000000  0.06621708  0.46237974  1
  O  O11  1  0.25000000  0.64427322  0.44813247  1
  O  O12  1  0.25000000  0.99988803  0.17149209  1
  O  O13  1  0.25000000  0.86859556  0.91905885  1
  O  O14  1  0.25000000  0.82307998  0.67602158  1
  O  O15  1  0.25000000  0.25310212  0.95190580  1
  O  O16  1  0.75000000  0.74689788  0.04809420  1
  O  O17  1  0.75000000  0.00011197  0.82850791  1
  O  O18  1  0.75000000  0.17692002  0.32397842  1
  O  O19  1  0.75000000  0.13140444  0.08094115  1
  O  O20  1  0.75000000  0.35572678  0.55186753  1
  O  O21  1  0.75000000  0.93378292  0.53762026  1
  O  O22  1  0.75000000  0.58771663  0.81590918  1
  O  O23  1  0.75000000  0.79862990  0.27192997  1
