# generated using pymatgen
data_Ti3V2Cr(PO4)6
_symmetry_space_group_name_H-M   'P 1'
_cell_length_a   8.61064041
_cell_length_b   8.64078889
_cell_length_c   8.64078889
_cell_angle_alpha   60.00000020
_cell_angle_beta   59.88410959
_cell_angle_gamma   59.88411210
_symmetry_Int_Tables_number   1
_chemical_formula_structural   Ti3V2Cr(PO4)6
_chemical_formula_sum   'Ti3 V2 Cr1 P6 O24'
_cell_volume   453.79978131
_cell_formula_units_Z   1
loop_
 _symmetry_equiv_pos_site_id
 _symmetry_equiv_pos_as_xyz
  1  'x, y, z'
loop_
 _atom_site_type_symbol
 _atom_site_label
 _atom_site_symmetry_multiplicity
 _atom_site_fract_x
 _atom_site_fract_y
 _atom_site_fract_z
 _atom_site_occupancy
  Ti  Ti0  1  0.06313634  0.64562155  0.64562155  1
  Ti  Ti1  1  0.43365779  0.85544740  0.85544740  1
  Ti  Ti2  1  0.93609510  0.35463497  0.35463497  1
  V  V3  1  0.00122088  0.99959337  0.99959337  1
  V  V4  1  0.49772662  0.50075746  0.50075746  1
  Cr  Cr5  1  0.57182060  0.14272680  0.14272680  1
  P  P6  1  0.25287833  0.24988629  0.54085934  1
  P  P7  1  0.25287833  0.95637604  0.24988629  1
  P  P8  1  0.25287833  0.54085934  0.95637604  1
  P  P9  1  0.74892305  0.45517603  0.04482178  1
  P  P10  1  0.74892305  0.04482178  0.75107914  1
  P  P11  1  0.74892305  0.75107914  0.45517603  1
  O  O12  1  0.07053064  0.11780968  0.31331300  1
  O  O13  1  0.07053064  0.49834768  0.11780968  1
  O  O14  1  0.07053064  0.31331300  0.49834768  1
  O  O15  1  0.23233871  0.08743210  0.73727937  1
  O  O16  1  0.43288853  0.19004891  0.38409627  1
  O  O17  1  0.26297363  0.41386702  0.56143341  1
  O  O18  1  0.23233871  0.94294982  0.08743210  1
  O  O19  1  0.26297363  0.76172695  0.41386702  1
  O  O20  1  0.56895271  0.61626280  0.00160132  1
  O  O21  1  0.26297363  0.56143341  0.76172695  1
  O  O22  1  0.76803738  0.26075361  0.05838002  1
  O  O23  1  0.56895271  0.00160132  0.81318317  1
  O  O24  1  0.43288853  0.99296629  0.19004891  1
  O  O25  1  0.23233871  0.73727937  0.94294982  1
  O  O26  1  0.73264144  0.44187720  0.23866752  1
  O  O27  1  0.43288853  0.38409627  0.99296629  1
  O  O28  1  0.73264144  0.23866752  0.58681385  1
  O  O29  1  0.76803738  0.05838002  0.91282899  1
  O  O30  1  0.73264144  0.58681385  0.44187720  1
  O  O31  1  0.56895271  0.81318317  0.61626280  1
  O  O32  1  0.76803738  0.91282899  0.26075361  1
  O  O33  1  0.92861613  0.68677712  0.49938308  1
  O  O34  1  0.92861613  0.49938308  0.88522367  1
  O  O35  1  0.92861613  0.88522367  0.68677712  1
