# generated using pymatgen
data_Te2Mo(WS2)3
_symmetry_space_group_name_H-M   'P 1'
_cell_length_a   3.27386680
_cell_length_b   3.27382113
_cell_length_c   37.22478999
_cell_angle_alpha   90.00005546
_cell_angle_beta   90.00000000
_cell_angle_gamma   120.00046148
_symmetry_Int_Tables_number   1
_chemical_formula_structural   Te2Mo(WS2)3
_chemical_formula_sum   'Te2 Mo1 W3 S6'
_cell_volume   345.52288826
_cell_formula_units_Z   1
loop_
 _symmetry_equiv_pos_site_id
 _symmetry_equiv_pos_as_xyz
  1  'x, y, z'
loop_
 _atom_site_type_symbol
 _atom_site_label
 _atom_site_symmetry_multiplicity
 _atom_site_fract_x
 _atom_site_fract_y
 _atom_site_fract_z
 _atom_site_occupancy
  Te  Te0  1  0.33335212  0.66670524  0.70969317  1
  Te  Te1  1  0.33335288  0.66670676  0.60542034  1
  Mo  Mo2  1  0.33332336  0.66664672  0.46961688  1
  W  W3  1  0.33331014  0.66662029  0.09391588  1
  W  W4  1  0.66669353  0.33338706  0.28180118  1
  W  W5  1  0.66669000  0.33338000  0.65759446  1
  S  S6  1  0.33335906  0.66671912  0.32331519  1
  S  S7  1  0.66664692  0.33329283  0.05240663  1
  S  S8  1  0.66663601  0.33327102  0.42833348  1
  S  S9  1  0.66664678  0.33329257  0.13542352  1
  S  S10  1  0.66663527  0.33326954  0.51093662  1
  S  S11  1  0.33335393  0.66670886  0.24029064  1
