# generated using pymatgen
data_Y2Zr8O19
_symmetry_space_group_name_H-M   'P 1'
_cell_length_a   3.64661813
_cell_length_b   36.43975727
_cell_length_c   34.75881957
_cell_angle_alpha   5.21161800
_cell_angle_beta   58.36135874
_cell_angle_gamma   59.97600405
_symmetry_Int_Tables_number   1
_chemical_formula_structural   Y2Zr8O19
_chemical_formula_sum   'Y2 Zr8 O19'
_cell_volume   342.39374622
_cell_formula_units_Z   1
loop_
 _symmetry_equiv_pos_site_id
 _symmetry_equiv_pos_as_xyz
  1  'x, y, z'
loop_
 _atom_site_type_symbol
 _atom_site_label
 _atom_site_symmetry_multiplicity
 _atom_site_fract_x
 _atom_site_fract_y
 _atom_site_fract_z
 _atom_site_occupancy
  Y  Y0  1  0.03257981  0.82606385  0.96742019  1
  Y  Y1  1  0.96742019  0.87393615  0.03257981  1
  Zr  Zr2  1  0.98586285  0.98869028  0.01413715  1
  Zr  Zr3  1  0.99022765  0.09218212  0.00977235  1
  Zr  Zr4  1  0.99471268  0.19577014  0.00528732  1
  Zr  Zr5  1  0.99856339  0.29885071  0.00143661  1
  Zr  Zr6  1  0.00143661  0.40114929  0.99856339  1
  Zr  Zr7  1  0.00528732  0.50422986  0.99471268  1
  Zr  Zr8  1  0.00977235  0.60781788  0.99022765  1
  Zr  Zr9  1  0.01413715  0.71130972  0.98586285  1
  O  O10  1  0.25000000  0.10000000  0.25000000  1
  O  O11  1  0.24118974  0.19295179  0.25881026  1
  O  O12  1  0.27666539  0.32133231  0.22333461  1
  O  O13  1  0.23557909  0.38846327  0.26442091  1
  O  O14  1  0.29581064  0.53664851  0.20418936  1
  O  O15  1  0.75000000  0.10000000  0.75000000  1
  O  O16  1  0.20418936  0.66335149  0.29581064  1
  O  O17  1  0.76148042  0.20918434  0.73851958  1
  O  O18  1  0.26442091  0.81153673  0.23557909  1
  O  O19  1  0.22333461  0.87866769  0.27666539  1
  O  O20  1  0.71305666  0.27044533  0.78694334  1
  O  O21  1  0.76320380  0.41056304  0.73679620  1
  O  O22  1  0.25881026  0.00704821  0.24118974  1
  O  O23  1  0.73631146  0.48904917  0.76368854  1
  O  O24  1  0.75000000  0.60000000  0.75000000  1
  O  O25  1  0.76368854  0.71095083  0.73631146  1
  O  O26  1  0.73679620  0.78943696  0.76320380  1
  O  O27  1  0.78694334  0.92955467  0.71305666  1
  O  O28  1  0.73851958  0.99081566  0.76148042  1
