# generated using pymatgen
data_Zr3N2O3
_symmetry_space_group_name_H-M   'P 1'
_cell_length_a   4.09422387
_cell_length_b   5.72850467
_cell_length_c   10.74853257
_cell_angle_alpha   90.31338093
_cell_angle_beta   90.00000000
_cell_angle_gamma   110.93786345
_symmetry_Int_Tables_number   1
_chemical_formula_structural   Zr3N2O3
_chemical_formula_sum   'Zr6 N4 O6'
_cell_volume   235.44356593
_cell_formula_units_Z   2
loop_
 _symmetry_equiv_pos_site_id
 _symmetry_equiv_pos_as_xyz
  1  'x, y, z'
loop_
 _atom_site_type_symbol
 _atom_site_label
 _atom_site_symmetry_multiplicity
 _atom_site_fract_x
 _atom_site_fract_y
 _atom_site_fract_z
 _atom_site_occupancy
  Zr  Zr0  1  0.14459720  0.28919440  0.56564052  1
  Zr  Zr1  1  0.14600020  0.29200039  0.93710529  1
  Zr  Zr2  1  0.19333252  0.38666403  0.24820999  1
  Zr  Zr3  1  0.80696570  0.61393140  0.75632905  1
  Zr  Zr4  1  0.85837431  0.71674863  0.05881293  1
  Zr  Zr5  1  0.86253114  0.72506229  0.43740343  1
  N  N6  1  0.29875179  0.59750359  0.42653610  1
  N  N7  1  0.30192439  0.60384878  0.08057667  1
  N  N8  1  0.23584865  0.47169730  0.74476163  1
  N  N9  1  0.70184252  0.40368404  0.92561315  1
  O  O10  1  0.04543462  0.09086824  0.11727739  1
  O  O11  1  0.04300645  0.08601291  0.38142104  1
  O  O12  1  0.95372120  0.90744140  0.61298038  1
  O  O13  1  0.95563399  0.91126698  0.88393946  1
  O  O14  1  0.69501138  0.39002176  0.57127853  1
  O  O15  1  0.75702593  0.51405187  0.25211543  1
