# generated using pymatgen
data_NdAsS
_symmetry_space_group_name_H-M   'P 1'
_cell_length_a   3.97682314
_cell_length_b   3.93192447
_cell_length_c   17.60926101
_cell_angle_alpha   90.00000000
_cell_angle_beta   90.00000000
_cell_angle_gamma   89.96065580
_symmetry_Int_Tables_number   1
_chemical_formula_structural   NdAsS
_chemical_formula_sum   'Nd4 As4 S4'
_cell_volume   275.34834590
_cell_formula_units_Z   4
loop_
 _symmetry_equiv_pos_site_id
 _symmetry_equiv_pos_as_xyz
  1  'x, y, z'
loop_
 _atom_site_type_symbol
 _atom_site_label
 _atom_site_symmetry_multiplicity
 _atom_site_fract_x
 _atom_site_fract_y
 _atom_site_fract_z
 _atom_site_occupancy
  Nd  Nd0  1  0.78224463  0.25077229  0.14563876  1
  Nd  Nd1  1  0.71775537  0.24922771  0.64563876  1
  Nd  Nd2  1  0.21775537  0.74922771  0.85436124  1
  Nd  Nd3  1  0.28224463  0.75077229  0.35436124  1
  As  As4  1  0.79125737  0.75174039  0.49785766  1
  As  As5  1  0.70874263  0.74825961  0.99785766  1
  As  As6  1  0.20874263  0.24825961  0.50214234  1
  As  As7  1  0.29125737  0.25174039  0.00214234  1
  S  S8  1  0.78172674  0.25075683  0.31367737  1
  S  S9  1  0.71827326  0.24924317  0.81367737  1
  S  S10  1  0.21827326  0.74924317  0.68632263  1
  S  S11  1  0.28172674  0.75075683  0.18632263  1
