# generated using pymatgen
data_SrCaI4
_symmetry_space_group_name_H-M   'P 1'
_cell_length_a   7.49413854
_cell_length_b   4.68277102
_cell_length_c   8.14384838
_cell_angle_alpha   90.00000000
_cell_angle_beta   89.84543904
_cell_angle_gamma   90.00000000
_symmetry_Int_Tables_number   1
_chemical_formula_structural   SrCaI4
_chemical_formula_sum   'Sr1 Ca1 I4'
_cell_volume   285.79375780
_cell_formula_units_Z   1
loop_
 _symmetry_equiv_pos_site_id
 _symmetry_equiv_pos_as_xyz
  1  'x, y, z'
loop_
 _atom_site_type_symbol
 _atom_site_label
 _atom_site_symmetry_multiplicity
 _atom_site_fract_x
 _atom_site_fract_y
 _atom_site_fract_z
 _atom_site_occupancy
  Sr  Sr0  1  -0.00000000  -0.00000000  0.00000000  1
  Ca  Ca1  1  -0.00000000  0.50000000  0.50000000  1
  I  I2  1  0.23518019  -0.00000000  0.65435468  1
  I  I3  1  0.24188248  0.50000000  0.17970819  1
  I  I4  1  0.75811752  0.50000000  0.82029181  1
  I  I5  1  0.76481981  -0.00000000  0.34564532  1
