# generated using pymatgen
data_ErS2
_symmetry_space_group_name_H-M   'P 1'
_cell_length_a   3.86934962
_cell_length_b   7.78175729
_cell_length_c   7.86105634
_cell_angle_alpha   89.89429849
_cell_angle_beta   90.00000000
_cell_angle_gamma   90.00000000
_symmetry_Int_Tables_number   1
_chemical_formula_structural   ErS2
_chemical_formula_sum   'Er4 S8'
_cell_volume   236.69867333
_cell_formula_units_Z   4
loop_
 _symmetry_equiv_pos_site_id
 _symmetry_equiv_pos_as_xyz
  1  'x, y, z'
loop_
 _atom_site_type_symbol
 _atom_site_label
 _atom_site_symmetry_multiplicity
 _atom_site_fract_x
 _atom_site_fract_y
 _atom_site_fract_z
 _atom_site_occupancy
  Er  Er0  1  0.28502003  0.37083281  0.27473720  1
  Er  Er1  1  0.78502003  0.12916719  0.72526280  1
  Er  Er2  1  0.71497997  0.62916719  0.72526280  1
  Er  Er3  1  0.21497997  0.87083281  0.27473720  1
  S  S4  1  0.26044518  0.37482346  0.63041135  1
  S  S5  1  0.76044518  0.12517654  0.36958865  1
  S  S6  1  0.73955482  0.62517654  0.36958865  1
  S  S7  1  0.23955482  0.87482346  0.63041135  1
  S  S8  1  0.83382661  0.38786120  0.00308800  1
  S  S9  1  0.33382661  0.11213880  0.99691200  1
  S  S10  1  0.16617339  0.61213880  0.99691200  1
  S  S11  1  0.66617339  0.88786120  0.00308800  1
