# generated using pymatgen
data_LuSiPt
_symmetry_space_group_name_H-M   'P 1'
_cell_length_a   4.24441559
_cell_length_b   6.86686427
_cell_length_c   7.41330858
_cell_angle_alpha   90.00000000
_cell_angle_beta   90.00000000
_cell_angle_gamma   90.00000000
_symmetry_Int_Tables_number   1
_chemical_formula_structural   LuSiPt
_chemical_formula_sum   'Lu4 Si4 Pt4'
_cell_volume   216.06700019
_cell_formula_units_Z   4
loop_
 _symmetry_equiv_pos_site_id
 _symmetry_equiv_pos_as_xyz
  1  'x, y, z'
loop_
 _atom_site_type_symbol
 _atom_site_label
 _atom_site_symmetry_multiplicity
 _atom_site_fract_x
 _atom_site_fract_y
 _atom_site_fract_z
 _atom_site_occupancy
  Lu  Lu0  1  0.75000000  0.50335253  0.69946009  1
  Lu  Lu1  1  0.75000000  0.00335253  0.80053991  1
  Lu  Lu2  1  0.25000000  0.49664747  0.30053991  1
  Lu  Lu3  1  0.25000000  0.99664747  0.19946009  1
  Si  Si4  1  0.75000000  0.68549489  0.08873992  1
  Si  Si5  1  0.75000000  0.18549489  0.41126008  1
  Si  Si6  1  0.25000000  0.31450511  0.91126008  1
  Si  Si7  1  0.25000000  0.81450511  0.58873992  1
  Pt  Pt8  1  0.75000000  0.29808544  0.08633468  1
  Pt  Pt9  1  0.75000000  0.79808544  0.41366532  1
  Pt  Pt10  1  0.25000000  0.70191456  0.91366532  1
  Pt  Pt11  1  0.25000000  0.20191456  0.58633468  1
