# generated using pymatgen
data_MnFeP
_symmetry_space_group_name_H-M   'P 1'
_cell_length_a   3.51749283
_cell_length_b   5.78734177
_cell_length_c   6.62013664
_cell_angle_alpha   90.00000000
_cell_angle_beta   90.00000000
_cell_angle_gamma   90.00000000
_symmetry_Int_Tables_number   1
_chemical_formula_structural   MnFeP
_chemical_formula_sum   'Mn4 Fe4 P4'
_cell_volume   134.76567923
_cell_formula_units_Z   4
loop_
 _symmetry_equiv_pos_site_id
 _symmetry_equiv_pos_as_xyz
  1  'x, y, z'
loop_
 _atom_site_type_symbol
 _atom_site_label
 _atom_site_symmetry_multiplicity
 _atom_site_fract_x
 _atom_site_fract_y
 _atom_site_fract_z
 _atom_site_occupancy
  Mn  Mn0  1  0.75000000  0.46976013  0.32822941  1
  Mn  Mn1  1  0.75000000  0.96976013  0.17177059  1
  Mn  Mn2  1  0.25000000  0.53023987  0.67177059  1
  Mn  Mn3  1  0.25000000  0.03023987  0.82822941  1
  Fe  Fe4  1  0.75000000  0.35264201  0.93727197  1
  Fe  Fe5  1  0.75000000  0.85264201  0.56272803  1
  Fe  Fe6  1  0.25000000  0.64735799  0.06272803  1
  Fe  Fe7  1  0.25000000  0.14735799  0.43727197  1
  P  P8  1  0.75000000  0.73082209  0.87597615  1
  P  P9  1  0.75000000  0.23082209  0.62402385  1
  P  P10  1  0.25000000  0.26917791  0.12402385  1
  P  P11  1  0.25000000  0.76917791  0.37597615  1
