# generated using pymatgen
data_YSnIr
_symmetry_space_group_name_H-M   'P 1'
_cell_length_a   4.59331936
_cell_length_b   7.00783587
_cell_length_c   8.03709568
_cell_angle_alpha   90.00000000
_cell_angle_beta   90.00000000
_cell_angle_gamma   90.00000000
_symmetry_Int_Tables_number   1
_chemical_formula_structural   YSnIr
_chemical_formula_sum   'Y4 Sn4 Ir4'
_cell_volume   258.70790669
_cell_formula_units_Z   4
loop_
 _symmetry_equiv_pos_site_id
 _symmetry_equiv_pos_as_xyz
  1  'x, y, z'
loop_
 _atom_site_type_symbol
 _atom_site_label
 _atom_site_symmetry_multiplicity
 _atom_site_fract_x
 _atom_site_fract_y
 _atom_site_fract_z
 _atom_site_occupancy
  Y  Y0  1  0.75000000  0.48023465  0.19027280  1
  Y  Y1  1  0.75000000  0.98023465  0.30972720  1
  Y  Y2  1  0.25000000  0.51976535  0.80972720  1
  Y  Y3  1  0.25000000  0.01976535  0.69027280  1
  Sn  Sn4  1  0.75000000  0.33173574  0.57336490  1
  Sn  Sn5  1  0.75000000  0.83173574  0.92663510  1
  Sn  Sn6  1  0.25000000  0.66826426  0.42663510  1
  Sn  Sn7  1  0.25000000  0.16826426  0.07336490  1
  Ir  Ir8  1  0.75000000  0.22922331  0.89758153  1
  Ir  Ir9  1  0.75000000  0.72922331  0.60241847  1
  Ir  Ir10  1  0.25000000  0.77077669  0.10241847  1
  Ir  Ir11  1  0.25000000  0.27077669  0.39758153  1
