# generated using pymatgen
data_Te2Mo(WS2)3
_symmetry_space_group_name_H-M   'P 1'
_cell_length_a   3.27321334
_cell_length_b   3.27321457
_cell_length_c   37.24775750
_cell_angle_alpha   89.99994703
_cell_angle_beta   90.00000000
_cell_angle_gamma   119.99998761
_symmetry_Int_Tables_number   1
_chemical_formula_structural   Te2Mo(WS2)3
_chemical_formula_sum   'Te2 Mo1 W3 S6'
_cell_volume   345.60467194
_cell_formula_units_Z   1
loop_
 _symmetry_equiv_pos_site_id
 _symmetry_equiv_pos_as_xyz
  1  'x, y, z'
loop_
 _atom_site_type_symbol
 _atom_site_label
 _atom_site_symmetry_multiplicity
 _atom_site_fract_x
 _atom_site_fract_y
 _atom_site_fract_z
 _atom_site_occupancy
  Te  Te0  1  0.66663755  0.33327411  0.41755450  1
  Te  Te1  1  0.66664229  0.33328358  0.52172773  1
  Mo  Mo2  1  0.66670597  0.33341193  0.28175266  1
  W  W3  1  0.33331103  0.66662207  0.09392511  1
  W  W4  1  0.33330860  0.66661721  0.46964717  1
  W  W5  1  0.66669329  0.33338658  0.65760363  1
  S  S6  1  0.33334950  0.66670001  0.32307067  1
  S  S7  1  0.33335289  0.66670678  0.69906082  1
  S  S8  1  0.66664832  0.33329564  0.05242880  1
  S  S9  1  0.66664657  0.33329215  0.13541942  1
  S  S10  1  0.33334952  0.66670003  0.24046378  1
  S  S11  1  0.33335446  0.66670992  0.61609371  1
