# generated using pymatgen
data_TmRe2
_symmetry_space_group_name_H-M   'P 1'
_cell_length_a   5.40613512
_cell_length_b   5.40613512
_cell_length_c   8.76124671
_cell_angle_alpha   90.00000000
_cell_angle_beta   90.00000000
_cell_angle_gamma   120.03462643
_symmetry_Int_Tables_number   1
_chemical_formula_structural   TmRe2
_chemical_formula_sum   'Tm4 Re8'
_cell_volume   221.67600943
_cell_formula_units_Z   4
loop_
 _symmetry_equiv_pos_site_id
 _symmetry_equiv_pos_as_xyz
  1  'x, y, z'
loop_
 _atom_site_type_symbol
 _atom_site_label
 _atom_site_symmetry_multiplicity
 _atom_site_fract_x
 _atom_site_fract_y
 _atom_site_fract_z
 _atom_site_occupancy
  Tm  Tm0  1  0.66664001  0.33335999  0.56294655  1
  Tm  Tm1  1  0.33335999  0.66664001  0.43705345  1
  Tm  Tm2  1  0.33335999  0.66664001  0.06294655  1
  Tm  Tm3  1  0.66664001  0.33335999  0.93705345  1
  Re  Re4  1  -0.00000000  0.00000000  0.50000000  1
  Re  Re5  1  0.00000000  -0.00000000  -0.00000000  1
  Re  Re6  1  0.17187006  0.34379258  0.75000000  1
  Re  Re7  1  0.17200416  0.82799584  0.75000000  1
  Re  Re8  1  0.65620742  0.82812994  0.75000000  1
  Re  Re9  1  0.82812994  0.65620742  0.25000000  1
  Re  Re10  1  0.82799584  0.17200416  0.25000000  1
  Re  Re11  1  0.34379258  0.17187006  0.25000000  1
