# generated using pymatgen
data_SmRe2
_symmetry_space_group_name_H-M   'P 1'
_cell_length_a   5.49218768
_cell_length_b   5.49218768
_cell_length_c   8.93066856
_cell_angle_alpha   90.00000000
_cell_angle_beta   90.00000000
_cell_angle_gamma   120.04668305
_symmetry_Int_Tables_number   1
_chemical_formula_structural   SmRe2
_chemical_formula_sum   'Sm4 Re8'
_cell_volume   233.18513105
_cell_formula_units_Z   4
loop_
 _symmetry_equiv_pos_site_id
 _symmetry_equiv_pos_as_xyz
  1  'x, y, z'
loop_
 _atom_site_type_symbol
 _atom_site_label
 _atom_site_symmetry_multiplicity
 _atom_site_fract_x
 _atom_site_fract_y
 _atom_site_fract_z
 _atom_site_occupancy
  Sm  Sm0  1  0.66663777  0.33336223  0.56196306  1
  Sm  Sm1  1  0.33336223  0.66663777  0.43803694  1
  Sm  Sm2  1  0.33336223  0.66663777  0.06196306  1
  Sm  Sm3  1  0.66663777  0.33336223  0.93803694  1
  Re  Re4  1  -0.00000000  0.00000000  0.50000000  1
  Re  Re5  1  -0.00000000  0.00000000  0.00000000  1
  Re  Re6  1  0.17072585  0.34146692  0.75000000  1
  Re  Re7  1  0.17074884  0.82925116  0.75000000  1
  Re  Re8  1  0.65853308  0.82927415  0.75000000  1
  Re  Re9  1  0.82927415  0.65853308  0.25000000  1
  Re  Re10  1  0.82925116  0.17074884  0.25000000  1
  Re  Re11  1  0.34146692  0.17072585  0.25000000  1
