# generated using pymatgen
data_DyNi3
_symmetry_space_group_name_H-M   'P 1'
_cell_length_a   4.95444299
_cell_length_b   4.95444299
_cell_length_c   8.58990967
_cell_angle_alpha   73.23856595
_cell_angle_beta   73.23856595
_cell_angle_gamma   60.00000602
_symmetry_Int_Tables_number   1
_chemical_formula_structural   DyNi3
_chemical_formula_sum   'Dy3 Ni9'
_cell_volume   172.18160312
_cell_formula_units_Z   3
loop_
 _symmetry_equiv_pos_site_id
 _symmetry_equiv_pos_as_xyz
  1  'x, y, z'
loop_
 _atom_site_type_symbol
 _atom_site_label
 _atom_site_symmetry_multiplicity
 _atom_site_fract_x
 _atom_site_fract_y
 _atom_site_fract_z
 _atom_site_occupancy
  Dy  Dy0  1  0.13931105  0.13931105  0.58206684  1
  Dy  Dy1  1  0.86068895  0.86068895  0.41793316  1
  Dy  Dy2  1  0.00000000  -0.00000000  -0.00000000  1
  Ni  Ni3  1  0.08159788  0.58225757  0.75388699  1
  Ni  Ni4  1  0.58225756  0.58225756  0.75388699  1
  Ni  Ni5  1  0.58225757  0.08159788  0.75388699  1
  Ni  Ni6  1  0.91840212  0.41774243  0.24611301  1
  Ni  Ni7  1  0.41774244  0.41774244  0.24611301  1
  Ni  Ni8  1  0.41774243  0.91840212  0.24611301  1
  Ni  Ni9  1  0.33323018  0.33323018  0.00030946  1
  Ni  Ni10  1  0.66676982  0.66676982  0.99969054  1
  Ni  Ni11  1  0.50000000  0.50000000  0.50000000  1
