# generated using pymatgen
data_ScTc2
_symmetry_space_group_name_H-M   'P 1'
_cell_length_a   5.23621230
_cell_length_b   5.23621230
_cell_length_c   8.63502465
_cell_angle_alpha   90.00000000
_cell_angle_beta   90.00000000
_cell_angle_gamma   120.00856578
_symmetry_Int_Tables_number   1
_chemical_formula_structural   ScTc2
_chemical_formula_sum   'Sc4 Tc8'
_cell_volume   205.01763216
_cell_formula_units_Z   4
loop_
 _symmetry_equiv_pos_site_id
 _symmetry_equiv_pos_as_xyz
  1  'x, y, z'
loop_
 _atom_site_type_symbol
 _atom_site_label
 _atom_site_symmetry_multiplicity
 _atom_site_fract_x
 _atom_site_fract_y
 _atom_site_fract_z
 _atom_site_occupancy
  Sc  Sc0  1  0.66670562  0.33329438  0.56229612  1
  Sc  Sc1  1  0.33329438  0.66670562  0.43770388  1
  Sc  Sc2  1  0.33329438  0.66670562  0.06229612  1
  Sc  Sc3  1  0.66670562  0.33329438  0.93770388  1
  Tc  Tc4  1  -0.00000000  -0.00000000  0.50000000  1
  Tc  Tc5  1  -0.00000000  -0.00000000  -0.00000000  1
  Tc  Tc6  1  0.17194359  0.34387614  0.75000000  1
  Tc  Tc7  1  0.17190905  0.82809095  0.75000000  1
  Tc  Tc8  1  0.65612386  0.82805641  0.75000000  1
  Tc  Tc9  1  0.82805641  0.65612386  0.25000000  1
  Tc  Tc10  1  0.82809095  0.17190905  0.25000000  1
  Tc  Tc11  1  0.34387614  0.17194359  0.25000000  1
