# generated using pymatgen
data_Lu3(CuGe)4
_symmetry_space_group_name_H-M   'P 1'
_cell_length_a   4.11536033
_cell_length_b   6.53852434
_cell_length_c   7.83936292
_cell_angle_alpha   114.64732219
_cell_angle_beta   105.21730270
_cell_angle_gamma   90.00000000
_symmetry_Int_Tables_number   1
_chemical_formula_structural   Lu3(CuGe)4
_chemical_formula_sum   'Lu3 Cu4 Ge4'
_cell_volume   183.55677024
_cell_formula_units_Z   1
loop_
 _symmetry_equiv_pos_site_id
 _symmetry_equiv_pos_as_xyz
  1  'x, y, z'
loop_
 _atom_site_type_symbol
 _atom_site_label
 _atom_site_symmetry_multiplicity
 _atom_site_fract_x
 _atom_site_fract_y
 _atom_site_fract_z
 _atom_site_occupancy
  Lu  Lu0  1  0.00000000  0.50000000  -0.00000000  1
  Lu  Lu1  1  0.87059614  0.87059614  0.74119228  1
  Lu  Lu2  1  0.12940386  0.12940386  0.25880772  1
  Cu  Cu3  1  0.66906507  0.47764175  0.33813013  1
  Cu  Cu4  1  0.66906507  0.86048838  0.33813013  1
  Cu  Cu5  1  0.33093493  0.13951162  0.66186987  1
  Cu  Cu6  1  0.33093493  0.52235825  0.66186987  1
  Ge  Ge7  1  0.78554804  0.28554804  0.57109609  1
  Ge  Ge8  1  0.21445196  0.71445196  0.42890391  1
  Ge  Ge9  1  0.50000000  0.80771767  -0.00000000  1
  Ge  Ge10  1  0.50000000  0.19228233  0.00000000  1
