# generated using pymatgen
data_ThCoH4
_symmetry_space_group_name_H-M   'P 1'
_cell_length_a   3.87921483
_cell_length_b   4.73093407
_cell_length_c   6.20753302
_cell_angle_alpha   90.00000000
_cell_angle_beta   108.20755498
_cell_angle_gamma   90.00000000
_symmetry_Int_Tables_number   1
_chemical_formula_structural   ThCoH4
_chemical_formula_sum   'Th2 Co2 H8'
_cell_volume   108.21856277
_cell_formula_units_Z   2
loop_
 _symmetry_equiv_pos_site_id
 _symmetry_equiv_pos_as_xyz
  1  'x, y, z'
loop_
 _atom_site_type_symbol
 _atom_site_label
 _atom_site_symmetry_multiplicity
 _atom_site_fract_x
 _atom_site_fract_y
 _atom_site_fract_z
 _atom_site_occupancy
  Th  Th0  1  0.86880282  0.75000000  0.73760563  1
  Th  Th1  1  0.13119718  0.25000000  0.26239437  1
  Co  Co2  1  0.59726765  0.75000000  0.19453530  1
  Co  Co3  1  0.40273235  0.25000000  0.80546470  1
  H  H4  1  0.08698921  0.75000000  0.17397842  1
  H  H5  1  0.91301079  0.25000000  0.82602158  1
  H  H6  1  0.69397514  0.00273070  0.38795028  1
  H  H7  1  0.30602486  0.99726930  0.61204972  1
  H  H8  1  0.69397514  0.49726930  0.38795028  1
  H  H9  1  0.30602486  0.50273070  0.61204972  1
  H  H10  1  0.50000000  0.50000000  0.00000000  1
  H  H11  1  0.50000000  -0.00000000  0.00000000  1
