# generated using pymatgen
data_Te2Mo(WS2)3
_symmetry_space_group_name_H-M   'P 1'
_cell_length_a   3.27517674
_cell_length_b   3.27520260
_cell_length_c   37.26617643
_cell_angle_alpha   90.00092031
_cell_angle_beta   90.00000000
_cell_angle_gamma   119.99973881
_symmetry_Int_Tables_number   1
_chemical_formula_structural   Te2Mo(WS2)3
_chemical_formula_sum   'Te2 Mo1 W3 S6'
_cell_volume   346.19398796
_cell_formula_units_Z   1
loop_
 _symmetry_equiv_pos_site_id
 _symmetry_equiv_pos_as_xyz
  1  'x, y, z'
loop_
 _atom_site_type_symbol
 _atom_site_label
 _atom_site_symmetry_multiplicity
 _atom_site_fract_x
 _atom_site_fract_y
 _atom_site_fract_z
 _atom_site_occupancy
  Te  Te0  1  0.33336576  0.66673252  0.70970693  1
  Te  Te1  1  0.33335332  0.66670765  0.60554052  1
  Mo  Mo2  1  0.66670004  0.33340007  0.28179796  1
  W  W3  1  0.33330852  0.66661703  0.09390439  1
  W  W4  1  0.33331150  0.66662300  0.46957122  1
  W  W5  1  0.66669882  0.33339763  0.65762426  1
  S  S6  1  0.33334364  0.66668829  0.32309320  1
  S  S7  1  0.66664858  0.33329616  0.05245039  1
  S  S8  1  0.66664314  0.33328529  0.42813685  1
  S  S9  1  0.66664082  0.33328065  0.13537424  1
  S  S10  1  0.66663836  0.33327573  0.51103431  1
  S  S11  1  0.33334750  0.66669600  0.24051371  1
