# generated using pymatgen
data_TmCo3
_symmetry_space_group_name_H-M   'P 1'
_cell_length_a   4.91946484
_cell_length_b   4.91946484
_cell_length_c   8.55467006
_cell_angle_alpha   73.28980470
_cell_angle_beta   73.28980470
_cell_angle_gamma   60.00000892
_symmetry_Int_Tables_number   1
_chemical_formula_structural   TmCo3
_chemical_formula_sum   'Tm3 Co9'
_cell_volume   169.12508555
_cell_formula_units_Z   3
loop_
 _symmetry_equiv_pos_site_id
 _symmetry_equiv_pos_as_xyz
  1  'x, y, z'
loop_
 _atom_site_type_symbol
 _atom_site_label
 _atom_site_symmetry_multiplicity
 _atom_site_fract_x
 _atom_site_fract_y
 _atom_site_fract_z
 _atom_site_occupancy
  Tm  Tm0  1  0.13969999  0.13969999  0.58090004  1
  Tm  Tm1  1  0.86030001  0.86030001  0.41909996  1
  Tm  Tm2  1  -0.00000000  0.00000000  0.00000000  1
  Co  Co3  1  0.07951993  0.58277916  0.75492175  1
  Co  Co4  1  0.58277916  0.58277916  0.75492175  1
  Co  Co5  1  0.58277916  0.07951993  0.75492175  1
  Co  Co6  1  0.92048007  0.41722084  0.24507825  1
  Co  Co7  1  0.41722084  0.41722084  0.24507825  1
  Co  Co8  1  0.41722084  0.92048007  0.24507825  1
  Co  Co9  1  0.33488724  0.33488724  0.99533828  1
  Co  Co10  1  0.66511276  0.66511276  0.00466172  1
  Co  Co11  1  0.50000000  0.50000000  0.50000000  1
