# generated using pymatgen
data_TiSiPt
_symmetry_space_group_name_H-M   'P 1'
_cell_length_a   3.82307186
_cell_length_b   6.37121955
_cell_length_c   7.39789296
_cell_angle_alpha   90.00000000
_cell_angle_beta   90.00000000
_cell_angle_gamma   90.00000000
_symmetry_Int_Tables_number   1
_chemical_formula_structural   TiSiPt
_chemical_formula_sum   'Ti4 Si4 Pt4'
_cell_volume   180.19514080
_cell_formula_units_Z   4
loop_
 _symmetry_equiv_pos_site_id
 _symmetry_equiv_pos_as_xyz
  1  'x, y, z'
loop_
 _atom_site_type_symbol
 _atom_site_label
 _atom_site_symmetry_multiplicity
 _atom_site_fract_x
 _atom_site_fract_y
 _atom_site_fract_z
 _atom_site_occupancy
  Ti  Ti0  1  0.75000000  0.47310142  0.17454721  1
  Ti  Ti1  1  0.75000000  0.97310142  0.32545279  1
  Ti  Ti2  1  0.25000000  0.52689858  0.82545279  1
  Ti  Ti3  1  0.25000000  0.02689858  0.67454721  1
  Si  Si4  1  0.75000000  0.24248656  0.87568932  1
  Si  Si5  1  0.75000000  0.74248656  0.62431068  1
  Si  Si6  1  0.25000000  0.75751344  0.12431068  1
  Si  Si7  1  0.25000000  0.25751344  0.37568932  1
  Pt  Pt8  1  0.75000000  0.35117626  0.56461712  1
  Pt  Pt9  1  0.75000000  0.85117626  0.93538288  1
  Pt  Pt10  1  0.25000000  0.64882374  0.43538288  1
  Pt  Pt11  1  0.25000000  0.14882374  0.06461712  1
