# generated using pymatgen
data_ErGaNi
_symmetry_space_group_name_H-M   'P 1'
_cell_length_a   4.24108494
_cell_length_b   6.75292738
_cell_length_c   7.34605947
_cell_angle_alpha   90.00000000
_cell_angle_beta   90.00000000
_cell_angle_gamma   90.00000000
_symmetry_Int_Tables_number   1
_chemical_formula_structural   ErGaNi
_chemical_formula_sum   'Er4 Ga4 Ni4'
_cell_volume   210.38922305
_cell_formula_units_Z   4
loop_
 _symmetry_equiv_pos_site_id
 _symmetry_equiv_pos_as_xyz
  1  'x, y, z'
loop_
 _atom_site_type_symbol
 _atom_site_label
 _atom_site_symmetry_multiplicity
 _atom_site_fract_x
 _atom_site_fract_y
 _atom_site_fract_z
 _atom_site_occupancy
  Er  Er0  1  0.75000000  0.51626273  0.19467893  1
  Er  Er1  1  0.75000000  0.01626273  0.30532107  1
  Er  Er2  1  0.25000000  0.48373727  0.80532107  1
  Er  Er3  1  0.25000000  0.98373727  0.69467893  1
  Ga  Ga4  1  0.75000000  0.17552972  0.92733345  1
  Ga  Ga5  1  0.75000000  0.67552972  0.57266655  1
  Ga  Ga6  1  0.25000000  0.82447028  0.07266655  1
  Ga  Ga7  1  0.25000000  0.32447028  0.42733345  1
  Ni  Ni8  1  0.75000000  0.28794949  0.60178981  1
  Ni  Ni9  1  0.75000000  0.78794949  0.89821019  1
  Ni  Ni10  1  0.25000000  0.71205051  0.39821019  1
  Ni  Ni11  1  0.25000000  0.21205051  0.10178981  1
