# generated using pymatgen
data_CeOs2
_symmetry_space_group_name_H-M   'P 1'
_cell_length_a   5.35787876
_cell_length_b   5.35787876
_cell_length_c   8.94754938
_cell_angle_alpha   90.00000000
_cell_angle_beta   90.00000000
_cell_angle_gamma   120.02272090
_symmetry_Int_Tables_number   1
_chemical_formula_structural   CeOs2
_chemical_formula_sum   'Ce4 Os8'
_cell_volume   222.39295336
_cell_formula_units_Z   4
loop_
 _symmetry_equiv_pos_site_id
 _symmetry_equiv_pos_as_xyz
  1  'x, y, z'
loop_
 _atom_site_type_symbol
 _atom_site_label
 _atom_site_symmetry_multiplicity
 _atom_site_fract_x
 _atom_site_fract_y
 _atom_site_fract_z
 _atom_site_occupancy
  Ce  Ce0  1  0.66665148  0.33334852  0.57075340  1
  Ce  Ce1  1  0.33334852  0.66665148  0.42924660  1
  Ce  Ce2  1  0.33334852  0.66665148  0.07075340  1
  Ce  Ce3  1  0.66665148  0.33334852  0.92924660  1
  Os  Os4  1  -0.00000000  0.00000000  0.50000000  1
  Os  Os5  1  -0.00000000  0.00000000  0.00000000  1
  Os  Os6  1  0.17053990  0.34112784  0.75000000  1
  Os  Os7  1  0.17058303  0.82941697  0.75000000  1
  Os  Os8  1  0.65887216  0.82946010  0.75000000  1
  Os  Os9  1  0.82946010  0.65887216  0.25000000  1
  Os  Os10  1  0.82941697  0.17058303  0.25000000  1
  Os  Os11  1  0.34112784  0.17053990  0.25000000  1
