# generated using pymatgen
data_NdAl4Ni
_symmetry_space_group_name_H-M   'P 1'
_cell_length_a   4.14755678
_cell_length_b   6.56122271
_cell_length_c   8.15906701
_cell_angle_alpha   90.00000000
_cell_angle_beta   104.72432173
_cell_angle_gamma   90.00000000
_symmetry_Int_Tables_number   1
_chemical_formula_structural   NdAl4Ni
_chemical_formula_sum   'Nd2 Al8 Ni2'
_cell_volume   214.74147043
_cell_formula_units_Z   2
loop_
 _symmetry_equiv_pos_site_id
 _symmetry_equiv_pos_as_xyz
  1  'x, y, z'
loop_
 _atom_site_type_symbol
 _atom_site_label
 _atom_site_symmetry_multiplicity
 _atom_site_fract_x
 _atom_site_fract_y
 _atom_site_fract_z
 _atom_site_occupancy
  Nd  Nd0  1  0.88574078  0.75000000  0.77148157  1
  Nd  Nd1  1  0.11425922  0.25000000  0.22851843  1
  Al  Al2  1  0.50000000  0.50000000  -0.00000000  1
  Al  Al3  1  0.50000000  0.00000000  -0.00000000  1
  Al  Al4  1  0.07740963  0.75000000  0.15481925  1
  Al  Al5  1  0.92259037  0.25000000  0.84518075  1
  Al  Al6  1  0.69173883  0.55158691  0.38347767  1
  Al  Al7  1  0.30826117  0.44841309  0.61652233  1
  Al  Al8  1  0.69173883  0.94841309  0.38347767  1
  Al  Al9  1  0.30826117  0.05158691  0.61652233  1
  Ni  Ni10  1  0.22300449  0.75000000  0.44600898  1
  Ni  Ni11  1  0.77699551  0.25000000  0.55399102  1
