# generated using pymatgen
data_BiIrS
_symmetry_space_group_name_H-M   'P 1'
_cell_length_a   6.21905625
_cell_length_b   6.21905625
_cell_length_c   6.21905625
_cell_angle_alpha   90.00000000
_cell_angle_beta   90.00000000
_cell_angle_gamma   90.00000000
_symmetry_Int_Tables_number   1
_chemical_formula_structural   BiIrS
_chemical_formula_sum   'Bi4 Ir4 S4'
_cell_volume   240.53232809
_cell_formula_units_Z   4
loop_
 _symmetry_equiv_pos_site_id
 _symmetry_equiv_pos_as_xyz
  1  'x, y, z'
loop_
 _atom_site_type_symbol
 _atom_site_label
 _atom_site_symmetry_multiplicity
 _atom_site_fract_x
 _atom_site_fract_y
 _atom_site_fract_z
 _atom_site_occupancy
  Bi  Bi0  1  0.12863119  0.62863119  0.87136881  1
  Bi  Bi1  1  0.62863119  0.87136881  0.12863119  1
  Bi  Bi2  1  0.87136881  0.12863119  0.62863119  1
  Bi  Bi3  1  0.37136881  0.37136881  0.37136881  1
  Ir  Ir4  1  0.47735180  0.97735180  0.52264820  1
  Ir  Ir5  1  0.97735180  0.52264820  0.47735180  1
  Ir  Ir6  1  0.52264820  0.47735180  0.97735180  1
  Ir  Ir7  1  0.02264820  0.02264820  0.02264820  1
  S  S8  1  0.88171753  0.38171753  0.11828247  1
  S  S9  1  0.38171753  0.11828247  0.88171753  1
  S  S10  1  0.11828247  0.88171753  0.38171753  1
  S  S11  1  0.61828247  0.61828247  0.61828247  1
