# generated using pymatgen
data_Tm3(CuSi)4
_symmetry_space_group_name_H-M   'P 1'
_cell_length_a   4.08937397
_cell_length_b   6.49022388
_cell_length_c   7.77399008
_cell_angle_alpha   114.67255838
_cell_angle_beta   105.24912095
_cell_angle_gamma   90.00000000
_symmetry_Int_Tables_number   1
_chemical_formula_structural   Tm3(CuSi)4
_chemical_formula_sum   'Tm3 Cu4 Si4'
_cell_volume   179.46753621
_cell_formula_units_Z   1
loop_
 _symmetry_equiv_pos_site_id
 _symmetry_equiv_pos_as_xyz
  1  'x, y, z'
loop_
 _atom_site_type_symbol
 _atom_site_label
 _atom_site_symmetry_multiplicity
 _atom_site_fract_x
 _atom_site_fract_y
 _atom_site_fract_z
 _atom_site_occupancy
  Tm  Tm0  1  0.87127889  0.37127889  0.74255778  1
  Tm  Tm1  1  0.12872111  0.62872111  0.25744222  1
  Tm  Tm2  1  0.00000000  -0.00000000  -0.00000000  1
  Cu  Cu3  1  0.33083787  0.63926130  0.66167575  1
  Cu  Cu4  1  0.66916213  0.36073870  0.33832425  1
  Cu  Cu5  1  0.33083787  0.02241445  0.66167575  1
  Cu  Cu6  1  0.66916213  0.97758555  0.33832425  1
  Si  Si7  1  0.21608268  0.21608268  0.43216536  1
  Si  Si8  1  0.78391732  0.78391732  0.56783464  1
  Si  Si9  1  0.50000000  0.68565643  1.00000000  1
  Si  Si10  1  0.50000000  0.31434357  0.00000000  1
