# generated using pymatgen
data_CsCoN
_symmetry_space_group_name_H-M   'P 1'
_cell_length_a   10.53320254
_cell_length_b   3.51949644
_cell_length_c   7.27468453
_cell_angle_alpha   90.00000000
_cell_angle_beta   90.00000000
_cell_angle_gamma   90.00000000
_symmetry_Int_Tables_number   1
_chemical_formula_structural   CsCoN
_chemical_formula_sum   'Cs4 Co4 N4'
_cell_volume   269.68396835
_cell_formula_units_Z   4
loop_
 _symmetry_equiv_pos_site_id
 _symmetry_equiv_pos_as_xyz
  1  'x, y, z'
loop_
 _atom_site_type_symbol
 _atom_site_label
 _atom_site_symmetry_multiplicity
 _atom_site_fract_x
 _atom_site_fract_y
 _atom_site_fract_z
 _atom_site_occupancy
  Cs  Cs0  1  0.67754116  0.25000000  0.04552691  1
  Cs  Cs1  1  0.17754116  0.25000000  0.45447309  1
  Cs  Cs2  1  0.32245884  0.75000000  0.95447309  1
  Cs  Cs3  1  0.82245884  0.75000000  0.54552691  1
  Co  Co4  1  0.52145075  0.25000000  0.60109172  1
  Co  Co5  1  0.02145075  0.25000000  0.89890828  1
  Co  Co6  1  0.47854925  0.75000000  0.39890828  1
  Co  Co7  1  0.97854925  0.75000000  0.10109172  1
  N  N8  1  0.96699676  0.25000000  0.15041060  1
  N  N9  1  0.46699676  0.25000000  0.34958940  1
  N  N10  1  0.03300324  0.75000000  0.84958940  1
  N  N11  1  0.53300324  0.75000000  0.65041060  1
