# generated using pymatgen
data_EuIn4Au
_symmetry_space_group_name_H-M   'P 1'
_cell_length_a   4.73593428
_cell_length_b   7.56369697
_cell_length_c   8.94528287
_cell_angle_alpha   90.00000000
_cell_angle_beta   105.35013228
_cell_angle_gamma   90.00000000
_symmetry_Int_Tables_number   1
_chemical_formula_structural   EuIn4Au
_chemical_formula_sum   'Eu2 In8 Au2'
_cell_volume   308.99952977
_cell_formula_units_Z   2
loop_
 _symmetry_equiv_pos_site_id
 _symmetry_equiv_pos_as_xyz
  1  'x, y, z'
loop_
 _atom_site_type_symbol
 _atom_site_label
 _atom_site_symmetry_multiplicity
 _atom_site_fract_x
 _atom_site_fract_y
 _atom_site_fract_z
 _atom_site_occupancy
  Eu  Eu0  1  0.62569927  0.75000000  0.25139854  1
  Eu  Eu1  1  0.37430073  0.25000000  0.74860146  1
  In  In2  1  0.82127877  0.54825159  0.64255754  1
  In  In3  1  0.17872123  0.45174841  0.35744246  1
  In  In4  1  0.82127877  0.95174841  0.64255754  1
  In  In5  1  0.17872123  0.04825159  0.35744246  1
  In  In6  1  0.43664867  0.75000000  0.87329734  1
  In  In7  1  0.56335133  0.25000000  0.12670266  1
  In  In8  1  -0.00000000  0.50000000  -0.00000000  1
  In  In9  1  -0.00000000  -0.00000000  -0.00000000  1
  Au  Au10  1  0.27409878  0.75000000  0.54819756  1
  Au  Au11  1  0.72590122  0.25000000  0.45180244  1
