# generated using pymatgen
data_PrIn4Ni
_symmetry_space_group_name_H-M   'P 1'
_cell_length_a   4.51734508
_cell_length_b   7.25475283
_cell_length_c   8.73426656
_cell_angle_alpha   90.00000000
_cell_angle_beta   104.98694506
_cell_angle_gamma   90.00000000
_symmetry_Int_Tables_number   1
_chemical_formula_structural   PrIn4Ni
_chemical_formula_sum   'Pr2 In8 Ni2'
_cell_volume   276.50475949
_cell_formula_units_Z   2
loop_
 _symmetry_equiv_pos_site_id
 _symmetry_equiv_pos_as_xyz
  1  'x, y, z'
loop_
 _atom_site_type_symbol
 _atom_site_label
 _atom_site_symmetry_multiplicity
 _atom_site_fract_x
 _atom_site_fract_y
 _atom_site_fract_z
 _atom_site_occupancy
  Pr  Pr0  1  0.88138701  0.75000000  0.76277401  1
  Pr  Pr1  1  0.11861299  0.25000000  0.23722599  1
  In  In2  1  0.50000000  0.50000000  0.00000000  1
  In  In3  1  0.50000000  -0.00000000  0.00000000  1
  In  In4  1  0.07535155  0.75000000  0.15070309  1
  In  In5  1  0.92464845  0.25000000  0.84929691  1
  In  In6  1  0.68891977  0.54821408  0.37783953  1
  In  In7  1  0.31108023  0.45178592  0.62216047  1
  In  In8  1  0.68891977  0.95178592  0.37783953  1
  In  In9  1  0.31108023  0.04821408  0.62216047  1
  Ni  Ni10  1  0.22636663  0.75000000  0.45273326  1
  Ni  Ni11  1  0.77363337  0.25000000  0.54726674  1
