# generated using pymatgen
data_ScGeIr
_symmetry_space_group_name_H-M   'P 1'
_cell_length_a   4.14869646
_cell_length_b   6.51035409
_cell_length_c   7.52381622
_cell_angle_alpha   90.00000000
_cell_angle_beta   90.00000000
_cell_angle_gamma   90.00000000
_symmetry_Int_Tables_number   1
_chemical_formula_structural   ScGeIr
_chemical_formula_sum   'Sc4 Ge4 Ir4'
_cell_volume   203.21438604
_cell_formula_units_Z   4
loop_
 _symmetry_equiv_pos_site_id
 _symmetry_equiv_pos_as_xyz
  1  'x, y, z'
loop_
 _atom_site_type_symbol
 _atom_site_label
 _atom_site_symmetry_multiplicity
 _atom_site_fract_x
 _atom_site_fract_y
 _atom_site_fract_z
 _atom_site_occupancy
  Sc  Sc0  1  0.75000000  0.48599257  0.18730757  1
  Sc  Sc1  1  0.75000000  0.98599257  0.31269243  1
  Sc  Sc2  1  0.25000000  0.51400743  0.81269243  1
  Sc  Sc3  1  0.25000000  0.01400743  0.68730757  1
  Ge  Ge4  1  0.75000000  0.21565935  0.87687559  1
  Ge  Ge5  1  0.75000000  0.71565935  0.62312441  1
  Ge  Ge6  1  0.25000000  0.78434065  0.12312441  1
  Ge  Ge7  1  0.25000000  0.28434065  0.37687559  1
  Ir  Ir8  1  0.75000000  0.33614834  0.55754965  1
  Ir  Ir9  1  0.75000000  0.83614834  0.94245035  1
  Ir  Ir10  1  0.25000000  0.66385166  0.44245035  1
  Ir  Ir11  1  0.25000000  0.16385166  0.05754965  1
