# generated using pymatgen
data_HfGeIr
_symmetry_space_group_name_H-M   'P 1'
_cell_length_a   4.05076417
_cell_length_b   6.53942300
_cell_length_c   7.55768945
_cell_angle_alpha   90.00000000
_cell_angle_beta   90.00000000
_cell_angle_gamma   90.00000000
_symmetry_Int_Tables_number   1
_chemical_formula_structural   HfGeIr
_chemical_formula_sum   'Hf4 Ge4 Ir4'
_cell_volume   200.20062679
_cell_formula_units_Z   4
loop_
 _symmetry_equiv_pos_site_id
 _symmetry_equiv_pos_as_xyz
  1  'x, y, z'
loop_
 _atom_site_type_symbol
 _atom_site_label
 _atom_site_symmetry_multiplicity
 _atom_site_fract_x
 _atom_site_fract_y
 _atom_site_fract_z
 _atom_site_occupancy
  Hf  Hf0  1  0.75000000  0.47967075  0.18537283  1
  Hf  Hf1  1  0.75000000  0.97967075  0.31462717  1
  Hf  Hf2  1  0.25000000  0.52032925  0.81462717  1
  Hf  Hf3  1  0.25000000  0.02032925  0.68537283  1
  Ge  Ge4  1  0.75000000  0.23074994  0.88093445  1
  Ge  Ge5  1  0.75000000  0.73074994  0.61906555  1
  Ge  Ge6  1  0.25000000  0.76925006  0.11906555  1
  Ge  Ge7  1  0.25000000  0.26925006  0.38093445  1
  Ir  Ir8  1  0.75000000  0.34474792  0.56461897  1
  Ir  Ir9  1  0.75000000  0.84474792  0.93538103  1
  Ir  Ir10  1  0.25000000  0.65525208  0.43538103  1
  Ir  Ir11  1  0.25000000  0.15525208  0.06461897  1
