# generated using pymatgen
data_Ho5S7
_symmetry_space_group_name_H-M   'P 1'
_cell_length_a   3.78778731
_cell_length_b   6.65828951
_cell_length_c   11.56804303
_cell_angle_alpha   103.94512305
_cell_angle_beta   90.00000000
_cell_angle_gamma   106.52546550
_symmetry_Int_Tables_number   1
_chemical_formula_structural   Ho5S7
_chemical_formula_sum   'Ho5 S7'
_cell_volume   270.71585216
_cell_formula_units_Z   1
loop_
 _symmetry_equiv_pos_site_id
 _symmetry_equiv_pos_as_xyz
  1  'x, y, z'
loop_
 _atom_site_type_symbol
 _atom_site_label
 _atom_site_symmetry_multiplicity
 _atom_site_fract_x
 _atom_site_fract_y
 _atom_site_fract_z
 _atom_site_occupancy
  Ho  Ho0  1  -0.00000000  -0.00000000  -0.00000000  1
  Ho  Ho1  1  0.11196404  0.22392808  0.42087997  1
  Ho  Ho2  1  0.88803596  0.77607192  0.57912003  1
  Ho  Ho3  1  0.30003378  0.60006756  0.18680510  1
  Ho  Ho4  1  0.69996622  0.39993244  0.81319490  1
  S  S5  1  0.50000000  -0.00000000  0.50000000  1
  S  S6  1  0.65901215  0.31802430  0.05086306  1
  S  S7  1  0.34098785  0.68197570  0.94913694  1
  S  S8  1  0.95836430  0.91672861  0.21491571  1
  S  S9  1  0.04163570  0.08327139  0.78508429  1
  S  S10  1  0.25949499  0.51898998  0.64822675  1
  S  S11  1  0.74050501  0.48101002  0.35177325  1
