# generated using pymatgen
data_ErSiPt
_symmetry_space_group_name_H-M   'P 1'
_cell_length_a   4.29054270
_cell_length_b   6.93607881
_cell_length_c   7.44832073
_cell_angle_alpha   90.00000000
_cell_angle_beta   90.00000000
_cell_angle_gamma   90.00000000
_symmetry_Int_Tables_number   1
_chemical_formula_structural   ErSiPt
_chemical_formula_sum   'Er4 Si4 Pt4'
_cell_volume   221.65861586
_cell_formula_units_Z   4
loop_
 _symmetry_equiv_pos_site_id
 _symmetry_equiv_pos_as_xyz
  1  'x, y, z'
loop_
 _atom_site_type_symbol
 _atom_site_label
 _atom_site_symmetry_multiplicity
 _atom_site_fract_x
 _atom_site_fract_y
 _atom_site_fract_z
 _atom_site_occupancy
  Er  Er0  1  0.75000000  0.50178676  0.70350139  1
  Er  Er1  1  0.75000000  0.00178676  0.79649861  1
  Er  Er2  1  0.25000000  0.49821324  0.29649861  1
  Er  Er3  1  0.25000000  0.99821324  0.20350139  1
  Si  Si4  1  0.75000000  0.69107691  0.08859402  1
  Si  Si5  1  0.75000000  0.19107691  0.41140598  1
  Si  Si6  1  0.25000000  0.30892309  0.91140598  1
  Si  Si7  1  0.25000000  0.80892309  0.58859402  1
  Pt  Pt8  1  0.75000000  0.30159055  0.08436484  1
  Pt  Pt9  1  0.75000000  0.80159055  0.41563516  1
  Pt  Pt10  1  0.25000000  0.69840945  0.91563516  1
  Pt  Pt11  1  0.25000000  0.19840945  0.58436484  1
