# generated using pymatgen
data_TeMoWS3
_symmetry_space_group_name_H-M   'P 1'
_cell_length_a   3.27490760
_cell_length_b   3.27495471
_cell_length_c   37.35024967
_cell_angle_alpha   89.99968651
_cell_angle_beta   90.00001246
_cell_angle_gamma   119.99971411
_symmetry_Int_Tables_number   1
_chemical_formula_structural   TeMoWS3
_chemical_formula_sum   'Te2 Mo2 W2 S6'
_cell_volume   346.92032250
_cell_formula_units_Z   2
loop_
 _symmetry_equiv_pos_site_id
 _symmetry_equiv_pos_as_xyz
  1  'x, y, z'
loop_
 _atom_site_type_symbol
 _atom_site_label
 _atom_site_symmetry_multiplicity
 _atom_site_fract_x
 _atom_site_fract_y
 _atom_site_fract_z
 _atom_site_occupancy
  Te  Te0  1  0.33336137  0.66672304  0.70952224  1
  Te  Te1  1  0.33335235  0.66670570  0.60561803  1
  Mo  Mo2  1  0.33332183  0.66664349  0.46960841  1
  Mo  Mo3  1  0.66668421  0.33336817  0.28179764  1
  W  W4  1  0.33331190  0.66662350  0.09391875  1
  W  W5  1  0.66668847  0.33337780  0.65759448  1
  S  S6  1  0.33335576  0.66671056  0.32294392  1
  S  S7  1  0.66664555  0.33329119  0.05258233  1
  S  S8  1  0.66664164  0.33328403  0.42848364  1
  S  S9  1  0.66664056  0.33328168  0.13526296  1
  S  S10  1  0.66664215  0.33328370  0.51076265  1
  S  S11  1  0.33335422  0.66670713  0.24065294  1
