# generated using pymatgen
data_ZrCoGe
_symmetry_space_group_name_H-M   'P 1'
_cell_length_a   3.93974399
_cell_length_b   6.56896564
_cell_length_c   7.25912524
_cell_angle_alpha   90.00000000
_cell_angle_beta   90.00000000
_cell_angle_gamma   90.00000000
_symmetry_Int_Tables_number   1
_chemical_formula_structural   ZrCoGe
_chemical_formula_sum   'Zr4 Co4 Ge4'
_cell_volume   187.86647263
_cell_formula_units_Z   4
loop_
 _symmetry_equiv_pos_site_id
 _symmetry_equiv_pos_as_xyz
  1  'x, y, z'
loop_
 _atom_site_type_symbol
 _atom_site_label
 _atom_site_symmetry_multiplicity
 _atom_site_fract_x
 _atom_site_fract_y
 _atom_site_fract_z
 _atom_site_occupancy
  Zr  Zr0  1  0.75000000  0.49063710  0.69900785  1
  Zr  Zr1  1  0.75000000  0.99063710  0.80099215  1
  Zr  Zr2  1  0.25000000  0.50936290  0.30099215  1
  Zr  Zr3  1  0.25000000  0.00936290  0.19900785  1
  Co  Co4  1  0.75000000  0.35880181  0.06878642  1
  Co  Co5  1  0.75000000  0.85880181  0.43121358  1
  Co  Co6  1  0.25000000  0.64119819  0.93121358  1
  Co  Co7  1  0.25000000  0.14119819  0.56878642  1
  Ge  Ge8  1  0.75000000  0.72593259  0.10520927  1
  Ge  Ge9  1  0.75000000  0.22593259  0.39479073  1
  Ge  Ge10  1  0.25000000  0.27406741  0.89479073  1
  Ge  Ge11  1  0.25000000  0.77406741  0.60520927  1
