# generated using pymatgen
data_TmFe3
_symmetry_space_group_name_H-M   'P 1'
_cell_length_a   5.06052132
_cell_length_b   5.06052132
_cell_length_c   8.52890654
_cell_angle_alpha   72.74236789
_cell_angle_beta   72.74236789
_cell_angle_gamma   60.00000466
_symmetry_Int_Tables_number   1
_chemical_formula_structural   TmFe3
_chemical_formula_sum   'Tm3 Fe9'
_cell_volume   177.70875747
_cell_formula_units_Z   3
loop_
 _symmetry_equiv_pos_site_id
 _symmetry_equiv_pos_as_xyz
  1  'x, y, z'
loop_
 _atom_site_type_symbol
 _atom_site_label
 _atom_site_symmetry_multiplicity
 _atom_site_fract_x
 _atom_site_fract_y
 _atom_site_fract_z
 _atom_site_occupancy
  Tm  Tm0  1  0.14190831  0.14190831  0.57427507  1
  Tm  Tm1  1  0.85809169  0.85809169  0.42572493  1
  Tm  Tm2  1  -0.00000000  -0.00000000  0.00000000  1
  Fe  Fe3  1  0.08217428  0.58173220  0.75436131  1
  Fe  Fe4  1  0.58173220  0.58173220  0.75436131  1
  Fe  Fe5  1  0.58173220  0.08217428  0.75436131  1
  Fe  Fe6  1  0.91782572  0.41826780  0.24563869  1
  Fe  Fe7  1  0.41826780  0.41826780  0.24563869  1
  Fe  Fe8  1  0.41826780  0.91782572  0.24563869  1
  Fe  Fe9  1  0.33269303  0.33269303  0.00192092  1
  Fe  Fe10  1  0.66730697  0.66730697  0.99807908  1
  Fe  Fe11  1  0.50000000  0.50000000  0.50000000  1
