# generated using pymatgen
data_Pr3(NiGe)4
_symmetry_space_group_name_H-M   'P 1'
_cell_length_a   4.17389161
_cell_length_b   4.16747235
_cell_length_c   12.38237666
_cell_angle_alpha   99.68796971
_cell_angle_beta   99.70303653
_cell_angle_gamma   90.00000000
_symmetry_Int_Tables_number   1
_chemical_formula_structural   Pr3(NiGe)4
_chemical_formula_sum   'Pr3 Ni4 Ge4'
_cell_volume   209.18811667
_cell_formula_units_Z   1
loop_
 _symmetry_equiv_pos_site_id
 _symmetry_equiv_pos_as_xyz
  1  'x, y, z'
loop_
 _atom_site_type_symbol
 _atom_site_label
 _atom_site_symmetry_multiplicity
 _atom_site_fract_x
 _atom_site_fract_y
 _atom_site_fract_z
 _atom_site_occupancy
  Pr  Pr0  1  0.15074414  0.65074414  0.30148829  1
  Pr  Pr1  1  0.84925586  0.34925586  0.69851171  1
  Pr  Pr2  1  0.00000000  0.00000000  -0.00000000  1
  Ni  Ni3  1  0.75149435  0.75149435  0.50298870  1
  Ni  Ni4  1  0.24850565  0.24850565  0.49701130  1
  Ni  Ni5  1  0.40077203  0.90077203  0.80154407  1
  Ni  Ni6  1  0.59922797  0.09922797  0.19845593  1
  Ge  Ge7  1  0.30141495  0.80141495  0.60282990  1
  Ge  Ge8  1  0.69858505  0.19858505  0.39717010  1
  Ge  Ge9  1  0.55335071  0.55335071  0.10670142  1
  Ge  Ge10  1  0.44664929  0.44664929  0.89329858  1
