# generated using pymatgen
data_NdSi2Rh3
_symmetry_space_group_name_H-M   'P 1'
_cell_length_a   5.62418790
_cell_length_b   6.69079543
_cell_length_c   6.69079543
_cell_angle_alpha   64.94855460
_cell_angle_beta   65.14691786
_cell_angle_gamma   65.14691786
_symmetry_Int_Tables_number   1
_chemical_formula_structural   NdSi2Rh3
_chemical_formula_sum   'Nd2 Si4 Rh6'
_cell_volume   197.77020327
_cell_formula_units_Z   2
loop_
 _symmetry_equiv_pos_site_id
 _symmetry_equiv_pos_as_xyz
  1  'x, y, z'
loop_
 _atom_site_type_symbol
 _atom_site_label
 _atom_site_symmetry_multiplicity
 _atom_site_fract_x
 _atom_site_fract_y
 _atom_site_fract_z
 _atom_site_occupancy
  Nd  Nd0  1  0.96058119  0.75000000  0.75000000  1
  Nd  Nd1  1  0.03941881  0.25000000  0.25000000  1
  Si  Si2  1  0.61936231  0.57851788  0.57851788  1
  Si  Si3  1  0.38063769  0.42148212  0.42148212  1
  Si  Si4  1  0.72360193  0.07851788  0.07851788  1
  Si  Si5  1  0.27639807  0.92148212  0.92148212  1
  Rh  Rh6  1  0.50000000  0.78368141  0.21631859  1
  Rh  Rh7  1  -0.00000000  0.28368141  0.71631859  1
  Rh  Rh8  1  0.50000000  0.21631859  0.78368141  1
  Rh  Rh9  1  -0.00000000  0.71631859  0.28368141  1
  Rh  Rh10  1  0.50000000  0.00000000  0.50000000  1
  Rh  Rh11  1  0.50000000  0.50000000  -0.00000000  1
