# generated using pymatgen
data_YGaCo
_symmetry_space_group_name_H-M   'P 1'
_cell_length_a   4.22789512
_cell_length_b   6.86156759
_cell_length_c   7.37485534
_cell_angle_alpha   90.00000000
_cell_angle_beta   90.00000000
_cell_angle_gamma   90.00000000
_symmetry_Int_Tables_number   1
_chemical_formula_structural   YGaCo
_chemical_formula_sum   'Y4 Ga4 Co4'
_cell_volume   213.94446587
_cell_formula_units_Z   4
loop_
 _symmetry_equiv_pos_site_id
 _symmetry_equiv_pos_as_xyz
  1  'x, y, z'
loop_
 _atom_site_type_symbol
 _atom_site_label
 _atom_site_symmetry_multiplicity
 _atom_site_fract_x
 _atom_site_fract_y
 _atom_site_fract_z
 _atom_site_occupancy
  Y  Y0  1  0.75000000  0.48344939  0.69086435  1
  Y  Y1  1  0.75000000  0.98344939  0.80913565  1
  Y  Y2  1  0.25000000  0.51655061  0.30913565  1
  Y  Y3  1  0.25000000  0.01655061  0.19086435  1
  Ga  Ga4  1  0.75000000  0.32680320  0.07814214  1
  Ga  Ga5  1  0.75000000  0.82680320  0.42185786  1
  Ga  Ga6  1  0.25000000  0.67319680  0.92185786  1
  Ga  Ga7  1  0.25000000  0.17319680  0.57814214  1
  Co  Co8  1  0.75000000  0.70227764  0.10037453  1
  Co  Co9  1  0.75000000  0.20227764  0.39962547  1
  Co  Co10  1  0.25000000  0.29772236  0.89962547  1
  Co  Co11  1  0.25000000  0.79772236  0.60037453  1
