# generated using pymatgen
data_CsCrP2S7
_symmetry_space_group_name_H-M   'P 1'
_cell_length_a   6.54149484
_cell_length_b   6.54149484
_cell_length_c   7.06287545
_cell_angle_alpha   94.79123881
_cell_angle_beta   94.79123881
_cell_angle_gamma   96.74389443
_symmetry_Int_Tables_number   1
_chemical_formula_structural   CsCrP2S7
_chemical_formula_sum   'Cs1 Cr1 P2 S7'
_cell_volume   297.75549901
_cell_formula_units_Z   1
loop_
 _symmetry_equiv_pos_site_id
 _symmetry_equiv_pos_as_xyz
  1  'x, y, z'
loop_
 _atom_site_type_symbol
 _atom_site_label
 _atom_site_symmetry_multiplicity
 _atom_site_fract_x
 _atom_site_fract_y
 _atom_site_fract_z
 _atom_site_occupancy
  Cs  Cs0  1  0.10349308  0.89650692  0.00000000  1
  Cr  Cr1  1  0.51279681  0.48720319  0.50000000  1
  P  P2  1  0.65873190  0.94012442  0.42677087  1
  P  P3  1  0.05987558  0.34126810  0.57322913  1
  S  S4  1  0.64196439  0.67815030  0.24447509  1
  S  S5  1  0.32184970  0.35803561  0.75552491  1
  S  S6  1  0.52467058  0.83500993  0.65624042  1
  S  S7  1  0.16499007  0.47532942  0.34375958  1
  S  S8  1  0.54739077  0.17387920  0.29486819  1
  S  S9  1  0.82612080  0.45260923  0.70513181  1
  S  S10  1  0.98846633  0.01153367  0.50000000  1
