# generated using pymatgen
data_DyAlPd
_symmetry_space_group_name_H-M   'P 1'
_cell_length_a   4.46219537
_cell_length_b   6.89513177
_cell_length_c   7.81882943
_cell_angle_alpha   90.00000000
_cell_angle_beta   90.00000000
_cell_angle_gamma   90.00000000
_symmetry_Int_Tables_number   1
_chemical_formula_structural   DyAlPd
_chemical_formula_sum   'Dy4 Al4 Pd4'
_cell_volume   240.56524854
_cell_formula_units_Z   4
loop_
 _symmetry_equiv_pos_site_id
 _symmetry_equiv_pos_as_xyz
  1  'x, y, z'
loop_
 _atom_site_type_symbol
 _atom_site_label
 _atom_site_symmetry_multiplicity
 _atom_site_fract_x
 _atom_site_fract_y
 _atom_site_fract_z
 _atom_site_occupancy
  Dy  Dy0  1  0.75000000  0.46613153  0.17859185  1
  Dy  Dy1  1  0.75000000  0.96613153  0.32140815  1
  Dy  Dy2  1  0.25000000  0.53386847  0.82140815  1
  Dy  Dy3  1  0.25000000  0.03386847  0.67859185  1
  Al  Al4  1  0.75000000  0.35704080  0.56045969  1
  Al  Al5  1  0.75000000  0.85704080  0.93954031  1
  Al  Al6  1  0.25000000  0.64295920  0.43954031  1
  Al  Al7  1  0.25000000  0.14295920  0.06045969  1
  Pd  Pd8  1  0.75000000  0.22812449  0.87936511  1
  Pd  Pd9  1  0.75000000  0.72812449  0.62063489  1
  Pd  Pd10  1  0.25000000  0.77187551  0.12063489  1
  Pd  Pd11  1  0.25000000  0.27187551  0.37936511  1
