# generated using pymatgen
data_BaYCuS3
_symmetry_space_group_name_H-M   'P 1'
_cell_length_a   4.03746304
_cell_length_b   7.08947279
_cell_length_c   10.30500642
_cell_angle_alpha   90.00000000
_cell_angle_beta   90.00000000
_cell_angle_gamma   106.54394041
_symmetry_Int_Tables_number   1
_chemical_formula_structural   BaYCuS3
_chemical_formula_sum   'Ba2 Y2 Cu2 S6'
_cell_volume   282.75411486
_cell_formula_units_Z   2
loop_
 _symmetry_equiv_pos_site_id
 _symmetry_equiv_pos_as_xyz
  1  'x, y, z'
loop_
 _atom_site_type_symbol
 _atom_site_label
 _atom_site_symmetry_multiplicity
 _atom_site_fract_x
 _atom_site_fract_y
 _atom_site_fract_z
 _atom_site_occupancy
  Ba  Ba0  1  0.74421247  0.48842494  0.25000000  1
  Ba  Ba1  1  0.25578753  0.51157506  0.75000000  1
  Y  Y2  1  -0.00000000  -0.00000000  0.50000000  1
  Y  Y3  1  -0.00000000  -0.00000000  -0.00000000  1
  Cu  Cu4  1  0.46740398  0.93480796  0.25000000  1
  Cu  Cu5  1  0.53259602  0.06519204  0.75000000  1
  S  S6  1  0.36848126  0.73696253  0.43581501  1
  S  S7  1  0.63151874  0.26303747  0.56418499  1
  S  S8  1  0.36848126  0.73696253  0.06418499  1
  S  S9  1  0.63151874  0.26303747  0.93581501  1
  S  S10  1  0.06579876  0.13159752  0.25000000  1
  S  S11  1  0.93420124  0.86840248  0.75000000  1
