# generated using pymatgen
data_Te6Mo3WS2
_symmetry_space_group_name_H-M   'P 1'
_cell_length_a   3.45565471
_cell_length_b   3.45564820
_cell_length_c   39.28496991
_cell_angle_alpha   90.00014856
_cell_angle_beta   90.00000000
_cell_angle_gamma   120.00006223
_symmetry_Int_Tables_number   1
_chemical_formula_structural   Te6Mo3WS2
_chemical_formula_sum   'Te6 Mo3 W1 S2'
_cell_volume   406.27177184
_cell_formula_units_Z   1
loop_
 _symmetry_equiv_pos_site_id
 _symmetry_equiv_pos_as_xyz
  1  'x, y, z'
loop_
 _atom_site_type_symbol
 _atom_site_label
 _atom_site_symmetry_multiplicity
 _atom_site_fract_x
 _atom_site_fract_y
 _atom_site_fract_z
 _atom_site_occupancy
  Te  Te0  1  0.33335637  0.66671375  0.70487614  1
  Te  Te1  1  0.66664262  0.33328424  0.04681455  1
  Te  Te2  1  0.66664482  0.33328864  0.42248703  1
  Te  Te3  1  0.66664128  0.33328156  0.14108961  1
  Te  Te4  1  0.66664403  0.33328706  0.51663853  1
  Te  Te5  1  0.33335891  0.66671883  0.61028133  1
  Mo  Mo6  1  0.33330821  0.66661643  0.09392384  1
  Mo  Mo7  1  0.33331262  0.66662524  0.46961412  1
  Mo  Mo8  1  0.66668849  0.33337697  0.28181850  1
  W  W9  1  0.66668953  0.33337907  0.65760528  1
  S  S10  1  0.33335794  0.66671689  0.31968938  1
  S  S11  1  0.33335517  0.66671134  0.24390969  1
