# generated using pymatgen
data_U3Co2Si7
_symmetry_space_group_name_H-M   'P 1'
_cell_length_a   3.97477613
_cell_length_b   4.02672069
_cell_length_c   12.35177023
_cell_angle_alpha   90.00000000
_cell_angle_beta   99.25908402
_cell_angle_gamma   90.00000000
_symmetry_Int_Tables_number   1
_chemical_formula_structural   U3Co2Si7
_chemical_formula_sum   'U3 Co2 Si7'
_cell_volume   195.11817174
_cell_formula_units_Z   1
loop_
 _symmetry_equiv_pos_site_id
 _symmetry_equiv_pos_as_xyz
  1  'x, y, z'
loop_
 _atom_site_type_symbol
 _atom_site_label
 _atom_site_symmetry_multiplicity
 _atom_site_fract_x
 _atom_site_fract_y
 _atom_site_fract_z
 _atom_site_occupancy
  U  U0  1  0.31412033  0.00000000  0.62824065  1
  U  U1  1  0.68587967  0.00000000  0.37175935  1
  U  U2  1  -0.00000000  0.50000000  -0.00000000  1
  Co  Co3  1  0.12871118  0.50000000  0.25742237  1
  Co  Co4  1  0.87128882  0.50000000  0.74257763  1
  Si  Si5  1  0.50000000  -0.00000000  -0.00000000  1
  Si  Si6  1  0.41313293  0.50000000  0.82626586  1
  Si  Si7  1  0.58686707  0.50000000  0.17373414  1
  Si  Si8  1  0.08751695  -0.00000000  0.17503390  1
  Si  Si9  1  0.91248305  -0.00000000  0.82496610  1
  Si  Si10  1  0.22223483  0.50000000  0.44446965  1
  Si  Si11  1  0.77776517  0.50000000  0.55553035  1
