# generated using pymatgen
data_BaScCuS3
_symmetry_space_group_name_H-M   'P 1'
_cell_length_a   3.91113784
_cell_length_b   7.03194954
_cell_length_c   9.81874918
_cell_angle_alpha   90.00000000
_cell_angle_beta   90.00000000
_cell_angle_gamma   106.14670162
_symmetry_Int_Tables_number   1
_chemical_formula_structural   BaScCuS3
_chemical_formula_sum   'Ba2 Sc2 Cu2 S6'
_cell_volume   259.39181908
_cell_formula_units_Z   2
loop_
 _symmetry_equiv_pos_site_id
 _symmetry_equiv_pos_as_xyz
  1  'x, y, z'
loop_
 _atom_site_type_symbol
 _atom_site_label
 _atom_site_symmetry_multiplicity
 _atom_site_fract_x
 _atom_site_fract_y
 _atom_site_fract_z
 _atom_site_occupancy
  Ba  Ba0  1  0.74626805  0.49253609  0.25000000  1
  Ba  Ba1  1  0.25373195  0.50746391  0.75000000  1
  Sc  Sc2  1  -0.00000000  0.00000000  0.50000000  1
  Sc  Sc3  1  -0.00000000  -0.00000000  0.00000000  1
  Cu  Cu4  1  0.46731604  0.93463208  0.25000000  1
  Cu  Cu5  1  0.53268396  0.06536792  0.75000000  1
  S  S6  1  0.37422926  0.74845852  0.44650929  1
  S  S7  1  0.62577074  0.25154148  0.55349071  1
  S  S8  1  0.37422926  0.74845852  0.05349071  1
  S  S9  1  0.62577074  0.25154148  0.94650929  1
  S  S10  1  0.06409945  0.12819890  0.25000000  1
  S  S11  1  0.93590055  0.87180110  0.75000000  1
