# generated using pymatgen
data_Te6Mo3WS2
_symmetry_space_group_name_H-M   'P 1'
_cell_length_a   3.45899071
_cell_length_b   3.45910747
_cell_length_c   39.24182179
_cell_angle_alpha   89.99994935
_cell_angle_beta   90.00000627
_cell_angle_gamma   119.99877037
_symmetry_Int_Tables_number   1
_chemical_formula_structural   Te6Mo3WS2
_chemical_formula_sum   'Te6 Mo3 W1 S2'
_cell_volume   406.62925920
_cell_formula_units_Z   1
loop_
 _symmetry_equiv_pos_site_id
 _symmetry_equiv_pos_as_xyz
  1  'x, y, z'
loop_
 _atom_site_type_symbol
 _atom_site_label
 _atom_site_symmetry_multiplicity
 _atom_site_fract_x
 _atom_site_fract_y
 _atom_site_fract_z
 _atom_site_occupancy
  Te  Te0  1  0.33335022  0.66670101  0.70470029  1
  Te  Te1  1  0.66664354  0.33328639  0.04682690  1
  Te  Te2  1  0.66664900  0.33329705  0.42221585  1
  Te  Te3  1  0.66664845  0.33329618  0.14109274  1
  Te  Te4  1  0.66664652  0.33329204  0.51691244  1
  Te  Te5  1  0.33334962  0.66669981  0.61049931  1
  Mo  Mo6  1  0.33331364  0.66662728  0.09391465  1
  Mo  Mo7  1  0.66668983  0.33337977  0.28179787  1
  Mo  Mo8  1  0.66668525  0.33337222  0.65762450  1
  W  W9  1  0.33331270  0.66662525  0.46956036  1
  S  S10  1  0.33335696  0.66671409  0.31973769  1
  S  S11  1  0.33335429  0.66670892  0.24386540  1
