# generated using pymatgen
data_Cs2CdI4
_symmetry_space_group_name_H-M   'P 1'
_cell_length_a   8.10429605
_cell_length_b   8.68309409
_cell_length_c   11.37090281
_cell_angle_alpha   90.00000000
_cell_angle_beta   111.40926741
_cell_angle_gamma   90.00000000
_symmetry_Int_Tables_number   1
_chemical_formula_structural   Cs2CdI4
_chemical_formula_sum   'Cs4 Cd2 I8'
_cell_volume   744.95996459
_cell_formula_units_Z   2
loop_
 _symmetry_equiv_pos_site_id
 _symmetry_equiv_pos_as_xyz
  1  'x, y, z'
loop_
 _atom_site_type_symbol
 _atom_site_label
 _atom_site_symmetry_multiplicity
 _atom_site_fract_x
 _atom_site_fract_y
 _atom_site_fract_z
 _atom_site_occupancy
  Cs  Cs0  1  0.28217756  0.25000000  0.59153855  1
  Cs  Cs1  1  0.71782244  0.75000000  0.40846145  1
  Cs  Cs2  1  0.84073300  0.25000000  0.03255172  1
  Cs  Cs3  1  0.15926700  0.75000000  0.96744828  1
  Cd  Cd4  1  0.59062823  0.75000000  0.77687514  1
  Cd  Cd5  1  0.40937177  0.25000000  0.22312486  1
  I  I6  1  0.75262585  0.00908219  0.71463693  1
  I  I7  1  0.24737415  0.50908219  0.28536307  1
  I  I8  1  0.24737415  0.99091781  0.28536307  1
  I  I9  1  0.75262585  0.49091781  0.71463693  1
  I  I10  1  0.31350554  0.25000000  0.95568792  1
  I  I11  1  0.68649446  0.75000000  0.04431208  1
  I  I12  1  0.77738015  0.25000000  0.35468531  1
  I  I13  1  0.22261985  0.75000000  0.64531469  1
