# generated using pymatgen
data_TaTl(PO4)2
_symmetry_space_group_name_H-M   'P 1'
_cell_length_a   5.24939163
_cell_length_b   5.24935257
_cell_length_c   8.20920528
_cell_angle_alpha   89.99999996
_cell_angle_beta   89.99099473
_cell_angle_gamma   119.99975434
_symmetry_Int_Tables_number   1
_chemical_formula_structural   TaTl(PO4)2
_chemical_formula_sum   'Ta1 Tl1 P2 O8'
_cell_volume   195.90590770
_cell_formula_units_Z   1
loop_
 _symmetry_equiv_pos_site_id
 _symmetry_equiv_pos_as_xyz
  1  'x, y, z'
loop_
 _atom_site_type_symbol
 _atom_site_label
 _atom_site_symmetry_multiplicity
 _atom_site_fract_x
 _atom_site_fract_y
 _atom_site_fract_z
 _atom_site_occupancy
  Ta  Ta0  1  0.00000000  0.99994829  0.00000000  1
  Tl  Tl1  1  0.00000000  0.00045750  0.50000000  1
  P  P2  1  0.66678820  0.33335878  0.78312497  1
  P  P3  1  0.33321180  0.66657058  0.21687503  1
  O  O4  1  0.17576400  0.82560054  0.14175388  1
  O  O5  1  0.17406038  0.35013335  0.14171072  1
  O  O6  1  0.64949732  0.82383153  0.14146738  1
  O  O7  1  0.82423600  0.64983654  0.85824612  1
  O  O8  1  0.35050268  0.17433420  0.85853262  1
  O  O9  1  0.82593962  0.17607297  0.85828928  1
  O  O10  1  0.66657081  0.33321326  0.60141890  1
  O  O11  1  0.33342919  0.66664245  0.39858110  1
