# generated using pymatgen
data_Ce3(SiPd)4
_symmetry_space_group_name_H-M   'P 1'
_cell_length_a   4.09862447
_cell_length_b   4.22306546
_cell_length_c   12.69671959
_cell_angle_alpha   99.57307245
_cell_angle_beta   99.28844627
_cell_angle_gamma   90.00000000
_symmetry_Int_Tables_number   1
_chemical_formula_structural   Ce3(SiPd)4
_chemical_formula_sum   'Ce3 Si4 Pd4'
_cell_volume   213.78135700
_cell_formula_units_Z   1
loop_
 _symmetry_equiv_pos_site_id
 _symmetry_equiv_pos_as_xyz
  1  'x, y, z'
loop_
 _atom_site_type_symbol
 _atom_site_label
 _atom_site_symmetry_multiplicity
 _atom_site_fract_x
 _atom_site_fract_y
 _atom_site_fract_z
 _atom_site_occupancy
  Ce  Ce0  1  -0.00000000  -0.00000000  -0.00000000  1
  Ce  Ce1  1  0.14620910  0.64620910  0.29241819  1
  Ce  Ce2  1  0.85379090  0.35379090  0.70758181  1
  Si  Si3  1  0.30376489  0.80376489  0.60752979  1
  Si  Si4  1  0.69623511  0.19623511  0.39247021  1
  Si  Si5  1  0.54843210  0.54843210  0.09686421  1
  Si  Si6  1  0.45156790  0.45156790  0.90313579  1
  Pd  Pd7  1  0.40264890  0.90264890  0.80529780  1
  Pd  Pd8  1  0.59735110  0.09735110  0.19470220  1
  Pd  Pd9  1  0.75052755  0.75052755  0.50105509  1
  Pd  Pd10  1  0.24947245  0.24947245  0.49894491  1
