# generated using pymatgen
data_GdSnPd
_symmetry_space_group_name_H-M   'P 1'
_cell_length_a   4.63520433
_cell_length_b   7.29971201
_cell_length_c   8.06604170
_cell_angle_alpha   90.00000000
_cell_angle_beta   90.00000000
_cell_angle_gamma   90.00000000
_symmetry_Int_Tables_number   1
_chemical_formula_structural   GdSnPd
_chemical_formula_sum   'Gd4 Sn4 Pd4'
_cell_volume   272.91981802
_cell_formula_units_Z   4
loop_
 _symmetry_equiv_pos_site_id
 _symmetry_equiv_pos_as_xyz
  1  'x, y, z'
loop_
 _atom_site_type_symbol
 _atom_site_label
 _atom_site_symmetry_multiplicity
 _atom_site_fract_x
 _atom_site_fract_y
 _atom_site_fract_z
 _atom_site_occupancy
  Gd  Gd0  1  0.75000000  0.48981300  0.20059995  1
  Gd  Gd1  1  0.75000000  0.98981300  0.29940005  1
  Gd  Gd2  1  0.25000000  0.51018700  0.79940005  1
  Gd  Gd3  1  0.25000000  0.01018700  0.70059995  1
  Sn  Sn4  1  0.75000000  0.31600511  0.58246899  1
  Sn  Sn5  1  0.75000000  0.81600511  0.91753101  1
  Sn  Sn6  1  0.25000000  0.68399489  0.41753101  1
  Sn  Sn7  1  0.25000000  0.18399489  0.08246899  1
  Pd  Pd8  1  0.75000000  0.21297503  0.90841062  1
  Pd  Pd9  1  0.75000000  0.71297503  0.59158938  1
  Pd  Pd10  1  0.25000000  0.78702497  0.09158938  1
  Pd  Pd11  1  0.25000000  0.28702497  0.40841062  1
