# generated using pymatgen
data_Nb2O2F3
_symmetry_space_group_name_H-M   'P 1'
_cell_length_a   5.25225178
_cell_length_b   5.80642558
_cell_length_c   7.10086109
_cell_angle_alpha   108.46368396
_cell_angle_beta   111.70525470
_cell_angle_gamma   90.00000001
_symmetry_Int_Tables_number   1
_chemical_formula_structural   Nb2O2F3
_chemical_formula_sum   'Nb4 O4 F6'
_cell_volume   189.14977495
_cell_formula_units_Z   2
loop_
 _symmetry_equiv_pos_site_id
 _symmetry_equiv_pos_as_xyz
  1  'x, y, z'
loop_
 _atom_site_type_symbol
 _atom_site_label
 _atom_site_symmetry_multiplicity
 _atom_site_fract_x
 _atom_site_fract_y
 _atom_site_fract_z
 _atom_site_occupancy
  Nb  Nb0  1  0.40414148  0.81330816  0.31984836  1
  Nb  Nb1  1  0.08429312  0.68669184  0.68015164  1
  Nb  Nb2  1  0.59585852  0.18669184  0.68015164  1
  Nb  Nb3  1  0.91570688  0.31330816  0.31984836  1
  O  O4  1  0.75595209  0.85952516  0.59727185  1
  O  O5  1  0.15868025  0.64047484  0.40272815  1
  O  O6  1  0.24404791  0.14047484  0.40272815  1
  O  O7  1  0.84131975  0.35952516  0.59727185  1
  F  F8  1  0.55395434  0.47152473  0.20753125  1
  F  F9  1  0.34642309  0.02847527  0.79246875  1
  F  F10  1  0.44604566  0.52847527  0.79246875  1
  F  F11  1  0.65357691  0.97152473  0.20753125  1
  F  F12  1  0.10920731  0.75000000  1.00000000  1
  F  F13  1  0.89079269  0.25000000  0.00000000  1
