# generated using pymatgen
data_TbGaNi
_symmetry_space_group_name_H-M   'P 1'
_cell_length_a   4.32016233
_cell_length_b   6.86019426
_cell_length_c   7.34609768
_cell_angle_alpha   90.00000000
_cell_angle_beta   90.00000000
_cell_angle_gamma   90.00000000
_symmetry_Int_Tables_number   1
_chemical_formula_structural   TbGaNi
_chemical_formula_sum   'Tb4 Ga4 Ni4'
_cell_volume   217.71741956
_cell_formula_units_Z   4
loop_
 _symmetry_equiv_pos_site_id
 _symmetry_equiv_pos_as_xyz
  1  'x, y, z'
loop_
 _atom_site_type_symbol
 _atom_site_label
 _atom_site_symmetry_multiplicity
 _atom_site_fract_x
 _atom_site_fract_y
 _atom_site_fract_z
 _atom_site_occupancy
  Tb  Tb0  1  0.75000000  0.48058425  0.69964075  1
  Tb  Tb1  1  0.75000000  0.98058425  0.80035925  1
  Tb  Tb2  1  0.25000000  0.51941575  0.30035925  1
  Tb  Tb3  1  0.25000000  0.01941575  0.19964075  1
  Ga  Ga4  1  0.75000000  0.31749971  0.07968932  1
  Ga  Ga5  1  0.75000000  0.81749971  0.42031068  1
  Ga  Ga6  1  0.25000000  0.68250029  0.92031068  1
  Ga  Ga7  1  0.25000000  0.18250029  0.57968932  1
  Ni  Ni8  1  0.75000000  0.70542911  0.09185220  1
  Ni  Ni9  1  0.75000000  0.20542911  0.40814780  1
  Ni  Ni10  1  0.25000000  0.29457089  0.90814780  1
  Ni  Ni11  1  0.25000000  0.79457089  0.59185220  1
