# generated using pymatgen
data_CeAu6
_symmetry_space_group_name_H-M   'P 1'
_cell_length_a   5.55226877
_cell_length_b   5.55226877
_cell_length_c   9.31448288
_cell_angle_alpha   82.34612038
_cell_angle_beta   82.34612038
_cell_angle_gamma   89.65814751
_symmetry_Int_Tables_number   1
_chemical_formula_structural   CeAu6
_chemical_formula_sum   'Ce2 Au12'
_cell_volume   282.03002392
_cell_formula_units_Z   2
loop_
 _symmetry_equiv_pos_site_id
 _symmetry_equiv_pos_as_xyz
  1  'x, y, z'
loop_
 _atom_site_type_symbol
 _atom_site_label
 _atom_site_symmetry_multiplicity
 _atom_site_fract_x
 _atom_site_fract_y
 _atom_site_fract_z
 _atom_site_occupancy
  Ce  Ce0  1  0.68481847  0.31518153  0.25000000  1
  Ce  Ce1  1  0.31518153  0.68481847  0.75000000  1
  Au  Au2  1  0.95838751  0.84388674  0.13584246  1
  Au  Au3  1  0.15611326  0.04161249  0.36415754  1
  Au  Au4  1  0.04161249  0.15611326  0.86415754  1
  Au  Au5  1  0.84388674  0.95838751  0.63584246  1
  Au  Au6  1  0.22180804  0.38237726  0.08127313  1
  Au  Au7  1  0.61762274  0.77819196  0.41872687  1
  Au  Au8  1  0.77819196  0.61762274  0.91872687  1
  Au  Au9  1  0.38237726  0.22180804  0.58127313  1
  Au  Au10  1  0.16497815  0.54152669  0.37160735  1
  Au  Au11  1  0.45847331  0.83502185  0.12839265  1
  Au  Au12  1  0.83502185  0.45847331  0.62839265  1
  Au  Au13  1  0.54152669  0.16497815  0.87160735  1
