# generated using pymatgen
data_Yb(H2N)2
_symmetry_space_group_name_H-M   'P 1'
_cell_length_a   5.11301517
_cell_length_b   5.11301517
_cell_length_c   6.22565948
_cell_angle_alpha   114.24507301
_cell_angle_beta   114.24507301
_cell_angle_gamma   90.00000000
_symmetry_Int_Tables_number   1
_chemical_formula_structural   Yb(H2N)2
_chemical_formula_sum   'Yb2 H8 N4'
_cell_volume   132.49943180
_cell_formula_units_Z   2
loop_
 _symmetry_equiv_pos_site_id
 _symmetry_equiv_pos_as_xyz
  1  'x, y, z'
loop_
 _atom_site_type_symbol
 _atom_site_label
 _atom_site_symmetry_multiplicity
 _atom_site_fract_x
 _atom_site_fract_y
 _atom_site_fract_z
 _atom_site_occupancy
  Yb  Yb0  1  0.25000000  0.75000000  0.50000000  1
  Yb  Yb1  1  0.00000000  -0.00000000  -0.00000000  1
  H  H2  1  0.55342327  0.89615023  0.10684654  1
  H  H3  1  0.55342327  0.21069630  0.10684654  1
  H  H4  1  0.69657673  0.53930370  0.39315346  1
  H  H5  1  0.69657673  0.85384977  0.39315346  1
  H  H6  1  0.10384977  0.44657673  0.89315346  1
  H  H7  1  0.78930370  0.44657673  0.89315346  1
  H  H8  1  0.46069630  0.30342327  0.60684654  1
  H  H9  1  0.14615023  0.30342327  0.60684654  1
  N  N10  1  0.49041729  0.99041729  0.98083459  1
  N  N11  1  0.75958271  0.75958271  0.51916541  1
  N  N12  1  0.00958271  0.50958271  0.01916541  1
  N  N13  1  0.24041729  0.24041729  0.48083459  1
