# generated using pymatgen
data_Ce3Pd4
_symmetry_space_group_name_H-M   'P 1'
_cell_length_a   5.77414228
_cell_length_b   8.05971303
_cell_length_c   8.05971293
_cell_angle_alpha   114.48512355
_cell_angle_beta   103.81612838
_cell_angle_gamma   103.81612823
_symmetry_Int_Tables_number   1
_chemical_formula_structural   Ce3Pd4
_chemical_formula_sum   'Ce6 Pd8'
_cell_volume   306.30616710
_cell_formula_units_Z   2
loop_
 _symmetry_equiv_pos_site_id
 _symmetry_equiv_pos_as_xyz
  1  'x, y, z'
loop_
 _atom_site_type_symbol
 _atom_site_label
 _atom_site_symmetry_multiplicity
 _atom_site_fract_x
 _atom_site_fract_y
 _atom_site_fract_z
 _atom_site_occupancy
  Ce  Ce0  1  0.40453761  0.12388833  0.37947948  1
  Ce  Ce1  1  0.02505813  0.62052052  0.74440885  1
  Ce  Ce2  1  0.28064928  0.25559115  0.87611167  1
  Ce  Ce3  1  0.59546239  0.87611167  0.62052052  1
  Ce  Ce4  1  0.97494187  0.37947948  0.25559115  1
  Ce  Ce5  1  0.71935072  0.74440885  0.12388833  1
  Pd  Pd6  1  -0.00000000  -0.00000000  -0.00000000  1
  Pd  Pd7  1  0.50000000  -0.00000000  -0.00000000  1
  Pd  Pd8  1  0.22347263  0.67082566  0.16385728  1
  Pd  Pd9  1  0.05961535  0.83614272  0.50696838  1
  Pd  Pd10  1  0.55264697  0.49303162  0.32917434  1
  Pd  Pd11  1  0.77652737  0.32917434  0.83614272  1
  Pd  Pd12  1  0.94038465  0.16385728  0.49303162  1
  Pd  Pd13  1  0.44735303  0.50696838  0.67082566  1
