# generated using pymatgen
data_Lu(MnSn)6
_symmetry_space_group_name_H-M   'P 1'
_cell_length_a   5.44116629
_cell_length_b   5.44245863
_cell_length_c   8.99853054
_cell_angle_alpha   90.00000000
_cell_angle_beta   90.00000000
_cell_angle_gamma   119.99214105
_symmetry_Int_Tables_number   1
_chemical_formula_structural   Lu(MnSn)6
_chemical_formula_sum   'Lu1 Mn6 Sn6'
_cell_volume   230.79359316
_cell_formula_units_Z   1
loop_
 _symmetry_equiv_pos_site_id
 _symmetry_equiv_pos_as_xyz
  1  'x, y, z'
loop_
 _atom_site_type_symbol
 _atom_site_label
 _atom_site_symmetry_multiplicity
 _atom_site_fract_x
 _atom_site_fract_y
 _atom_site_fract_z
 _atom_site_occupancy
  Lu  Lu0  1  0.99998126  1.00000000  0.00000000  1
  Mn  Mn1  1  0.49999463  1.00000000  0.24785839  1
  Mn  Mn2  1  0.49998859  0.50000287  0.24785640  1
  Mn  Mn3  1  0.99998572  0.49999713  0.24785640  1
  Mn  Mn4  1  0.49999463  1.00000000  0.75214161  1
  Mn  Mn5  1  0.49998859  0.50000287  0.75214360  1
  Mn  Mn6  1  0.99998572  0.49999713  0.75214360  1
  Sn  Sn7  1  0.33322780  0.66648936  -0.00000000  1
  Sn  Sn8  1  0.66673844  0.33351064  0.00000000  1
  Sn  Sn9  1  0.33320787  0.66648292  0.50000000  1
  Sn  Sn10  1  0.66672495  0.33351708  0.50000000  1
  Sn  Sn11  1  0.99999091  1.00000000  0.33151911  1
  Sn  Sn12  1  0.99999091  1.00000000  0.66848089  1
