# generated using pymatgen
data_Ho2FeC4
_symmetry_space_group_name_H-M   'P 1'
_cell_length_a   5.00307398
_cell_length_b   6.55146247
_cell_length_c   6.55146247
_cell_angle_alpha   69.26647664
_cell_angle_beta   67.55299177
_cell_angle_gamma   67.55299177
_symmetry_Int_Tables_number   1
_chemical_formula_structural   Ho2FeC4
_chemical_formula_sum   'Ho4 Fe2 C8'
_cell_volume   177.89903286
_cell_formula_units_Z   2
loop_
 _symmetry_equiv_pos_site_id
 _symmetry_equiv_pos_as_xyz
  1  'x, y, z'
loop_
 _atom_site_type_symbol
 _atom_site_label
 _atom_site_symmetry_multiplicity
 _atom_site_fract_x
 _atom_site_fract_y
 _atom_site_fract_z
 _atom_site_occupancy
  Ho  Ho0  1  0.14469422  0.51146306  0.19914851  1
  Ho  Ho1  1  0.85530578  0.48853694  0.80085149  1
  Ho  Ho2  1  0.64469422  0.19914851  0.51146306  1
  Ho  Ho3  1  0.35530578  0.80085149  0.48853694  1
  Fe  Fe4  1  0.25000000  0.00000000  -0.00000000  1
  Fe  Fe5  1  0.75000000  0.00000000  -0.00000000  1
  C  C6  1  0.37122911  0.46706826  0.79047352  1
  C  C7  1  0.62877089  0.53293174  0.20952648  1
  C  C8  1  0.87122911  0.79047352  0.46706826  1
  C  C9  1  0.12877089  0.20952648  0.53293174  1
  C  C10  1  0.42236001  0.24340289  0.91187709  1
  C  C11  1  0.57763999  0.75659711  0.08812291  1
  C  C12  1  0.92236001  0.91187709  0.24340289  1
  C  C13  1  0.07763999  0.08812291  0.75659711  1
