# generated using pymatgen
data_U(Mn2P)2
_symmetry_space_group_name_H-M   'P 1'
_cell_length_a   3.61867542
_cell_length_b   7.02432868
_cell_length_c   7.02432868
_cell_angle_alpha   90.00000000
_cell_angle_beta   90.00000000
_cell_angle_gamma   90.00000000
_symmetry_Int_Tables_number   1
_chemical_formula_structural   U(Mn2P)2
_chemical_formula_sum   'U2 Mn8 P4'
_cell_volume   178.54976377
_cell_formula_units_Z   2
loop_
 _symmetry_equiv_pos_site_id
 _symmetry_equiv_pos_as_xyz
  1  'x, y, z'
loop_
 _atom_site_type_symbol
 _atom_site_label
 _atom_site_symmetry_multiplicity
 _atom_site_fract_x
 _atom_site_fract_y
 _atom_site_fract_z
 _atom_site_occupancy
  U  U0  1  0.00000000  0.50000000  0.50000000  1
  U  U1  1  0.50000000  0.00000000  0.00000000  1
  Mn  Mn2  1  0.50000000  0.15464689  0.58280298  1
  Mn  Mn3  1  0.50000000  0.84535311  0.41719702  1
  Mn  Mn4  1  0.00000000  0.34535311  0.08280298  1
  Mn  Mn5  1  0.00000000  0.65464689  0.91719702  1
  Mn  Mn6  1  0.50000000  0.58280298  0.15464689  1
  Mn  Mn7  1  0.50000000  0.41719702  0.84535311  1
  Mn  Mn8  1  -0.00000000  0.08280298  0.34535311  1
  Mn  Mn9  1  -0.00000000  0.91719702  0.65464689  1
  P  P10  1  0.50000000  0.71792389  0.71792389  1
  P  P11  1  0.50000000  0.28207611  0.28207611  1
  P  P12  1  0.00000000  0.78207611  0.21792389  1
  P  P13  1  0.00000000  0.21792389  0.78207611  1
