# generated using pymatgen
data_Nd3GaCo3
_symmetry_space_group_name_H-M   'P 1'
_cell_length_a   3.82502405
_cell_length_b   5.84075471
_cell_length_c   13.30485860
_cell_angle_alpha   90.00000000
_cell_angle_beta   90.00000000
_cell_angle_gamma   109.11362627
_symmetry_Int_Tables_number   1
_chemical_formula_structural   Nd3GaCo3
_chemical_formula_sum   'Nd6 Ga2 Co6'
_cell_volume   280.85745205
_cell_formula_units_Z   2
loop_
 _symmetry_equiv_pos_site_id
 _symmetry_equiv_pos_as_xyz
  1  'x, y, z'
loop_
 _atom_site_type_symbol
 _atom_site_label
 _atom_site_symmetry_multiplicity
 _atom_site_fract_x
 _atom_site_fract_y
 _atom_site_fract_z
 _atom_site_occupancy
  Nd  Nd0  1  0.22094860  0.44189719  0.39069838  1
  Nd  Nd1  1  0.77905140  0.55810281  0.60930162  1
  Nd  Nd2  1  0.22094860  0.44189719  0.10930162  1
  Nd  Nd3  1  0.77905140  0.55810281  0.89069838  1
  Nd  Nd4  1  0.49586008  0.99172017  0.25000000  1
  Nd  Nd5  1  0.50413992  0.00827983  0.75000000  1
  Ga  Ga6  1  0.50000000  -0.00000000  0.50000000  1
  Ga  Ga7  1  0.50000000  -0.00000000  0.00000000  1
  Co  Co8  1  0.92125705  0.84251410  0.40875065  1
  Co  Co9  1  0.07874295  0.15748590  0.59124935  1
  Co  Co10  1  0.92125705  0.84251410  0.09124935  1
  Co  Co11  1  0.07874295  0.15748590  0.90875065  1
  Co  Co12  1  0.79488686  0.58977372  0.25000000  1
  Co  Co13  1  0.20511314  0.41022628  0.75000000  1
