# generated using pymatgen
data_Rb2Cd(IBr)2
_symmetry_space_group_name_H-M   'P 1'
_cell_length_a   7.46358321
_cell_length_b   7.46358321
_cell_length_c   12.01011792
_cell_angle_alpha   90.00000000
_cell_angle_beta   90.00000000
_cell_angle_gamma   109.58453406
_symmetry_Int_Tables_number   1
_chemical_formula_structural   Rb2Cd(IBr)2
_chemical_formula_sum   'Rb4 Cd2 I4 Br4'
_cell_volume   630.32008342
_cell_formula_units_Z   2
loop_
 _symmetry_equiv_pos_site_id
 _symmetry_equiv_pos_as_xyz
  1  'x, y, z'
loop_
 _atom_site_type_symbol
 _atom_site_label
 _atom_site_symmetry_multiplicity
 _atom_site_fract_x
 _atom_site_fract_y
 _atom_site_fract_z
 _atom_site_occupancy
  Rb  Rb0  1  0.61255375  0.61255375  0.50000000  1
  Rb  Rb1  1  0.61255375  0.61255375  0.00000000  1
  Rb  Rb2  1  0.89400750  0.25015949  0.25000000  1
  Rb  Rb3  1  0.25015949  0.89400750  0.75000000  1
  Cd  Cd4  1  0.29890142  0.84738781  0.25000000  1
  Cd  Cd5  1  0.84738781  0.29890142  0.75000000  1
  I  I6  1  0.47332921  0.05032669  0.44146761  1
  I  I7  1  0.05032669  0.47332921  0.55853239  1
  I  I8  1  0.47332921  0.05032669  0.05853239  1
  I  I9  1  0.05032669  0.47332921  0.94146761  1
  Br  Br10  1  0.36203408  0.51698023  0.25000000  1
  Br  Br11  1  0.51698023  0.36203408  0.75000000  1
  Br  Br12  1  0.92504917  0.77106099  0.25000000  1
  Br  Br13  1  0.77106099  0.92504917  0.75000000  1
