# generated using pymatgen
data_K3ErV2O8
_symmetry_space_group_name_H-M   'P 1'
_cell_length_a   6.01180478
_cell_length_b   6.01208941
_cell_length_c   7.86570869
_cell_angle_alpha   90.00000001
_cell_angle_beta   89.99751687
_cell_angle_gamma   120.00156446
_symmetry_Int_Tables_number   1
_chemical_formula_structural   K3ErV2O8
_chemical_formula_sum   'K3 Er1 V2 O8'
_cell_volume   246.20220739
_cell_formula_units_Z   1
loop_
 _symmetry_equiv_pos_site_id
 _symmetry_equiv_pos_as_xyz
  1  'x, y, z'
loop_
 _atom_site_type_symbol
 _atom_site_label
 _atom_site_symmetry_multiplicity
 _atom_site_fract_x
 _atom_site_fract_y
 _atom_site_fract_z
 _atom_site_occupancy
  K  K0  1  0.66661076  0.33330538  0.29317689  1
  K  K1  1  0.33338924  0.66669462  0.70682311  1
  K  K2  1  0.00000000  0.00000000  0.00000000  1
  Er  Er3  1  0.00000000  0.00000000  0.50000000  1
  V  V4  1  0.66660424  0.33330212  0.74369353  1
  V  V5  1  0.33339576  0.66669788  0.25630647  1
  O  O6  1  0.66660737  0.33330368  0.95852338  1
  O  O7  1  0.33339263  0.66669632  0.04147662  1
  O  O8  1  0.82642125  0.65286952  0.66811732  1
  O  O9  1  0.34713296  0.17356648  0.66811813  1
  O  O10  1  0.82642125  0.17355173  0.66811732  1
  O  O11  1  0.17357875  0.34713048  0.33188268  1
  O  O12  1  0.65286704  0.82643352  0.33188187  1
  O  O13  1  0.17357875  0.82644827  0.33188268  1
