# generated using pymatgen
data_Tb3Pd4
_symmetry_space_group_name_H-M   'P 1'
_cell_length_a   5.74084186
_cell_length_b   7.92332469
_cell_length_c   7.92332493
_cell_angle_alpha   114.36226729
_cell_angle_beta   103.97606691
_cell_angle_gamma   103.97606742
_symmetry_Int_Tables_number   1
_chemical_formula_structural   Tb3Pd4
_chemical_formula_sum   'Tb6 Pd8'
_cell_volume   293.91365024
_cell_formula_units_Z   2
loop_
 _symmetry_equiv_pos_site_id
 _symmetry_equiv_pos_as_xyz
  1  'x, y, z'
loop_
 _atom_site_type_symbol
 _atom_site_label
 _atom_site_symmetry_multiplicity
 _atom_site_fract_x
 _atom_site_fract_y
 _atom_site_fract_z
 _atom_site_occupancy
  Tb  Tb0  1  0.40346657  0.12396033  0.37752942  1
  Tb  Tb1  1  0.02593715  0.62247058  0.74643091  1
  Tb  Tb2  1  0.27950624  0.25356909  0.87603967  1
  Tb  Tb3  1  0.59653343  0.87603967  0.62247058  1
  Tb  Tb4  1  0.97406285  0.37752942  0.25356909  1
  Tb  Tb5  1  0.72049376  0.74643091  0.12396033  1
  Pd  Pd6  1  0.00000000  0.00000000  0.00000000  1
  Pd  Pd7  1  0.50000000  0.00000000  0.00000000  1
  Pd  Pd8  1  0.22458412  0.67287891  0.16370325  1
  Pd  Pd9  1  0.06088086  0.83629675  0.50917566  1
  Pd  Pd10  1  0.55170521  0.49082434  0.32712109  1
  Pd  Pd11  1  0.77541588  0.32712109  0.83629675  1
  Pd  Pd12  1  0.93911914  0.16370325  0.49082434  1
  Pd  Pd13  1  0.44829479  0.50917566  0.67287891  1
