# generated using pymatgen
data_KGdGeS4
_symmetry_space_group_name_H-M   'P 1'
_cell_length_a   6.57123408
_cell_length_b   6.73531257
_cell_length_c   8.71935636
_cell_angle_alpha   90.00000000
_cell_angle_beta   106.98529668
_cell_angle_gamma   90.00000000
_symmetry_Int_Tables_number   1
_chemical_formula_structural   KGdGeS4
_chemical_formula_sum   'K2 Gd2 Ge2 S8'
_cell_volume   369.07913478
_cell_formula_units_Z   2
loop_
 _symmetry_equiv_pos_site_id
 _symmetry_equiv_pos_as_xyz
  1  'x, y, z'
loop_
 _atom_site_type_symbol
 _atom_site_label
 _atom_site_symmetry_multiplicity
 _atom_site_fract_x
 _atom_site_fract_y
 _atom_site_fract_z
 _atom_site_occupancy
  K  K0  1  0.73171215  0.50963525  0.93362534  1
  K  K1  1  0.26828785  0.00963525  0.06637466  1
  Gd  Gd2  1  0.77103335  0.49328986  0.44905581  1
  Gd  Gd3  1  0.22896665  0.99328986  0.55094419  1
  Ge  Ge4  1  0.77525928  0.02603945  0.67811020  1
  Ge  Ge5  1  0.22474072  0.52603945  0.32188980  1
  S  S6  1  0.42819427  0.58702530  0.57098122  1
  S  S7  1  0.57180573  0.08702530  0.42901878  1
  S  S8  1  0.56783942  0.02823910  0.83615217  1
  S  S9  1  0.43216058  0.52823910  0.16384783  1
  S  S10  1  0.98288307  0.75730966  0.70498392  1
  S  S11  1  0.01711693  0.25730966  0.29501608  1
  S  S12  1  0.97840938  0.76546140  0.27980618  1
  S  S13  1  0.02159062  0.26546140  0.72019382  1
