# generated using pymatgen
data_Ba(P2Au)2
_symmetry_space_group_name_H-M   'P 1'
_cell_length_a   5.57542377
_cell_length_b   5.57542377
_cell_length_c   11.74529665
_cell_angle_alpha   99.44970609
_cell_angle_beta   99.44970609
_cell_angle_gamma   107.95457478
_symmetry_Int_Tables_number   1
_chemical_formula_structural   Ba(P2Au)2
_chemical_formula_sum   'Ba2 P8 Au4'
_cell_volume   333.51725347
_cell_formula_units_Z   2
loop_
 _symmetry_equiv_pos_site_id
 _symmetry_equiv_pos_as_xyz
  1  'x, y, z'
loop_
 _atom_site_type_symbol
 _atom_site_label
 _atom_site_symmetry_multiplicity
 _atom_site_fract_x
 _atom_site_fract_y
 _atom_site_fract_z
 _atom_site_occupancy
  Ba  Ba0  1  0.37500000  0.12500000  0.25000000  1
  Ba  Ba1  1  0.62500000  0.87500000  0.75000000  1
  P  P2  1  0.09803158  0.11977256  0.59212569  1
  P  P3  1  0.02764687  0.50590589  0.90787431  1
  P  P4  1  0.38022744  0.40196842  0.90787431  1
  P  P5  1  0.99409411  0.47235313  0.59212569  1
  P  P6  1  0.90196842  0.88022744  0.40787431  1
  P  P7  1  0.97235313  0.49409411  0.09212569  1
  P  P8  1  0.61977256  0.59803158  0.09212569  1
  P  P9  1  0.00590589  0.52764687  0.40787431  1
  Au  Au10  1  0.53816389  0.28816389  0.57632778  1
  Au  Au11  1  0.21183611  0.96183611  0.92367222  1
  Au  Au12  1  0.46183611  0.71183611  0.42367222  1
  Au  Au13  1  0.78816389  0.03816389  0.07632778  1
