# generated using pymatgen
data_K2AgF4
_symmetry_space_group_name_H-M   'P 1'
_cell_length_a   3.83410505
_cell_length_b   6.50822986
_cell_length_c   10.44253166
_cell_angle_alpha   90.00000000
_cell_angle_beta   90.00000000
_cell_angle_gamma   92.80360576
_symmetry_Int_Tables_number   1
_chemical_formula_structural   K2AgF4
_chemical_formula_sum   'K4 Ag2 F8'
_cell_volume   260.26307453
_cell_formula_units_Z   2
loop_
 _symmetry_equiv_pos_site_id
 _symmetry_equiv_pos_as_xyz
  1  'x, y, z'
loop_
 _atom_site_type_symbol
 _atom_site_label
 _atom_site_symmetry_multiplicity
 _atom_site_fract_x
 _atom_site_fract_y
 _atom_site_fract_z
 _atom_site_occupancy
  K  K0  1  0.47854285  0.08420868  0.68279956  1
  K  K1  1  0.52145715  0.41579132  0.18279956  1
  K  K2  1  0.52145715  0.91579132  0.31720044  1
  K  K3  1  0.47854285  0.58420868  0.81720044  1
  Ag  Ag4  1  0.00000000  0.50000000  0.50000000  1
  Ag  Ag5  1  0.00000000  -0.00000000  -0.00000000  1
  F  F6  1  0.59723171  0.27512544  0.44746970  1
  F  F7  1  0.40276829  0.22487456  0.94746970  1
  F  F8  1  0.40276829  0.72487456  0.55253030  1
  F  F9  1  0.59723171  0.77512544  0.05253030  1
  F  F10  1  0.98281353  0.37624257  0.68937966  1
  F  F11  1  0.01718647  0.12375743  0.18937966  1
  F  F12  1  0.01718647  0.62375743  0.31062034  1
  F  F13  1  0.98281353  0.87624257  0.81062034  1
