# generated using pymatgen
data_Pr5Ir2
_symmetry_space_group_name_H-M   'P 1'
_cell_length_a   6.76026333
_cell_length_b   7.37621724
_cell_length_c   9.07190280
_cell_angle_alpha   96.43036512
_cell_angle_beta   111.87565189
_cell_angle_gamma   90.00000000
_symmetry_Int_Tables_number   1
_chemical_formula_structural   Pr5Ir2
_chemical_formula_sum   'Pr10 Ir4'
_cell_volume   416.73039017
_cell_formula_units_Z   2
loop_
 _symmetry_equiv_pos_site_id
 _symmetry_equiv_pos_as_xyz
  1  'x, y, z'
loop_
 _atom_site_type_symbol
 _atom_site_label
 _atom_site_symmetry_multiplicity
 _atom_site_fract_x
 _atom_site_fract_y
 _atom_site_fract_z
 _atom_site_occupancy
  Pr  Pr0  1  0.98194659  0.91983246  0.18483940  1
  Pr  Pr1  1  0.79710719  0.58016754  0.81516060  1
  Pr  Pr2  1  0.01805341  0.08016754  0.81516060  1
  Pr  Pr3  1  0.20289281  0.41983246  0.18483940  1
  Pr  Pr4  1  0.65042007  0.81584492  0.43522685  1
  Pr  Pr5  1  0.21519322  0.68415508  0.56477315  1
  Pr  Pr6  1  0.34957993  0.18415508  0.56477315  1
  Pr  Pr7  1  0.78480678  0.31584492  0.43522685  1
  Pr  Pr8  1  0.43215757  0.75000000  0.00000000  1
  Pr  Pr9  1  0.56784243  0.25000000  0.00000000  1
  Ir  Ir10  1  0.82092665  0.57393307  0.22248464  1
  Ir  Ir11  1  0.59844201  0.92606693  0.77751536  1
  Ir  Ir12  1  0.17907335  0.42606693  0.77751536  1
  Ir  Ir13  1  0.40155799  0.07393307  0.22248464  1
