# generated using pymatgen
data_Nd(Mo3S4)2
_symmetry_space_group_name_H-M   'P 1'
_cell_length_a   6.55565045
_cell_length_b   6.55565045
_cell_length_c   6.55565062
_cell_angle_alpha   89.06860714
_cell_angle_beta   89.06860714
_cell_angle_gamma   89.06861316
_symmetry_Int_Tables_number   1
_chemical_formula_structural   Nd(Mo3S4)2
_chemical_formula_sum   'Nd1 Mo6 S8'
_cell_volume   281.62878835
_cell_formula_units_Z   1
loop_
 _symmetry_equiv_pos_site_id
 _symmetry_equiv_pos_as_xyz
  1  'x, y, z'
loop_
 _atom_site_type_symbol
 _atom_site_label
 _atom_site_symmetry_multiplicity
 _atom_site_fract_x
 _atom_site_fract_y
 _atom_site_fract_z
 _atom_site_occupancy
  Nd  Nd0  1  0.00000000  -0.00000000  0.00000000  1
  Mo  Mo1  1  0.58101617  0.77355429  0.43739753  1
  Mo  Mo2  1  0.77355429  0.43739753  0.58101617  1
  Mo  Mo3  1  0.43739753  0.58101617  0.77355429  1
  Mo  Mo4  1  0.41898383  0.22644571  0.56260247  1
  Mo  Mo5  1  0.22644571  0.56260247  0.41898383  1
  Mo  Mo6  1  0.56260247  0.41898383  0.22644571  1
  S  S7  1  0.75707393  0.75707393  0.75707393  1
  S  S8  1  0.24292607  0.24292607  0.24292607  1
  S  S9  1  0.62502158  0.25204153  0.87361387  1
  S  S10  1  0.25204153  0.87361387  0.62502158  1
  S  S11  1  0.87361387  0.62502158  0.25204153  1
  S  S12  1  0.37497842  0.74795847  0.12638613  1
  S  S13  1  0.74795847  0.12638613  0.37497842  1
  S  S14  1  0.12638613  0.37497842  0.74795847  1
