# generated using pymatgen
data_KCr5Se8
_symmetry_space_group_name_H-M   'P 1'
_cell_length_a   3.69518997
_cell_length_b   9.11185070
_cell_length_c   9.66630607
_cell_angle_alpha   104.74476281
_cell_angle_beta   101.01918516
_cell_angle_gamma   90.00000000
_symmetry_Int_Tables_number   1
_chemical_formula_structural   KCr5Se8
_chemical_formula_sum   'K1 Cr5 Se8'
_cell_volume   308.53801338
_cell_formula_units_Z   1
loop_
 _symmetry_equiv_pos_site_id
 _symmetry_equiv_pos_as_xyz
  1  'x, y, z'
loop_
 _atom_site_type_symbol
 _atom_site_label
 _atom_site_symmetry_multiplicity
 _atom_site_fract_x
 _atom_site_fract_y
 _atom_site_fract_z
 _atom_site_occupancy
  K  K0  1  0.50000000  0.50000000  -0.00000000  1
  Cr  Cr1  1  -0.00000000  -0.00000000  -0.00000000  1
  Cr  Cr2  1  0.65885856  0.98058468  0.31771713  1
  Cr  Cr3  1  0.34114144  0.01941532  0.68228287  1
  Cr  Cr4  1  0.70426978  0.33372634  0.40853956  1
  Cr  Cr5  1  0.29573022  0.66627366  0.59146044  1
  Se  Se6  1  0.42506830  0.84488671  0.85013659  1
  Se  Se7  1  0.57493170  0.15511329  0.14986341  1
  Se  Se8  1  0.91384206  0.17066238  0.82768413  1
  Se  Se9  1  0.08615794  0.82933762  0.17231587  1
  Se  Se10  1  0.82885158  0.51106108  0.65770317  1
  Se  Se11  1  0.17114842  0.48893892  0.34229683  1
  Se  Se12  1  0.76095622  0.84329964  0.52191244  1
  Se  Se13  1  0.23904378  0.15670036  0.47808756  1
