# generated using pymatgen
data_Hf(Al2Fe)4
_symmetry_space_group_name_H-M   'P 1'
_cell_length_a   4.99007946
_cell_length_b   6.55281786
_cell_length_c   6.55281786
_cell_angle_alpha   81.66406212
_cell_angle_beta   67.61934225
_cell_angle_gamma   67.61934225
_symmetry_Int_Tables_number   1
_chemical_formula_structural   Hf(Al2Fe)4
_chemical_formula_sum   'Hf1 Al8 Fe4'
_cell_volume   183.20677657
_cell_formula_units_Z   1
loop_
 _symmetry_equiv_pos_site_id
 _symmetry_equiv_pos_as_xyz
  1  'x, y, z'
loop_
 _atom_site_type_symbol
 _atom_site_label
 _atom_site_symmetry_multiplicity
 _atom_site_fract_x
 _atom_site_fract_y
 _atom_site_fract_z
 _atom_site_occupancy
  Hf  Hf0  1  0.00000000  -0.00000000  -0.00000000  1
  Al  Al1  1  -0.00000000  0.33733220  0.66266780  1
  Al  Al2  1  0.00000000  0.66266780  0.33733220  1
  Al  Al3  1  0.66266780  0.33733220  0.33733220  1
  Al  Al4  1  0.33733220  0.66266780  0.66266780  1
  Al  Al5  1  0.50000000  0.78296451  0.21703549  1
  Al  Al6  1  0.50000000  0.21703549  0.78296451  1
  Al  Al7  1  0.71703549  0.78296451  0.78296451  1
  Al  Al8  1  0.28296451  0.21703549  0.21703549  1
  Fe  Fe9  1  0.00000000  -0.00000000  0.50000000  1
  Fe  Fe10  1  0.50000000  -0.00000000  0.50000000  1
  Fe  Fe11  1  0.50000000  0.50000000  -0.00000000  1
  Fe  Fe12  1  0.00000000  0.50000000  -0.00000000  1
