# generated using pymatgen
data_Cs(TeMo)3
_symmetry_space_group_name_H-M   'P 1'
_cell_length_a   4.63090011
_cell_length_b   10.75200918
_cell_length_c   10.75437508
_cell_angle_alpha   120.05208661
_cell_angle_beta   90.00000000
_cell_angle_gamma   90.00000000
_symmetry_Int_Tables_number   1
_chemical_formula_structural   Cs(TeMo)3
_chemical_formula_sum   'Cs2 Te6 Mo6'
_cell_volume   463.49245381
_cell_formula_units_Z   2
loop_
 _symmetry_equiv_pos_site_id
 _symmetry_equiv_pos_as_xyz
  1  'x, y, z'
loop_
 _atom_site_type_symbol
 _atom_site_label
 _atom_site_symmetry_multiplicity
 _atom_site_fract_x
 _atom_site_fract_y
 _atom_site_fract_z
 _atom_site_occupancy
  Cs  Cs0  1  0.75000000  0.66692541  0.33362581  1
  Cs  Cs1  1  0.25000000  0.33307459  0.66637419  1
  Te  Te2  1  0.75000000  0.69299328  0.69770022  1
  Te  Te3  1  0.75000000  0.30199892  0.99559619  1
  Te  Te4  1  0.75000000  0.00485269  0.30663276  1
  Te  Te5  1  0.25000000  0.30700672  0.30229978  1
  Te  Te6  1  0.25000000  0.69800108  0.00440381  1
  Te  Te7  1  0.25000000  0.99514731  0.69336724  1
  Mo  Mo8  1  0.75000000  -0.00162033  0.85581018  1
  Mo  Mo9  1  0.75000000  0.14436980  0.14279316  1
  Mo  Mo10  1  0.75000000  0.85733907  0.00142213  1
  Mo  Mo11  1  0.25000000  0.00162033  0.14418982  1
  Mo  Mo12  1  0.25000000  0.85563020  0.85720684  1
  Mo  Mo13  1  0.25000000  0.14266093  -0.00142213  1
