# generated using pymatgen
data_Ba2Cd2As3
_symmetry_space_group_name_H-M   'P 1'
_cell_length_a   4.62909965
_cell_length_b   9.03863686
_cell_length_c   10.71431116
_cell_angle_alpha   81.64421677
_cell_angle_beta   77.52438446
_cell_angle_gamma   75.16283511
_symmetry_Int_Tables_number   1
_chemical_formula_structural   Ba2Cd2As3
_chemical_formula_sum   'Ba4 Cd4 As6'
_cell_volume   421.18725794
_cell_formula_units_Z   2
loop_
 _symmetry_equiv_pos_site_id
 _symmetry_equiv_pos_as_xyz
  1  'x, y, z'
loop_
 _atom_site_type_symbol
 _atom_site_label
 _atom_site_symmetry_multiplicity
 _atom_site_fract_x
 _atom_site_fract_y
 _atom_site_fract_z
 _atom_site_occupancy
  Ba  Ba0  1  0.26865476  0.13043053  0.33225996  1
  Ba  Ba1  1  0.73134524  0.86956947  0.66774004  1
  Ba  Ba2  1  0.39257395  0.26297838  0.95187372  1
  Ba  Ba3  1  0.60742605  0.73702162  0.04812628  1
  Cd  Cd4  1  0.04083667  0.23338716  0.68493951  1
  Cd  Cd5  1  0.95916333  0.76661284  0.31506049  1
  Cd  Cd6  1  0.41059008  0.52709102  0.65172883  1
  Cd  Cd7  1  0.58940992  0.47290898  0.34827117  1
  As  As8  1  0.07158654  0.97340224  0.88342468  1
  As  As9  1  0.92841346  0.02659776  0.11657532  1
  As  As10  1  0.15227284  0.49547958  0.19997474  1
  As  As11  1  0.84772716  0.50452042  0.80002526  1
  As  As12  1  0.38414279  0.77022355  0.46149088  1
  As  As13  1  0.61585721  0.22977645  0.53850912  1
