# generated using pymatgen
data_Sm(MnGe)6
_symmetry_space_group_name_H-M   'P 1'
_cell_length_a   5.20831848
_cell_length_b   5.20808997
_cell_length_c   8.15453743
_cell_angle_alpha   90.00000000
_cell_angle_beta   90.00000000
_cell_angle_gamma   120.00145520
_symmetry_Int_Tables_number   1
_chemical_formula_structural   Sm(MnGe)6
_chemical_formula_sum   'Sm1 Mn6 Ge6'
_cell_volume   191.55769586
_cell_formula_units_Z   1
loop_
 _symmetry_equiv_pos_site_id
 _symmetry_equiv_pos_as_xyz
  1  'x, y, z'
loop_
 _atom_site_type_symbol
 _atom_site_label
 _atom_site_symmetry_multiplicity
 _atom_site_fract_x
 _atom_site_fract_y
 _atom_site_fract_z
 _atom_site_occupancy
  Sm  Sm0  1  0.00001204  1.00000000  0.00000000  1
  Mn  Mn1  1  0.49995559  0.00000000  0.25158166  1
  Mn  Mn2  1  0.50002844  0.50004238  0.25160256  1
  Mn  Mn3  1  0.99998607  0.49995762  0.25160256  1
  Mn  Mn4  1  0.49995559  0.00000000  0.74841834  1
  Mn  Mn5  1  0.50002844  0.50004238  0.74839744  1
  Mn  Mn6  1  0.99998607  0.49995762  0.74839744  1
  Ge  Ge7  1  0.33335245  0.66672885  0.00000000  1
  Ge  Ge8  1  0.66662360  0.33327115  0.00000000  1
  Ge  Ge9  1  0.33335085  0.66673967  0.50000000  1
  Ge  Ge10  1  0.66661118  0.33326033  0.50000000  1
  Ge  Ge11  1  0.99995485  1.00000000  0.34657399  1
  Ge  Ge12  1  0.99995485  1.00000000  0.65342601  1
