# generated using pymatgen
data_Ho(GaFe)6
_symmetry_space_group_name_H-M   'P 1'
_cell_length_a   5.04132875
_cell_length_b   6.57853005
_cell_length_c   6.57853005
_cell_angle_alpha   80.70206642
_cell_angle_beta   67.47011704
_cell_angle_gamma   67.47011704
_symmetry_Int_Tables_number   1
_chemical_formula_structural   Ho(GaFe)6
_chemical_formula_sum   'Ho1 Ga6 Fe6'
_cell_volume   186.11471756
_cell_formula_units_Z   1
loop_
 _symmetry_equiv_pos_site_id
 _symmetry_equiv_pos_as_xyz
  1  'x, y, z'
loop_
 _atom_site_type_symbol
 _atom_site_label
 _atom_site_symmetry_multiplicity
 _atom_site_fract_x
 _atom_site_fract_y
 _atom_site_fract_z
 _atom_site_occupancy
  Ho  Ho0  1  -0.00000000  -0.00000000  -0.00000000  1
  Ga  Ga1  1  0.68061280  0.81938720  0.81938720  1
  Ga  Ga2  1  0.31938720  0.18061280  0.18061280  1
  Ga  Ga3  1  0.34348122  0.65651878  0.65651878  1
  Ga  Ga4  1  0.65651878  0.34348122  0.34348122  1
  Ga  Ga5  1  0.00000000  0.66622465  0.33377535  1
  Ga  Ga6  1  -0.00000000  0.33377535  0.66622465  1
  Fe  Fe7  1  -0.00000000  0.50000000  -0.00000000  1
  Fe  Fe8  1  0.50000000  0.50000000  -0.00000000  1
  Fe  Fe9  1  -0.00000000  -0.00000000  0.50000000  1
  Fe  Fe10  1  0.50000000  -0.00000000  0.50000000  1
  Fe  Fe11  1  0.50000000  0.24358755  0.75641245  1
  Fe  Fe12  1  0.50000000  0.75641245  0.24358755  1
