# generated using pymatgen
data_Yb3Pd4
_symmetry_space_group_name_H-M   'P 1'
_cell_length_a   5.80161135
_cell_length_b   7.69383771
_cell_length_c   7.69383798
_cell_angle_alpha   113.90569104
_cell_angle_beta   104.55759712
_cell_angle_gamma   104.55759762
_symmetry_Int_Tables_number   1
_chemical_formula_structural   Yb3Pd4
_chemical_formula_sum   'Yb6 Pd8'
_cell_volume   278.62637592
_cell_formula_units_Z   2
loop_
 _symmetry_equiv_pos_site_id
 _symmetry_equiv_pos_as_xyz
  1  'x, y, z'
loop_
 _atom_site_type_symbol
 _atom_site_label
 _atom_site_symmetry_multiplicity
 _atom_site_fract_x
 _atom_site_fract_y
 _atom_site_fract_z
 _atom_site_occupancy
  Yb  Yb0  1  0.39809113  0.13111543  0.38583509  1
  Yb  Yb1  1  0.01225604  0.61416491  0.74528034  1
  Yb  Yb2  1  0.26697570  0.25471966  0.86888457  1
  Yb  Yb3  1  0.60190887  0.86888457  0.61416491  1
  Yb  Yb4  1  0.98774396  0.38583509  0.25471966  1
  Yb  Yb5  1  0.73302430  0.74528034  0.13111543  1
  Pd  Pd6  1  0.00000000  0.00000000  -0.00000000  1
  Pd  Pd7  1  0.50000000  0.00000000  -0.00000000  1
  Pd  Pd8  1  0.23885964  0.68923482  0.16042190  1
  Pd  Pd9  1  0.07843774  0.83957810  0.52881292  1
  Pd  Pd10  1  0.54962482  0.47118708  0.31076518  1
  Pd  Pd11  1  0.76114036  0.31076518  0.83957810  1
  Pd  Pd12  1  0.92156226  0.16042190  0.47118708  1
  Pd  Pd13  1  0.45037518  0.52881292  0.68923482  1
