# generated using pymatgen
data_Pr5Ru2
_symmetry_space_group_name_H-M   'P 1'
_cell_length_a   6.67335661
_cell_length_b   7.43693210
_cell_length_c   8.97157796
_cell_angle_alpha   96.06475082
_cell_angle_beta   111.83386437
_cell_angle_gamma   90.00000000
_symmetry_Int_Tables_number   1
_chemical_formula_structural   Pr5Ru2
_chemical_formula_sum   'Pr10 Ru4'
_cell_volume   410.62760737
_cell_formula_units_Z   2
loop_
 _symmetry_equiv_pos_site_id
 _symmetry_equiv_pos_as_xyz
  1  'x, y, z'
loop_
 _atom_site_type_symbol
 _atom_site_label
 _atom_site_symmetry_multiplicity
 _atom_site_fract_x
 _atom_site_fract_y
 _atom_site_fract_z
 _atom_site_occupancy
  Pr  Pr0  1  0.98100363  0.91463936  0.18440457  1
  Pr  Pr1  1  0.79659906  0.58536064  0.81559543  1
  Pr  Pr2  1  0.01899637  0.08536064  0.81559543  1
  Pr  Pr3  1  0.20340094  0.41463936  0.18440457  1
  Pr  Pr4  1  0.64065525  0.81503156  0.43332586  1
  Pr  Pr5  1  0.20732938  0.68496844  0.56667414  1
  Pr  Pr6  1  0.35934475  0.18496844  0.56667414  1
  Pr  Pr7  1  0.79267062  0.31503156  0.43332586  1
  Pr  Pr8  1  0.42461943  0.75000000  -0.00000000  1
  Pr  Pr9  1  0.57538057  0.25000000  -0.00000000  1
  Ru  Ru10  1  0.82304840  0.57473156  0.22146800  1
  Ru  Ru11  1  0.60158040  0.92526844  0.77853200  1
  Ru  Ru12  1  0.17695160  0.42526844  0.77853200  1
  Ru  Ru13  1  0.39841960  0.07473156  0.22146800  1
