# generated using pymatgen
data_Ni(BMo)3
_symmetry_space_group_name_H-M   'P 1'
_cell_length_a   3.18763837
_cell_length_b   4.52332455
_cell_length_c   10.80965445
_cell_angle_alpha   90.00000000
_cell_angle_beta   90.00000000
_cell_angle_gamma   110.63147385
_symmetry_Int_Tables_number   1
_chemical_formula_structural   Ni(BMo)3
_chemical_formula_sum   'Ni2 B6 Mo6'
_cell_volume   145.86541514
_cell_formula_units_Z   2
loop_
 _symmetry_equiv_pos_site_id
 _symmetry_equiv_pos_as_xyz
  1  'x, y, z'
loop_
 _atom_site_type_symbol
 _atom_site_label
 _atom_site_symmetry_multiplicity
 _atom_site_fract_x
 _atom_site_fract_y
 _atom_site_fract_z
 _atom_site_occupancy
  Ni  Ni0  1  0.50000000  0.00000000  0.50000000  1
  Ni  Ni1  1  0.50000000  0.00000000  -0.00000000  1
  B  B2  1  0.91054901  0.82109803  0.39460590  1
  B  B3  1  0.08945099  0.17890197  0.60539410  1
  B  B4  1  0.91054901  0.82109803  0.10539410  1
  B  B5  1  0.08945099  0.17890197  0.89460590  1
  B  B6  1  0.79117808  0.58235616  0.25000000  1
  B  B7  1  0.20882192  0.41764384  0.75000000  1
  Mo  Mo8  1  0.21270370  0.42540740  0.39092258  1
  Mo  Mo9  1  0.78729630  0.57459260  0.60907742  1
  Mo  Mo10  1  0.21270370  0.42540740  0.10907742  1
  Mo  Mo11  1  0.78729630  0.57459260  0.89092258  1
  Mo  Mo12  1  0.49788565  0.99577129  0.25000000  1
  Mo  Mo13  1  0.50211435  0.00422871  0.75000000  1
