# generated using pymatgen
data_Ba5Cd2(Sb2O)2
_symmetry_space_group_name_H-M   'P 1'
_cell_length_a   5.01514082
_cell_length_b   9.12769050
_cell_length_c   9.53143475
_cell_angle_alpha   83.79978888
_cell_angle_beta   74.74684742
_cell_angle_gamma   74.05459492
_symmetry_Int_Tables_number   1
_chemical_formula_structural   Ba5Cd2(Sb2O)2
_chemical_formula_sum   'Ba5 Cd2 Sb4 O2'
_cell_volume   404.45026608
_cell_formula_units_Z   1
loop_
 _symmetry_equiv_pos_site_id
 _symmetry_equiv_pos_as_xyz
  1  'x, y, z'
loop_
 _atom_site_type_symbol
 _atom_site_label
 _atom_site_symmetry_multiplicity
 _atom_site_fract_x
 _atom_site_fract_y
 _atom_site_fract_z
 _atom_site_occupancy
  Ba  Ba0  1  0.02535681  0.65236658  0.29691980  1
  Ba  Ba1  1  0.97464319  0.34763342  0.70308020  1
  Ba  Ba2  1  0.30007281  0.04997662  0.34987776  1
  Ba  Ba3  1  0.69992719  0.95002338  0.65012224  1
  Ba  Ba4  1  0.00000000  -0.00000000  0.00000000  1
  Cd  Cd5  1  0.26135959  0.59983429  0.87744652  1
  Cd  Cd6  1  0.73864041  0.40016571  0.12255348  1
  Sb  Sb7  1  0.36491354  0.28033317  0.98983974  1
  Sb  Sb8  1  0.63508646  0.71966683  0.01016026  1
  Sb  Sb9  1  0.39331826  0.64631641  0.56704707  1
  Sb  Sb10  1  0.60668174  0.35368359  0.43295293  1
  O  O11  1  0.12922951  0.05443835  0.68710263  1
  O  O12  1  0.87077049  0.94556165  0.31289737  1
