# generated using pymatgen
data_ZnCu2SiSe4
_symmetry_space_group_name_H-M   'P 1'
_cell_length_a   6.51110530
_cell_length_b   6.84399238
_cell_length_c   7.83386839
_cell_angle_alpha   90.00000000
_cell_angle_beta   90.00000000
_cell_angle_gamma   90.00000000
_symmetry_Int_Tables_number   1
_chemical_formula_structural   ZnCu2SiSe4
_chemical_formula_sum   'Zn2 Cu4 Si2 Se8'
_cell_volume   349.09249113
_cell_formula_units_Z   2
loop_
 _symmetry_equiv_pos_site_id
 _symmetry_equiv_pos_as_xyz
  1  'x, y, z'
loop_
 _atom_site_type_symbol
 _atom_site_label
 _atom_site_symmetry_multiplicity
 _atom_site_fract_x
 _atom_site_fract_y
 _atom_site_fract_z
 _atom_site_occupancy
  Zn  Zn0  1  0.65660324  0.34937667  0.50000000  1
  Zn  Zn1  1  0.15660324  0.65062333  -0.00000000  1
  Cu  Cu2  1  0.16316815  0.17412244  0.25283265  1
  Cu  Cu3  1  0.16316815  0.17412244  0.74716735  1
  Cu  Cu4  1  0.66316815  0.82587756  0.24716735  1
  Cu  Cu5  1  0.66316815  0.82587756  0.75283265  1
  Si  Si6  1  0.15524962  0.67028652  0.50000000  1
  Si  Si7  1  0.65524962  0.32971348  -0.00000000  1
  Se  Se8  1  0.03950506  0.35006199  0.50000000  1
  Se  Se9  1  0.53950506  0.64993801  0.00000000  1
  Se  Se10  1  0.51322547  0.68270314  0.50000000  1
  Se  Se11  1  0.01322547  0.31729686  0.00000000  1
  Se  Se12  1  0.53509015  0.16243369  0.24015282  1
  Se  Se13  1  0.53509015  0.16243369  0.75984718  1
  Se  Se14  1  0.03509015  0.83756631  0.25984718  1
  Se  Se15  1  0.03509015  0.83756631  0.74015282  1
