# generated using pymatgen
data_Tb4InGe4Rh
_symmetry_space_group_name_H-M   'P 1'
_cell_length_a   4.27752637
_cell_length_b   10.37373403
_cell_length_c   10.44400889
_cell_angle_alpha   104.70004296
_cell_angle_beta   101.81684248
_cell_angle_gamma   90.00000000
_symmetry_Int_Tables_number   1
_chemical_formula_structural   Tb4InGe4Rh
_chemical_formula_sum   'Tb8 In2 Ge8 Rh2'
_cell_volume   438.11049882
_cell_formula_units_Z   2
loop_
 _symmetry_equiv_pos_site_id
 _symmetry_equiv_pos_as_xyz
  1  'x, y, z'
loop_
 _atom_site_type_symbol
 _atom_site_label
 _atom_site_symmetry_multiplicity
 _atom_site_fract_x
 _atom_site_fract_y
 _atom_site_fract_z
 _atom_site_occupancy
  Tb  Tb0  1  0.72192913  0.34483344  0.44385826  1
  Tb  Tb1  1  0.27807087  0.65516656  0.55614174  1
  Tb  Tb2  1  0.62891844  0.99301294  0.25783689  1
  Tb  Tb3  1  0.37108156  0.00698706  0.74216311  1
  Tb  Tb4  1  0.62729653  0.63945622  0.25459305  1
  Tb  Tb5  1  0.37270347  0.36054378  0.74540695  1
  Tb  Tb6  1  0.45855968  0.72660862  0.91711936  1
  Tb  Tb7  1  0.54144032  0.27339138  0.08288064  1
  In  In8  1  0.00000000  0.50000000  0.00000000  1
  In  In9  1  0.00000000  -0.00000000  0.00000000  1
  Ge  Ge10  1  0.93687243  0.21723940  0.87374486  1
  Ge  Ge11  1  0.06312757  0.78276060  0.12625514  1
  Ge  Ge12  1  0.86710353  0.80925202  0.73420707  1
  Ge  Ge13  1  0.13289647  0.19074798  0.26579293  1
  Ge  Ge14  1  0.85519229  0.54813770  0.71038459  1
  Ge  Ge15  1  0.14480771  0.45186230  0.28961541  1
  Ge  Ge16  1  0.19529654  0.84942803  0.39059308  1
  Ge  Ge17  1  0.80470346  0.15057197  0.60940692  1
  Rh  Rh18  1  0.75939660  0.89375893  0.51879320  1
  Rh  Rh19  1  0.24060340  0.10624107  0.48120680  1
