# generated using pymatgen
data_La2InSi2
_symmetry_space_group_name_H-M   'P 1'
_cell_length_a   4.43876990
_cell_length_b   7.71721898
_cell_length_c   14.93654109
_cell_angle_alpha   90.00069060
_cell_angle_beta   89.99986486
_cell_angle_gamma   89.99994656
_symmetry_Int_Tables_number   1
_chemical_formula_structural   La2InSi2
_chemical_formula_sum   'La8 In4 Si8'
_cell_volume   511.65060740
_cell_formula_units_Z   4
loop_
 _symmetry_equiv_pos_site_id
 _symmetry_equiv_pos_as_xyz
  1  'x, y, z'
loop_
 _atom_site_type_symbol
 _atom_site_label
 _atom_site_symmetry_multiplicity
 _atom_site_fract_x
 _atom_site_fract_y
 _atom_site_fract_z
 _atom_site_occupancy
  La  La0  1  0.49999152  0.75079056  0.03531185  1
  La  La1  1  0.49999397  0.24919819  0.96467966  1
  La  La2  1  0.50000665  0.25077314  0.46468455  1
  La  La3  1  0.49999204  0.74922441  0.53531953  1
  La  La4  1  0.50000102  0.61211934  0.28312629  1
  La  La5  1  0.50000093  0.38788146  0.71687658  1
  La  La6  1  0.49999356  0.11210400  0.21684885  1
  La  La7  1  0.50001890  0.88789312  0.78314791  1
  In  In8  1  0.00000042  0.93531063  0.37623101  1
  In  In9  1  -0.00000064  0.06472211  0.62377139  1
  In  In10  1  0.00000170  0.43531234  0.12375359  1
  In  In11  1  0.99999991  0.56467120  0.87624289  1
  Si  Si12  1  0.99999952  0.55113190  0.42401379  1
  Si  Si13  1  0.00000012  0.44886778  0.57598052  1
  Si  Si14  1  0.99999813  0.05114823  0.07597666  1
  Si  Si15  1  0.00000246  0.94885159  0.92403335  1
  Si  Si16  1  0.99999873  0.82134447  0.18342480  1
  Si  Si17  1  0.00000071  0.17865441  0.81658152  1
  Si  Si18  1  0.99999985  0.32136523  0.31653128  1
  Si  Si19  1  0.00000049  0.67863589  0.68346398  1
