# generated using pymatgen
data_Tm5Ir2
_symmetry_space_group_name_H-M   'P 1'
_cell_length_a   6.44462925
_cell_length_b   7.16551894
_cell_length_c   8.35036366
_cell_angle_alpha   96.42334344
_cell_angle_beta   112.69894710
_cell_angle_gamma   90.00000000
_symmetry_Int_Tables_number   1
_chemical_formula_structural   Tm5Ir2
_chemical_formula_sum   'Tm10 Ir4'
_cell_volume   353.11944797
_cell_formula_units_Z   2
loop_
 _symmetry_equiv_pos_site_id
 _symmetry_equiv_pos_as_xyz
  1  'x, y, z'
loop_
 _atom_site_type_symbol
 _atom_site_label
 _atom_site_symmetry_multiplicity
 _atom_site_fract_x
 _atom_site_fract_y
 _atom_site_fract_z
 _atom_site_occupancy
  Tm  Tm0  1  0.96976289  0.91915374  0.18145850  1
  Tm  Tm1  1  0.78830439  0.58084626  0.81854150  1
  Tm  Tm2  1  0.03023711  0.08084626  0.81854150  1
  Tm  Tm3  1  0.21169561  0.41915374  0.18145850  1
  Tm  Tm4  1  0.65404814  0.81871178  0.44310419  1
  Tm  Tm5  1  0.21094395  0.68128822  0.55689581  1
  Tm  Tm6  1  0.34595186  0.18128822  0.55689581  1
  Tm  Tm7  1  0.78905605  0.31871178  0.44310419  1
  Tm  Tm8  1  0.42668127  0.75000000  1.00000000  1
  Tm  Tm9  1  0.57331873  0.25000000  0.00000000  1
  Ir  Ir10  1  0.82810950  0.57314904  0.21825878  1
  Ir  Ir11  1  0.60985073  0.92685096  0.78174122  1
  Ir  Ir12  1  0.17189050  0.42685096  0.78174122  1
  Ir  Ir13  1  0.39014927  0.07314904  0.21825878  1
