# generated using pymatgen
data_Cu3B5Pt9
_symmetry_space_group_name_H-M   'P 1'
_cell_length_a   2.99690105
_cell_length_b   9.09205600
_cell_length_c   9.08546960
_cell_angle_alpha   120.02398486
_cell_angle_beta   90.00000000
_cell_angle_gamma   90.00000000
_symmetry_Int_Tables_number   1
_chemical_formula_structural   Cu3B5Pt9
_chemical_formula_sum   'Cu3 B5 Pt9'
_cell_volume   214.34211078
_cell_formula_units_Z   1
loop_
 _symmetry_equiv_pos_site_id
 _symmetry_equiv_pos_as_xyz
  1  'x, y, z'
loop_
 _atom_site_type_symbol
 _atom_site_label
 _atom_site_symmetry_multiplicity
 _atom_site_fract_x
 _atom_site_fract_y
 _atom_site_fract_z
 _atom_site_occupancy
  Cu  Cu0  1  -0.00000000  0.54092166  0.00000000  1
  Cu  Cu1  1  0.00000000  0.45898581  0.45888704  1
  Cu  Cu2  1  0.00000000  0.00009877  0.54111296  1
  B  B3  1  0.50000000  0.18868503  1.00000000  1
  B  B4  1  0.50000000  0.81131453  0.81137105  1
  B  B5  1  0.50000000  0.99994348  0.18862895  1
  B  B6  1  -0.00000000  0.66675790  0.33335404  1
  B  B7  1  -0.00000000  0.33340385  0.66664596  1
  Pt  Pt8  1  0.50000000  0.73404018  0.53838400  1
  Pt  Pt9  1  0.50000000  0.80446706  0.26621244  1
  Pt  Pt10  1  0.50000000  0.46177434  0.19578665  1
  Pt  Pt11  1  0.50000000  0.19565618  0.46161600  1
  Pt  Pt12  1  0.50000000  0.53825462  0.73378756  1
  Pt  Pt13  1  0.50000000  0.26598770  0.80421335  1
  Pt  Pt14  1  0.00000000  0.82310093  0.00000000  1
  Pt  Pt15  1  0.00000000  0.17672388  0.17673979  1
  Pt  Pt16  1  0.00000000  -0.00001592  0.82326021  1
