# generated using pymatgen
data_ScAlAu
_symmetry_space_group_name_H-M   'P 1'
_cell_length_a   7.24506605
_cell_length_b   7.24506605
_cell_length_c   7.47163743
_cell_angle_alpha   90.00000000
_cell_angle_beta   90.00000000
_cell_angle_gamma   119.99999772
_symmetry_Int_Tables_number   1
_chemical_formula_structural   ScAlAu
_chemical_formula_sum   'Sc6 Al6 Au6'
_cell_volume   339.64961685
_cell_formula_units_Z   6
loop_
 _symmetry_equiv_pos_site_id
 _symmetry_equiv_pos_as_xyz
  1  'x, y, z'
loop_
 _atom_site_type_symbol
 _atom_site_label
 _atom_site_symmetry_multiplicity
 _atom_site_fract_x
 _atom_site_fract_y
 _atom_site_fract_z
 _atom_site_occupancy
  Sc  Sc0  1  0.41000902  0.39583678  0.25000000  1
  Sc  Sc1  1  0.98582776  0.58999098  0.25000000  1
  Sc  Sc2  1  0.60416322  0.01417224  0.25000000  1
  Sc  Sc3  1  0.01417224  0.60416322  0.75000000  1
  Sc  Sc4  1  0.39583678  0.41000902  0.75000000  1
  Sc  Sc5  1  0.58999098  0.98582776  0.75000000  1
  Al  Al6  1  0.26003101  1.00000000  0.00000000  1
  Al  Al7  1  0.73996899  0.73996899  -0.00000000  1
  Al  Al8  1  1.00000000  0.26003101  -0.00000000  1
  Al  Al9  1  0.26003101  1.00000000  0.50000000  1
  Al  Al10  1  0.73996899  0.73996899  0.50000000  1
  Al  Al11  1  1.00000000  0.26003101  0.50000000  1
  Au  Au12  1  0.00000000  -0.00000000  0.25000000  1
  Au  Au13  1  0.00000000  -0.00000000  0.75000000  1
  Au  Au14  1  0.33333300  0.66666700  0.01949268  1
  Au  Au15  1  0.33333300  0.66666700  0.48050732  1
  Au  Au16  1  0.66666600  0.33333300  0.51949268  1
  Au  Au17  1  0.66666600  0.33333300  0.98050732  1
