# generated using pymatgen
data_Sr2CaWO6
_symmetry_space_group_name_H-M   'P 1'
_cell_length_a   5.83883188
_cell_length_b   5.94588682
_cell_length_c   8.29088094
_cell_angle_alpha   90.00000000
_cell_angle_beta   90.25407269
_cell_angle_gamma   90.00000000
_symmetry_Int_Tables_number   1
_chemical_formula_structural   Sr2CaWO6
_chemical_formula_sum   'Sr4 Ca2 W2 O12'
_cell_volume   287.83196169
_cell_formula_units_Z   2
loop_
 _symmetry_equiv_pos_site_id
 _symmetry_equiv_pos_as_xyz
  1  'x, y, z'
loop_
 _atom_site_type_symbol
 _atom_site_label
 _atom_site_symmetry_multiplicity
 _atom_site_fract_x
 _atom_site_fract_y
 _atom_site_fract_z
 _atom_site_occupancy
  Sr  Sr0  1  0.49037651  0.04163114  0.24907912  1
  Sr  Sr1  1  0.99037651  0.45836886  0.74907912  1
  Sr  Sr2  1  0.50962349  0.95836886  0.75092088  1
  Sr  Sr3  1  0.00962349  0.54163114  0.25092088  1
  Ca  Ca4  1  0.50000000  0.50000000  -0.00000000  1
  Ca  Ca5  1  -0.00000000  0.00000000  0.50000000  1
  W  W6  1  0.50000000  0.50000000  0.50000000  1
  W  W7  1  -0.00000000  0.00000000  -0.00000000  1
  O  O8  1  0.41531124  0.52818938  0.72712715  1
  O  O9  1  0.91531124  0.97181062  0.22712715  1
  O  O10  1  0.58468876  0.47181062  0.27287285  1
  O  O11  1  0.08468876  0.02818938  0.77287285  1
  O  O12  1  0.23069186  0.31182848  0.45848847  1
  O  O13  1  0.73069186  0.18817152  0.95848847  1
  O  O14  1  0.76930814  0.68817152  0.54151153  1
  O  O15  1  0.26930814  0.81182848  0.04151153  1
  O  O16  1  0.31621505  0.76912037  0.45132504  1
  O  O17  1  0.81621505  0.73087963  0.95132504  1
  O  O18  1  0.68378495  0.23087963  0.54867496  1
  O  O19  1  0.18378495  0.26912037  0.04867496  1
