# generated using pymatgen
data_ZrF4
_symmetry_space_group_name_H-M   'P 1'
_cell_length_a   5.65932961
_cell_length_b   5.70632456
_cell_length_c   8.09868747
_cell_angle_alpha   90.00000000
_cell_angle_beta   105.91139924
_cell_angle_gamma   90.00000000
_symmetry_Int_Tables_number   1
_chemical_formula_structural   ZrF4
_chemical_formula_sum   'Zr4 F16'
_cell_volume   251.51839111
_cell_formula_units_Z   4
loop_
 _symmetry_equiv_pos_site_id
 _symmetry_equiv_pos_as_xyz
  1  'x, y, z'
loop_
 _atom_site_type_symbol
 _atom_site_label
 _atom_site_symmetry_multiplicity
 _atom_site_fract_x
 _atom_site_fract_y
 _atom_site_fract_z
 _atom_site_occupancy
  Zr  Zr0  1  0.78847304  0.33255742  0.33014110  1
  Zr  Zr1  1  0.21152696  0.83255742  0.16985890  1
  Zr  Zr2  1  0.21152696  0.66744258  0.66985890  1
  Zr  Zr3  1  0.78847304  0.16744258  0.83014110  1
  F  F4  1  0.14107396  0.34373009  0.52097303  1
  F  F5  1  0.85892604  0.84373009  0.97902697  1
  F  F6  1  0.85892604  0.65626991  0.47902697  1
  F  F7  1  0.14107396  0.15626991  0.02097303  1
  F  F8  1  0.00411724  0.54046809  0.20798476  1
  F  F9  1  0.99588276  0.04046809  0.29201524  1
  F  F10  1  0.99588276  0.45953191  0.79201524  1
  F  F11  1  0.00411724  0.95953191  0.70798476  1
  F  F12  1  0.48308624  0.54069892  0.23431638  1
  F  F13  1  0.51691376  0.04069892  0.26568362  1
  F  F14  1  0.51691376  0.45930108  0.76568362  1
  F  F15  1  0.48308624  0.95930108  0.73431638  1
  F  F16  1  0.68560429  0.24176340  0.54737296  1
  F  F17  1  0.31439571  0.74176340  0.95262704  1
  F  F18  1  0.31439571  0.75823660  0.45262704  1
  F  F19  1  0.68560429  0.25823660  0.04737296  1
