# generated using pymatgen
data_Ho3Si2(SnRh3)3
_symmetry_space_group_name_H-M   'P 1'
_cell_length_a   3.50368328
_cell_length_b   9.81933291
_cell_length_c   9.81842037
_cell_angle_alpha   120.00307814
_cell_angle_beta   90.00000000
_cell_angle_gamma   90.00000000
_symmetry_Int_Tables_number   1
_chemical_formula_structural   Ho3Si2(SnRh3)3
_chemical_formula_sum   'Ho3 Si2 Sn3 Rh9'
_cell_volume   292.52676432
_cell_formula_units_Z   1
loop_
 _symmetry_equiv_pos_site_id
 _symmetry_equiv_pos_as_xyz
  1  'x, y, z'
loop_
 _atom_site_type_symbol
 _atom_site_label
 _atom_site_symmetry_multiplicity
 _atom_site_fract_x
 _atom_site_fract_y
 _atom_site_fract_z
 _atom_site_occupancy
  Ho  Ho0  1  0.50000000  0.59988134  0.00000000  1
  Ho  Ho1  1  0.50000000  0.40011980  0.40012717  1
  Ho  Ho2  1  0.50000000  0.99999263  0.59987283  1
  Si  Si3  1  0.50000000  0.33331406  0.66667556  1
  Si  Si4  1  0.50000000  0.66663850  0.33332444  1
  Sn  Sn5  1  0.50000000  0.23934849  1.00000000  1
  Sn  Sn6  1  0.50000000  0.76063349  0.76061898  1
  Sn  Sn7  1  0.50000000  0.00001451  0.23938102  1
  Rh  Rh8  1  0.00000000  0.70137138  0.51732792  1
  Rh  Rh9  1  -0.00000000  0.81593707  0.29861654  1
  Rh  Rh10  1  -0.00000000  0.48265941  0.18404958  1
  Rh  Rh11  1  0.00000000  0.18404346  0.48267208  1
  Rh  Rh12  1  -0.00000000  0.51732053  0.70138346  1
  Rh  Rh13  1  -0.00000000  0.29860983  0.81595042  1
  Rh  Rh14  1  0.00000000  0.83450725  1.00000000  1
  Rh  Rh15  1  0.00000000  0.16550905  0.16550985  1
  Rh  Rh16  1  0.00000000  0.99999920  0.83449015  1
