# generated using pymatgen
data_NaIn(GeO3)2
_symmetry_space_group_name_H-M   'P 1'
_cell_length_a   5.69946761
_cell_length_b   7.00410613
_cell_length_c   7.00410613
_cell_angle_alpha   83.58569273
_cell_angle_beta   76.93192394
_cell_angle_gamma   76.93192394
_symmetry_Int_Tables_number   1
_chemical_formula_structural   NaIn(GeO3)2
_chemical_formula_sum   'Na2 In2 Ge4 O12'
_cell_volume   264.76551615
_cell_formula_units_Z   2
loop_
 _symmetry_equiv_pos_site_id
 _symmetry_equiv_pos_as_xyz
  1  'x, y, z'
loop_
 _atom_site_type_symbol
 _atom_site_label
 _atom_site_symmetry_multiplicity
 _atom_site_fract_x
 _atom_site_fract_y
 _atom_site_fract_z
 _atom_site_occupancy
  Na  Na0  1  0.75000000  0.69645984  0.30354016  1
  Na  Na1  1  0.25000000  0.30354016  0.69645984  1
  In  In2  1  0.75000000  0.10198680  0.89801320  1
  In  In3  1  0.25000000  0.89801320  0.10198680  1
  Ge  Ge4  1  0.74161896  0.61990122  0.79996399  1
  Ge  Ge5  1  0.75838104  0.20003601  0.38009878  1
  Ge  Ge6  1  0.25838104  0.38009878  0.20003601  1
  Ge  Ge7  1  0.24161896  0.79996399  0.61990122  1
  O  O8  1  0.82899761  0.38325141  0.90005947  1
  O  O9  1  0.67100239  0.09994053  0.61674859  1
  O  O10  1  0.17100239  0.61674859  0.09994053  1
  O  O11  1  0.32899761  0.90005947  0.38325141  1
  O  O12  1  0.64103156  0.80771293  0.96920983  1
  O  O13  1  0.85896844  0.03079017  0.19228707  1
  O  O14  1  0.35896844  0.19228707  0.03079017  1
  O  O15  1  0.14103156  0.96920983  0.80771293  1
  O  O16  1  0.51459466  0.62492549  0.65860289  1
  O  O17  1  0.98540534  0.34139711  0.37507451  1
  O  O18  1  0.48540534  0.37507451  0.34139711  1
  O  O19  1  0.01459466  0.65860289  0.62492549  1
