# generated using pymatgen
data_U2Si5Os3
_symmetry_space_group_name_H-M   'P 1'
_cell_length_a   5.76524971
_cell_length_b   8.11579218
_cell_length_c   8.11579218
_cell_angle_alpha   92.87611127
_cell_angle_beta   109.64758514
_cell_angle_gamma   109.64758514
_symmetry_Int_Tables_number   1
_chemical_formula_structural   U2Si5Os3
_chemical_formula_sum   'U4 Si10 Os6'
_cell_volume   331.05146832
_cell_formula_units_Z   2
loop_
 _symmetry_equiv_pos_site_id
 _symmetry_equiv_pos_as_xyz
  1  'x, y, z'
loop_
 _atom_site_type_symbol
 _atom_site_label
 _atom_site_symmetry_multiplicity
 _atom_site_fract_x
 _atom_site_fract_y
 _atom_site_fract_z
 _atom_site_occupancy
  U  U0  1  0.23905816  0.86853147  0.59520664  1
  U  U1  1  0.26094184  0.40479336  0.13146853  1
  U  U2  1  0.76094184  0.13146853  0.40479336  1
  U  U3  1  0.73905816  0.59520664  0.86853147  1
  Si  Si4  1  0.16373559  0.06324160  0.26274587  1
  Si  Si5  1  0.33626441  0.73725413  0.93675840  1
  Si  Si6  1  0.83626441  0.93675840  0.73725413  1
  Si  Si7  1  0.66373559  0.26274587  0.06324160  1
  Si  Si8  1  0.25000000  0.20446186  0.79553814  1
  Si  Si9  1  0.75000000  0.79553814  0.20446186  1
  Si  Si10  1  0.25000000  0.51596180  0.48403820  1
  Si  Si11  1  0.75000000  0.48403820  0.51596180  1
  Si  Si12  1  0.25000000  0.77635198  0.22364802  1
  Si  Si13  1  0.75000000  0.22364802  0.77635198  1
  Os  Os14  1  0.36285221  0.25339924  0.54344181  1
  Os  Os15  1  0.13714779  0.45655819  0.74660076  1
  Os  Os16  1  0.63714779  0.74660076  0.45655819  1
  Os  Os17  1  0.86285221  0.54344181  0.25339924  1
  Os  Os18  1  0.25000000  0.99959107  0.00040893  1
  Os  Os19  1  0.75000000  0.00040893  0.99959107  1
