# generated using pymatgen
data_Pr5Bi3
_symmetry_space_group_name_H-M   'P 1'
_cell_length_a   6.62604409
_cell_length_b   9.60720171
_cell_length_c   9.61351224
_cell_angle_alpha   119.97828189
_cell_angle_beta   90.00000000
_cell_angle_gamma   90.00000000
_symmetry_Int_Tables_number   1
_chemical_formula_structural   Pr5Bi3
_chemical_formula_sum   'Pr10 Bi6'
_cell_volume   530.10139599
_cell_formula_units_Z   2
loop_
 _symmetry_equiv_pos_site_id
 _symmetry_equiv_pos_as_xyz
  1  'x, y, z'
loop_
 _atom_site_type_symbol
 _atom_site_label
 _atom_site_symmetry_multiplicity
 _atom_site_fract_x
 _atom_site_fract_y
 _atom_site_fract_z
 _atom_site_occupancy
  Pr  Pr0  1  0.49999792  0.33333984  0.66668965  1
  Pr  Pr1  1  0.49999792  0.66665019  0.33331035  1
  Pr  Pr2  1  -0.00000208  0.66666016  0.33331035  1
  Pr  Pr3  1  -0.00000208  0.33334981  0.66668965  1
  Pr  Pr4  1  0.74999996  0.24845682  1.00000000  1
  Pr  Pr5  1  0.75000113  0.75140087  0.75144709  1
  Pr  Pr6  1  0.75000113  0.99995379  0.24855291  1
  Pr  Pr7  1  0.24999996  0.75154318  0.00000000  1
  Pr  Pr8  1  0.25000113  0.24859913  0.24855291  1
  Pr  Pr9  1  0.25000113  0.00004621  0.75144709  1
  Bi  Bi10  1  0.74999488  0.61302541  1.00000000  1
  Bi  Bi11  1  0.75000353  0.38697374  0.38698674  1
  Bi  Bi12  1  0.75000353  0.99998701  0.61301326  1
  Bi  Bi13  1  0.24999488  0.38697459  0.00000000  1
  Bi  Bi14  1  0.25000353  0.61302626  0.61301326  1
  Bi  Bi15  1  0.25000353  0.00001299  0.38698674  1
