# generated using pymatgen
data_Cs2Hg3S4
_symmetry_space_group_name_H-M   'P 1'
_cell_length_a   6.46149849
_cell_length_b   9.99407664
_cell_length_c   9.99407664
_cell_angle_alpha   73.31980463
_cell_angle_beta   71.13941939
_cell_angle_gamma   71.13941939
_symmetry_Int_Tables_number   1
_chemical_formula_structural   Cs2Hg3S4
_chemical_formula_sum   'Cs4 Hg6 S8'
_cell_volume   565.80818997
_cell_formula_units_Z   2
loop_
 _symmetry_equiv_pos_site_id
 _symmetry_equiv_pos_as_xyz
  1  'x, y, z'
loop_
 _atom_site_type_symbol
 _atom_site_label
 _atom_site_symmetry_multiplicity
 _atom_site_fract_x
 _atom_site_fract_y
 _atom_site_fract_z
 _atom_site_occupancy
  Cs  Cs0  1  0.25782614  0.37830893  0.62169107  1
  Cs  Cs1  1  0.74217386  0.62169107  0.37830893  1
  Cs  Cs2  1  0.24217386  0.87830893  0.12169107  1
  Cs  Cs3  1  0.75782614  0.12169107  0.87830893  1
  Hg  Hg4  1  0.75000000  0.75000000  0.75000000  1
  Hg  Hg5  1  0.25000000  0.25000000  0.25000000  1
  Hg  Hg6  1  0.25000000  0.59321601  0.90678399  1
  Hg  Hg7  1  0.25000000  0.90678399  0.59321601  1
  Hg  Hg8  1  0.75000000  0.40678399  0.09321601  1
  Hg  Hg9  1  0.75000000  0.09321601  0.40678399  1
  S  S10  1  0.63224275  0.51259176  0.77610898  1
  S  S11  1  0.07905652  0.77610898  0.51259176  1
  S  S12  1  0.86775725  0.72389102  0.98740824  1
  S  S13  1  0.42094348  0.98740824  0.72389102  1
  S  S14  1  0.36775725  0.48740824  0.22389102  1
  S  S15  1  0.92094348  0.22389102  0.48740824  1
  S  S16  1  0.13224275  0.27610898  0.01259176  1
  S  S17  1  0.57905652  0.01259176  0.27610898  1
