# generated using pymatgen
data_Dy5(MoO6)2
_symmetry_space_group_name_H-M   'P 1'
_cell_length_a   5.76828526
_cell_length_b   6.82751790
_cell_length_c   7.58876366
_cell_angle_alpha   106.30482857
_cell_angle_beta   90.00000000
_cell_angle_gamma   114.98804559
_symmetry_Int_Tables_number   1
_chemical_formula_structural   Dy5(MoO6)2
_chemical_formula_sum   'Dy5 Mo2 O12'
_cell_volume   257.57124214
_cell_formula_units_Z   1
loop_
 _symmetry_equiv_pos_site_id
 _symmetry_equiv_pos_as_xyz
  1  'x, y, z'
loop_
 _atom_site_type_symbol
 _atom_site_label
 _atom_site_symmetry_multiplicity
 _atom_site_fract_x
 _atom_site_fract_y
 _atom_site_fract_z
 _atom_site_occupancy
  Dy  Dy0  1  0.30503123  0.61006245  0.63879584  1
  Dy  Dy1  1  0.69496877  0.38993755  0.36120416  1
  Dy  Dy2  1  0.31420723  0.62841446  0.17850137  1
  Dy  Dy3  1  0.68579277  0.37158554  0.82149863  1
  Dy  Dy4  1  -0.00000000  -0.00000000  0.50000000  1
  Mo  Mo5  1  0.78114714  -0.00000000  0.00000000  1
  Mo  Mo6  1  0.21885286  -0.00000000  0.00000000  1
  O  O7  1  0.90913848  0.32954541  0.08408236  1
  O  O8  1  0.42040693  0.32954541  0.08408236  1
  O  O9  1  0.09086152  0.67045459  0.91591764  1
  O  O10  1  0.57959307  0.67045459  0.91591764  1
  O  O11  1  0.09683136  0.68958580  0.42471311  1
  O  O12  1  0.59275444  0.68958580  0.42471311  1
  O  O13  1  0.90316864  0.31041420  0.57528689  1
  O  O14  1  0.40724556  0.31041420  0.57528689  1
  O  O15  1  0.99948307  0.99896614  0.20625241  1
  O  O16  1  0.00051693  0.00103386  0.79374759  1
  O  O17  1  0.50032309  0.00064618  0.18297952  1
  O  O18  1  0.49967691  0.99935382  0.81702048  1
