# generated using pymatgen
data_Tm2ReC2
_symmetry_space_group_name_H-M   'P 1'
_cell_length_a   5.03640555
_cell_length_b   6.51670385
_cell_length_c   9.72898060
_cell_angle_alpha   90.00000000
_cell_angle_beta   90.00000000
_cell_angle_gamma   90.00000000
_symmetry_Int_Tables_number   1
_chemical_formula_structural   Tm2ReC2
_chemical_formula_sum   'Tm8 Re4 C8'
_cell_volume   319.31257076
_cell_formula_units_Z   4
loop_
 _symmetry_equiv_pos_site_id
 _symmetry_equiv_pos_as_xyz
  1  'x, y, z'
loop_
 _atom_site_type_symbol
 _atom_site_label
 _atom_site_symmetry_multiplicity
 _atom_site_fract_x
 _atom_site_fract_y
 _atom_site_fract_z
 _atom_site_occupancy
  Tm  Tm0  1  0.75000000  0.68217728  0.55603185  1
  Tm  Tm1  1  0.75000000  0.18217728  0.94396815  1
  Tm  Tm2  1  0.25000000  0.31782272  0.44396815  1
  Tm  Tm3  1  0.25000000  0.81782272  0.05603185  1
  Tm  Tm4  1  0.75000000  0.03122998  0.28186696  1
  Tm  Tm5  1  0.75000000  0.53122998  0.21813304  1
  Tm  Tm6  1  0.25000000  0.96877002  0.71813304  1
  Tm  Tm7  1  0.25000000  0.46877002  0.78186696  1
  Re  Re8  1  0.75000000  0.22383668  0.63248461  1
  Re  Re9  1  0.75000000  0.72383668  0.86751539  1
  Re  Re10  1  0.25000000  0.77616332  0.36751539  1
  Re  Re11  1  0.25000000  0.27616332  0.13248461  1
  C  C12  1  0.75000000  0.45796185  0.75978923  1
  C  C13  1  0.75000000  0.95796185  0.74021077  1
  C  C14  1  0.25000000  0.54203815  0.24021077  1
  C  C15  1  0.25000000  0.04203815  0.25978923  1
  C  C16  1  0.75000000  0.82685489  0.05403418  1
  C  C17  1  0.75000000  0.32685489  0.44596582  1
  C  C18  1  0.25000000  0.17314511  0.94596582  1
  C  C19  1  0.25000000  0.67314511  0.55403418  1
