# generated using pymatgen
data_TlSb(PS3)2
_symmetry_space_group_name_H-M   'P 1'
_cell_length_a   6.78761821
_cell_length_b   7.88197018
_cell_length_c   9.87880749
_cell_angle_alpha   90.00000000
_cell_angle_beta   91.95681365
_cell_angle_gamma   90.00000000
_symmetry_Int_Tables_number   1
_chemical_formula_structural   TlSb(PS3)2
_chemical_formula_sum   'Tl2 Sb2 P4 S12'
_cell_volume   528.20606371
_cell_formula_units_Z   2
loop_
 _symmetry_equiv_pos_site_id
 _symmetry_equiv_pos_as_xyz
  1  'x, y, z'
loop_
 _atom_site_type_symbol
 _atom_site_label
 _atom_site_symmetry_multiplicity
 _atom_site_fract_x
 _atom_site_fract_y
 _atom_site_fract_z
 _atom_site_occupancy
  Tl  Tl0  1  0.80928324  0.21491349  0.99344834  1
  Tl  Tl1  1  0.19071676  0.71491349  0.00655166  1
  Sb  Sb2  1  0.68566462  0.50714041  0.51926502  1
  Sb  Sb3  1  0.31433538  0.00714041  0.48073498  1
  P  P4  1  0.70323241  0.70217675  0.80339883  1
  P  P5  1  0.29676759  0.20217675  0.19660117  1
  P  P6  1  0.80302991  0.91964488  0.67236731  1
  P  P7  1  0.19697009  0.41964488  0.32763269  1
  S  S8  1  0.58947733  0.10627354  0.67122996  1
  S  S9  1  0.41052267  0.60627354  0.32877004  1
  S  S10  1  0.90837447  0.51998226  0.76773613  1
  S  S11  1  0.09162553  0.01998226  0.23226387  1
  S  S12  1  0.82584533  0.80598408  0.48236782  1
  S  S13  1  0.17415467  0.30598408  0.51763218  1
  S  S14  1  0.45060580  0.62651598  0.69621465  1
  S  S15  1  0.54939420  0.12651598  0.30378535  1
  S  S16  1  0.93812815  0.50709760  0.25305123  1
  S  S17  1  0.06187185  0.00709760  0.74694877  1
  S  S18  1  0.67416613  0.78128101  0.99115618  1
  S  S19  1  0.32583387  0.28128101  0.00884382  1
