# generated using pymatgen
data_Sr2HoMoO6
_symmetry_space_group_name_H-M   'P 1'
_cell_length_a   5.83566652
_cell_length_b   5.88605635
_cell_length_c   8.33335231
_cell_angle_alpha   90.00000000
_cell_angle_beta   90.52104652
_cell_angle_gamma   90.00000000
_symmetry_Int_Tables_number   1
_chemical_formula_structural   Sr2HoMoO6
_chemical_formula_sum   'Sr4 Ho2 Mo2 O12'
_cell_volume   286.23099898
_cell_formula_units_Z   2
loop_
 _symmetry_equiv_pos_site_id
 _symmetry_equiv_pos_as_xyz
  1  'x, y, z'
loop_
 _atom_site_type_symbol
 _atom_site_label
 _atom_site_symmetry_multiplicity
 _atom_site_fract_x
 _atom_site_fract_y
 _atom_site_fract_z
 _atom_site_occupancy
  Sr  Sr0  1  0.49527790  0.53361701  0.25185838  1
  Sr  Sr1  1  0.99527790  0.96638299  0.75185838  1
  Sr  Sr2  1  0.50472210  0.46638299  0.74814162  1
  Sr  Sr3  1  0.00472210  0.03361701  0.24814162  1
  Ho  Ho4  1  0.00000000  0.50000000  0.50000000  1
  Ho  Ho5  1  0.50000000  -0.00000000  0.00000000  1
  Mo  Mo6  1  0.50000000  -0.00000000  0.50000000  1
  Mo  Mo7  1  0.00000000  0.50000000  0.00000000  1
  O  O8  1  0.23069813  0.80577790  0.46437778  1
  O  O9  1  0.73069813  0.69422210  0.96437778  1
  O  O10  1  0.76930187  0.19422210  0.53562222  1
  O  O11  1  0.26930187  0.30577790  0.03562222  1
  O  O12  1  0.19903035  0.77840839  0.04303642  1
  O  O13  1  0.69903035  0.72159161  0.54303642  1
  O  O14  1  0.80096965  0.22159161  0.95696358  1
  O  O15  1  0.30096965  0.27840839  0.45696358  1
  O  O16  1  0.57686511  0.98067145  0.26240592  1
  O  O17  1  0.07686511  0.51932855  0.76240592  1
  O  O18  1  0.42313489  0.01932855  0.73759408  1
  O  O19  1  0.92313489  0.48067145  0.23759408  1
