# generated using pymatgen
data_TbCrTeO6
_symmetry_space_group_name_H-M   'P 1'
_cell_length_a   5.19632974
_cell_length_b   5.19687684
_cell_length_c   9.84851200
_cell_angle_alpha   89.99620518
_cell_angle_beta   90.00189767
_cell_angle_gamma   120.00348150
_symmetry_Int_Tables_number   1
_chemical_formula_structural   TbCrTeO6
_chemical_formula_sum   'Tb2 Cr2 Te2 O12'
_cell_volume   230.31654601
_cell_formula_units_Z   2
loop_
 _symmetry_equiv_pos_site_id
 _symmetry_equiv_pos_as_xyz
  1  'x, y, z'
loop_
 _atom_site_type_symbol
 _atom_site_label
 _atom_site_symmetry_multiplicity
 _atom_site_fract_x
 _atom_site_fract_y
 _atom_site_fract_z
 _atom_site_occupancy
  Tb  Tb0  1  0.00000000  -0.00000000  -0.00000000  1
  Tb  Tb1  1  0.00000000  -0.00000000  0.50000000  1
  Cr  Cr2  1  0.33322138  0.66661069  0.25000000  1
  Cr  Cr3  1  0.66677862  0.33338931  0.75000000  1
  Te  Te4  1  0.33323243  0.66661622  0.75000000  1
  Te  Te5  1  0.66676757  0.33338378  0.25000000  1
  O  O6  1  0.36613664  0.35609665  0.13978839  1
  O  O7  1  0.64394880  0.01004191  0.13977404  1
  O  O8  1  0.99000902  0.63390148  0.13979390  1
  O  O9  1  0.63386336  0.64390335  0.86021161  1
  O  O10  1  0.35605120  0.98995809  0.86022596  1
  O  O11  1  0.00999098  0.36609852  0.86020610  1
  O  O12  1  0.64394880  0.63390688  0.36022596  1
  O  O13  1  0.36613664  0.01003999  0.36021161  1
  O  O14  1  0.99000902  0.35610754  0.36020610  1
  O  O15  1  0.35605120  0.36609312  0.63977404  1
  O  O16  1  0.63386336  0.98996001  0.63978839  1
  O  O17  1  0.00999098  0.64389246  0.63979390  1
