# generated using pymatgen
data_Cs5U2S4ICl8
_symmetry_space_group_name_H-M   'P 1'
_cell_length_a   7.73125479
_cell_length_b   10.82583072
_cell_length_c   11.01864620
_cell_angle_alpha   119.42280287
_cell_angle_beta   110.53784715
_cell_angle_gamma   90.00000000
_symmetry_Int_Tables_number   1
_chemical_formula_structural   Cs5U2S4ICl8
_chemical_formula_sum   'Cs5 U2 S4 I1 Cl8'
_cell_volume   735.24043597
_cell_formula_units_Z   1
loop_
 _symmetry_equiv_pos_site_id
 _symmetry_equiv_pos_as_xyz
  1  'x, y, z'
loop_
 _atom_site_type_symbol
 _atom_site_label
 _atom_site_symmetry_multiplicity
 _atom_site_fract_x
 _atom_site_fract_y
 _atom_site_fract_z
 _atom_site_occupancy
  Cs  Cs0  1  0.83637429  0.07527781  0.67274858  1
  Cs  Cs1  1  0.16362571  0.92472219  0.32725142  1
  Cs  Cs2  1  0.16362571  0.40252923  0.32725142  1
  Cs  Cs3  1  0.83637429  0.59747077  0.67274858  1
  Cs  Cs4  1  0.50000000  0.00000000  -0.00000000  1
  U  U5  1  0.60698003  0.60698003  0.21396006  1
  U  U6  1  0.39301997  0.39301997  0.78603994  1
  S  S7  1  0.26667505  0.40432977  0.00000000  1
  S  S8  1  0.26667505  0.59567023  1.00000000  1
  S  S9  1  0.73332495  0.40432977  0.00000000  1
  S  S10  1  0.73332495  0.59567023  -0.00000000  1
  I  I11  1  0.00000000  0.00000000  -0.00000000  1
  Cl  Cl12  1  0.95780926  0.71711073  0.43422145  1
  Cl  Cl13  1  0.52358780  0.28288927  0.56577855  1
  Cl  Cl14  1  0.04219074  0.28288927  0.56577855  1
  Cl  Cl15  1  0.47641220  0.71711073  0.43422145  1
  Cl  Cl16  1  0.63679389  0.88852129  0.27358778  1
  Cl  Cl17  1  0.36320611  0.11147871  0.72641222  1
  Cl  Cl18  1  0.36320611  0.61493351  0.72641222  1
  Cl  Cl19  1  0.63679389  0.38506649  0.27358778  1
