# generated using pymatgen
data_CeSiIr2
_symmetry_space_group_name_H-M   'P 1'
_cell_length_a   4.05263974
_cell_length_b   4.05263974
_cell_length_c   18.25676329
_cell_angle_alpha   96.37239166
_cell_angle_beta   96.37239166
_cell_angle_gamma   90.00000000
_symmetry_Int_Tables_number   1
_chemical_formula_structural   CeSiIr2
_chemical_formula_sum   'Ce4 Si4 Ir8'
_cell_volume   296.13026099
_cell_formula_units_Z   4
loop_
 _symmetry_equiv_pos_site_id
 _symmetry_equiv_pos_as_xyz
  1  'x, y, z'
loop_
 _atom_site_type_symbol
 _atom_site_label
 _atom_site_symmetry_multiplicity
 _atom_site_fract_x
 _atom_site_fract_y
 _atom_site_fract_z
 _atom_site_occupancy
  Ce  Ce0  1  0.55069846  0.80069846  0.10139693  1
  Ce  Ce1  1  0.80069846  0.55069846  0.60139693  1
  Ce  Ce2  1  0.44930154  0.19930154  0.89860307  1
  Ce  Ce3  1  0.19930154  0.44930154  0.39860307  1
  Si  Si4  1  0.66118750  0.91118750  0.32237499  1
  Si  Si5  1  0.91118750  0.66118750  0.82237499  1
  Si  Si6  1  0.33881250  0.08881250  0.67762501  1
  Si  Si7  1  0.08881250  0.33881250  0.17762501  1
  Ir  Ir8  1  0.12500000  0.87500000  0.25000000  1
  Ir  Ir9  1  0.87500000  0.12500000  0.75000000  1
  Ir  Ir10  1  0.37500000  0.62500000  0.75000000  1
  Ir  Ir11  1  0.62500000  0.37500000  0.25000000  1
  Ir  Ir12  1  0.72735835  0.97735835  0.45471671  1
  Ir  Ir13  1  0.97735835  0.72735835  0.95471671  1
  Ir  Ir14  1  0.27264165  0.02264165  0.54528329  1
  Ir  Ir15  1  0.02264165  0.27264165  0.04528329  1
