# generated using pymatgen
data_Te6IrCl3
_symmetry_space_group_name_H-M   'P 1'
_cell_length_a   9.22407295
_cell_length_b   9.22407295
_cell_length_c   9.22407353
_cell_angle_alpha   107.80222010
_cell_angle_beta   107.80222010
_cell_angle_gamma   107.80222385
_symmetry_Int_Tables_number   1
_chemical_formula_structural   Te6IrCl3
_chemical_formula_sum   'Te12 Ir2 Cl6'
_cell_volume   638.76001446
_cell_formula_units_Z   2
loop_
 _symmetry_equiv_pos_site_id
 _symmetry_equiv_pos_as_xyz
  1  'x, y, z'
loop_
 _atom_site_type_symbol
 _atom_site_label
 _atom_site_symmetry_multiplicity
 _atom_site_fract_x
 _atom_site_fract_y
 _atom_site_fract_z
 _atom_site_occupancy
  Te  Te0  1  0.17556847  0.92404567  0.18735959  1
  Te  Te1  1  0.92404567  0.18735959  0.17556847  1
  Te  Te2  1  0.18735959  0.17556847  0.92404567  1
  Te  Te3  1  0.67556847  0.68735959  0.42404567  1
  Te  Te4  1  0.68735959  0.42404567  0.67556847  1
  Te  Te5  1  0.42404567  0.67556847  0.68735959  1
  Te  Te6  1  0.82443153  0.07595433  0.81264041  1
  Te  Te7  1  0.07595433  0.81264041  0.82443153  1
  Te  Te8  1  0.81264041  0.82443153  0.07595433  1
  Te  Te9  1  0.32443153  0.31264041  0.57595433  1
  Te  Te10  1  0.31264041  0.57595433  0.32443153  1
  Te  Te11  1  0.57595433  0.32443153  0.31264041  1
  Ir  Ir12  1  0.25000000  0.25000000  0.25000000  1
  Ir  Ir13  1  0.75000000  0.75000000  0.75000000  1
  Cl  Cl14  1  0.51268974  0.98731026  0.25000000  1
  Cl  Cl15  1  0.98731026  0.25000000  0.51268974  1
  Cl  Cl16  1  0.25000000  0.51268974  0.98731026  1
  Cl  Cl17  1  0.01268974  0.75000000  0.48731026  1
  Cl  Cl18  1  0.75000000  0.48731026  0.01268974  1
  Cl  Cl19  1  0.48731026  0.01268974  0.75000000  1
