# generated using pymatgen
data_Dy2Ge5Ru3
_symmetry_space_group_name_H-M   'P 1'
_cell_length_a   5.80622672
_cell_length_b   8.46953375
_cell_length_c   8.46953375
_cell_angle_alpha   71.40534527
_cell_angle_beta   69.95419489
_cell_angle_gamma   69.95419489
_symmetry_Int_Tables_number   1
_chemical_formula_structural   Dy2Ge5Ru3
_chemical_formula_sum   'Dy4 Ge10 Ru6'
_cell_volume   357.86534214
_cell_formula_units_Z   2
loop_
 _symmetry_equiv_pos_site_id
 _symmetry_equiv_pos_as_xyz
  1  'x, y, z'
loop_
 _atom_site_type_symbol
 _atom_site_label
 _atom_site_symmetry_multiplicity
 _atom_site_fract_x
 _atom_site_fract_y
 _atom_site_fract_z
 _atom_site_occupancy
  Dy  Dy0  1  0.36279790  0.40561446  0.86878974  1
  Dy  Dy1  1  0.63720210  0.59438554  0.13121026  1
  Dy  Dy2  1  0.86279790  0.86878974  0.40561446  1
  Dy  Dy3  1  0.13720210  0.13121026  0.59438554  1
  Ge  Ge4  1  0.25000000  0.50000000  0.50000000  1
  Ge  Ge5  1  0.75000000  0.50000000  0.50000000  1
  Ge  Ge6  1  0.04019129  0.20980871  0.20980871  1
  Ge  Ge7  1  0.45980871  0.79019129  0.79019129  1
  Ge  Ge8  1  0.95980871  0.79019129  0.79019129  1
  Ge  Ge9  1  0.54019129  0.20980871  0.20980871  1
  Ge  Ge10  1  0.09006517  0.73719652  0.08267315  1
  Ge  Ge11  1  0.90993483  0.26280348  0.91732685  1
  Ge  Ge12  1  0.59006517  0.08267315  0.73719652  1
  Ge  Ge13  1  0.40993483  0.91732685  0.26280348  1
  Ru  Ru14  1  0.25000000  -0.00000000  0.00000000  1
  Ru  Ru15  1  0.75000000  -0.00000000  0.00000000  1
  Ru  Ru16  1  0.14645899  0.44793517  0.25914685  1
  Ru  Ru17  1  0.85354101  0.55206483  0.74085315  1
  Ru  Ru18  1  0.64645899  0.25914685  0.44793517  1
  Ru  Ru19  1  0.35354101  0.74085315  0.55206483  1
