# generated using pymatgen
data_NaCr2In(H2O5)2
_symmetry_space_group_name_H-M   'P 1'
_cell_length_a   5.73673212
_cell_length_b   6.30107999
_cell_length_c   7.43424741
_cell_angle_alpha   110.08162298
_cell_angle_beta   90.00000000
_cell_angle_gamma   117.07896951
_symmetry_Int_Tables_number   1
_chemical_formula_structural   NaCr2In(H2O5)2
_chemical_formula_sum   'Na1 Cr2 In1 H4 O10'
_cell_volume   220.76504476
_cell_formula_units_Z   1
loop_
 _symmetry_equiv_pos_site_id
 _symmetry_equiv_pos_as_xyz
  1  'x, y, z'
loop_
 _atom_site_type_symbol
 _atom_site_label
 _atom_site_symmetry_multiplicity
 _atom_site_fract_x
 _atom_site_fract_y
 _atom_site_fract_z
 _atom_site_occupancy
  Na  Na0  1  0.00000000  0.00000000  0.50000000  1
  Cr  Cr1  1  0.61169934  0.22339868  0.31566055  1
  Cr  Cr2  1  0.38830066  0.77660132  0.68433945  1
  In  In3  1  0.00000000  0.00000000  -0.00000000  1
  H  H4  1  0.27222763  0.54445525  0.20235029  1
  H  H5  1  0.72777237  0.45554475  0.79764971  1
  H  H6  1  0.24303172  0.48606345  0.96481786  1
  H  H7  1  0.75696828  0.51393655  0.03518214  1
  O  O8  1  0.20633758  0.41267516  0.06643590  1
  O  O9  1  0.79366242  0.58732484  0.93356410  1
  O  O10  1  0.74233243  0.48466486  0.26732418  1
  O  O11  1  0.25766757  0.51533514  0.73267582  1
  O  O12  1  0.65105294  0.30210587  0.55097695  1
  O  O13  1  0.34894706  0.69789413  0.44902305  1
  O  O14  1  0.76747565  0.04545802  0.22325102  1
  O  O15  1  0.27798237  0.04545802  0.22325102  1
  O  O16  1  0.23252435  0.95454198  0.77674898  1
  O  O17  1  0.72201763  0.95454198  0.77674898  1
