# generated using pymatgen
data_Sr3Hg
_symmetry_space_group_name_H-M   'P 1'
_cell_length_a   7.51634467
_cell_length_b   8.44079910
_cell_length_c   11.24411356
_cell_angle_alpha   90.00000000
_cell_angle_beta   90.00000000
_cell_angle_gamma   90.00000000
_symmetry_Int_Tables_number   1
_chemical_formula_structural   Sr3Hg
_chemical_formula_sum   'Sr12 Hg4'
_cell_volume   713.37103838
_cell_formula_units_Z   4
loop_
 _symmetry_equiv_pos_site_id
 _symmetry_equiv_pos_as_xyz
  1  'x, y, z'
loop_
 _atom_site_type_symbol
 _atom_site_label
 _atom_site_symmetry_multiplicity
 _atom_site_fract_x
 _atom_site_fract_y
 _atom_site_fract_z
 _atom_site_occupancy
  Sr  Sr0  1  0.33589662  0.67839225  0.06585981  1
  Sr  Sr1  1  0.16410338  0.17839225  0.43414019  1
  Sr  Sr2  1  0.66410338  0.32160775  0.56585981  1
  Sr  Sr3  1  0.83589662  0.82160775  0.93414019  1
  Sr  Sr4  1  0.66410338  0.32160775  0.93414019  1
  Sr  Sr5  1  0.83589662  0.82160775  0.56585981  1
  Sr  Sr6  1  0.33589662  0.67839225  0.43414019  1
  Sr  Sr7  1  0.16410338  0.17839225  0.06585981  1
  Sr  Sr8  1  0.84991296  0.53671786  0.25000000  1
  Sr  Sr9  1  0.65008704  0.03671786  0.25000000  1
  Sr  Sr10  1  0.15008704  0.46328214  0.75000000  1
  Sr  Sr11  1  0.34991296  0.96328214  0.75000000  1
  Hg  Hg12  1  0.05492721  0.87926543  0.25000000  1
  Hg  Hg13  1  0.44507279  0.37926543  0.25000000  1
  Hg  Hg14  1  0.94507279  0.12073457  0.75000000  1
  Hg  Hg15  1  0.55492721  0.62073457  0.75000000  1
