# generated using pymatgen
data_TiSiOs
_symmetry_space_group_name_H-M   'P 1'
_cell_length_a   6.50593247
_cell_length_b   7.10907484
_cell_length_c   7.40241101
_cell_angle_alpha   118.69758457
_cell_angle_beta   116.06858885
_cell_angle_gamma   90.00000000
_symmetry_Int_Tables_number   1
_chemical_formula_structural   TiSiOs
_chemical_formula_sum   'Ti6 Si6 Os6'
_cell_volume   259.90997269
_cell_formula_units_Z   6
loop_
 _symmetry_equiv_pos_site_id
 _symmetry_equiv_pos_as_xyz
  1  'x, y, z'
loop_
 _atom_site_type_symbol
 _atom_site_label
 _atom_site_symmetry_multiplicity
 _atom_site_fract_x
 _atom_site_fract_y
 _atom_site_fract_z
 _atom_site_occupancy
  Ti  Ti0  1  0.90399911  0.94747232  0.39494465  1
  Ti  Ti1  1  0.50905447  0.05252768  0.60505536  1
  Ti  Ti2  1  0.50555704  0.52746479  0.55492958  1
  Ti  Ti3  1  0.95062746  0.47253521  0.44507042  1
  Ti  Ti4  1  0.08061096  0.74676392  0.99352784  1
  Ti  Ti5  1  0.08708312  0.25323608  0.00647216  1
  Si  Si6  1  0.46077191  0.71783093  0.93566186  1
  Si  Si7  1  0.52511005  0.28216907  0.06433814  1
  Si  Si8  1  0.17191452  0.67306683  0.33464113  1
  Si  Si9  1  0.83727339  0.32693317  0.66535887  1
  Si  Si10  1  0.17191452  0.16157431  0.33464113  1
  Si  Si11  1  0.83727339  0.83842569  0.66535887  1
  Os  Os12  1  0.75508414  0.50000000  0.00000000  1
  Os  Os13  1  0.75508414  0.00000000  0.00000000  1
  Os  Os14  1  0.24988581  0.90898212  0.74645074  1
  Os  Os15  1  0.50343508  0.09101788  0.25354926  1
  Os  Os16  1  0.24988581  0.33746862  0.74645074  1
  Os  Os17  1  0.50343508  0.66253138  0.25354926  1
