# generated using pymatgen
data_Pr5Si3
_symmetry_space_group_name_H-M   'P 1'
_cell_length_a   7.89319280
_cell_length_b   7.89319280
_cell_length_c   8.93677088
_cell_angle_alpha   116.20686092
_cell_angle_beta   116.20686092
_cell_angle_gamma   90.00000000
_symmetry_Int_Tables_number   1
_chemical_formula_structural   Pr5Si3
_chemical_formula_sum   'Pr10 Si6'
_cell_volume   434.84560621
_cell_formula_units_Z   2
loop_
 _symmetry_equiv_pos_site_id
 _symmetry_equiv_pos_as_xyz
  1  'x, y, z'
loop_
 _atom_site_type_symbol
 _atom_site_label
 _atom_site_symmetry_multiplicity
 _atom_site_fract_x
 _atom_site_fract_y
 _atom_site_fract_z
 _atom_site_occupancy
  Pr  Pr0  1  0.50000000  0.50000000  0.00000000  1
  Pr  Pr1  1  0.00000000  -0.00000000  0.00000000  1
  Pr  Pr2  1  0.96782584  0.82422885  0.29205468  1
  Pr  Pr3  1  0.32422885  0.46782584  0.29205468  1
  Pr  Pr4  1  0.82422885  0.32422885  0.29205468  1
  Pr  Pr5  1  0.46782584  0.96782584  0.29205468  1
  Pr  Pr6  1  0.03217416  0.17577115  0.70794532  1
  Pr  Pr7  1  0.67577115  0.53217416  0.70794532  1
  Pr  Pr8  1  0.17577115  0.67577115  0.70794532  1
  Pr  Pr9  1  0.53217416  0.03217416  0.70794532  1
  Si  Si10  1  0.75000000  0.75000000  0.50000000  1
  Si  Si11  1  0.25000000  0.25000000  0.50000000  1
  Si  Si12  1  0.61449062  0.88550938  0.00000000  1
  Si  Si13  1  0.38550938  0.11449062  0.00000000  1
  Si  Si14  1  0.88550938  0.38550938  1.00000000  1
  Si  Si15  1  0.11449062  0.61449062  0.00000000  1
