# generated using pymatgen
data_Tl2Hg3Se4
_symmetry_space_group_name_H-M   'P 1'
_cell_length_a   7.20076769
_cell_length_b   7.20076769
_cell_length_c   12.89278831
_cell_angle_alpha   97.39915225
_cell_angle_beta   97.95595178
_cell_angle_gamma   121.43953149
_symmetry_Int_Tables_number   1
_chemical_formula_structural   Tl2Hg3Se4
_chemical_formula_sum   'Tl4 Hg6 Se8'
_cell_volume   548.66194744
_cell_formula_units_Z   2
loop_
 _symmetry_equiv_pos_site_id
 _symmetry_equiv_pos_as_xyz
  1  'x, y, z'
loop_
 _atom_site_type_symbol
 _atom_site_label
 _atom_site_symmetry_multiplicity
 _atom_site_fract_x
 _atom_site_fract_y
 _atom_site_fract_z
 _atom_site_occupancy
  Tl  Tl0  1  0.53647152  0.74612237  0.44818715  1
  Tl  Tl1  1  0.79793522  0.08828437  0.05181285  1
  Tl  Tl2  1  0.46352848  0.25387763  0.55181285  1
  Tl  Tl3  1  0.20206478  0.91171563  0.94818715  1
  Hg  Hg4  1  0.88298905  0.13298905  0.75000000  1
  Hg  Hg5  1  0.11701095  0.86701095  0.25000000  1
  Hg  Hg6  1  0.20938179  0.67789128  0.65254599  1
  Hg  Hg7  1  0.52534529  0.55683581  0.84745401  1
  Hg  Hg8  1  0.79061821  0.32210872  0.34745401  1
  Hg  Hg9  1  0.47465471  0.44316419  0.15254599  1
  Se  Se10  1  0.47739306  0.07849712  0.75990883  1
  Se  Se11  1  0.81858828  0.71748422  0.74009117  1
  Se  Se12  1  0.52260694  0.92150288  0.24009117  1
  Se  Se13  1  0.18141172  0.28251578  0.25990883  1
  Se  Se14  1  0.19396136  0.45293635  0.93004202  1
  Se  Se15  1  0.02289433  0.26391934  0.56995798  1
  Se  Se16  1  0.80603864  0.54706365  0.06995798  1
  Se  Se17  1  0.97710567  0.73608066  0.43004202  1
