# generated using pymatgen
data_Zn2BrN
_symmetry_space_group_name_H-M   'P 1'
_cell_length_a   6.15008177
_cell_length_b   6.27976820
_cell_length_c   7.71803781
_cell_angle_alpha   90.00000000
_cell_angle_beta   90.00000000
_cell_angle_gamma   90.00000000
_symmetry_Int_Tables_number   1
_chemical_formula_structural   Zn2BrN
_chemical_formula_sum   'Zn8 Br4 N4'
_cell_volume   298.07901688
_cell_formula_units_Z   4
loop_
 _symmetry_equiv_pos_site_id
 _symmetry_equiv_pos_as_xyz
  1  'x, y, z'
loop_
 _atom_site_type_symbol
 _atom_site_label
 _atom_site_symmetry_multiplicity
 _atom_site_fract_x
 _atom_site_fract_y
 _atom_site_fract_z
 _atom_site_occupancy
  Zn  Zn0  1  0.09275481  0.86787253  0.68229687  1
  Zn  Zn1  1  0.59275481  0.13212747  0.31770313  1
  Zn  Zn2  1  0.59275481  0.63212747  0.18229687  1
  Zn  Zn3  1  0.09275481  0.36787253  0.81770313  1
  Zn  Zn4  1  0.40538870  0.01876731  0.96821622  1
  Zn  Zn5  1  0.90538870  0.98123269  0.03178378  1
  Zn  Zn6  1  0.90538870  0.48123269  0.46821622  1
  Zn  Zn7  1  0.40538870  0.51876731  0.53178378  1
  Br  Br8  1  0.12498679  0.08094538  0.38031333  1
  Br  Br9  1  0.62498679  0.91905462  0.61968667  1
  Br  Br10  1  0.62498679  0.41905462  0.88031333  1
  Br  Br11  1  0.12498679  0.58094538  0.11968667  1
  N  N12  1  0.12491969  0.56785909  0.62713603  1
  N  N13  1  0.62491969  0.43214091  0.37286397  1
  N  N14  1  0.62491969  0.93214091  0.12713603  1
  N  N15  1  0.12491969  0.06785909  0.87286397  1
