# generated using pymatgen
data_Th3Tl5
_symmetry_space_group_name_H-M   'P 1'
_cell_length_a   6.73654657
_cell_length_b   6.73654657
_cell_length_c   10.46556792
_cell_angle_alpha   90.00000000
_cell_angle_beta   90.00000000
_cell_angle_gamma   102.28884220
_symmetry_Int_Tables_number   1
_chemical_formula_structural   Th3Tl5
_chemical_formula_sum   'Th6 Tl10'
_cell_volume   464.05631549
_cell_formula_units_Z   2
loop_
 _symmetry_equiv_pos_site_id
 _symmetry_equiv_pos_as_xyz
  1  'x, y, z'
loop_
 _atom_site_type_symbol
 _atom_site_label
 _atom_site_symmetry_multiplicity
 _atom_site_fract_x
 _atom_site_fract_y
 _atom_site_fract_z
 _atom_site_occupancy
  Th  Th0  1  0.61441258  0.61441258  0.25000000  1
  Th  Th1  1  0.38558742  0.38558742  0.75000000  1
  Th  Th2  1  0.79353929  0.20646071  0.50000000  1
  Th  Th3  1  0.79353929  0.20646071  -0.00000000  1
  Th  Th4  1  0.20646071  0.79353929  0.50000000  1
  Th  Th5  1  0.20646071  0.79353929  -0.00000000  1
  Tl  Tl6  1  0.00520234  0.00520234  0.25000000  1
  Tl  Tl7  1  0.99479766  0.99479766  0.75000000  1
  Tl  Tl8  1  0.29942702  0.29942702  0.04534081  1
  Tl  Tl9  1  0.70057298  0.70057298  0.95465919  1
  Tl  Tl10  1  0.29942702  0.29942702  0.45465919  1
  Tl  Tl11  1  0.70057298  0.70057298  0.54534081  1
  Tl  Tl12  1  0.05623547  0.50085832  0.25000000  1
  Tl  Tl13  1  0.49914168  0.94376453  0.75000000  1
  Tl  Tl14  1  0.94376453  0.49914168  0.75000000  1
  Tl  Tl15  1  0.50085832  0.05623547  0.25000000  1
