# generated using pymatgen
data_Cs2Cu3SnF12
_symmetry_space_group_name_H-M   'P 1'
_cell_length_a   7.21075776
_cell_length_b   7.21075776
_cell_length_c   8.14122307
_cell_angle_alpha   63.71383322
_cell_angle_beta   63.71383322
_cell_angle_gamma   60.00000549
_symmetry_Int_Tables_number   1
_chemical_formula_structural   Cs2Cu3SnF12
_chemical_formula_sum   'Cs2 Cu3 Sn1 F12'
_cell_volume   315.03528915
_cell_formula_units_Z   1
loop_
 _symmetry_equiv_pos_site_id
 _symmetry_equiv_pos_as_xyz
  1  'x, y, z'
loop_
 _atom_site_type_symbol
 _atom_site_label
 _atom_site_symmetry_multiplicity
 _atom_site_fract_x
 _atom_site_fract_y
 _atom_site_fract_z
 _atom_site_occupancy
  Cs  Cs0  1  0.10645534  0.10645534  0.68063397  1
  Cs  Cs1  1  0.89354466  0.89354466  0.31936603  1
  Cu  Cu2  1  0.50000000  0.50000000  0.00000000  1
  Cu  Cu3  1  0.50000000  -0.00000000  0.00000000  1
  Cu  Cu4  1  0.00000000  0.50000000  0.00000000  1
  Sn  Sn5  1  0.50000000  0.50000000  0.50000000  1
  F  F6  1  0.58101221  0.18657271  0.04584236  1
  F  F7  1  0.18657271  0.18657271  0.04584236  1
  F  F8  1  0.18657271  0.58101221  0.04584236  1
  F  F9  1  0.41898779  0.81342729  0.95415764  1
  F  F10  1  0.81342729  0.81342729  0.95415764  1
  F  F11  1  0.81342729  0.41898779  0.95415764  1
  F  F12  1  0.17976936  0.58007714  0.66007635  1
  F  F13  1  0.58007714  0.58007714  0.66007635  1
  F  F14  1  0.58007714  0.17976936  0.66007635  1
  F  F15  1  0.82023064  0.41992286  0.33992365  1
  F  F16  1  0.41992286  0.41992286  0.33992365  1
  F  F17  1  0.41992286  0.82023064  0.33992365  1
