# generated using pymatgen
data_ThTaN3
_symmetry_space_group_name_H-M   'P 1'
_cell_length_a   5.69209033
_cell_length_b   5.76957009
_cell_length_c   8.08573696
_cell_angle_alpha   90.00000000
_cell_angle_beta   90.00000000
_cell_angle_gamma   90.00000000
_symmetry_Int_Tables_number   1
_chemical_formula_structural   ThTaN3
_chemical_formula_sum   'Th4 Ta4 N12'
_cell_volume   265.54299308
_cell_formula_units_Z   4
loop_
 _symmetry_equiv_pos_site_id
 _symmetry_equiv_pos_as_xyz
  1  'x, y, z'
loop_
 _atom_site_type_symbol
 _atom_site_label
 _atom_site_symmetry_multiplicity
 _atom_site_fract_x
 _atom_site_fract_y
 _atom_site_fract_z
 _atom_site_occupancy
  Th  Th0  1  0.50559314  0.54319675  0.25000000  1
  Th  Th1  1  0.99440686  0.04319675  0.25000000  1
  Th  Th2  1  0.49440686  0.45680325  0.75000000  1
  Th  Th3  1  0.00559314  0.95680325  0.75000000  1
  Ta  Ta4  1  0.00000000  0.50000000  -0.00000000  1
  Ta  Ta5  1  0.50000000  -0.00000000  0.50000000  1
  Ta  Ta6  1  0.00000000  0.50000000  0.50000000  1
  Ta  Ta7  1  0.50000000  -0.00000000  0.00000000  1
  N  N8  1  0.40959940  0.97826055  0.25000000  1
  N  N9  1  0.09040060  0.47826055  0.25000000  1
  N  N10  1  0.59040060  0.02173945  0.75000000  1
  N  N11  1  0.90959940  0.52173945  0.75000000  1
  N  N12  1  0.79939233  0.80084747  0.04713512  1
  N  N13  1  0.70060767  0.30084747  0.45286488  1
  N  N14  1  0.20060767  0.19915253  0.54713512  1
  N  N15  1  0.29939233  0.69915253  0.95286488  1
  N  N16  1  0.20060767  0.19915253  0.95286488  1
  N  N17  1  0.29939233  0.69915253  0.54713512  1
  N  N18  1  0.79939233  0.80084747  0.45286488  1
  N  N19  1  0.70060767  0.30084747  0.04713512  1
