# generated using pymatgen
data_Sm3Ni
_symmetry_space_group_name_H-M   'P 1'
_cell_length_a   6.40233011
_cell_length_b   6.91946755
_cell_length_c   9.77127289
_cell_angle_alpha   90.00100601
_cell_angle_beta   90.00022330
_cell_angle_gamma   89.99978874
_symmetry_Int_Tables_number   1
_chemical_formula_structural   Sm3Ni
_chemical_formula_sum   'Sm12 Ni4'
_cell_volume   432.87437976
_cell_formula_units_Z   4
loop_
 _symmetry_equiv_pos_site_id
 _symmetry_equiv_pos_as_xyz
  1  'x, y, z'
loop_
 _atom_site_type_symbol
 _atom_site_label
 _atom_site_symmetry_multiplicity
 _atom_site_fract_x
 _atom_site_fract_y
 _atom_site_fract_z
 _atom_site_occupancy
  Sm  Sm0  1  0.32183080  0.67857222  0.06464060  1
  Sm  Sm1  1  0.17816004  0.17856686  0.43536267  1
  Sm  Sm2  1  0.67816271  0.32144342  0.56464579  1
  Sm  Sm3  1  0.82183137  0.82142529  0.93535125  1
  Sm  Sm4  1  0.67816227  0.32144430  0.93534924  1
  Sm  Sm5  1  0.82183618  0.82142840  0.56464738  1
  Sm  Sm6  1  0.32183001  0.67857420  0.43536546  1
  Sm  Sm7  1  0.17816623  0.17857144  0.06463756  1
  Sm  Sm8  1  0.86246005  0.53437075  0.25000384  1
  Sm  Sm9  1  0.63754961  0.03436674  0.25000360  1
  Sm  Sm10  1  0.13755499  0.46562909  0.74999640  1
  Sm  Sm11  1  0.36245208  0.96562263  0.74999666  1
  Ni  Ni12  1  0.06357908  0.89126057  0.24999934  1
  Ni  Ni13  1  0.43642594  0.39126459  0.25000536  1
  Ni  Ni14  1  0.93641697  0.10873595  0.75000046  1
  Ni  Ni15  1  0.56358169  0.60872353  0.74999438  1
