# generated using pymatgen
data_Ba2InGaO5
_symmetry_space_group_name_H-M   'P 1'
_cell_length_a   6.01295913
_cell_length_b   6.21006076
_cell_length_c   8.99878539
_cell_angle_alpha   110.18484447
_cell_angle_beta   109.51772269
_cell_angle_gamma   90.00000000
_symmetry_Int_Tables_number   1
_chemical_formula_structural   Ba2InGaO5
_chemical_formula_sum   'Ba4 In2 Ga2 O10'
_cell_volume   294.72784152
_cell_formula_units_Z   2
loop_
 _symmetry_equiv_pos_site_id
 _symmetry_equiv_pos_as_xyz
  1  'x, y, z'
loop_
 _atom_site_type_symbol
 _atom_site_label
 _atom_site_symmetry_multiplicity
 _atom_site_fract_x
 _atom_site_fract_y
 _atom_site_fract_z
 _atom_site_occupancy
  Ba  Ba0  1  0.10026156  0.61247022  0.23761778  1
  Ba  Ba1  1  0.86264379  0.38752978  0.76238222  1
  Ba  Ba2  1  0.36264379  0.87485244  0.76238222  1
  Ba  Ba3  1  0.60026156  0.12514756  0.23761778  1
  In  In4  1  0.48355669  0.50000000  0.00000000  1
  In  In5  1  0.98355669  0.00000000  0.00000000  1
  Ga  Ga6  1  0.73814972  0.81523100  0.50000000  1
  Ga  Ga7  1  0.23814972  0.18476900  0.50000000  1
  O  O8  1  0.72354075  0.23947077  0.97868905  1
  O  O9  1  0.74485170  0.76052923  0.02131095  1
  O  O10  1  0.24485170  0.76078171  0.02131095  1
  O  O11  1  0.22354075  0.23921829  0.97868905  1
  O  O12  1  0.63504419  0.57615357  0.29248555  1
  O  O13  1  0.34255864  0.42384643  0.70751445  1
  O  O14  1  0.84255864  0.78366802  0.70751445  1
  O  O15  1  0.13504419  0.21633198  0.29248555  1
  O  O16  1  0.49679296  0.00980510  0.50000000  1
  O  O17  1  0.99679296  0.99019490  0.50000000  1
