# generated using pymatgen
data_Ba2DyInSe5
_symmetry_space_group_name_H-M   'P 1'
_cell_length_a   4.32155805
_cell_length_b   9.78962828
_cell_length_c   13.51910526
_cell_angle_alpha   90.00000000
_cell_angle_beta   90.00000000
_cell_angle_gamma   102.75139917
_symmetry_Int_Tables_number   1
_chemical_formula_structural   Ba2DyInSe5
_chemical_formula_sum   'Ba4 Dy2 In2 Se10'
_cell_volume   557.83938207
_cell_formula_units_Z   2
loop_
 _symmetry_equiv_pos_site_id
 _symmetry_equiv_pos_as_xyz
  1  'x, y, z'
loop_
 _atom_site_type_symbol
 _atom_site_label
 _atom_site_symmetry_multiplicity
 _atom_site_fract_x
 _atom_site_fract_y
 _atom_site_fract_z
 _atom_site_occupancy
  Ba  Ba0  1  0.86750889  0.73501778  0.81374249  1
  Ba  Ba1  1  0.13249111  0.26498222  0.31374249  1
  Ba  Ba2  1  0.88280570  0.76561140  0.18132205  1
  Ba  Ba3  1  0.11719430  0.23438860  0.68132205  1
  Dy  Dy4  1  0.78868455  0.57736910  0.51791920  1
  Dy  Dy5  1  0.21131545  0.42263090  0.01791920  1
  In  In6  1  0.55238656  0.10477313  0.93704471  1
  In  In7  1  0.44761344  0.89522687  0.43704471  1
  Se  Se8  1  0.64383526  0.28767051  0.50049446  1
  Se  Se9  1  0.35616474  0.71232949  0.00049446  1
  Se  Se10  1  0.70903857  0.41807713  0.15683558  1
  Se  Se11  1  0.29096143  0.58192287  0.65683558  1
  Se  Se12  1  0.68714511  0.37429023  0.86971769  1
  Se  Se13  1  0.31285489  0.62570977  0.36971769  1
  Se  Se14  1  0.49502039  0.99004077  0.76585672  1
  Se  Se15  1  0.50497961  0.00995923  0.26585672  1
  Se  Se16  1  0.94948148  0.89896296  0.55078709  1
  Se  Se17  1  0.05051852  0.10103704  0.05078709  1
