# generated using pymatgen
data_Si2Ni3H4O9
_symmetry_space_group_name_H-M   'P 1'
_cell_length_a   5.34706344
_cell_length_b   5.34709414
_cell_length_c   7.47099924
_cell_angle_alpha   89.99990151
_cell_angle_beta   90.00004928
_cell_angle_gamma   120.00019464
_symmetry_Int_Tables_number   1
_chemical_formula_structural   Si2Ni3H4O9
_chemical_formula_sum   'Si2 Ni3 H4 O9'
_cell_volume   184.98718316
_cell_formula_units_Z   1
loop_
 _symmetry_equiv_pos_site_id
 _symmetry_equiv_pos_as_xyz
  1  'x, y, z'
loop_
 _atom_site_type_symbol
 _atom_site_label
 _atom_site_symmetry_multiplicity
 _atom_site_fract_x
 _atom_site_fract_y
 _atom_site_fract_z
 _atom_site_occupancy
  Si  Si0  1  0.33333873  0.66666818  0.10345643  1
  Si  Si1  1  0.66666127  0.33332946  0.10345643  1
  Ni  Ni2  1  0.33232602  0.00000217  0.72966149  1
  Ni  Ni3  1  1.00000000  0.33232990  0.72966663  1
  Ni  Ni4  1  0.66767398  0.66767614  0.72966149  1
  H  H5  1  0.64973857  0.00000283  0.46834702  1
  H  H6  1  0.00000000  0.64973261  0.46834908  1
  H  H7  1  0.35026143  0.35026425  0.46834702  1
  H  H8  1  0.00000000  0.99999807  -0.00001776  1
  O  O9  1  0.33334805  0.66667280  0.88756424  1
  O  O10  1  0.66665195  0.33332475  0.88756424  1
  O  O11  1  0.66310933  0.00000200  0.59828725  1
  O  O12  1  0.00000000  0.66310450  0.59829008  1
  O  O13  1  0.33689067  0.33689267  0.59828725  1
  O  O14  1  0.48639968  0.48639825  0.18547159  1
  O  O15  1  0.51360032  0.99999857  0.18547159  1
  O  O16  1  1.00000000  0.51360171  0.18545927  1
  O  O17  1  0.00000000  0.00000113  0.87004667  1
