# generated using pymatgen
data_Tb7NiI12
_symmetry_space_group_name_H-M   'P 1'
_cell_length_a   9.70655641
_cell_length_b   9.70655641
_cell_length_c   9.70655651
_cell_angle_alpha   107.41700842
_cell_angle_beta   107.41700842
_cell_angle_gamma   107.41701543
_symmetry_Int_Tables_number   1
_chemical_formula_structural   Tb7NiI12
_chemical_formula_sum   'Tb7 Ni1 I12'
_cell_volume   752.79315931
_cell_formula_units_Z   1
loop_
 _symmetry_equiv_pos_site_id
 _symmetry_equiv_pos_as_xyz
  1  'x, y, z'
loop_
 _atom_site_type_symbol
 _atom_site_label
 _atom_site_symmetry_multiplicity
 _atom_site_fract_x
 _atom_site_fract_y
 _atom_site_fract_z
 _atom_site_occupancy
  Tb  Tb0  1  0.96877498  0.90030653  0.70104472  1
  Tb  Tb1  1  0.90030653  0.70104472  0.96877498  1
  Tb  Tb2  1  0.70104472  0.96877498  0.90030653  1
  Tb  Tb3  1  0.03122502  0.09969347  0.29895528  1
  Tb  Tb4  1  0.09969347  0.29895528  0.03122502  1
  Tb  Tb5  1  0.29895528  0.03122502  0.09969347  1
  Tb  Tb6  1  0.50000000  0.50000000  0.50000000  1
  Ni  Ni7  1  0.00000000  -0.00000000  0.00000000  1
  I  I8  1  0.31967279  0.92464032  0.77161467  1
  I  I9  1  0.92464032  0.77161467  0.31967279  1
  I  I10  1  0.77161467  0.31967279  0.92464032  1
  I  I11  1  0.68032721  0.07535968  0.22838533  1
  I  I12  1  0.07535968  0.22838533  0.68032721  1
  I  I13  1  0.22838533  0.68032721  0.07535968  1
  I  I14  1  0.84459779  0.52802216  0.60817561  1
  I  I15  1  0.52802216  0.60817561  0.84459779  1
  I  I16  1  0.60817561  0.84459779  0.52802216  1
  I  I17  1  0.15540221  0.47197784  0.39182439  1
  I  I18  1  0.47197784  0.39182439  0.15540221  1
  I  I19  1  0.39182439  0.15540221  0.47197784  1
