# generated using pymatgen
data_LuGePd
_symmetry_space_group_name_H-M   'P 1'
_cell_length_a   4.36988272
_cell_length_b   7.60927086
_cell_length_c   11.22420664
_cell_angle_alpha   109.81394942
_cell_angle_beta   101.22505652
_cell_angle_gamma   90.00000000
_symmetry_Int_Tables_number   1
_chemical_formula_structural   LuGePd
_chemical_formula_sum   'Lu6 Ge6 Pd6'
_cell_volume   343.52899144
_cell_formula_units_Z   6
loop_
 _symmetry_equiv_pos_site_id
 _symmetry_equiv_pos_as_xyz
  1  'x, y, z'
loop_
 _atom_site_type_symbol
 _atom_site_label
 _atom_site_symmetry_multiplicity
 _atom_site_fract_x
 _atom_site_fract_y
 _atom_site_fract_z
 _atom_site_occupancy
  Lu  Lu0  1  -0.00000000  0.46567080  -0.00000000  1
  Lu  Lu1  1  0.33297606  0.79712983  0.66595212  1
  Lu  Lu2  1  0.66702394  0.13117771  0.33404788  1
  Lu  Lu3  1  0.50000000  0.04845774  -0.00000000  1
  Lu  Lu4  1  0.16653808  0.70866347  0.33307616  1
  Lu  Lu5  1  0.83346192  0.37558730  0.66692384  1
  Ge  Ge6  1  0.06574332  0.91410218  0.13148665  1
  Ge  Ge7  1  0.93425668  0.78261553  0.86851335  1
  Ge  Ge8  1  0.23702148  0.39612201  0.47404296  1
  Ge  Ge9  1  0.76297852  0.92207905  0.52595704  1
  Ge  Ge10  1  0.40793265  0.25356458  0.81586531  1
  Ge  Ge11  1  0.59206735  0.43769928  0.18413469  1
  Pd  Pd12  1  0.10507484  0.27952026  0.21014969  1
  Pd  Pd13  1  0.89492516  0.06937057  0.78985031  1
  Pd  Pd14  1  0.26814175  0.09982357  0.53628351  1
  Pd  Pd15  1  0.73185825  0.56354006  0.46371649  1
  Pd  Pd16  1  0.42743633  0.60595437  0.85487266  1
  Pd  Pd17  1  0.57256367  0.75108171  0.14512734  1
