# generated using pymatgen
data_Th5Pb4
_symmetry_space_group_name_H-M   'P 1'
_cell_length_a   6.64749567
_cell_length_b   9.82905629
_cell_length_c   9.82838835
_cell_angle_alpha   120.00224991
_cell_angle_beta   90.00000000
_cell_angle_gamma   90.00000000
_symmetry_Int_Tables_number   1
_chemical_formula_structural   Th5Pb4
_chemical_formula_sum   'Th10 Pb8'
_cell_volume   556.12571747
_cell_formula_units_Z   2
loop_
 _symmetry_equiv_pos_site_id
 _symmetry_equiv_pos_as_xyz
  1  'x, y, z'
loop_
 _atom_site_type_symbol
 _atom_site_label
 _atom_site_symmetry_multiplicity
 _atom_site_fract_x
 _atom_site_fract_y
 _atom_site_fract_z
 _atom_site_occupancy
  Th  Th0  1  0.49999841  0.33331713  0.66668509  1
  Th  Th1  1  0.49999841  0.66663204  0.33331491  1
  Th  Th2  1  0.99999841  0.66668287  0.33331491  1
  Th  Th3  1  0.99999841  0.33336796  0.66668509  1
  Th  Th4  1  0.75000416  0.28418679  1.00000000  1
  Th  Th5  1  0.75000910  0.71581515  0.71580891  1
  Th  Th6  1  0.75000910  0.00000624  0.28419109  1
  Th  Th7  1  0.25000416  0.71581321  0.00000000  1
  Th  Th8  1  0.25000910  0.28418485  0.28419109  1
  Th  Th9  1  0.25000910  0.99999376  0.71580891  1
  Pb  Pb10  1  0.50000089  0.00000044  -0.00000000  1
  Pb  Pb11  1  0.00000089  -0.00000044  0.00000000  1
  Pb  Pb12  1  0.74999231  0.62225786  0.00000000  1
  Pb  Pb13  1  0.74999381  0.37773968  0.37774436  1
  Pb  Pb14  1  0.74999381  0.99999532  0.62225564  1
  Pb  Pb15  1  0.24999231  0.37774214  1.00000000  1
  Pb  Pb16  1  0.24999381  0.62226032  0.62225564  1
  Pb  Pb17  1  0.24999381  0.00000468  0.37774436  1
