# generated using pymatgen
data_Nb5Si3B
_symmetry_space_group_name_H-M   'P 1'
_cell_length_a   5.31003909
_cell_length_b   7.67340473
_cell_length_c   7.67326871
_cell_angle_alpha   120.00058793
_cell_angle_beta   90.00000000
_cell_angle_gamma   90.00000000
_symmetry_Int_Tables_number   1
_chemical_formula_structural   Nb5Si3B
_chemical_formula_sum   'Nb10 Si6 B2'
_cell_volume   270.76609980
_cell_formula_units_Z   2
loop_
 _symmetry_equiv_pos_site_id
 _symmetry_equiv_pos_as_xyz
  1  'x, y, z'
loop_
 _atom_site_type_symbol
 _atom_site_label
 _atom_site_symmetry_multiplicity
 _atom_site_fract_x
 _atom_site_fract_y
 _atom_site_fract_z
 _atom_site_occupancy
  Nb  Nb0  1  0.49999942  0.33332200  0.66665637  1
  Nb  Nb1  1  0.49999942  0.66666563  0.33334363  1
  Nb  Nb2  1  0.99999942  0.66667800  0.33334363  1
  Nb  Nb3  1  0.99999942  0.33333437  0.66665637  1
  Nb  Nb4  1  0.75000158  0.24710533  1.00000000  1
  Nb  Nb5  1  0.74999942  0.75289423  0.75288598  1
  Nb  Nb6  1  0.74999942  0.00000825  0.24711402  1
  Nb  Nb7  1  0.25000158  0.75289467  0.00000000  1
  Nb  Nb8  1  0.24999942  0.24710577  0.24711402  1
  Nb  Nb9  1  0.24999942  -0.00000825  0.75288598  1
  Si  Si10  1  0.74999319  0.59871657  1.00000000  1
  Si  Si11  1  0.75000349  0.40132028  0.40132334  1
  Si  Si12  1  0.75000349  -0.00000306  0.59867666  1
  Si  Si13  1  0.24999319  0.40128343  0.00000000  1
  Si  Si14  1  0.25000349  0.59867972  0.59867666  1
  Si  Si15  1  0.25000349  0.00000306  0.40132334  1
  B  B16  1  0.50000056  0.00000665  0.00000000  1
  B  B17  1  0.00000056  0.99999335  1.00000000  1
