# generated using pymatgen
data_NaLiMg14O15
_symmetry_space_group_name_H-M   'P 1'
_cell_length_a   8.53176054
_cell_length_b   8.62417055
_cell_length_c   4.28158776
_cell_angle_alpha   90.00000000
_cell_angle_beta   90.00000000
_cell_angle_gamma   90.00000000
_symmetry_Int_Tables_number   1
_chemical_formula_structural   NaLiMg14O15
_chemical_formula_sum   'Na1 Li1 Mg14 O15'
_cell_volume   315.03647855
_cell_formula_units_Z   1
loop_
 _symmetry_equiv_pos_site_id
 _symmetry_equiv_pos_as_xyz
  1  'x, y, z'
loop_
 _atom_site_type_symbol
 _atom_site_label
 _atom_site_symmetry_multiplicity
 _atom_site_fract_x
 _atom_site_fract_y
 _atom_site_fract_z
 _atom_site_occupancy
  Na  Na0  1  0.50355799  0.50000000  -0.00000000  1
  Li  Li1  1  0.97756699  0.00000000  -0.00000000  1
  Mg  Mg2  1  0.99799787  0.50000000  -0.00000000  1
  Mg  Mg3  1  0.52223049  0.00000000  -0.00000000  1
  Mg  Mg4  1  0.00110721  0.24520360  0.50000000  1
  Mg  Mg5  1  0.00110721  0.75479640  0.50000000  1
  Mg  Mg6  1  0.49876956  0.25271883  0.50000000  1
  Mg  Mg7  1  0.49876956  0.74728117  0.50000000  1
  Mg  Mg8  1  0.24567734  0.00000000  0.50000000  1
  Mg  Mg9  1  0.25195448  0.50000000  0.50000000  1
  Mg  Mg10  1  0.76107920  0.00000000  0.50000000  1
  Mg  Mg11  1  0.74780960  0.50000000  0.50000000  1
  Mg  Mg12  1  0.24837991  0.27327792  0.00000000  1
  Mg  Mg13  1  0.24837991  0.72672208  0.00000000  1
  Mg  Mg14  1  0.75565572  0.25064268  -0.00000000  1
  Mg  Mg15  1  0.75565572  0.74935732  -0.00000000  1
  O  O16  1  0.23717552  0.50000000  -0.00000000  1
  O  O17  1  0.75168735  0.00000000  -0.00000000  1
  O  O18  1  0.76341209  0.50000000  -0.00000000  1
  O  O19  1  0.24966613  0.24114403  0.50000000  1
  O  O20  1  0.24966613  0.75885597  0.50000000  1
  O  O21  1  0.74888597  0.24683395  0.50000000  1
  O  O22  1  0.74888597  0.75316605  0.50000000  1
  O  O23  1  0.01131964  0.00000000  0.50000000  1
  O  O24  1  0.00306680  0.50000000  0.50000000  1
  O  O25  1  0.48713437  0.00000000  0.50000000  1
  O  O26  1  0.49653748  0.50000000  0.50000000  1
  O  O27  1  0.00757261  0.24800569  -0.00000000  1
  O  O28  1  0.00757261  0.75199431  -0.00000000  1
  O  O29  1  0.48585930  0.22774265  -0.00000000  1
  O  O30  1  0.48585930  0.77225735  -0.00000000  1
