# generated using pymatgen
data_La2MgCu2
_symmetry_space_group_name_H-M   'P 1'
_cell_length_a   3.91188419
_cell_length_b   7.93713344
_cell_length_c   7.93713344
_cell_angle_alpha   90.00000000
_cell_angle_beta   90.00000000
_cell_angle_gamma   90.00000000
_symmetry_Int_Tables_number   1
_chemical_formula_structural   La2MgCu2
_chemical_formula_sum   'La4 Mg2 Cu4'
_cell_volume   246.44122149
_cell_formula_units_Z   2
loop_
 _symmetry_equiv_pos_site_id
 _symmetry_equiv_pos_as_xyz
  1  'x, y, z'
loop_
 _atom_site_type_symbol
 _atom_site_label
 _atom_site_symmetry_multiplicity
 _atom_site_fract_x
 _atom_site_fract_y
 _atom_site_fract_z
 _atom_site_occupancy
  Mg  Mg0  1  0.00000000  0.50000000  0.50000000  1
  Mg  Mg1  1  0.00000000  0.00000000  0.00000000  1
  Cu  Cu2  1  0.00000000  0.61958188  0.11958188  1
  Cu  Cu3  1  0.00000000  0.88041812  0.61958188  1
  Cu  Cu4  1  0.00000000  0.38041812  0.88041812  1
  Cu  Cu5  1  0.00000000  0.11958188  0.38041812  1
  La  La6  1  0.50000000  0.82677429  0.32677429  1
  La  La7  1  0.50000000  0.67322571  0.82677429  1
  La  La8  1  0.50000000  0.32677429  0.17322571  1
  La  La9  1  0.50000000  0.17322571  0.67322571  1
