# generated using pymatgen
data_Cs2ScAgCl6
_symmetry_space_group_name_H-M   'P 1'
_cell_length_a   7.49641662
_cell_length_b   7.49641692
_cell_length_c   7.49641692
_cell_angle_alpha   59.99999892
_cell_angle_beta   59.99999849
_cell_angle_gamma   59.99999852
_symmetry_Int_Tables_number   1
_chemical_formula_structural   Cs2ScAgCl6
_chemical_formula_sum   'Cs2 Sc1 Ag1 Cl6'
_cell_volume   297.88330793
_cell_formula_units_Z   1
loop_
 _symmetry_equiv_pos_site_id
 _symmetry_equiv_pos_as_xyz
  1  'x, y, z'
loop_
 _atom_site_type_symbol
 _atom_site_label
 _atom_site_symmetry_multiplicity
 _atom_site_fract_x
 _atom_site_fract_y
 _atom_site_fract_z
 _atom_site_occupancy
  Cs  Cs0  1  0.25000000  0.25000000  0.25000000  1
  Cs  Cs1  1  0.75000000  0.75000000  0.75000000  1
  Sc  Sc2  1  -0.00000000  -0.00000000  -0.00000000  1
  Ag  Ag3  1  0.50000000  0.50000000  0.50000000  1
  Cl  Cl4  1  0.23695329  0.76304671  0.23695329  1
  Cl  Cl5  1  0.76304671  0.76304671  0.23695329  1
  Cl  Cl6  1  0.76304671  0.23695329  0.76304671  1
  Cl  Cl7  1  0.76304671  0.23695329  0.23695329  1
  Cl  Cl8  1  0.23695329  0.76304671  0.76304671  1
  Cl  Cl9  1  0.23695329  0.23695329  0.76304671  1
