# generated using pymatgen
data_NaVF3
_symmetry_space_group_name_H-M   'P 1'
_cell_length_a   5.80643610
_cell_length_b   7.98550559
_cell_length_c   5.55786012
_cell_angle_alpha   90.00000000
_cell_angle_beta   90.00004931
_cell_angle_gamma   90.00000000
_symmetry_Int_Tables_number   1
_chemical_formula_structural   NaVF3
_chemical_formula_sum   'Na4 V4 F12'
_cell_volume   257.70312280
_cell_formula_units_Z   4
loop_
 _symmetry_equiv_pos_site_id
 _symmetry_equiv_pos_as_xyz
  1  'x, y, z'
loop_
 _atom_site_type_symbol
 _atom_site_label
 _atom_site_symmetry_multiplicity
 _atom_site_fract_x
 _atom_site_fract_y
 _atom_site_fract_z
 _atom_site_occupancy
  Na  Na0  1  0.06350957  0.25000000  0.98051234  1
  Na  Na1  1  0.56350922  0.25000000  0.51948622  1
  Na  Na2  1  0.93649043  0.75000000  0.01948766  1
  Na  Na3  1  0.43649078  0.75000000  0.48051378  1
  V  V4  1  0.50000000  -0.00000000  -0.00000000  1
  V  V5  1  0.00000000  0.50000000  0.50000000  1
  V  V6  1  0.50000000  0.50000000  -0.00000000  1
  V  V7  1  0.00000000  0.00000000  0.50000000  1
  F  F8  1  0.45013609  0.25000000  0.12453210  1
  F  F9  1  0.95013574  0.25000000  0.37546623  1
  F  F10  1  0.54986391  0.75000000  0.87546790  1
  F  F11  1  0.04986426  0.75000000  0.62453377  1
  F  F12  1  0.30550469  0.06337958  0.68937359  1
  F  F13  1  0.80550503  0.43662050  0.81062748  1
  F  F14  1  0.69449531  0.56337958  0.31062641  1
  F  F15  1  0.19449497  0.93662050  0.18937252  1
  F  F16  1  0.69449531  0.93662042  0.31062641  1
  F  F17  1  0.19449497  0.56337950  0.18937252  1
  F  F18  1  0.30550469  0.43662042  0.68937359  1
  F  F19  1  0.80550503  0.06337950  0.81062748  1
