# generated using pymatgen
data_ZnFe2(P2O7)2
_symmetry_space_group_name_H-M   'P 1'
_cell_length_a   9.05586133
_cell_length_b   10.29986509
_cell_length_c   12.40989086
_cell_angle_alpha   90.00000000
_cell_angle_beta   90.00000000
_cell_angle_gamma   90.00000000
_symmetry_Int_Tables_number   1
_chemical_formula_structural   ZnFe2(P2O7)2
_chemical_formula_sum   'Zn4 Fe8 P16 O56'
_cell_volume   1157.52202122
_cell_formula_units_Z   4
loop_
 _symmetry_equiv_pos_site_id
 _symmetry_equiv_pos_as_xyz
  1  'x, y, z'
loop_
 _atom_site_type_symbol
 _atom_site_label
 _atom_site_symmetry_multiplicity
 _atom_site_fract_x
 _atom_site_fract_y
 _atom_site_fract_z
 _atom_site_occupancy
  Zn  Zn0  1  0.24562159  0.61817923  0.75000000  1
  Zn  Zn1  1  0.74562159  0.88182077  0.75000000  1
  Zn  Zn2  1  0.75437841  0.38182077  0.25000000  1
  Zn  Zn3  1  0.25437841  0.11817923  0.25000000  1
  Fe  Fe4  1  0.25115473  0.62083885  0.98926624  1
  Fe  Fe5  1  0.75115473  0.87916115  0.51073376  1
  Fe  Fe6  1  0.74884527  0.37916115  0.48926624  1
  Fe  Fe7  1  0.24884527  0.12083885  0.01073376  1
  Fe  Fe8  1  0.74884527  0.37916115  0.01073376  1
  Fe  Fe9  1  0.24884527  0.12083885  0.48926624  1
  Fe  Fe10  1  0.25115473  0.62083885  0.51073376  1
  Fe  Fe11  1  0.75115473  0.87916115  0.98926624  1
  P  P12  1  0.58600716  0.62017478  0.86690868  1
  P  P13  1  0.08600716  0.87982522  0.63309132  1
  P  P14  1  0.41399284  0.37982522  0.36690868  1
  P  P15  1  0.91399284  0.12017478  0.13309132  1
  P  P16  1  0.41399284  0.37982522  0.13309132  1
  P  P17  1  0.91399284  0.12017478  0.36690868  1
  P  P18  1  0.58600716  0.62017478  0.63309132  1
  P  P19  1  0.08600716  0.87982522  0.86690868  1
  P  P20  1  0.57303258  0.13404574  0.87281458  1
  P  P21  1  0.07303258  0.36595426  0.62718542  1
  P  P22  1  0.42696742  0.86595426  0.37281458  1
  P  P23  1  0.92696742  0.63404574  0.12718542  1
  P  P24  1  0.42696742  0.86595426  0.12718542  1
  P  P25  1  0.92696742  0.63404574  0.37281458  1
  P  P26  1  0.57303258  0.13404574  0.62718542  1
  P  P27  1  0.07303258  0.36595426  0.87281458  1
  O  O28  1  0.12952447  0.93701694  0.75000000  1
  O  O29  1  0.62952447  0.56298306  0.75000000  1
  O  O30  1  0.87047553  0.06298306  0.25000000  1
  O  O31  1  0.37047553  0.43701694  0.25000000  1
  O  O32  1  0.04773880  0.31989273  0.75000000  1
  O  O33  1  0.54773880  0.18010727  0.75000000  1
  O  O34  1  0.95226120  0.68010727  0.25000000  1
  O  O35  1  0.45226120  0.81989273  0.25000000  1
  O  O36  1  0.92130180  0.39120467  0.57967909  1
  O  O37  1  0.42130180  0.10879533  0.92032091  1
  O  O38  1  0.07869820  0.60879533  0.07967909  1
  O  O39  1  0.57869820  0.89120467  0.42032091  1
  O  O40  1  0.07869820  0.60879533  0.42032091  1
  O  O41  1  0.57869820  0.89120467  0.07967909  1
  O  O42  1  0.92130180  0.39120467  0.92032091  1
  O  O43  1  0.42130180  0.10879533  0.57967909  1
  O  O44  1  0.15219461  0.25497427  0.92818829  1
  O  O45  1  0.65219461  0.24502573  0.57181171  1
  O  O46  1  0.84780539  0.74502573  0.42818829  1
  O  O47  1  0.34780539  0.75497427  0.07181171  1
  O  O48  1  0.84780539  0.74502573  0.07181171  1
  O  O49  1  0.34780539  0.75497427  0.42818829  1
  O  O50  1  0.15219461  0.25497427  0.57181171  1
  O  O51  1  0.65219461  0.24502573  0.92818829  1
  O  O52  1  0.41635516  0.62840756  0.86845458  1
  O  O53  1  0.91635516  0.87159244  0.63154542  1
  O  O54  1  0.58364484  0.37159244  0.36845458  1
  O  O55  1  0.08364484  0.12840756  0.13154542  1
  O  O56  1  0.58364484  0.37159244  0.13154542  1
  O  O57  1  0.08364484  0.12840756  0.36845458  1
  O  O58  1  0.41635516  0.62840756  0.63154542  1
  O  O59  1  0.91635516  0.87159244  0.86845458  1
  O  O60  1  0.66614763  0.00864909  0.86849070  1
  O  O61  1  0.16614763  0.49135091  0.63150930  1
  O  O62  1  0.33385237  0.99135091  0.36849070  1
  O  O63  1  0.83385237  0.50864909  0.13150930  1
  O  O64  1  0.33385237  0.99135091  0.13150930  1
  O  O65  1  0.83385237  0.50864909  0.36849070  1
  O  O66  1  0.66614763  0.00864909  0.63150930  1
  O  O67  1  0.16614763  0.49135091  0.86849070  1
  O  O68  1  0.15837552  0.74447041  0.87308223  1
  O  O69  1  0.65837552  0.75552959  0.62691777  1
  O  O70  1  0.84162448  0.25552959  0.37308223  1
  O  O71  1  0.34162448  0.24447041  0.12691777  1
  O  O72  1  0.84162448  0.25552959  0.12691777  1
  O  O73  1  0.34162448  0.24447041  0.37308223  1
  O  O74  1  0.15837552  0.74447041  0.62691777  1
  O  O75  1  0.65837552  0.75552959  0.87308223  1
  O  O76  1  0.14787216  0.97222839  0.94886806  1
  O  O77  1  0.64787216  0.52777161  0.55113194  1
  O  O78  1  0.85212784  0.02777161  0.44886806  1
  O  O79  1  0.35212784  0.47222839  0.05113194  1
  O  O80  1  0.85212784  0.02777161  0.05113194  1
  O  O81  1  0.35212784  0.47222839  0.44886806  1
  O  O82  1  0.14787216  0.97222839  0.55113194  1
  O  O83  1  0.64787216  0.52777161  0.94886806  1
