# generated using pymatgen
data_Ni3Se4
_symmetry_space_group_name_H-M   'P 1'
_cell_length_a   7.05364451
_cell_length_b   7.06085306
_cell_length_c   7.07840531
_cell_angle_alpha   120.03411893
_cell_angle_beta   89.95713986
_cell_angle_gamma   60.07894359
_symmetry_Int_Tables_number   1
_chemical_formula_structural   Ni3Se4
_chemical_formula_sum   'Ni6 Se8'
_cell_volume   249.35749499
_cell_formula_units_Z   2
loop_
 _symmetry_equiv_pos_site_id
 _symmetry_equiv_pos_as_xyz
  1  'x, y, z'
loop_
 _atom_site_type_symbol
 _atom_site_label
 _atom_site_symmetry_multiplicity
 _atom_site_fract_x
 _atom_site_fract_y
 _atom_site_fract_z
 _atom_site_occupancy
  Ni  Ni0  1  0.12511341  0.24971032  0.12485056  1
  Ni  Ni1  1  0.49999993  0.50000041  0.00000076  1
  Ni  Ni2  1  0.49999554  0.50000706  0.50000048  1
  Ni  Ni3  1  0.49999508  0.99999132  0.49999520  1
  Ni  Ni4  1  0.87488327  0.75030684  0.87515994  1
  Ni  Ni5  1  0.00000980  0.99999396  0.49999693  1
  Se  Se6  1  0.74095577  0.01799051  0.74095738  1
  Se  Se7  1  0.74100937  0.01804554  0.27712013  1
  Se  Se8  1  0.25905426  0.98198790  0.25904224  1
  Se  Se9  1  0.25900046  0.98193386  0.72285957  1
  Se  Se10  1  0.74084322  0.48159813  0.74075569  1
  Se  Se11  1  0.25916887  0.51841783  0.25925297  1
  Se  Se12  1  0.72239348  0.51843888  0.25917061  1
  Se  Se13  1  0.27757853  0.48157646  0.74083654  1
