# generated using pymatgen
data_KRb2LuCl6
_symmetry_space_group_name_H-M   'P 1'
_cell_length_a   7.88374195
_cell_length_b   7.88374232
_cell_length_c   7.88374230
_cell_angle_alpha   59.99999885
_cell_angle_beta   59.99999823
_cell_angle_gamma   59.99999836
_symmetry_Int_Tables_number   1
_chemical_formula_structural   KRb2LuCl6
_chemical_formula_sum   'K1 Rb2 Lu1 Cl6'
_cell_volume   346.48323737
_cell_formula_units_Z   1
loop_
 _symmetry_equiv_pos_site_id
 _symmetry_equiv_pos_as_xyz
  1  'x, y, z'
loop_
 _atom_site_type_symbol
 _atom_site_label
 _atom_site_symmetry_multiplicity
 _atom_site_fract_x
 _atom_site_fract_y
 _atom_site_fract_z
 _atom_site_occupancy
  K  K0  1  0.50000000  0.50000000  0.50000000  1
  Rb  Rb1  1  0.25000000  0.25000000  0.25000000  1
  Rb  Rb2  1  0.75000000  0.75000000  0.75000000  1
  Lu  Lu3  1  0.00000000  0.00000000  -0.00000000  1
  Cl  Cl4  1  0.23127954  0.76872046  0.23127954  1
  Cl  Cl5  1  0.76872046  0.76872046  0.23127954  1
  Cl  Cl6  1  0.76872046  0.23127954  0.76872046  1
  Cl  Cl7  1  0.76872046  0.23127954  0.23127954  1
  Cl  Cl8  1  0.23127954  0.76872046  0.76872046  1
  Cl  Cl9  1  0.23127954  0.23127954  0.76872046  1
