# generated using pymatgen
data_Mg30VBiO32
_symmetry_space_group_name_H-M   'P 1'
_cell_length_a   8.64243389
_cell_length_b   8.64540282
_cell_length_c   8.64540282
_cell_angle_alpha   90.00000000
_cell_angle_beta   90.00000000
_cell_angle_gamma   90.00000000
_symmetry_Int_Tables_number   1
_chemical_formula_structural   Mg30VBiO32
_chemical_formula_sum   'Mg30 V1 Bi1 O32'
_cell_volume   645.96134913
_cell_formula_units_Z   1
loop_
 _symmetry_equiv_pos_site_id
 _symmetry_equiv_pos_as_xyz
  1  'x, y, z'
loop_
 _atom_site_type_symbol
 _atom_site_label
 _atom_site_symmetry_multiplicity
 _atom_site_fract_x
 _atom_site_fract_y
 _atom_site_fract_z
 _atom_site_occupancy
  Mg  Mg0  1  0.00000000  0.00000000  0.50000000  1
  Mg  Mg1  1  0.00000000  0.50000000  0.00000000  1
  Mg  Mg2  1  0.50000000  0.00000000  0.00000000  1
  Mg  Mg3  1  0.50000000  0.00000000  0.50000000  1
  Mg  Mg4  1  0.50000000  0.50000000  0.00000000  1
  Mg  Mg5  1  0.50000000  0.50000000  0.50000000  1
  Mg  Mg6  1  0.00000000  0.24351072  0.24351072  1
  Mg  Mg7  1  0.00000000  0.24351072  0.75648928  1
  Mg  Mg8  1  0.00000000  0.75648928  0.24351072  1
  Mg  Mg9  1  0.00000000  0.75648928  0.75648928  1
  Mg  Mg10  1  0.50000000  0.24883925  0.24883925  1
  Mg  Mg11  1  0.50000000  0.24883925  0.75116075  1
  Mg  Mg12  1  0.50000000  0.75116075  0.24883925  1
  Mg  Mg13  1  0.50000000  0.75116075  0.75116075  1
  Mg  Mg14  1  0.25176657  0.00000000  0.24958147  1
  Mg  Mg15  1  0.25176657  0.00000000  0.75041853  1
  Mg  Mg16  1  0.25712425  0.50000000  0.24285950  1
  Mg  Mg17  1  0.25712425  0.50000000  0.75714050  1
  Mg  Mg18  1  0.74823343  0.00000000  0.24958147  1
  Mg  Mg19  1  0.74823343  0.00000000  0.75041853  1
  Mg  Mg20  1  0.74287575  0.50000000  0.24285950  1
  Mg  Mg21  1  0.74287575  0.50000000  0.75714050  1
  Mg  Mg22  1  0.25176657  0.24958147  0.00000000  1
  Mg  Mg23  1  0.25712425  0.24285950  0.50000000  1
  Mg  Mg24  1  0.25176657  0.75041853  0.00000000  1
  Mg  Mg25  1  0.25712425  0.75714050  0.50000000  1
  Mg  Mg26  1  0.74823343  0.24958147  0.00000000  1
  Mg  Mg27  1  0.74287575  0.24285950  0.50000000  1
  Mg  Mg28  1  0.74823343  0.75041853  0.00000000  1
  Mg  Mg29  1  0.74287575  0.75714050  0.50000000  1
  V  V30  1  0.00000000  0.00000000  0.00000000  1
  Bi  Bi31  1  0.00000000  0.50000000  0.50000000  1
  O  O32  1  0.25503531  0.00000000  0.00000000  1
  O  O33  1  0.25363661  0.00000000  0.50000000  1
  O  O34  1  0.25363661  0.50000000  0.00000000  1
  O  O35  1  0.26928216  0.50000000  0.50000000  1
  O  O36  1  0.74496469  0.00000000  0.00000000  1
  O  O37  1  0.74636339  0.00000000  0.50000000  1
  O  O38  1  0.74636339  0.50000000  0.00000000  1
  O  O39  1  0.73071784  0.50000000  0.50000000  1
  O  O40  1  0.24919774  0.25043995  0.25043995  1
  O  O41  1  0.24919774  0.25043995  0.74956005  1
  O  O42  1  0.24919774  0.74956005  0.25043995  1
  O  O43  1  0.24919774  0.74956005  0.74956005  1
  O  O44  1  0.75080226  0.25043995  0.25043995  1
  O  O45  1  0.75080226  0.25043995  0.74956005  1
  O  O46  1  0.75080226  0.74956005  0.25043995  1
  O  O47  1  0.75080226  0.74956005  0.74956005  1
  O  O48  1  0.00000000  0.00000000  0.25255387  1
  O  O49  1  0.00000000  0.00000000  0.74744613  1
  O  O50  1  0.00000000  0.50000000  0.23124663  1
  O  O51  1  0.00000000  0.50000000  0.76875337  1
  O  O52  1  0.50000000  0.00000000  0.24988430  1
  O  O53  1  0.50000000  0.00000000  0.75011570  1
  O  O54  1  0.50000000  0.50000000  0.24710903  1
  O  O55  1  0.50000000  0.50000000  0.75289097  1
  O  O56  1  0.00000000  0.25255387  0.00000000  1
  O  O57  1  0.00000000  0.23124663  0.50000000  1
  O  O58  1  0.00000000  0.74744613  0.00000000  1
  O  O59  1  0.00000000  0.76875337  0.50000000  1
  O  O60  1  0.50000000  0.24988430  0.00000000  1
  O  O61  1  0.50000000  0.24710903  0.50000000  1
  O  O62  1  0.50000000  0.75011570  0.00000000  1
  O  O63  1  0.50000000  0.75289097  0.50000000  1
