# generated using pymatgen
data_U2AsSe
_symmetry_space_group_name_H-M   'P 1'
_cell_length_a   8.17948419
_cell_length_b   10.80496088
_cell_length_c   7.05997439
_cell_angle_alpha   29.23026843
_cell_angle_beta   54.59968267
_cell_angle_gamma   40.79852787
_symmetry_Int_Tables_number   1
_chemical_formula_structural   U2AsSe
_chemical_formula_sum   'U4 As2 Se2'
_cell_volume   192.50804941
_cell_formula_units_Z   2
loop_
 _symmetry_equiv_pos_site_id
 _symmetry_equiv_pos_as_xyz
  1  'x, y, z'
loop_
 _atom_site_type_symbol
 _atom_site_label
 _atom_site_symmetry_multiplicity
 _atom_site_fract_x
 _atom_site_fract_y
 _atom_site_fract_z
 _atom_site_occupancy
  U  U0  1  0.25066175  0.00000000  0.49867650  1
  U  U1  1  0.74933825  1.00000000  0.50132350  1
  U  U2  1  0.49933825  0.50000000  0.50132350  1
  U  U3  1  0.00066175  0.50000000  0.49867650  1
  As  As4  1  0.50000000  -0.00000000  0.00000000  1
  As  As5  1  0.25000000  0.50000000  0.00000000  1
  Se  Se6  1  -0.00000000  -0.00000000  0.00000000  1
  Se  Se7  1  0.75000000  0.50000000  0.00000000  1
