# generated using pymatgen
data_Nd4Mg7Ge6
_symmetry_space_group_name_H-M   'P 1'
_cell_length_a   4.43876047
_cell_length_b   8.63091786
_cell_length_c   10.95922955
_cell_angle_alpha   78.76563411
_cell_angle_beta   78.31608481
_cell_angle_gamma   75.09939739
_symmetry_Int_Tables_number   1
_chemical_formula_structural   Nd4Mg7Ge6
_chemical_formula_sum   'Nd4 Mg7 Ge6'
_cell_volume   392.78294074
_cell_formula_units_Z   1
loop_
 _symmetry_equiv_pos_site_id
 _symmetry_equiv_pos_as_xyz
  1  'x, y, z'
loop_
 _atom_site_type_symbol
 _atom_site_label
 _atom_site_symmetry_multiplicity
 _atom_site_fract_x
 _atom_site_fract_y
 _atom_site_fract_z
 _atom_site_occupancy
  Nd  Nd0  1  0.26648538  0.85367563  0.61335360  1
  Nd  Nd1  1  0.73351462  0.14632437  0.38664640  1
  Nd  Nd2  1  0.37008810  0.42044152  0.83938227  1
  Nd  Nd3  1  0.62991190  0.57955848  0.16061773  1
  Mg  Mg4  1  0.03983796  0.05915295  0.86117113  1
  Mg  Mg5  1  0.96016204  0.94084705  0.13882887  1
  Mg  Mg6  1  0.06234819  0.27207095  0.60323268  1
  Mg  Mg7  1  0.93765181  0.72792905  0.39676732  1
  Mg  Mg8  1  0.68975147  0.77392880  0.84656827  1
  Mg  Mg9  1  0.31024853  0.22607120  0.15343173  1
  Mg  Mg10  1  0.50000000  0.50000000  0.50000000  1
  Ge  Ge11  1  0.12055646  0.41104845  0.34783863  1
  Ge  Ge12  1  0.87944354  0.58895155  0.65216137  1
  Ge  Ge13  1  0.14951888  0.72434811  0.97661412  1
  Ge  Ge14  1  0.85048112  0.27565189  0.02338588  1
  Ge  Ge15  1  0.60930584  0.09361631  0.68777202  1
  Ge  Ge16  1  0.39069416  0.90638369  0.31222798  1
