# generated using pymatgen
data_Na(MoSe)3
_symmetry_space_group_name_H-M   'P 1'
_cell_length_a   8.82552478
_cell_length_b   8.82230857
_cell_length_c   4.52587179
_cell_angle_alpha   90.00000000
_cell_angle_beta   90.00000000
_cell_angle_gamma   120.04426059
_symmetry_Int_Tables_number   1
_chemical_formula_structural   Na(MoSe)3
_chemical_formula_sum   'Na2 Mo6 Se6'
_cell_volume   305.04351266
_cell_formula_units_Z   2
loop_
 _symmetry_equiv_pos_site_id
 _symmetry_equiv_pos_as_xyz
  1  'x, y, z'
loop_
 _atom_site_type_symbol
 _atom_site_label
 _atom_site_symmetry_multiplicity
 _atom_site_fract_x
 _atom_site_fract_y
 _atom_site_fract_z
 _atom_site_occupancy
  Na  Na0  1  0.33309329  0.66696455  0.25000100  1
  Na  Na1  1  0.66690671  0.33303545  0.75000000  1
  Mo  Mo2  1  0.14897256  0.19186796  0.25000100  1
  Mo  Mo3  1  0.85102744  0.80813204  0.75000000  1
  Mo  Mo4  1  0.80824231  0.95708824  0.25000100  1
  Mo  Mo5  1  0.04276909  0.85102967  0.25000100  1
  Mo  Mo6  1  0.95723091  0.14897033  0.75000000  1
  Mo  Mo7  1  0.19175769  0.04290976  0.75000000  1
  Se  Se8  1  0.91601916  0.29587335  0.25000100  1
  Se  Se9  1  0.08398084  0.70412865  0.75000000  1
  Se  Se10  1  0.70415015  0.61991130  0.25000100  1
  Se  Se11  1  0.37990930  0.08423948  0.25000100  1
  Se  Se12  1  0.62009170  0.91576052  0.75000000  1
  Se  Se13  1  0.29584985  0.38008970  0.75000000  1
