# generated using pymatgen
data_TbZn3
_symmetry_space_group_name_H-M   'P 1'
_cell_length_a   4.41466493
_cell_length_b   6.67578872
_cell_length_c   10.11709674
_cell_angle_alpha   90.00000000
_cell_angle_beta   90.00000000
_cell_angle_gamma   90.00000000
_symmetry_Int_Tables_number   1
_chemical_formula_structural   TbZn3
_chemical_formula_sum   'Tb4 Zn12'
_cell_volume   298.16470481
_cell_formula_units_Z   4
loop_
 _symmetry_equiv_pos_site_id
 _symmetry_equiv_pos_as_xyz
  1  'x, y, z'
loop_
 _atom_site_type_symbol
 _atom_site_label
 _atom_site_symmetry_multiplicity
 _atom_site_fract_x
 _atom_site_fract_y
 _atom_site_fract_z
 _atom_site_occupancy
  Tb  Tb0  1  0.75000000  0.22026555  0.83746864  1
  Tb  Tb1  1  0.75000000  0.72026555  0.66253136  1
  Tb  Tb2  1  0.25000000  0.77973445  0.16253136  1
  Tb  Tb3  1  0.25000000  0.27973445  0.33746864  1
  Zn  Zn4  1  0.75000000  0.96376191  0.39629503  1
  Zn  Zn5  1  0.75000000  0.46376191  0.10370497  1
  Zn  Zn6  1  0.25000000  0.03623809  0.60370497  1
  Zn  Zn7  1  0.25000000  0.53623809  0.89629503  1
  Zn  Zn8  1  0.75000000  0.58248362  0.35193873  1
  Zn  Zn9  1  0.75000000  0.08248362  0.14806127  1
  Zn  Zn10  1  0.25000000  0.41751638  0.64806127  1
  Zn  Zn11  1  0.25000000  0.91751638  0.85193873  1
  Zn  Zn12  1  0.75000000  0.28318140  0.54310813  1
  Zn  Zn13  1  0.75000000  0.78318140  0.95689187  1
  Zn  Zn14  1  0.25000000  0.71681860  0.45689187  1
  Zn  Zn15  1  0.25000000  0.21681860  0.04310813  1
