# generated using pymatgen
data_Sr3AlAs3
_symmetry_space_group_name_H-M   'P 1'
_cell_length_a   6.64366920
_cell_length_b   10.20650578
_cell_length_c   12.80683243
_cell_angle_alpha   90.00000000
_cell_angle_beta   90.00000000
_cell_angle_gamma   108.99359287
_symmetry_Int_Tables_number   1
_chemical_formula_structural   Sr3AlAs3
_chemical_formula_sum   'Sr12 Al4 As12'
_cell_volume   821.13317329
_cell_formula_units_Z   4
loop_
 _symmetry_equiv_pos_site_id
 _symmetry_equiv_pos_as_xyz
  1  'x, y, z'
loop_
 _atom_site_type_symbol
 _atom_site_label
 _atom_site_symmetry_multiplicity
 _atom_site_fract_x
 _atom_site_fract_y
 _atom_site_fract_z
 _atom_site_occupancy
  Sr  Sr0  1  0.67555559  1.00000000  0.15052719  1
  Sr  Sr1  1  0.32444441  0.00000000  0.84947281  1
  Sr  Sr2  1  0.82444441  0.00000000  0.65052719  1
  Sr  Sr3  1  0.17555559  1.00000000  0.34947281  1
  Sr  Sr4  1  0.98914940  0.35410248  0.36905789  1
  Sr  Sr5  1  0.36495308  0.35410248  0.63094211  1
  Sr  Sr6  1  0.86495308  0.35410248  0.86905789  1
  Sr  Sr7  1  0.48914940  0.35410248  0.13094211  1
  Sr  Sr8  1  0.01085060  0.64589752  0.63094211  1
  Sr  Sr9  1  0.63504692  0.64589752  0.36905789  1
  Sr  Sr10  1  0.13504692  0.64589752  0.13094211  1
  Sr  Sr11  1  0.51085060  0.64589752  0.86905789  1
  Al  Al12  1  0.58473388  0.16946776  0.50000000  1
  Al  Al13  1  0.08473388  0.16946776  0.00000000  1
  Al  Al14  1  0.41526612  0.83053224  0.50000000  1
  Al  Al15  1  0.91526612  0.83053224  0.00000000  1
  As  As16  1  0.70838436  0.00000000  0.39792143  1
  As  As17  1  0.29161564  1.00000000  0.60207857  1
  As  As18  1  0.79161564  1.00000000  0.89792143  1
  As  As19  1  0.20838436  0.00000000  0.10207857  1
  As  As20  1  0.13714020  0.68281939  0.37980495  1
  As  As21  1  0.54567920  0.68281939  0.62019505  1
  As  As22  1  0.04567920  0.68281939  0.87980495  1
  As  As23  1  0.63714020  0.68281939  0.12019505  1
  As  As24  1  0.86285980  0.31718061  0.62019505  1
  As  As25  1  0.45432080  0.31718061  0.37980495  1
  As  As26  1  0.95432080  0.31718061  0.12019505  1
  As  As27  1  0.36285980  0.31718061  0.87980495  1
