# generated using pymatgen
data_CdH6C(IN)3
_symmetry_space_group_name_H-M   'P 1'
_cell_length_a   8.46881306
_cell_length_b   8.92844234
_cell_length_c   9.50948948
_cell_angle_alpha   62.00145613
_cell_angle_beta   82.72546084
_cell_angle_gamma   74.35188522
_symmetry_Int_Tables_number   1
_chemical_formula_structural   CdH6C(IN)3
_chemical_formula_sum   'Cd2 H12 C2 I6 N6'
_cell_volume   611.35553049
_cell_formula_units_Z   2
loop_
 _symmetry_equiv_pos_site_id
 _symmetry_equiv_pos_as_xyz
  1  'x, y, z'
loop_
 _atom_site_type_symbol
 _atom_site_label
 _atom_site_symmetry_multiplicity
 _atom_site_fract_x
 _atom_site_fract_y
 _atom_site_fract_z
 _atom_site_occupancy
  Cd  Cd0  1  0.07616807  0.92049089  0.08928973  1
  Cd  Cd1  1  0.57616807  0.00978062  0.91071027  1
  H  H2  1  0.15303143  0.34321234  0.18381531  1
  H  H3  1  0.65303143  0.52702765  0.81618469  1
  H  H4  1  0.23392944  0.31088140  0.35884089  1
  H  H5  1  0.73392944  0.66972229  0.64115911  1
  H  H6  1  0.86121588  0.26364574  0.57546719  1
  H  H7  1  0.36121588  0.83911292  0.42453281  1
  H  H8  1  0.06368097  0.26858825  0.58551928  1
  H  H9  1  0.56368097  0.85410753  0.41448072  1
  H  H10  1  0.75500630  0.31172585  0.34134718  1
  H  H11  1  0.25500630  0.65307303  0.65865282  1
  H  H12  1  0.87975890  0.34672476  0.17269797  1
  H  H13  1  0.37975890  0.51942274  0.82730203  1
  C  C14  1  0.98961133  0.31454231  0.36752675  1
  C  C15  1  0.48961133  0.68206907  0.63247325  1
  I  I16  1  0.06099403  0.27905579  0.91739582  1
  I  I17  1  0.56099403  0.19645161  0.08260418  1
  I  I18  1  0.00453827  0.79917608  0.41364402  1
  I  I19  1  0.50453827  0.21282010  0.58635598  1
  I  I20  1  0.91230688  0.81741403  0.91731482  1
  I  I21  1  0.41230688  0.73472885  0.08268518  1
  N  N22  1  0.13532348  0.33007607  0.29643503  1
  N  N23  1  0.63532348  0.62651109  0.70356497  1
  N  N24  1  0.97056222  0.28029798  0.52073495  1
  N  N25  1  0.47056222  0.80103293  0.47926505  1
  N  N26  1  0.86208279  0.33682397  0.28452013  1
  N  N27  1  0.36208279  0.62134411  0.71547987  1
