# generated using pymatgen
data_ZnH6(Se2N)2
_symmetry_space_group_name_H-M   'P 1'
_cell_length_a   6.13000981
_cell_length_b   6.75581930
_cell_length_c   12.03140723
_cell_angle_alpha   90.00000000
_cell_angle_beta   90.00000000
_cell_angle_gamma   114.10001711
_symmetry_Int_Tables_number   1
_chemical_formula_structural   ZnH6(Se2N)2
_chemical_formula_sum   'Zn2 H12 Se8 N4'
_cell_volume   454.82827526
_cell_formula_units_Z   2
loop_
 _symmetry_equiv_pos_site_id
 _symmetry_equiv_pos_as_xyz
  1  'x, y, z'
loop_
 _atom_site_type_symbol
 _atom_site_label
 _atom_site_symmetry_multiplicity
 _atom_site_fract_x
 _atom_site_fract_y
 _atom_site_fract_z
 _atom_site_occupancy
  Zn  Zn0  1  0.17146851  0.11078980  0.25579788  1
  Zn  Zn1  1  0.82853149  0.88921020  0.75579788  1
  H  H2  1  0.72793628  0.00185334  0.19056443  1
  H  H3  1  0.27206372  0.99814666  0.69056443  1
  H  H4  1  0.82758121  0.24772743  0.24234910  1
  H  H5  1  0.17241879  0.75227257  0.74234910  1
  H  H6  1  0.73144026  0.03710396  0.32603621  1
  H  H7  1  0.26855974  0.96289604  0.82603621  1
  H  H8  1  0.98659644  0.80712778  0.10382464  1
  H  H9  1  0.01340356  0.19287222  0.60382464  1
  H  H10  1  0.17838999  0.74833805  0.17934983  1
  H  H11  1  0.82161001  0.25166195  0.67934983  1
  H  H12  1  0.27512009  0.93678112  0.08194134  1
  H  H13  1  0.72487991  0.06321888  0.58194134  1
  Se  Se14  1  0.43354046  0.46466817  0.18284994  1
  Se  Se15  1  0.56645954  0.53533183  0.68284994  1
  Se  Se16  1  0.36995078  0.41087437  0.98781615  1
  Se  Se17  1  0.63004922  0.58912563  0.48781615  1
  Se  Se18  1  0.97708738  0.36221125  0.94003055  1
  Se  Se19  1  0.02291262  0.63778875  0.44003055  1
  Se  Se20  1  0.26937297  0.01879605  0.44029711  1
  Se  Se21  1  0.73062703  0.98120395  0.94029711  1
  N  N22  1  0.82505926  0.09726396  0.25433022  1
  N  N23  1  0.17494074  0.90273604  0.75433022  1
  N  N24  1  0.14896810  0.87244693  0.14297260  1
  N  N25  1  0.85103190  0.12755307  0.64297260  1
