# generated using pymatgen
data_RbAl(H2N)4
_symmetry_space_group_name_H-M   'P 1'
_cell_length_a   5.77448014
_cell_length_b   7.74446638
_cell_length_c   7.74446638
_cell_angle_alpha   90.00000000
_cell_angle_beta   90.00000000
_cell_angle_gamma   90.00000000
_symmetry_Int_Tables_number   1
_chemical_formula_structural   RbAl(H2N)4
_chemical_formula_sum   'Rb2 Al2 H16 N8'
_cell_volume   346.33460666
_cell_formula_units_Z   2
loop_
 _symmetry_equiv_pos_site_id
 _symmetry_equiv_pos_as_xyz
  1  'x, y, z'
loop_
 _atom_site_type_symbol
 _atom_site_label
 _atom_site_symmetry_multiplicity
 _atom_site_fract_x
 _atom_site_fract_y
 _atom_site_fract_z
 _atom_site_occupancy
  Rb  Rb0  1  0.27710161  0.75000000  0.75000000  1
  Rb  Rb1  1  0.72289839  0.25000000  0.25000000  1
  Al  Al2  1  0.00000000  0.25000000  0.75000000  1
  Al  Al3  1  0.00000000  0.75000000  0.25000000  1
  H  H4  1  0.36767969  0.59271122  0.18455584  1
  H  H5  1  0.36767969  0.90728878  0.31544416  1
  H  H6  1  0.36767969  0.18455584  0.90728878  1
  H  H7  1  0.36767969  0.31544416  0.59271122  1
  H  H8  1  0.63232031  0.40728878  0.81544416  1
  H  H9  1  0.63232031  0.09271122  0.68455584  1
  H  H10  1  0.63232031  0.81544416  0.09271122  1
  H  H11  1  0.63232031  0.68455584  0.40728878  1
  H  H12  1  0.16048938  0.49042722  0.08383086  1
  H  H13  1  0.16048938  0.00957278  0.41616914  1
  H  H14  1  0.16048938  0.08383086  0.00957278  1
  H  H15  1  0.16048938  0.41616914  0.49042722  1
  H  H16  1  0.83951062  0.50957278  0.91616914  1
  H  H17  1  0.83951062  0.99042722  0.58383086  1
  H  H18  1  0.83951062  0.91616914  0.99042722  1
  H  H19  1  0.83951062  0.58383086  0.50957278  1
  N  N20  1  0.20811483  0.60819447  0.13068034  1
  N  N21  1  0.20811483  0.89180553  0.36931966  1
  N  N22  1  0.20811483  0.13068034  0.89180553  1
  N  N23  1  0.20811483  0.36931966  0.60819447  1
  N  N24  1  0.79188517  0.39180553  0.86931966  1
  N  N25  1  0.79188517  0.10819447  0.63068034  1
  N  N26  1  0.79188517  0.86931966  0.10819447  1
  N  N27  1  0.79188517  0.63068034  0.39180553  1
