# generated using pymatgen
data_NaEu2AlP3
_symmetry_space_group_name_H-M   'P 1'
_cell_length_a   8.03650820
_cell_length_b   8.03650820
_cell_length_c   11.45077067
_cell_angle_alpha   74.36233533
_cell_angle_beta   74.36233533
_cell_angle_gamma   67.26485217
_symmetry_Int_Tables_number   1
_chemical_formula_structural   NaEu2AlP3
_chemical_formula_sum   'Na4 Eu8 Al4 P12'
_cell_volume   645.35640937
_cell_formula_units_Z   4
loop_
 _symmetry_equiv_pos_site_id
 _symmetry_equiv_pos_as_xyz
  1  'x, y, z'
loop_
 _atom_site_type_symbol
 _atom_site_label
 _atom_site_symmetry_multiplicity
 _atom_site_fract_x
 _atom_site_fract_y
 _atom_site_fract_z
 _atom_site_occupancy
  Na  Na0  1  0.30321472  0.69678528  0.50000000  1
  Na  Na1  1  0.69678528  0.30321472  0.50000000  1
  Na  Na2  1  0.47713960  0.47713960  0.26033404  1
  Na  Na3  1  0.52286040  0.52286040  0.73966596  1
  Eu  Eu4  1  0.95719897  0.41775856  0.18075400  1
  Eu  Eu5  1  0.41775856  0.95719897  0.18075400  1
  Eu  Eu6  1  0.04280103  0.58224144  0.81924600  1
  Eu  Eu7  1  0.58224144  0.04280103  0.81924600  1
  Eu  Eu8  1  0.24412728  0.75587272  -0.00000000  1
  Eu  Eu9  1  0.75587272  0.24412728  -0.00000000  1
  Eu  Eu10  1  -0.00000000  0.50000000  0.50000000  1
  Eu  Eu11  1  0.50000000  -0.00000000  0.50000000  1
  Al  Al12  1  0.96963403  0.96963403  0.38362507  1
  Al  Al13  1  0.03036597  0.03036597  0.61637493  1
  Al  Al14  1  0.83500356  0.83500356  0.23424610  1
  Al  Al15  1  0.16499644  0.16499644  0.76575390  1
  P  P16  1  0.14232723  0.72753908  0.27145563  1
  P  P17  1  0.72753908  0.14232723  0.27145563  1
  P  P18  1  0.85767277  0.27246092  0.72854437  1
  P  P19  1  0.27246092  0.85767277  0.72854437  1
  P  P20  1  0.85734564  0.85734564  0.60093340  1
  P  P21  1  0.14265436  0.14265436  0.39906660  1
  P  P22  1  0.82667495  0.82667495  0.02256172  1
  P  P23  1  0.17332505  0.17332505  0.97743828  1
  P  P24  1  0.66146390  0.66146390  0.37022502  1
  P  P25  1  0.33853610  0.33853610  0.62977498  1
  P  P26  1  0.65890702  0.65890702  0.00563086  1
  P  P27  1  0.34109298  0.34109298  0.99436914  1
