# generated using pymatgen
data_Sr(LuS2)2
_symmetry_space_group_name_H-M   'P 1'
_cell_length_a   3.92774261
_cell_length_b   11.98181159
_cell_length_c   14.13539546
_cell_angle_alpha   90.00000000
_cell_angle_beta   90.00000000
_cell_angle_gamma   90.00000000
_symmetry_Int_Tables_number   1
_chemical_formula_structural   Sr(LuS2)2
_chemical_formula_sum   'Sr4 Lu8 S16'
_cell_volume   665.23251662
_cell_formula_units_Z   4
loop_
 _symmetry_equiv_pos_site_id
 _symmetry_equiv_pos_as_xyz
  1  'x, y, z'
loop_
 _atom_site_type_symbol
 _atom_site_label
 _atom_site_symmetry_multiplicity
 _atom_site_fract_x
 _atom_site_fract_y
 _atom_site_fract_z
 _atom_site_occupancy
  Sr  Sr0  1  0.75000000  0.73919230  0.16574693  1
  Sr  Sr1  1  0.75000000  0.23919230  0.33425307  1
  Sr  Sr2  1  0.25000000  0.26080770  0.83425307  1
  Sr  Sr3  1  0.25000000  0.76080770  0.66574693  1
  Lu  Lu4  1  0.75000000  0.06108389  0.11003345  1
  Lu  Lu5  1  0.75000000  0.56108389  0.38996655  1
  Lu  Lu6  1  0.25000000  0.93891611  0.88996655  1
  Lu  Lu7  1  0.25000000  0.43891611  0.61003345  1
  Lu  Lu8  1  0.75000000  0.08213944  0.59877887  1
  Lu  Lu9  1  0.75000000  0.58213944  0.90122113  1
  Lu  Lu10  1  0.25000000  0.91786056  0.40122113  1
  Lu  Lu11  1  0.25000000  0.41786056  0.09877887  1
  S  S12  1  0.75000000  0.29540882  0.66597116  1
  S  S13  1  0.75000000  0.79540882  0.83402884  1
  S  S14  1  0.25000000  0.70459118  0.33402884  1
  S  S15  1  0.25000000  0.20459118  0.16597116  1
  S  S16  1  0.75000000  0.37413876  0.97108574  1
  S  S17  1  0.75000000  0.87413876  0.52891426  1
  S  S18  1  0.25000000  0.62586124  0.02891426  1
  S  S19  1  0.25000000  0.12586124  0.47108574  1
  S  S20  1  0.75000000  0.47333043  0.21552170  1
  S  S21  1  0.75000000  0.97333043  0.28447830  1
  S  S22  1  0.25000000  0.52666957  0.78447830  1
  S  S23  1  0.25000000  0.02666957  0.71552170  1
  S  S24  1  0.75000000  0.08858638  0.92298322  1
  S  S25  1  0.75000000  0.58858638  0.57701678  1
  S  S26  1  0.25000000  0.91141362  0.07701678  1
  S  S27  1  0.25000000  0.41141362  0.42298322  1
