# generated using pymatgen
data_Cs4Pr6OsI13
_symmetry_space_group_name_H-M   'P 1'
_cell_length_a   10.15150435
_cell_length_b   10.15150435
_cell_length_c   12.56262396
_cell_angle_alpha   68.93186228
_cell_angle_beta   68.93186228
_cell_angle_gamma   87.73493162
_symmetry_Int_Tables_number   1
_chemical_formula_structural   Cs4Pr6OsI13
_chemical_formula_sum   'Cs4 Pr6 Os1 I13'
_cell_volume   1121.32315131
_cell_formula_units_Z   1
loop_
 _symmetry_equiv_pos_site_id
 _symmetry_equiv_pos_as_xyz
  1  'x, y, z'
loop_
 _atom_site_type_symbol
 _atom_site_label
 _atom_site_symmetry_multiplicity
 _atom_site_fract_x
 _atom_site_fract_y
 _atom_site_fract_z
 _atom_site_occupancy
  Cs  Cs0  1  0.71738172  0.28261828  0.50000000  1
  Cs  Cs1  1  0.28261828  0.71738172  0.50000000  1
  Cs  Cs2  1  0.32389357  0.32389357  0.28196370  1
  Cs  Cs3  1  0.67610643  0.67610643  0.71803630  1
  Pr  Pr4  1  0.99034117  0.99034117  0.22384329  1
  Pr  Pr5  1  0.00965883  0.00965883  0.77615671  1
  Pr  Pr6  1  0.98508023  0.69779502  0.08521691  1
  Pr  Pr7  1  0.69779502  0.98508023  0.08521691  1
  Pr  Pr8  1  0.01491977  0.30220498  0.91478309  1
  Pr  Pr9  1  0.30220498  0.01491977  0.91478309  1
  Os  Os10  1  0.00000000  -0.00000000  0.00000000  1
  I  I11  1  0.99952754  0.33239369  0.16994404  1
  I  I12  1  0.33239369  0.99952754  0.16994404  1
  I  I13  1  0.00047246  0.66760631  0.83005596  1
  I  I14  1  0.66760631  0.00047246  0.83005596  1
  I  I15  1  0.63495385  0.63495385  0.21979494  1
  I  I16  1  0.36504615  0.36504615  0.78020506  1
  I  I17  1  0.32409288  0.67590712  0.00000000  1
  I  I18  1  0.67590712  0.32409288  0.00000000  1
  I  I19  1  0.00000000  -0.00000000  0.50000000  1
  I  I20  1  0.97463751  0.64902553  0.35858407  1
  I  I21  1  0.64902553  0.97463751  0.35858407  1
  I  I22  1  0.02536249  0.35097447  0.64141593  1
  I  I23  1  0.35097447  0.02536249  0.64141593  1
