# generated using pymatgen
data_MnV2HPb2O9
_symmetry_space_group_name_H-M   'P 1'
_cell_length_a   6.33456701
_cell_length_b   7.79276863
_cell_length_c   8.78741283
_cell_angle_alpha   110.21395485
_cell_angle_beta   90.00000000
_cell_angle_gamma   90.00000000
_symmetry_Int_Tables_number   1
_chemical_formula_structural   MnV2HPb2O9
_chemical_formula_sum   'Mn2 V4 H2 Pb4 O18'
_cell_volume   407.06321874
_cell_formula_units_Z   2
loop_
 _symmetry_equiv_pos_site_id
 _symmetry_equiv_pos_as_xyz
  1  'x, y, z'
loop_
 _atom_site_type_symbol
 _atom_site_label
 _atom_site_symmetry_multiplicity
 _atom_site_fract_x
 _atom_site_fract_y
 _atom_site_fract_z
 _atom_site_occupancy
  Mn  Mn0  1  0.50000000  0.00000000  -0.00000000  1
  Mn  Mn1  1  0.00000000  0.00000000  -0.00000000  1
  V  V2  1  0.75000000  0.96194866  0.66196779  1
  V  V3  1  0.25000000  0.03805134  0.33803221  1
  V  V4  1  0.75000000  0.55263686  0.82583786  1
  V  V5  1  0.25000000  0.44736314  0.17416214  1
  H  H6  1  0.75000000  0.26297519  0.01907204  1
  H  H7  1  0.25000000  0.73702481  0.98092796  1
  Pb  Pb8  1  0.75000000  0.71914022  0.24944765  1
  Pb  Pb9  1  0.25000000  0.28085978  0.75055235  1
  Pb  Pb10  1  0.75000000  0.33740489  0.41693822  1
  Pb  Pb11  1  0.25000000  0.66259511  0.58306178  1
  O  O12  1  0.75000000  0.16570692  0.07123416  1
  O  O13  1  0.25000000  0.83429308  0.92876584  1
  O  O14  1  0.51689445  0.01576052  0.78469576  1
  O  O15  1  0.01689445  0.98423948  0.21530424  1
  O  O16  1  0.48310555  0.98423948  0.21530424  1
  O  O17  1  0.98310555  0.01576052  0.78469576  1
  O  O18  1  0.75000000  0.08495055  0.53631952  1
  O  O19  1  0.25000000  0.91504945  0.46368048  1
  O  O20  1  0.75000000  0.73417353  0.54184122  1
  O  O21  1  0.25000000  0.26582647  0.45815878  1
  O  O22  1  0.75000000  0.44332371  0.96519888  1
  O  O23  1  0.25000000  0.55667629  0.03480112  1
  O  O24  1  0.75000000  0.78913211  0.93631192  1
  O  O25  1  0.25000000  0.21086789  0.06368808  1
  O  O26  1  0.52689616  0.48721977  0.69842106  1
  O  O27  1  0.02689616  0.51278023  0.30157894  1
  O  O28  1  0.47310384  0.51278023  0.30157894  1
  O  O29  1  0.97310384  0.48721977  0.69842106  1
