# generated using pymatgen
data_Nd3Sn5Au6
_symmetry_space_group_name_H-M   'P 1'
_cell_length_a   4.61680484
_cell_length_b   10.36857754
_cell_length_c   13.76921820
_cell_angle_alpha   90.00000000
_cell_angle_beta   90.00000000
_cell_angle_gamma   90.00000000
_symmetry_Int_Tables_number   1
_chemical_formula_structural   Nd3Sn5Au6
_chemical_formula_sum   'Nd6 Sn10 Au12'
_cell_volume   659.12833029
_cell_formula_units_Z   2
loop_
 _symmetry_equiv_pos_site_id
 _symmetry_equiv_pos_as_xyz
  1  'x, y, z'
loop_
 _atom_site_type_symbol
 _atom_site_label
 _atom_site_symmetry_multiplicity
 _atom_site_fract_x
 _atom_site_fract_y
 _atom_site_fract_z
 _atom_site_occupancy
  Nd  Nd0  1  0.75000000  0.24430417  0.75000000  1
  Nd  Nd1  1  0.25000000  0.75569583  0.25000000  1
  Nd  Nd2  1  0.75000000  0.24528098  0.06283515  1
  Nd  Nd3  1  0.75000000  0.24528098  0.43716485  1
  Nd  Nd4  1  0.25000000  0.75471902  0.93716485  1
  Nd  Nd5  1  0.25000000  0.75471902  0.56283515  1
  Sn  Sn6  1  0.75000000  0.52393445  0.89323700  1
  Sn  Sn7  1  0.75000000  0.52393445  0.60676300  1
  Sn  Sn8  1  0.25000000  0.47606555  0.10676300  1
  Sn  Sn9  1  0.25000000  0.47606555  0.39323700  1
  Sn  Sn10  1  0.75000000  0.88010529  0.08685545  1
  Sn  Sn11  1  0.75000000  0.88010529  0.41314455  1
  Sn  Sn12  1  0.25000000  0.11989471  0.91314455  1
  Sn  Sn13  1  0.25000000  0.11989471  0.58685545  1
  Sn  Sn14  1  0.75000000  0.77081108  0.75000000  1
  Sn  Sn15  1  0.25000000  0.22918892  0.25000000  1
  Au  Au16  1  0.75000000  0.97415990  0.89337256  1
  Au  Au17  1  0.75000000  0.97415990  0.60662744  1
  Au  Au18  1  0.25000000  0.02584010  0.10662744  1
  Au  Au19  1  0.25000000  0.02584010  0.39337256  1
  Au  Au20  1  0.25000000  0.96069572  0.75000000  1
  Au  Au21  1  0.75000000  0.03930428  0.25000000  1
  Au  Au22  1  0.75000000  0.62145322  0.09102340  1
  Au  Au23  1  0.75000000  0.62145322  0.40897660  1
  Au  Au24  1  0.25000000  0.37854678  0.90897660  1
  Au  Au25  1  0.25000000  0.37854678  0.59102340  1
  Au  Au26  1  0.25000000  0.56455483  0.75000000  1
  Au  Au27  1  0.75000000  0.43544517  0.25000000  1
