# generated using pymatgen
data_RbBaPS4
_symmetry_space_group_name_H-M   'P 1'
_cell_length_a   6.83252653
_cell_length_b   10.21427231
_cell_length_c   11.72765626
_cell_angle_alpha   90.00000000
_cell_angle_beta   90.00000000
_cell_angle_gamma   90.00000000
_symmetry_Int_Tables_number   1
_chemical_formula_structural   RbBaPS4
_chemical_formula_sum   'Rb4 Ba4 P4 S16'
_cell_volume   818.46476320
_cell_formula_units_Z   4
loop_
 _symmetry_equiv_pos_site_id
 _symmetry_equiv_pos_as_xyz
  1  'x, y, z'
loop_
 _atom_site_type_symbol
 _atom_site_label
 _atom_site_symmetry_multiplicity
 _atom_site_fract_x
 _atom_site_fract_y
 _atom_site_fract_z
 _atom_site_occupancy
  Rb  Rb0  1  0.25000000  0.84579799  0.91571226  1
  Rb  Rb1  1  0.25000000  0.65420201  0.41571226  1
  Rb  Rb2  1  0.75000000  0.15420201  0.08428774  1
  Rb  Rb3  1  0.75000000  0.34579799  0.58428774  1
  Ba  Ba4  1  0.25000000  0.39444083  0.85103382  1
  Ba  Ba5  1  0.25000000  0.10555917  0.35103382  1
  Ba  Ba6  1  0.75000000  0.60555917  0.14896618  1
  Ba  Ba7  1  0.75000000  0.89444083  0.64896618  1
  P  P8  1  0.25000000  0.10736439  0.68407228  1
  P  P9  1  0.25000000  0.39263561  0.18407228  1
  P  P10  1  0.75000000  0.89263561  0.31592772  1
  P  P11  1  0.75000000  0.60736439  0.81592772  1
  S  S12  1  0.49446367  0.11539242  0.78412630  1
  S  S13  1  0.00553633  0.38460758  0.28412630  1
  S  S14  1  0.99446367  0.88460758  0.21587370  1
  S  S15  1  0.50553633  0.61539242  0.71587370  1
  S  S16  1  0.50553633  0.88460758  0.21587370  1
  S  S17  1  0.99446367  0.61539242  0.71587370  1
  S  S18  1  0.00553633  0.11539242  0.78412630  1
  S  S19  1  0.49446367  0.38460758  0.28412630  1
  S  S20  1  0.25000000  0.27140538  0.58151374  1
  S  S21  1  0.25000000  0.22859462  0.08151374  1
  S  S22  1  0.75000000  0.72859462  0.41848626  1
  S  S23  1  0.75000000  0.77140538  0.91848626  1
  S  S24  1  0.25000000  0.93629501  0.59022980  1
  S  S25  1  0.25000000  0.56370499  0.09022980  1
  S  S26  1  0.75000000  0.06370499  0.40977020  1
  S  S27  1  0.75000000  0.43629501  0.90977020  1
