# generated using pymatgen
data_Eu5(SnAs3)2
_symmetry_space_group_name_H-M   'P 1'
_cell_length_a   4.26401384
_cell_length_b   12.26700893
_cell_length_c   13.94586371
_cell_angle_alpha   90.00000000
_cell_angle_beta   90.00000000
_cell_angle_gamma   90.00000000
_symmetry_Int_Tables_number   1
_chemical_formula_structural   Eu5(SnAs3)2
_chemical_formula_sum   'Eu10 Sn4 As12'
_cell_volume   729.46205149
_cell_formula_units_Z   2
loop_
 _symmetry_equiv_pos_site_id
 _symmetry_equiv_pos_as_xyz
  1  'x, y, z'
loop_
 _atom_site_type_symbol
 _atom_site_label
 _atom_site_symmetry_multiplicity
 _atom_site_fract_x
 _atom_site_fract_y
 _atom_site_fract_z
 _atom_site_occupancy
  Eu  Eu0  1  -0.00000000  0.62340905  0.25671840  1
  Eu  Eu1  1  0.00000000  0.37659095  0.74328160  1
  Eu  Eu2  1  0.00000000  0.12340905  0.24328160  1
  Eu  Eu3  1  0.00000000  0.87659095  0.75671840  1
  Eu  Eu4  1  -0.00000000  0.86991892  0.43418002  1
  Eu  Eu5  1  0.00000000  0.13008108  0.56581998  1
  Eu  Eu6  1  0.00000000  0.36991892  0.06581998  1
  Eu  Eu7  1  0.00000000  0.63008108  0.93418002  1
  Eu  Eu8  1  0.00000000  0.50000000  0.50000000  1
  Eu  Eu9  1  -0.00000000  -0.00000000  -0.00000000  1
  Sn  Sn10  1  0.50000000  0.78954850  0.10757212  1
  Sn  Sn11  1  0.50000000  0.21045150  0.89242788  1
  Sn  Sn12  1  0.50000000  0.28954850  0.39242788  1
  Sn  Sn13  1  0.50000000  0.71045150  0.60757212  1
  As  As14  1  0.50000000  0.57163126  0.10378996  1
  As  As15  1  0.50000000  0.42836874  0.89621004  1
  As  As16  1  0.50000000  0.07163126  0.39621004  1
  As  As17  1  0.50000000  0.92836874  0.60378996  1
  As  As18  1  0.50000000  0.66942795  0.41759808  1
  As  As19  1  0.50000000  0.33057205  0.58240192  1
  As  As20  1  0.50000000  0.16942795  0.08240192  1
  As  As21  1  0.50000000  0.83057205  0.91759808  1
  As  As22  1  0.00000000  0.87268056  0.19973531  1
  As  As23  1  0.00000000  0.12731944  0.80026469  1
  As  As24  1  0.00000000  0.37268056  0.30026469  1
  As  As25  1  0.00000000  0.62731944  0.69973531  1
