# generated using pymatgen
data_Mg30FeSiO32
_symmetry_space_group_name_H-M   'P 1'
_cell_length_a   8.54338604
_cell_length_b   8.55995824
_cell_length_c   8.55995824
_cell_angle_alpha   90.00000000
_cell_angle_beta   90.00000000
_cell_angle_gamma   90.00000000
_symmetry_Int_Tables_number   1
_chemical_formula_structural   Mg30FeSiO32
_chemical_formula_sum   'Mg30 Fe1 Si1 O32'
_cell_volume   625.99854342
_cell_formula_units_Z   1
loop_
 _symmetry_equiv_pos_site_id
 _symmetry_equiv_pos_as_xyz
  1  'x, y, z'
loop_
 _atom_site_type_symbol
 _atom_site_label
 _atom_site_symmetry_multiplicity
 _atom_site_fract_x
 _atom_site_fract_y
 _atom_site_fract_z
 _atom_site_occupancy
  Mg  Mg0  1  0.00000000  0.00000000  0.50000000  1
  Mg  Mg1  1  0.00000000  0.50000000  0.00000000  1
  Mg  Mg2  1  0.50000000  0.00000000  0.00000000  1
  Mg  Mg3  1  0.50000000  0.00000000  0.50000000  1
  Mg  Mg4  1  0.50000000  0.50000000  0.00000000  1
  Mg  Mg5  1  0.50000000  0.50000000  0.50000000  1
  Mg  Mg6  1  0.00000000  0.24865532  0.24865532  1
  Mg  Mg7  1  0.00000000  0.24865532  0.75134468  1
  Mg  Mg8  1  0.00000000  0.75134468  0.24865532  1
  Mg  Mg9  1  0.00000000  0.75134468  0.75134468  1
  Mg  Mg10  1  0.50000000  0.25010722  0.25010722  1
  Mg  Mg11  1  0.50000000  0.25010722  0.74989278  1
  Mg  Mg12  1  0.50000000  0.74989278  0.25010722  1
  Mg  Mg13  1  0.50000000  0.74989278  0.74989278  1
  Mg  Mg14  1  0.25010679  0.00000000  0.25122919  1
  Mg  Mg15  1  0.25010679  0.00000000  0.74877081  1
  Mg  Mg16  1  0.25091967  0.50000000  0.24888919  1
  Mg  Mg17  1  0.25091967  0.50000000  0.75111081  1
  Mg  Mg18  1  0.74989321  0.00000000  0.25122919  1
  Mg  Mg19  1  0.74989321  0.00000000  0.74877081  1
  Mg  Mg20  1  0.74908033  0.50000000  0.24888919  1
  Mg  Mg21  1  0.74908033  0.50000000  0.75111081  1
  Mg  Mg22  1  0.25010679  0.25122919  -0.00000000  1
  Mg  Mg23  1  0.25091967  0.24888919  0.50000000  1
  Mg  Mg24  1  0.25010679  0.74877081  -0.00000000  1
  Mg  Mg25  1  0.25091967  0.75111081  0.50000000  1
  Mg  Mg26  1  0.74989321  0.25122919  -0.00000000  1
  Mg  Mg27  1  0.74908033  0.24888919  0.50000000  1
  Mg  Mg28  1  0.74989321  0.74877081  0.00000000  1
  Mg  Mg29  1  0.74908033  0.75111081  0.50000000  1
  Fe  Fe30  1  0.00000000  0.00000000  0.00000000  1
  Si  Si31  1  0.00000000  0.50000000  0.50000000  1
  O  O32  1  0.25135219  0.00000000  -0.00000000  1
  O  O33  1  0.25171858  0.00000000  0.50000000  1
  O  O34  1  0.25171858  0.50000000  0.00000000  1
  O  O35  1  0.25973685  0.50000000  0.50000000  1
  O  O36  1  0.74864781  0.00000000  -0.00000000  1
  O  O37  1  0.74828142  0.00000000  0.50000000  1
  O  O38  1  0.74828142  0.50000000  -0.00000000  1
  O  O39  1  0.74026315  0.50000000  0.50000000  1
  O  O40  1  0.24954076  0.25011467  0.25011467  1
  O  O41  1  0.24954076  0.25011467  0.74988533  1
  O  O42  1  0.24954076  0.74988533  0.25011467  1
  O  O43  1  0.24954076  0.74988533  0.74988533  1
  O  O44  1  0.75045924  0.25011467  0.25011467  1
  O  O45  1  0.75045924  0.25011467  0.74988533  1
  O  O46  1  0.75045924  0.74988533  0.25011467  1
  O  O47  1  0.75045924  0.74988533  0.74988533  1
  O  O48  1  0.00000000  0.00000000  0.25471250  1
  O  O49  1  0.00000000  0.00000000  0.74528750  1
  O  O50  1  0.00000000  0.50000000  0.24110118  1
  O  O51  1  0.00000000  0.50000000  0.75889882  1
  O  O52  1  0.50000000  0.00000000  0.24967860  1
  O  O53  1  0.50000000  0.00000000  0.75032140  1
  O  O54  1  0.50000000  0.50000000  0.24898029  1
  O  O55  1  0.50000000  0.50000000  0.75101971  1
  O  O56  1  0.00000000  0.25471250  -0.00000000  1
  O  O57  1  0.00000000  0.24110118  0.50000000  1
  O  O58  1  0.00000000  0.74528750  0.00000000  1
  O  O59  1  0.00000000  0.75889882  0.50000000  1
  O  O60  1  0.50000000  0.24967860  -0.00000000  1
  O  O61  1  0.50000000  0.24898029  0.50000000  1
  O  O62  1  0.50000000  0.75032140  0.00000000  1
  O  O63  1  0.50000000  0.75101971  0.50000000  1
