# generated using pymatgen
data_MnTe4(H3N)6
_symmetry_space_group_name_H-M   'P 1'
_cell_length_a   9.07553905
_cell_length_b   10.08681333
_cell_length_c   18.65593721
_cell_angle_alpha   90.00000000
_cell_angle_beta   90.00000000
_cell_angle_gamma   97.27236511
_symmetry_Int_Tables_number   1
_chemical_formula_structural   MnTe4(H3N)6
_chemical_formula_sum   'Mn4 Te16 H72 N24'
_cell_volume   1694.08705465
_cell_formula_units_Z   4
loop_
 _symmetry_equiv_pos_site_id
 _symmetry_equiv_pos_as_xyz
  1  'x, y, z'
loop_
 _atom_site_type_symbol
 _atom_site_label
 _atom_site_symmetry_multiplicity
 _atom_site_fract_x
 _atom_site_fract_y
 _atom_site_fract_z
 _atom_site_occupancy
  Mn  Mn0  1  0.04508021  0.79377750  0.15609733  1
  Mn  Mn1  1  0.54508021  0.29377750  0.34390267  1
  Mn  Mn2  1  0.95491979  0.20622250  0.84390267  1
  Mn  Mn3  1  0.45491979  0.70622250  0.65609733  1
  Te  Te4  1  0.65054017  0.81873531  0.33246382  1
  Te  Te5  1  0.15054017  0.31873531  0.16753618  1
  Te  Te6  1  0.34945983  0.18126469  0.66753618  1
  Te  Te7  1  0.84945983  0.68126469  0.83246382  1
  Te  Te8  1  0.85275739  0.88299648  0.44558807  1
  Te  Te9  1  0.35275739  0.38299648  0.05441193  1
  Te  Te10  1  0.14724261  0.11700352  0.55441193  1
  Te  Te11  1  0.64724261  0.61700352  0.94558807  1
  Te  Te12  1  0.02119592  0.67161289  0.45900193  1
  Te  Te13  1  0.52119592  0.17161289  0.04099807  1
  Te  Te14  1  0.97880408  0.32838711  0.54099807  1
  Te  Te15  1  0.47880408  0.82838711  0.95900193  1
  Te  Te16  1  0.31296843  0.74251400  0.39388555  1
  Te  Te17  1  0.81296843  0.24251400  0.10611445  1
  Te  Te18  1  0.68703157  0.25748600  0.60611445  1
  Te  Te19  1  0.18703157  0.75748600  0.89388555  1
  H  H20  1  0.96566063  0.93888655  0.27430707  1
  H  H21  1  0.46566063  0.43888655  0.22569293  1
  H  H22  1  0.03433937  0.06111345  0.72569293  1
  H  H23  1  0.53433937  0.56111345  0.77430707  1
  H  H24  1  0.09402704  0.03918527  0.23094808  1
  H  H25  1  0.59402704  0.53918527  0.26905192  1
  H  H26  1  0.90597296  0.96081473  0.76905192  1
  H  H27  1  0.40597296  0.46081473  0.73094808  1
  H  H28  1  0.14126038  0.92088245  0.28580615  1
  H  H29  1  0.64126038  0.42088245  0.21419385  1
  H  H30  1  0.85873962  0.07911755  0.71419385  1
  H  H31  1  0.35873962  0.57911755  0.78580615  1
  H  H32  1  0.96096064  0.54243937  0.22087517  1
  H  H33  1  0.46096064  0.04243937  0.27912483  1
  H  H34  1  0.03903936  0.45756063  0.77912483  1
  H  H35  1  0.53903936  0.95756063  0.72087517  1
  H  H36  1  0.87922138  0.65498385  0.26699108  1
  H  H37  1  0.37922138  0.15498385  0.23300892  1
  H  H38  1  0.12077862  0.34501615  0.73300892  1
  H  H39  1  0.62077862  0.84501615  0.76699108  1
  H  H40  1  0.05459499  0.63813918  0.28126466  1
  H  H41  1  0.55459499  0.13813918  0.21873534  1
  H  H42  1  0.94540501  0.36186082  0.71873534  1
  H  H43  1  0.44540501  0.86186082  0.78126466  1
  H  H44  1  0.28663565  0.64596072  0.16432994  1
  H  H45  1  0.78663565  0.14596072  0.33567006  1
  H  H46  1  0.71336435  0.35403928  0.83567006  1
  H  H47  1  0.21336435  0.85403928  0.66432994  1
  H  H48  1  0.32520502  0.77096027  0.22048238  1
  H  H49  1  0.82520502  0.27096027  0.27951762  1
  H  H50  1  0.67479498  0.22903973  0.77951762  1
  H  H51  1  0.17479498  0.72903973  0.72048238  1
  H  H52  1  0.35649535  0.79303569  0.13300637  1
  H  H53  1  0.85649535  0.29303569  0.36699363  1
  H  H54  1  0.64350465  0.20696431  0.86699363  1
  H  H55  1  0.14350465  0.70696431  0.63300637  1
  H  H56  1  0.90563908  0.62239155  0.05076565  1
  H  H57  1  0.40563908  0.12239155  0.44923435  1
  H  H58  1  0.09436092  0.37760845  0.94923435  1
  H  H59  1  0.59436092  0.87760845  0.55076565  1
  H  H60  1  0.02973272  0.54256592  0.09062021  1
  H  H61  1  0.52973272  0.04256592  0.40937979  1
  H  H62  1  0.97026728  0.45743408  0.90937979  1
  H  H63  1  0.47026728  0.95743408  0.59062021  1
  H  H64  1  0.08024314  0.65658467  0.02808738  1
  H  H65  1  0.58024314  0.15658467  0.47191262  1
  H  H66  1  0.91975686  0.34341533  0.97191262  1
  H  H67  1  0.41975686  0.84341533  0.52808738  1
  H  H68  1  0.06595860  0.03685598  0.08139271  1
  H  H69  1  0.56595860  0.53685598  0.41860729  1
  H  H70  1  0.93404140  0.96314402  0.91860729  1
  H  H71  1  0.43404140  0.46314402  0.58139271  1
  H  H72  1  0.11823198  0.92096502  0.02629333  1
  H  H73  1  0.61823198  0.42096502  0.47370667  1
  H  H74  1  0.88176802  0.07903498  0.97370667  1
  H  H75  1  0.38176802  0.57903498  0.52629333  1
  H  H76  1  0.23577465  0.99841824  0.08371280  1
  H  H77  1  0.73577465  0.49841824  0.41628720  1
  H  H78  1  0.76422535  0.00158176  0.91628720  1
  H  H79  1  0.26422535  0.50158176  0.58371280  1
  H  H80  1  0.80425936  0.94209259  0.12715589  1
  H  H81  1  0.30425936  0.44209259  0.37284411  1
  H  H82  1  0.19574064  0.05790741  0.87284411  1
  H  H83  1  0.69574064  0.55790741  0.62715589  1
  H  H84  1  0.74234323  0.81529183  0.17882173  1
  H  H85  1  0.24234323  0.31529183  0.32117827  1
  H  H86  1  0.25765677  0.18470817  0.82117827  1
  H  H87  1  0.75765677  0.68470817  0.67882173  1
  H  H88  1  0.76016712  0.79254155  0.09149299  1
  H  H89  1  0.26016712  0.29254155  0.40850701  1
  H  H90  1  0.23983288  0.20745845  0.90850701  1
  H  H91  1  0.73983288  0.70745845  0.59149299  1
  N  N92  1  0.06555306  0.94254875  0.24800567  1
  N  N93  1  0.56555306  0.44254875  0.25199433  1
  N  N94  1  0.93444694  0.05745125  0.75199433  1
  N  N95  1  0.43444694  0.55745125  0.74800567  1
  N  N96  1  0.97536006  0.63710938  0.24175870  1
  N  N97  1  0.47536006  0.13710938  0.25824130  1
  N  N98  1  0.02463994  0.36289062  0.75824130  1
  N  N99  1  0.52463994  0.86289062  0.74175870  1
  N  N100  1  0.28440025  0.74686736  0.17012484  1
  N  N101  1  0.78440025  0.24686736  0.32987516  1
  N  N102  1  0.71559975  0.25313264  0.82987516  1
  N  N103  1  0.21559975  0.75313264  0.67012484  1
  N  N104  1  0.01118079  0.63472278  0.07160627  1
  N  N105  1  0.51118079  0.13472278  0.42839373  1
  N  N106  1  0.98881921  0.36527722  0.92839373  1
  N  N107  1  0.48881921  0.86527722  0.57160627  1
  N  N108  1  0.12686136  0.95794136  0.07775560  1
  N  N109  1  0.62686136  0.45794136  0.42224440  1
  N  N110  1  0.87313864  0.04205864  0.92224440  1
  N  N111  1  0.37313864  0.54205864  0.57775560  1
  N  N112  1  0.80893710  0.84153692  0.13524171  1
  N  N113  1  0.30893710  0.34153692  0.36475829  1
  N  N114  1  0.19106290  0.15846308  0.86475829  1
  N  N115  1  0.69106290  0.65846308  0.63524171  1
