# generated using pymatgen
data_Na3FeS2(O4F)2
_symmetry_space_group_name_H-M   'P 1'
_cell_length_a   6.73968792
_cell_length_b   8.94933375
_cell_length_c   14.24180388
_cell_angle_alpha   90.00000000
_cell_angle_beta   90.00000000
_cell_angle_gamma   90.00000000
_symmetry_Int_Tables_number   1
_chemical_formula_structural   Na3FeS2(O4F)2
_chemical_formula_sum   'Na12 Fe4 S8 O32 F8'
_cell_volume   859.00460623
_cell_formula_units_Z   4
loop_
 _symmetry_equiv_pos_site_id
 _symmetry_equiv_pos_as_xyz
  1  'x, y, z'
loop_
 _atom_site_type_symbol
 _atom_site_label
 _atom_site_symmetry_multiplicity
 _atom_site_fract_x
 _atom_site_fract_y
 _atom_site_fract_z
 _atom_site_occupancy
  Na  Na0  1  0.52101602  0.66599935  0.90405527  1
  Na  Na1  1  0.02101602  0.83400065  0.59594473  1
  Na  Na2  1  0.47898398  0.16599935  0.59594473  1
  Na  Na3  1  0.97898398  0.33400065  0.90405527  1
  Na  Na4  1  0.47898398  0.33400065  0.09594473  1
  Na  Na5  1  0.97898398  0.16599935  0.40405527  1
  Na  Na6  1  0.52101602  0.83400065  0.40405527  1
  Na  Na7  1  0.02101602  0.66599935  0.09594473  1
  Na  Na8  1  0.75000000  0.00000000  0.04834884  1
  Na  Na9  1  0.25000000  0.50000000  0.45165116  1
  Na  Na10  1  0.25000000  0.00000000  0.95165116  1
  Na  Na11  1  0.75000000  0.50000000  0.54834884  1
  Fe  Fe12  1  0.75000000  0.00000000  0.80484608  1
  Fe  Fe13  1  0.25000000  0.50000000  0.69515392  1
  Fe  Fe14  1  0.25000000  0.00000000  0.19515392  1
  Fe  Fe15  1  0.75000000  0.50000000  0.30484608  1
  S  S16  1  0.00379106  0.69323446  0.85637726  1
  S  S17  1  0.50379106  0.80676554  0.64362274  1
  S  S18  1  0.99620894  0.19323446  0.64362274  1
  S  S19  1  0.49620894  0.30676554  0.85637726  1
  S  S20  1  0.99620894  0.30676554  0.14362274  1
  S  S21  1  0.49620894  0.19323446  0.35637726  1
  S  S22  1  0.00379106  0.80676554  0.35637726  1
  S  S23  1  0.50379106  0.69323446  0.14362274  1
  O  O24  1  0.44783638  0.44293305  0.79728568  1
  O  O25  1  0.94783638  0.05706695  0.70271432  1
  O  O26  1  0.55216362  0.94293305  0.70271432  1
  O  O27  1  0.05216362  0.55706695  0.79728568  1
  O  O28  1  0.55216362  0.55706695  0.20271432  1
  O  O29  1  0.05216362  0.94293305  0.29728568  1
  O  O30  1  0.44783638  0.05706695  0.29728568  1
  O  O31  1  0.94783638  0.44293305  0.20271432  1
  O  O32  1  0.18642291  0.76656923  0.88819263  1
  O  O33  1  0.68642291  0.73343077  0.61180737  1
  O  O34  1  0.81357709  0.26656923  0.61180737  1
  O  O35  1  0.31357709  0.23343077  0.88819263  1
  O  O36  1  0.81357709  0.23343077  0.11180737  1
  O  O37  1  0.31357709  0.26656923  0.38819263  1
  O  O38  1  0.18642291  0.73343077  0.38819263  1
  O  O39  1  0.68642291  0.76656923  0.11180737  1
  O  O40  1  0.88081993  0.63966740  0.93523021  1
  O  O41  1  0.38081993  0.86033260  0.56476979  1
  O  O42  1  0.11918007  0.13966740  0.56476979  1
  O  O43  1  0.61918007  0.36033260  0.93523021  1
  O  O44  1  0.11918007  0.36033260  0.06476979  1
  O  O45  1  0.61918007  0.13966740  0.43523021  1
  O  O46  1  0.88081993  0.86033260  0.43523021  1
  O  O47  1  0.38081993  0.63966740  0.06476979  1
  O  O48  1  0.38457775  0.70515360  0.70634090  1
  O  O49  1  0.88457775  0.79484640  0.79365910  1
  O  O50  1  0.61542225  0.20515360  0.79365910  1
  O  O51  1  0.11542225  0.29484640  0.70634090  1
  O  O52  1  0.61542225  0.29484640  0.29365910  1
  O  O53  1  0.11542225  0.20515360  0.20634090  1
  O  O54  1  0.38457775  0.79484640  0.20634090  1
  O  O55  1  0.88457775  0.70515360  0.29365910  1
  F  F56  1  0.57672961  0.92791452  0.90446269  1
  F  F57  1  0.07672961  0.57208548  0.59553731  1
  F  F58  1  0.42327039  0.42791452  0.59553731  1
  F  F59  1  0.92327039  0.07208548  0.90446269  1
  F  F60  1  0.42327039  0.07208548  0.09553731  1
  F  F61  1  0.92327039  0.42791452  0.40446269  1
  F  F62  1  0.57672961  0.57208548  0.40446269  1
  F  F63  1  0.07672961  0.92791452  0.09553731  1
