# generated using pymatgen
data_K2Ta4O11
_symmetry_space_group_name_H-M   'P 1'
_cell_length_a   6.34506526
_cell_length_b   6.34502512
_cell_length_c   12.98494752
_cell_angle_alpha   75.85802232
_cell_angle_beta   75.85793973
_cell_angle_gamma   59.99988581
_symmetry_Int_Tables_number   1
_chemical_formula_structural   K2Ta4O11
_chemical_formula_sum   'K4 Ta8 O22'
_cell_volume   434.33974741
_cell_formula_units_Z   2
loop_
 _symmetry_equiv_pos_site_id
 _symmetry_equiv_pos_as_xyz
  1  'x, y, z'
loop_
 _atom_site_type_symbol
 _atom_site_label
 _atom_site_symmetry_multiplicity
 _atom_site_fract_x
 _atom_site_fract_y
 _atom_site_fract_z
 _atom_site_occupancy
  K  K0  1  0.67406184  0.67411586  0.97771028  1
  K  K1  1  0.17406258  0.17411163  0.47771003  1
  K  K2  1  0.32593642  0.32588148  0.02229718  1
  K  K3  1  0.82593434  0.82588371  0.52229839  1
  Ta  Ta4  1  0.99999541  0.99999721  0.00001050  1
  Ta  Ta5  1  0.49999574  0.49999679  0.50001094  1
  Ta  Ta6  1  0.88447557  0.25001789  0.25001033  1
  Ta  Ta7  1  0.24998832  0.61552847  0.25001415  1
  Ta  Ta8  1  0.61549650  0.88450331  0.25001446  1
  Ta  Ta9  1  0.38449278  0.11548646  0.75001068  1
  Ta  Ta10  1  0.11551265  0.74997648  0.75001657  1
  Ta  Ta11  1  0.75000532  0.38446177  0.75001149  1
  O  O12  1  0.93134084  0.23846907  0.09509750  1
  O  O13  1  0.23847456  0.73509648  0.09509648  1
  O  O14  1  0.73509639  0.93133723  0.09509779  1
  O  O15  1  0.43134511  0.23509024  0.59509740  1
  O  O16  1  0.23509683  0.73846923  0.59509808  1
  O  O17  1  0.73847252  0.43133317  0.59509676  1
  O  O18  1  0.06866497  0.76152283  0.90492628  1
  O  O19  1  0.76151694  0.26488251  0.90492701  1
  O  O20  1  0.26488192  0.06866951  0.90492619  1
  O  O21  1  0.56866225  0.76488759  0.40492707  1
  O  O22  1  0.76488279  0.26152111  0.40492550  1
  O  O23  1  0.26151915  0.56867296  0.40492698  1
  O  O24  1  0.59361469  0.59361699  0.21916659  1
  O  O25  1  0.09361609  0.09360149  0.71916644  1
  O  O26  1  0.40637966  0.40637894  0.78084692  1
  O  O27  1  0.90637947  0.90639333  0.28084657  1
  O  O28  1  0.00432894  0.49566928  0.25001633  1
  O  O29  1  0.49566245  0.25000644  0.25002219  1
  O  O30  1  0.24998892  0.00431255  0.25001734  1
  O  O31  1  0.50432524  0.74998018  0.75001470  1
  O  O32  1  0.74999773  0.99567431  0.75002045  1
  O  O33  1  0.99565906  0.50431750  0.75002048  1
