# generated using pymatgen
data_Sr2P7Cl
_symmetry_space_group_name_H-M   'P 1'
_cell_length_a   9.63754132
_cell_length_b   9.63754132
_cell_length_c   22.58402840
_cell_angle_alpha   79.47176837
_cell_angle_beta   79.47176837
_cell_angle_gamma   79.80630228
_symmetry_Int_Tables_number   1
_chemical_formula_structural   Sr2P7Cl
_chemical_formula_sum   'Sr16 P56 Cl8'
_cell_volume   2005.12428034
_cell_formula_units_Z   8
loop_
 _symmetry_equiv_pos_site_id
 _symmetry_equiv_pos_as_xyz
  1  'x, y, z'
loop_
 _atom_site_type_symbol
 _atom_site_label
 _atom_site_symmetry_multiplicity
 _atom_site_fract_x
 _atom_site_fract_y
 _atom_site_fract_z
 _atom_site_occupancy
  Sr  Sr0  1  0.14187377  0.85812623  0.25000000  1
  Sr  Sr1  1  0.85812623  0.14187377  0.75000000  1
  Sr  Sr2  1  0.71938977  0.28061023  0.25000000  1
  Sr  Sr3  1  0.28061023  0.71938977  0.75000000  1
  Sr  Sr4  1  0.26393969  0.27962857  0.38788473  1
  Sr  Sr5  1  0.72037143  0.73606031  0.11211527  1
  Sr  Sr6  1  0.73606031  0.72037143  0.61211527  1
  Sr  Sr7  1  0.27962857  0.26393969  0.88788473  1
  Sr  Sr8  1  0.66611376  0.64481687  0.39380636  1
  Sr  Sr9  1  0.35518313  0.33388624  0.10619364  1
  Sr  Sr10  1  0.33388624  0.35518313  0.60619364  1
  Sr  Sr11  1  0.64481687  0.66611376  0.89380636  1
  Sr  Sr12  1  0.88714395  0.28763026  0.05340411  1
  Sr  Sr13  1  0.71236974  0.11285605  0.44659589  1
  Sr  Sr14  1  0.11285605  0.71236974  0.94659589  1
  Sr  Sr15  1  0.28763026  0.88714395  0.55340411  1
  P  P16  1  0.13812735  0.19563130  0.25220126  1
  P  P17  1  0.80436870  0.86187265  0.24779874  1
  P  P18  1  0.86187265  0.80436870  0.74779874  1
  P  P19  1  0.19563130  0.13812735  0.75220126  1
  P  P20  1  0.97893280  0.24683147  0.33130960  1
  P  P21  1  0.75316853  0.02106720  0.16869040  1
  P  P22  1  0.02106720  0.75316853  0.66869040  1
  P  P23  1  0.24683147  0.97893280  0.83130960  1
  P  P24  1  0.02760862  0.28490658  0.17341396  1
  P  P25  1  0.71509342  0.97239138  0.32658604  1
  P  P26  1  0.97239138  0.71509342  0.82658604  1
  P  P27  1  0.28490658  0.02760862  0.67341396  1
  P  P28  1  0.28095636  0.35557411  0.24469610  1
  P  P29  1  0.64442589  0.71904364  0.25530390  1
  P  P30  1  0.71904364  0.64442589  0.75530390  1
  P  P31  1  0.35557411  0.28095636  0.74469610  1
  P  P32  1  0.92383282  0.47131478  0.30056787  1
  P  P33  1  0.52868522  0.07616718  0.19943213  1
  P  P34  1  0.07616718  0.52868522  0.69943213  1
  P  P35  1  0.47131478  0.92383282  0.80056787  1
  P  P36  1  0.95421817  0.49794140  0.19316058  1
  P  P37  1  0.50205860  0.04578183  0.30683942  1
  P  P38  1  0.04578183  0.50205860  0.80683942  1
  P  P39  1  0.49794140  0.95421817  0.69316058  1
  P  P40  1  0.12016888  0.54238933  0.24142953  1
  P  P41  1  0.45761067  0.87983112  0.25857047  1
  P  P42  1  0.87983112  0.45761067  0.75857047  1
  P  P43  1  0.54238933  0.12016888  0.74142953  1
  P  P44  1  0.31966535  0.71330013  0.41770554  1
  P  P45  1  0.28669987  0.68033465  0.08229446  1
  P  P46  1  0.68033465  0.28669987  0.58229446  1
  P  P47  1  0.71330013  0.31966535  0.91770554  1
  P  P48  1  0.76594040  0.38189086  0.48991126  1
  P  P49  1  0.61810914  0.23405960  0.01008874  1
  P  P50  1  0.23405960  0.61810914  0.51008874  1
  P  P51  1  0.38189086  0.76594040  0.98991126  1
  P  P52  1  0.93562698  0.21557945  0.91281361  1
  P  P53  1  0.78442055  0.06437302  0.58718639  1
  P  P54  1  0.06437302  0.78442055  0.08718639  1
  P  P55  1  0.21557945  0.93562698  0.41281361  1
  P  P56  1  0.20059344  0.62428583  0.36293043  1
  P  P57  1  0.37571417  0.79940656  0.13706957  1
  P  P58  1  0.79940656  0.37571417  0.63706957  1
  P  P59  1  0.62428583  0.20059344  0.86293043  1
  P  P60  1  0.98986892  0.31629055  0.49290126  1
  P  P61  1  0.68370945  0.01013108  0.00709874  1
  P  P62  1  0.01013108  0.68370945  0.50709874  1
  P  P63  1  0.31629055  0.98986892  0.99290126  1
  P  P64  1  0.98801185  0.68913769  0.40856891  1
  P  P65  1  0.31086231  0.01198815  0.09143109  1
  P  P66  1  0.01198815  0.31086231  0.59143109  1
  P  P67  1  0.68913769  0.98801185  0.90856891  1
  P  P68  1  -0.00011305  0.89339605  0.44251166  1
  P  P69  1  0.10660395  0.00011305  0.05748834  1
  P  P70  1  0.00011305  0.10660395  0.55748834  1
  P  P71  1  0.89339605  -0.00011305  0.94251166  1
  Cl  Cl72  1  0.17455553  0.39621184  0.00299853  1
  Cl  Cl73  1  0.60378816  0.82544447  0.49700147  1
  Cl  Cl74  1  0.82544447  0.60378816  0.99700147  1
  Cl  Cl75  1  0.39621184  0.17455553  0.50299853  1
  Cl  Cl76  1  0.63180607  0.44044597  0.13460112  1
  Cl  Cl77  1  0.55955403  0.36819393  0.36539888  1
  Cl  Cl78  1  0.36819393  0.55955403  0.86539888  1
  Cl  Cl79  1  0.44044597  0.63180607  0.63460112  1
