# generated using pymatgen
data_PrTl(PSe3)2
_symmetry_space_group_name_H-M   'P 1'
_cell_length_a   7.83290383
_cell_length_b   12.04215543
_cell_length_c   12.53643347
_cell_angle_alpha   109.44140852
_cell_angle_beta   90.00000000
_cell_angle_gamma   90.00000000
_symmetry_Int_Tables_number   1
_chemical_formula_structural   PrTl(PSe3)2
_chemical_formula_sum   'Pr4 Tl4 P8 Se24'
_cell_volume   1115.07630955
_cell_formula_units_Z   4
loop_
 _symmetry_equiv_pos_site_id
 _symmetry_equiv_pos_as_xyz
  1  'x, y, z'
loop_
 _atom_site_type_symbol
 _atom_site_label
 _atom_site_symmetry_multiplicity
 _atom_site_fract_x
 _atom_site_fract_y
 _atom_site_fract_z
 _atom_site_occupancy
  Pr  Pr0  1  0.10298464  0.59488731  0.35007258  1
  Pr  Pr1  1  0.60298464  0.90511269  0.64992742  1
  Pr  Pr2  1  0.89701536  0.40511269  0.64992742  1
  Pr  Pr3  1  0.39701536  0.09488731  0.35007258  1
  Tl  Tl4  1  0.91224377  0.87484375  0.12670926  1
  Tl  Tl5  1  0.41224377  0.62515625  0.87329074  1
  Tl  Tl6  1  0.08775623  0.12515625  0.87329074  1
  Tl  Tl7  1  0.58775623  0.37484375  0.12670926  1
  P  P8  1  0.09650340  0.74509009  0.67798007  1
  P  P9  1  0.59650340  0.75490991  0.32201993  1
  P  P10  1  0.90349660  0.25490991  0.32201993  1
  P  P11  1  0.40349660  0.24509009  0.67798007  1
  P  P12  1  0.38111012  0.76890834  0.20829995  1
  P  P13  1  0.88111012  0.73109166  0.79170005  1
  P  P14  1  0.61888988  0.23109166  0.79170005  1
  P  P15  1  0.11888988  0.26890834  0.20829995  1
  Se  Se16  1  0.28463067  0.58711499  0.12828528  1
  Se  Se17  1  0.78463067  0.91288501  0.87171472  1
  Se  Se18  1  0.71536933  0.41288501  0.87171472  1
  Se  Se19  1  0.21536933  0.08711499  0.12828528  1
  Se  Se20  1  0.18559817  0.86895468  0.32845097  1
  Se  Se21  1  0.68559817  0.63104532  0.67154903  1
  Se  Se22  1  0.81440183  0.13104532  0.67154903  1
  Se  Se23  1  0.31440183  0.36895468  0.32845097  1
  Se  Se24  1  0.47350331  0.68581303  0.44781520  1
  Se  Se25  1  0.97350331  0.81418697  0.55218480  1
  Se  Se26  1  0.52649669  0.31418697  0.55218480  1
  Se  Se27  1  0.02649669  0.18581303  0.44781520  1
  Se  Se28  1  0.79011479  0.63936017  0.21148004  1
  Se  Se29  1  0.29011479  0.86063983  0.78851996  1
  Se  Se30  1  0.20988521  0.36063983  0.78851996  1
  Se  Se31  1  0.70988521  0.13936017  0.21148004  1
  Se  Se32  1  0.19268383  0.56338087  0.59128403  1
  Se  Se33  1  0.69268383  0.93661913  0.40871597  1
  Se  Se34  1  0.80731617  0.43661913  0.40871597  1
  Se  Se35  1  0.30731617  0.06338087  0.59128403  1
  Se  Se36  1  0.48197696  0.87157088  0.10757075  1
  Se  Se37  1  0.98197696  0.62842912  0.89242925  1
  Se  Se38  1  0.51802304  0.12842912  0.89242925  1
  Se  Se39  1  0.01802304  0.37157088  0.10757075  1
