# generated using pymatgen
data_KSb(SO4)2
_symmetry_space_group_name_H-M   'P 1'
_cell_length_a   7.42402593
_cell_length_b   9.03115683
_cell_length_c   10.92923982
_cell_angle_alpha   91.80160416
_cell_angle_beta   90.00000000
_cell_angle_gamma   90.00000000
_symmetry_Int_Tables_number   1
_chemical_formula_structural   KSb(SO4)2
_chemical_formula_sum   'K4 Sb4 S8 O32'
_cell_volume   732.41644501
_cell_formula_units_Z   4
loop_
 _symmetry_equiv_pos_site_id
 _symmetry_equiv_pos_as_xyz
  1  'x, y, z'
loop_
 _atom_site_type_symbol
 _atom_site_label
 _atom_site_symmetry_multiplicity
 _atom_site_fract_x
 _atom_site_fract_y
 _atom_site_fract_z
 _atom_site_occupancy
  K  K0  1  0.33263651  0.68329299  0.88741989  1
  K  K1  1  0.83263651  0.81670701  0.11258011  1
  K  K2  1  0.66736349  0.31670701  0.11258011  1
  K  K3  1  0.16736349  0.18329299  0.88741989  1
  Sb  Sb4  1  0.28525784  0.20393415  0.36835217  1
  Sb  Sb5  1  0.78525784  0.29606585  0.63164783  1
  Sb  Sb6  1  0.71474216  0.79606585  0.63164783  1
  Sb  Sb7  1  0.21474216  0.70393415  0.36835217  1
  S  S8  1  0.29945903  0.92234019  0.61737460  1
  S  S9  1  0.79945903  0.57765981  0.38262540  1
  S  S10  1  0.70054097  0.07765981  0.38262540  1
  S  S11  1  0.20054097  0.42234019  0.61737460  1
  S  S12  1  0.30567479  0.93139363  0.14742138  1
  S  S13  1  0.80567479  0.56860637  0.85257862  1
  S  S14  1  0.69432521  0.06860637  0.85257862  1
  S  S15  1  0.19432521  0.43139363  0.14742138  1
  O  O16  1  0.19436466  0.91639195  0.72892619  1
  O  O17  1  0.69436466  0.58360805  0.27107381  1
  O  O18  1  0.80563534  0.08360805  0.27107381  1
  O  O19  1  0.30563534  0.41639195  0.72892619  1
  O  O20  1  0.39144467  0.06232327  0.59796432  1
  O  O21  1  0.89144467  0.43767673  0.40203568  1
  O  O22  1  0.60855533  0.93767673  0.40203568  1
  O  O23  1  0.10855533  0.56232327  0.59796432  1
  O  O24  1  0.18273008  0.88252195  0.50666945  1
  O  O25  1  0.68273008  0.61747805  0.49333055  1
  O  O26  1  0.81726992  0.11747805  0.49333055  1
  O  O27  1  0.31726992  0.38252195  0.50666945  1
  O  O28  1  0.43882598  0.79067435  0.61859684  1
  O  O29  1  0.93882598  0.70932565  0.38140316  1
  O  O30  1  0.56117402  0.20932565  0.38140316  1
  O  O31  1  0.06117402  0.29067435  0.61859684  1
  O  O32  1  0.45874592  0.83200443  0.13457455  1
  O  O33  1  0.95874592  0.66799557  0.86542545  1
  O  O34  1  0.54125408  0.16799557  0.86542545  1
  O  O35  1  0.04125408  0.33200443  0.13457455  1
  O  O36  1  0.18765598  0.93260755  0.04066835  1
  O  O37  1  0.68765598  0.56739245  0.95933165  1
  O  O38  1  0.81234402  0.06739245  0.95933165  1
  O  O39  1  0.31234402  0.43260755  0.04066835  1
  O  O40  1  0.36219789  0.08720770  0.18466274  1
  O  O41  1  0.86219789  0.41279230  0.81533726  1
  O  O42  1  0.63780211  0.91279230  0.81533726  1
  O  O43  1  0.13780211  0.58720770  0.18466274  1
  O  O44  1  0.18489793  0.88479270  0.25874587  1
  O  O45  1  0.68489793  0.61520730  0.74125413  1
  O  O46  1  0.81510207  0.11520730  0.74125413  1
  O  O47  1  0.31510207  0.38479270  0.25874587  1
