# generated using pymatgen
data_Sr3CaIr2O9
_symmetry_space_group_name_H-M   'P 1'
_cell_length_a   5.79231117
_cell_length_b   9.99462398
_cell_length_c   14.12190734
_cell_angle_alpha   89.96325213
_cell_angle_beta   90.00000000
_cell_angle_gamma   90.00000000
_symmetry_Int_Tables_number   1
_chemical_formula_structural   Sr3CaIr2O9
_chemical_formula_sum   'Sr12 Ca4 Ir8 O36'
_cell_volume   817.54489788
_cell_formula_units_Z   4
loop_
 _symmetry_equiv_pos_site_id
 _symmetry_equiv_pos_as_xyz
  1  'x, y, z'
loop_
 _atom_site_type_symbol
 _atom_site_label
 _atom_site_symmetry_multiplicity
 _atom_site_fract_x
 _atom_site_fract_y
 _atom_site_fract_z
 _atom_site_occupancy
  Sr  Sr0  1  0.96006079  0.00447430  0.25303008  1
  Sr  Sr1  1  0.46006079  0.49552570  0.74696992  1
  Sr  Sr2  1  0.03993921  0.99552570  0.74696992  1
  Sr  Sr3  1  0.53993921  0.50447430  0.25303008  1
  Sr  Sr4  1  0.46753515  0.16608467  0.41769260  1
  Sr  Sr5  1  0.96753515  0.33391533  0.58230740  1
  Sr  Sr6  1  0.53246485  0.83391533  0.58230740  1
  Sr  Sr7  1  0.03246485  0.66608467  0.41769260  1
  Sr  Sr8  1  0.96673753  0.67022642  0.92019114  1
  Sr  Sr9  1  0.46673753  0.82977358  0.07980886  1
  Sr  Sr10  1  0.03326247  0.32977358  0.07980886  1
  Sr  Sr11  1  0.53326247  0.17022642  0.92019114  1
  Ca  Ca12  1  -0.00000000  -0.00000000  -0.00000000  1
  Ca  Ca13  1  0.50000000  0.50000000  -0.00000000  1
  Ca  Ca14  1  0.50000000  0.50000000  0.50000000  1
  Ca  Ca15  1  -0.00000000  -0.00000000  0.50000000  1
  Ir  Ir16  1  0.50057406  0.16822388  0.17199631  1
  Ir  Ir17  1  0.00057406  0.33177612  0.82800369  1
  Ir  Ir18  1  0.49942594  0.83177612  0.82800369  1
  Ir  Ir19  1  0.99942594  0.66822388  0.17199631  1
  Ir  Ir20  1  0.00474158  0.33410058  0.32748448  1
  Ir  Ir21  1  0.50474158  0.16589942  0.67251552  1
  Ir  Ir22  1  0.99525842  0.66589942  0.67251552  1
  Ir  Ir23  1  0.49525842  0.83410058  0.32748448  1
  O  O24  1  0.48493811  0.70005945  0.42799502  1
  O  O25  1  0.98493811  0.79994055  0.57200498  1
  O  O26  1  0.51506189  0.29994055  0.57200498  1
  O  O27  1  0.01506189  0.20005945  0.42799502  1
  O  O28  1  0.51411160  0.65446485  0.88324134  1
  O  O29  1  0.01411160  0.84553515  0.11675866  1
  O  O30  1  0.48588840  0.34553515  0.11675866  1
  O  O31  1  0.98588840  0.15446485  0.88324134  1
  O  O32  1  0.76889699  0.12610699  0.09390843  1
  O  O33  1  0.26889699  0.37389301  0.90609157  1
  O  O34  1  0.23110301  0.87389301  0.90609157  1
  O  O35  1  0.73110301  0.62610699  0.09390843  1
  O  O36  1  0.19851818  0.60337958  0.07017294  1
  O  O37  1  0.69851818  0.89662042  0.92982706  1
  O  O38  1  0.80148182  0.39662042  0.92982706  1
  O  O39  1  0.30148182  0.10337958  0.07017294  1
  O  O40  1  0.69371230  0.94618665  0.40661552  1
  O  O41  1  0.19371230  0.55381335  0.59338448  1
  O  O42  1  0.30628770  0.05381335  0.59338448  1
  O  O43  1  0.80628770  0.44618665  0.40661552  1
  O  O44  1  0.71299715  0.28907531  0.75030245  1
  O  O45  1  0.21299715  0.21092469  0.24969755  1
  O  O46  1  0.28700285  0.71092469  0.24969755  1
  O  O47  1  0.78700285  0.78907531  0.75030245  1
  O  O48  1  0.28509568  0.76351233  0.72332402  1
  O  O49  1  0.78509568  0.73648767  0.27667598  1
  O  O50  1  0.71490432  0.23648767  0.27667598  1
  O  O51  1  0.21490432  0.26351233  0.72332402  1
  O  O52  1  0.27375833  0.41973894  0.38222483  1
  O  O53  1  0.77375833  0.08026106  0.61777517  1
  O  O54  1  0.72624167  0.58026106  0.61777517  1
  O  O55  1  0.22624167  0.91973894  0.38222483  1
  O  O56  1  0.98659586  0.47598056  0.22417828  1
  O  O57  1  0.48659586  0.02401944  0.77582172  1
  O  O58  1  0.01340414  0.52401944  0.77582172  1
  O  O59  1  0.51340414  0.97598056  0.22417828  1
