# generated using pymatgen
data_Tm2(Ga3Co)3
_symmetry_space_group_name_H-M   'P 1'
_cell_length_a   7.35802926
_cell_length_b   7.37027999
_cell_length_c   9.37440638
_cell_angle_alpha   90.00000000
_cell_angle_beta   90.00000000
_cell_angle_gamma   120.05508649
_symmetry_Int_Tables_number   1
_chemical_formula_structural   Tm2(Ga3Co)3
_chemical_formula_sum   'Tm4 Ga18 Co6'
_cell_volume   440.02623028
_cell_formula_units_Z   2
loop_
 _symmetry_equiv_pos_site_id
 _symmetry_equiv_pos_as_xyz
  1  'x, y, z'
loop_
 _atom_site_type_symbol
 _atom_site_label
 _atom_site_symmetry_multiplicity
 _atom_site_fract_x
 _atom_site_fract_y
 _atom_site_fract_z
 _atom_site_occupancy
  Tm  Tm0  1  0.67185540  0.00325299  0.25000000  1
  Tm  Tm1  1  0.67185540  0.66860241  0.75000000  1
  Tm  Tm2  1  0.32814460  0.99674701  0.75000000  1
  Tm  Tm3  1  0.32814460  0.33139759  0.25000000  1
  Ga  Ga4  1  0.66564034  0.99956367  0.92711460  1
  Ga  Ga5  1  0.66564034  0.66607667  0.07288540  1
  Ga  Ga6  1  0.66564034  0.99956367  0.57288540  1
  Ga  Ga7  1  0.66564034  0.66607667  0.42711460  1
  Ga  Ga8  1  0.33435966  0.00043633  0.07288540  1
  Ga  Ga9  1  0.33435966  0.33392333  0.92711460  1
  Ga  Ga10  1  0.33435966  0.00043633  0.42711460  1
  Ga  Ga11  1  0.33435966  0.33392333  0.57288540  1
  Ga  Ga12  1  0.00000000  0.66547907  0.94164411  1
  Ga  Ga13  1  1.00000000  0.33452093  0.05835589  1
  Ga  Ga14  1  0.00000000  0.66547907  0.55835589  1
  Ga  Ga15  1  1.00000000  0.33452093  0.44164411  1
  Ga  Ga16  1  1.00000000  0.12073205  0.75000000  1
  Ga  Ga17  1  0.00000000  0.87926795  0.25000000  1
  Ga  Ga18  1  0.21491085  0.66455446  0.25000000  1
  Ga  Ga19  1  0.21491085  0.55035639  0.75000000  1
  Ga  Ga20  1  0.78508915  0.33544554  0.75000000  1
  Ga  Ga21  1  0.78508915  0.44964361  0.25000000  1
  Co  Co22  1  0.00000000  -0.00000000  -0.00000000  1
  Co  Co23  1  0.00000000  -0.00000000  0.50000000  1
  Co  Co24  1  0.34363243  0.67181621  0.00000000  1
  Co  Co25  1  0.34363243  0.67181621  0.50000000  1
  Co  Co26  1  0.65636757  0.32818379  0.00000000  1
  Co  Co27  1  0.65636757  0.32818379  0.50000000  1
