# generated using pymatgen
data_Eu(Ga4Co)2
_symmetry_space_group_name_H-M   'P 1'
_cell_length_a   4.05055186
_cell_length_b   12.54747781
_cell_length_c   14.32146152
_cell_angle_alpha   90.00000000
_cell_angle_beta   90.00000000
_cell_angle_gamma   90.00000000
_symmetry_Int_Tables_number   1
_chemical_formula_structural   Eu(Ga4Co)2
_chemical_formula_sum   'Eu4 Ga32 Co8'
_cell_volume   727.87696181
_cell_formula_units_Z   4
loop_
 _symmetry_equiv_pos_site_id
 _symmetry_equiv_pos_as_xyz
  1  'x, y, z'
loop_
 _atom_site_type_symbol
 _atom_site_label
 _atom_site_symmetry_multiplicity
 _atom_site_fract_x
 _atom_site_fract_y
 _atom_site_fract_z
 _atom_site_occupancy
  Eu  Eu0  1  0.50000000  0.15741276  0.31937525  1
  Eu  Eu1  1  0.50000000  0.84258724  0.68062475  1
  Eu  Eu2  1  0.50000000  0.65741276  0.18062475  1
  Eu  Eu3  1  0.50000000  0.34258724  0.81937525  1
  Ga  Ga4  1  -0.00000000  0.50000000  0.50000000  1
  Ga  Ga5  1  0.00000000  0.00000000  0.00000000  1
  Ga  Ga6  1  0.50000000  0.50000000  0.00000000  1
  Ga  Ga7  1  0.50000000  0.00000000  0.50000000  1
  Ga  Ga8  1  0.50000000  0.66197101  0.45474398  1
  Ga  Ga9  1  0.50000000  0.33802899  0.54525602  1
  Ga  Ga10  1  0.50000000  0.16197101  0.04525602  1
  Ga  Ga11  1  0.50000000  0.83802899  0.95474398  1
  Ga  Ga12  1  0.50000000  0.40223964  0.25500453  1
  Ga  Ga13  1  0.50000000  0.59776036  0.74499547  1
  Ga  Ga14  1  0.50000000  0.90223964  0.24499547  1
  Ga  Ga15  1  0.50000000  0.09776036  0.75500453  1
  Ga  Ga16  1  -0.00000000  0.55002400  0.31879479  1
  Ga  Ga17  1  -0.00000000  0.44997600  0.68120521  1
  Ga  Ga18  1  0.00000000  0.05002400  0.18120521  1
  Ga  Ga19  1  -0.00000000  0.94997600  0.81879479  1
  Ga  Ga20  1  -0.00000000  0.33669679  0.37968373  1
  Ga  Ga21  1  -0.00000000  0.66330321  0.62031627  1
  Ga  Ga22  1  0.00000000  0.83669679  0.12031627  1
  Ga  Ga23  1  0.00000000  0.16330321  0.87968373  1
  Ga  Ga24  1  0.00000000  0.17012804  0.49040573  1
  Ga  Ga25  1  0.00000000  0.82987196  0.50959427  1
  Ga  Ga26  1  -0.00000000  0.67012804  0.00959427  1
  Ga  Ga27  1  0.00000000  0.32987196  0.99040573  1
  Ga  Ga28  1  -0.00000000  0.76116004  0.32567386  1
  Ga  Ga29  1  -0.00000000  0.23883996  0.67432614  1
  Ga  Ga30  1  0.00000000  0.26116004  0.17432614  1
  Ga  Ga31  1  0.00000000  0.73883996  0.82567386  1
  Ga  Ga32  1  0.00000000  0.97672774  0.36653175  1
  Ga  Ga33  1  0.00000000  0.02327226  0.63346825  1
  Ga  Ga34  1  0.00000000  0.47672774  0.13346825  1
  Ga  Ga35  1  -0.00000000  0.52327226  0.86653175  1
  Co  Co36  1  0.50000000  0.84804909  0.40277748  1
  Co  Co37  1  0.50000000  0.15195091  0.59722252  1
  Co  Co38  1  0.50000000  0.34804909  0.09722252  1
  Co  Co39  1  0.50000000  0.65195091  0.90277748  1
  Co  Co40  1  0.50000000  0.46639836  0.40699954  1
  Co  Co41  1  0.50000000  0.53360164  0.59300046  1
  Co  Co42  1  0.50000000  0.96639836  0.09300046  1
  Co  Co43  1  0.50000000  0.03360164  0.90699954  1
