# generated using pymatgen
data_CsScAs2(HO4)2
_symmetry_space_group_name_H-M   'P 1'
_cell_length_a   7.73568735
_cell_length_b   9.52641480
_cell_length_c   10.28364416
_cell_angle_alpha   65.21700857
_cell_angle_beta   70.64265276
_cell_angle_gamma   69.92646679
_symmetry_Int_Tables_number   1
_chemical_formula_structural   CsScAs2(HO4)2
_chemical_formula_sum   'Cs3 Sc3 As6 H6 O24'
_cell_volume   630.41500707
_cell_formula_units_Z   3
loop_
 _symmetry_equiv_pos_site_id
 _symmetry_equiv_pos_as_xyz
  1  'x, y, z'
loop_
 _atom_site_type_symbol
 _atom_site_label
 _atom_site_symmetry_multiplicity
 _atom_site_fract_x
 _atom_site_fract_y
 _atom_site_fract_z
 _atom_site_occupancy
  Cs  Cs0  1  0.50000000  0.00000000  -0.00000000  1
  Cs  Cs1  1  0.63087601  0.16863769  0.52465476  1
  Cs  Cs2  1  0.36912399  0.83136231  0.47534524  1
  Sc  Sc3  1  0.00000000  0.50000000  0.50000000  1
  Sc  Sc4  1  0.79669766  0.27866196  0.05718816  1
  Sc  Sc5  1  0.20330234  0.72133804  0.94281184  1
  As  As6  1  0.55448986  0.44619633  0.78036340  1
  As  As7  1  0.44551014  0.55380367  0.21963660  1
  As  As8  1  0.07866475  0.12421744  0.77007457  1
  As  As9  1  0.92133525  0.87578256  0.22992543  1
  As  As10  1  0.91232547  0.64854400  0.78341027  1
  As  As11  1  0.08767453  0.35145600  0.21658973  1
  H  H12  1  0.28996232  0.43877116  0.71756313  1
  H  H13  1  0.71003768  0.56122884  0.28243687  1
  H  H14  1  0.92378899  0.95875514  0.77250062  1
  H  H15  1  0.07621101  0.04124486  0.22749938  1
  H  H16  1  0.61130172  0.73760880  0.74413718  1
  H  H17  1  0.38869828  0.26239120  0.25586282  1
  O  O18  1  0.60515752  0.30632437  0.94072780  1
  O  O19  1  0.39484248  0.69367563  0.05927220  1
  O  O20  1  0.41306249  0.36450552  0.73857016  1
  O  O21  1  0.58693751  0.63549448  0.26142984  1
  O  O22  1  0.43765042  0.63409747  0.78388117  1
  O  O23  1  0.56234958  0.36590253  0.21611883  1
  O  O24  1  0.74416349  0.46365456  0.63727683  1
  O  O25  1  0.25583651  0.53634544  0.36272317  1
  O  O26  1  0.02067023  0.18338409  0.91734119  1
  O  O27  1  0.97932977  0.81661591  0.08265881  1
  O  O28  1  0.14918389  0.26633338  0.60952394  1
  O  O29  1  0.85081611  0.73366662  0.39047606  1
  O  O30  1  0.25096782  0.94987437  0.79523070  1
  O  O31  1  0.74903218  0.05012563  0.20476930  1
  O  O32  1  0.88462864  0.07803179  0.75050606  1
  O  O33  1  0.11537136  0.92196821  0.24949394  1
  O  O34  1  0.06672598  0.57552322  0.64983972  1
  O  O35  1  0.93327402  0.42447678  0.35016028  1
  O  O36  1  0.01495180  0.76517348  0.80963519  1
  O  O37  1  0.98504820  0.23482652  0.19036481  1
  O  O38  1  0.82705353  0.50955743  0.93903202  1
  O  O39  1  0.17294647  0.49044257  0.06096798  1
  O  O40  1  0.71314192  0.79365284  0.71931284  1
  O  O41  1  0.28685808  0.20634716  0.28068716  1
