# generated using pymatgen
data_Na2CoP2O7
_symmetry_space_group_name_H-M   'P 1'
_cell_length_a   7.80324337
_cell_length_b   10.43800981
_cell_length_c   15.63692897
_cell_angle_alpha   90.00000000
_cell_angle_beta   90.00000000
_cell_angle_gamma   90.00000000
_symmetry_Int_Tables_number   1
_chemical_formula_structural   Na2CoP2O7
_chemical_formula_sum   'Na16 Co8 P16 O56'
_cell_volume   1273.63303802
_cell_formula_units_Z   8
loop_
 _symmetry_equiv_pos_site_id
 _symmetry_equiv_pos_as_xyz
  1  'x, y, z'
loop_
 _atom_site_type_symbol
 _atom_site_label
 _atom_site_symmetry_multiplicity
 _atom_site_fract_x
 _atom_site_fract_y
 _atom_site_fract_z
 _atom_site_occupancy
  Na  Na0  1  0.66666741  0.23707374  0.80389796  1
  Na  Na1  1  0.16666741  0.76292626  0.19610204  1
  Na  Na2  1  0.16666741  0.73707374  0.69610204  1
  Na  Na3  1  0.66666741  0.26292626  0.30389796  1
  Na  Na4  1  0.38405905  0.25022828  0.44841313  1
  Na  Na5  1  0.88405905  0.74977172  0.55158687  1
  Na  Na6  1  0.88405905  0.75022828  0.05158687  1
  Na  Na7  1  0.38405905  0.24977172  0.94841313  1
  Na  Na8  1  0.21776406  0.23404919  0.72633519  1
  Na  Na9  1  0.71776406  0.76595081  0.27366481  1
  Na  Na10  1  0.71776406  0.73404919  0.77366481  1
  Na  Na11  1  0.21776406  0.26595081  0.22633519  1
  Na  Na12  1  0.82766695  0.25340419  0.52502231  1
  Na  Na13  1  0.32766695  0.74659581  0.47497769  1
  Na  Na14  1  0.32766695  0.75340419  0.97497769  1
  Na  Na15  1  0.82766695  0.24659581  0.02502231  1
  Co  Co16  1  0.51095446  0.99548844  0.62916161  1
  Co  Co17  1  0.01095446  0.00451156  0.37083839  1
  Co  Co18  1  0.01095446  0.49548844  0.87083839  1
  Co  Co19  1  0.51095446  0.50451156  0.12916161  1
  Co  Co20  1  0.53679429  0.49714789  0.61943309  1
  Co  Co21  1  0.03679429  0.50285211  0.38056691  1
  Co  Co22  1  0.03679429  0.99714789  0.88056691  1
  Co  Co23  1  0.53679429  0.00285211  0.11943309  1
  P  P24  1  0.88714222  0.45022770  0.69060661  1
  P  P25  1  0.38714222  0.54977230  0.30939339  1
  P  P26  1  0.38714222  0.95022770  0.80939339  1
  P  P27  1  0.88714222  0.04977230  0.19060661  1
  P  P28  1  0.17254940  0.45452115  0.56160605  1
  P  P29  1  0.67254940  0.54547885  0.43839395  1
  P  P30  1  0.67254940  0.95452115  0.93839395  1
  P  P31  1  0.17254940  0.04547885  0.06160605  1
  P  P32  1  0.14753426  0.03373817  0.55275745  1
  P  P33  1  0.64753426  0.96626183  0.44724255  1
  P  P34  1  0.64753426  0.53373817  0.94724255  1
  P  P35  1  0.14753426  0.46626183  0.05275745  1
  P  P36  1  0.88621274  0.02345681  0.69565484  1
  P  P37  1  0.38621274  0.97654319  0.30434516  1
  P  P38  1  0.38621274  0.52345681  0.80434516  1
  P  P39  1  0.88621274  0.47654319  0.19565484  1
  O  O40  1  0.06078290  0.39843160  0.64251723  1
  O  O41  1  0.56078290  0.60156840  0.35748277  1
  O  O42  1  0.56078290  0.89843160  0.85748277  1
  O  O43  1  0.06078290  0.10156840  0.14251723  1
  O  O44  1  0.73757547  0.38488891  0.64271024  1
  O  O45  1  0.23757547  0.61511109  0.35728976  1
  O  O46  1  0.23757547  0.88488891  0.85728976  1
  O  O47  1  0.73757547  0.11511109  0.14271024  1
  O  O48  1  0.90644964  0.38866832  0.77975495  1
  O  O49  1  0.40644964  0.61133168  0.22024505  1
  O  O50  1  0.40644964  0.88866832  0.72024505  1
  O  O51  1  0.90644964  0.11133168  0.27975495  1
  O  O52  1  0.88191166  0.59529145  0.68799501  1
  O  O53  1  0.38191166  0.40470855  0.31200499  1
  O  O54  1  0.38191166  0.09529145  0.81200499  1
  O  O55  1  0.88191166  0.90470855  0.18799501  1
  O  O56  1  0.17478743  0.59961420  0.56498323  1
  O  O57  1  0.67478743  0.40038580  0.43501677  1
  O  O58  1  0.67478743  0.09961420  0.93501677  1
  O  O59  1  0.17478743  0.90038580  0.06498323  1
  O  O60  1  0.34713759  0.38911313  0.57701341  1
  O  O61  1  0.84713759  0.61088687  0.42298659  1
  O  O62  1  0.84713759  0.88911313  0.92298659  1
  O  O63  1  0.34713759  0.11088687  0.07701341  1
  O  O64  1  0.08777723  0.39487345  0.48179964  1
  O  O65  1  0.58777723  0.60512655  0.51820036  1
  O  O66  1  0.58777723  0.89487345  0.01820036  1
  O  O67  1  0.08777723  0.10512655  0.98179964  1
  O  O68  1  0.98510075  0.08188604  0.61131619  1
  O  O69  1  0.48510075  0.91811396  0.38868381  1
  O  O70  1  0.48510075  0.58188604  0.88868381  1
  O  O71  1  0.98510075  0.41811396  0.11131619  1
  O  O72  1  0.11024323  0.10214002  0.46717950  1
  O  O73  1  0.61024323  0.89785998  0.53282050  1
  O  O74  1  0.61024323  0.60214002  0.03282050  1
  O  O75  1  0.11024323  0.39785998  0.96717950  1
  O  O76  1  0.14818857  0.88865033  0.54796864  1
  O  O77  1  0.64818857  0.11134967  0.45203136  1
  O  O78  1  0.64818857  0.38865033  0.95203136  1
  O  O79  1  0.14818857  0.61134967  0.04796864  1
  O  O80  1  0.30637085  0.09560068  0.59463708  1
  O  O81  1  0.80637085  0.90439932  0.40536292  1
  O  O82  1  0.80637085  0.59560068  0.90536292  1
  O  O83  1  0.30637085  0.40439932  0.09463708  1
  O  O84  1  0.70617099  0.08233269  0.68603078  1
  O  O85  1  0.20617099  0.91766731  0.31396922  1
  O  O86  1  0.20617099  0.58233269  0.81396922  1
  O  O87  1  0.70617099  0.41766731  0.18603078  1
  O  O88  1  0.97799661  0.08688019  0.77228627  1
  O  O89  1  0.47799661  0.91311981  0.22771373  1
  O  O90  1  0.47799661  0.58688019  0.72771373  1
  O  O91  1  0.97799661  0.41311981  0.27228627  1
  O  O92  1  0.89426226  0.87829169  0.69400129  1
  O  O93  1  0.39426226  0.12170831  0.30599871  1
  O  O94  1  0.39426226  0.37829169  0.80599871  1
  O  O95  1  0.89426226  0.62170831  0.19400129  1
