# generated using pymatgen
data_Rb2Bi(IO3)5
_symmetry_space_group_name_H-M   'P 1'
_cell_length_a   8.41553267
_cell_length_b   8.49423989
_cell_length_c   12.67283476
_cell_angle_alpha   109.58079290
_cell_angle_beta   90.00000000
_cell_angle_gamma   90.00000000
_symmetry_Int_Tables_number   1
_chemical_formula_structural   Rb2Bi(IO3)5
_chemical_formula_sum   'Rb4 Bi2 I10 O30'
_cell_volume   853.51097080
_cell_formula_units_Z   2
loop_
 _symmetry_equiv_pos_site_id
 _symmetry_equiv_pos_as_xyz
  1  'x, y, z'
loop_
 _atom_site_type_symbol
 _atom_site_label
 _atom_site_symmetry_multiplicity
 _atom_site_fract_x
 _atom_site_fract_y
 _atom_site_fract_z
 _atom_site_occupancy
  Rb  Rb0  1  0.00000000  0.64804328  0.00000000  1
  Rb  Rb1  1  0.00000000  0.14804328  0.00000000  1
  Rb  Rb2  1  0.52549002  0.38332083  0.50000000  1
  Rb  Rb3  1  0.47450998  0.88332083  0.50000000  1
  Bi  Bi4  1  0.50000000  0.74697653  0.00000000  1
  Bi  Bi5  1  0.50000000  0.24697653  0.00000000  1
  I  I6  1  0.75711833  0.74330060  0.73357397  1
  I  I7  1  0.24288167  0.00972663  0.26642603  1
  I  I8  1  0.24288167  0.24330060  0.73357397  1
  I  I9  1  0.75711833  0.50972663  0.26642603  1
  I  I10  1  0.72870511  0.99360048  0.21126261  1
  I  I11  1  0.27129489  0.78233786  0.78873739  1
  I  I12  1  0.27129489  0.49360048  0.21126261  1
  I  I13  1  0.72870511  0.28233786  0.78873739  1
  I  I14  1  0.06072746  0.44038243  0.50000000  1
  I  I15  1  0.93927254  0.94038243  0.50000000  1
  O  O16  1  0.93174885  0.98706898  0.16191507  1
  O  O17  1  0.06825115  0.82515390  0.83808493  1
  O  O18  1  0.06825115  0.48706898  0.16191507  1
  O  O19  1  0.93174885  0.32515390  0.83808493  1
  O  O20  1  0.55785716  0.73523482  0.67494470  1
  O  O21  1  0.44214284  0.06029012  0.32505530  1
  O  O22  1  0.44214284  0.23523482  0.67494470  1
  O  O23  1  0.55785716  0.56029012  0.32505530  1
  O  O24  1  0.62031732  0.01153432  0.08451899  1
  O  O25  1  0.37968268  0.92701532  0.91548101  1
  O  O26  1  0.37968268  0.51153432  0.08451899  1
  O  O27  1  0.62031732  0.42701532  0.91548101  1
  O  O28  1  0.68603763  0.76708229  0.16138664  1
  O  O29  1  0.31396237  0.60569565  0.83861336  1
  O  O30  1  0.31396237  0.26708229  0.16138664  1
  O  O31  1  0.68603763  0.10569565  0.83861336  1
  O  O32  1  0.71431811  0.74764633  0.87742081  1
  O  O33  1  0.28568189  0.87022552  0.12257919  1
  O  O34  1  0.28568189  0.24764633  0.87742081  1
  O  O35  1  0.71431811  0.37022552  0.12257919  1
  O  O36  1  0.80968650  0.52213274  0.67211144  1
  O  O37  1  0.19031350  0.85002130  0.32788856  1
  O  O38  1  0.19031350  0.02213274  0.67211144  1
  O  O39  1  0.80968650  0.35002130  0.32788856  1
  O  O40  1  0.10181405  0.22753960  0.50000000  1
  O  O41  1  0.89818595  0.72753960  0.50000000  1
  O  O42  1  0.19587171  0.55430954  0.61384861  1
  O  O43  1  0.80412829  0.94046093  0.38615139  1
  O  O44  1  0.80412829  0.05430954  0.61384861  1
  O  O45  1  0.19587171  0.44046093  0.38615139  1
