# generated using pymatgen
data_Tl2CoH12(SeO7)2
_symmetry_space_group_name_H-M   'P 1'
_cell_length_a   6.53427066
_cell_length_b   9.45703762
_cell_length_c   12.77637969
_cell_angle_alpha   90.00000000
_cell_angle_beta   90.00000000
_cell_angle_gamma   104.90799058
_symmetry_Int_Tables_number   1
_chemical_formula_structural   Tl2CoH12(SeO7)2
_chemical_formula_sum   'Tl4 Co2 H24 Se4 O28'
_cell_volume   762.93949471
_cell_formula_units_Z   2
loop_
 _symmetry_equiv_pos_site_id
 _symmetry_equiv_pos_as_xyz
  1  'x, y, z'
loop_
 _atom_site_type_symbol
 _atom_site_label
 _atom_site_symmetry_multiplicity
 _atom_site_fract_x
 _atom_site_fract_y
 _atom_site_fract_z
 _atom_site_occupancy
  Tl  Tl0  1  0.34984238  0.62575258  0.14722961  1
  Tl  Tl1  1  0.65015762  0.87424742  0.64722961  1
  Tl  Tl2  1  0.65015762  0.37424742  0.85277039  1
  Tl  Tl3  1  0.34984238  0.12575258  0.35277039  1
  Co  Co4  1  -0.00000000  0.50000000  0.50000000  1
  Co  Co5  1  -0.00000000  -0.00000000  -0.00000000  1
  H  H6  1  0.31376309  0.70508506  0.41147091  1
  H  H7  1  0.68623691  0.79491494  0.91147091  1
  H  H8  1  0.68623691  0.29491494  0.58852909  1
  H  H9  1  0.31376309  0.20508506  0.08852909  1
  H  H10  1  0.09809346  0.74027591  0.37340596  1
  H  H11  1  0.90190654  0.75972409  0.87340596  1
  H  H12  1  0.90190654  0.25972409  0.62659404  1
  H  H13  1  0.09809346  0.24027591  0.12659404  1
  H  H14  1  0.93154721  0.23740886  0.40366728  1
  H  H15  1  0.06845279  0.26259114  0.90366728  1
  H  H16  1  0.06845279  0.76259114  0.59633272  1
  H  H17  1  0.93154721  0.73740886  0.09633272  1
  H  H18  1  0.00151435  0.36236572  0.31761391  1
  H  H19  1  0.99848565  0.13763428  0.81761391  1
  H  H20  1  0.99848565  0.63763428  0.68238609  1
  H  H21  1  0.00151435  0.86236572  0.18238609  1
  H  H22  1  0.32559547  0.39750523  0.55611484  1
  H  H23  1  0.67440453  0.10249477  0.05611484  1
  H  H24  1  0.67440453  0.60249477  0.44388516  1
  H  H25  1  0.32559547  0.89750523  0.94388516  1
  H  H26  1  0.32359977  0.52515274  0.63680080  1
  H  H27  1  0.67640023  0.97484726  0.13680080  1
  H  H28  1  0.67640023  0.47484726  0.36319920  1
  H  H29  1  0.32359977  0.02515274  0.86319920  1
  Se  Se30  1  0.73828274  0.90755610  0.36067921  1
  Se  Se31  1  0.26171726  0.59244390  0.86067921  1
  Se  Se32  1  0.26171726  0.09244390  0.63932079  1
  Se  Se33  1  0.73828274  0.40755610  0.13932079  1
  O  O34  1  0.58228560  0.91494138  0.25737796  1
  O  O35  1  0.41771440  0.58505862  0.75737796  1
  O  O36  1  0.41771440  0.08505862  0.74262204  1
  O  O37  1  0.58228560  0.41494138  0.24262204  1
  O  O38  1  0.77972841  0.06280638  0.42964756  1
  O  O39  1  0.22027159  0.43719362  0.92964756  1
  O  O40  1  0.22027159  0.93719362  0.57035244  1
  O  O41  1  0.77972841  0.56280638  0.07035244  1
  O  O42  1  0.60829219  0.77043265  0.43933694  1
  O  O43  1  0.39170781  0.72956735  0.93933694  1
  O  O44  1  0.39170781  0.22956735  0.56066306  1
  O  O45  1  0.60829219  0.27043265  0.06066306  1
  O  O46  1  0.96860185  0.87759235  0.31922195  1
  O  O47  1  0.03139815  0.62240765  0.81922195  1
  O  O48  1  0.03139815  0.12240765  0.68077805  1
  O  O49  1  0.96860185  0.37759235  0.18077805  1
  O  O50  1  0.16619412  0.66039572  0.38939033  1
  O  O51  1  0.83380588  0.83960428  0.88939033  1
  O  O52  1  0.83380588  0.33960428  0.61060967  1
  O  O53  1  0.16619412  0.16039572  0.11060967  1
  O  O54  1  0.02634276  0.33684523  0.39127043  1
  O  O55  1  0.97365724  0.16315477  0.89127043  1
  O  O56  1  0.97365724  0.66315477  0.60872957  1
  O  O57  1  0.02634276  0.83684523  0.10872957  1
  O  O58  1  0.28793314  0.49241608  0.56339489  1
  O  O59  1  0.71206686  0.00758392  0.06339489  1
  O  O60  1  0.71206686  0.50758392  0.43660511  1
  O  O61  1  0.28793314  0.99241608  0.93660511  1
