# generated using pymatgen
data_Mg30CrBiO32
_symmetry_space_group_name_H-M   'P 1'
_cell_length_a   8.63876350
_cell_length_b   8.63876350
_cell_length_c   8.65038499
_cell_angle_alpha   90.00000000
_cell_angle_beta   90.00000000
_cell_angle_gamma   90.00000000
_symmetry_Int_Tables_number   1
_chemical_formula_structural   Mg30CrBiO32
_chemical_formula_sum   'Mg30 Cr1 Bi1 O32'
_cell_volume   645.56296222
_cell_formula_units_Z   1
loop_
 _symmetry_equiv_pos_site_id
 _symmetry_equiv_pos_as_xyz
  1  'x, y, z'
loop_
 _atom_site_type_symbol
 _atom_site_label
 _atom_site_symmetry_multiplicity
 _atom_site_fract_x
 _atom_site_fract_y
 _atom_site_fract_z
 _atom_site_occupancy
  Mg  Mg0  1  -0.00000000  0.50000000  -0.00000000  1
  Mg  Mg1  1  -0.00000000  0.50000000  0.50000000  1
  Mg  Mg2  1  0.50000000  0.00000000  -0.00000000  1
  Mg  Mg3  1  0.50000000  0.00000000  0.50000000  1
  Mg  Mg4  1  0.50000000  0.50000000  -0.00000000  1
  Mg  Mg5  1  0.50000000  0.50000000  0.50000000  1
  Mg  Mg6  1  -0.00000000  0.25704913  0.24304997  1
  Mg  Mg7  1  -0.00000000  0.25704913  0.75695003  1
  Mg  Mg8  1  -0.00000000  0.74295087  0.24304997  1
  Mg  Mg9  1  -0.00000000  0.74295087  0.75695003  1
  Mg  Mg10  1  0.50000000  0.25041153  0.24909655  1
  Mg  Mg11  1  0.50000000  0.25041153  0.75090345  1
  Mg  Mg12  1  0.50000000  0.74958847  0.24909655  1
  Mg  Mg13  1  0.50000000  0.74958847  0.75090345  1
  Mg  Mg14  1  0.25704913  0.00000000  0.24304997  1
  Mg  Mg15  1  0.25704913  0.00000000  0.75695003  1
  Mg  Mg16  1  0.25041153  0.50000000  0.24909655  1
  Mg  Mg17  1  0.25041153  0.50000000  0.75090345  1
  Mg  Mg18  1  0.74295087  0.00000000  0.24304997  1
  Mg  Mg19  1  0.74295087  0.00000000  0.75695003  1
  Mg  Mg20  1  0.74958847  0.50000000  0.24909655  1
  Mg  Mg21  1  0.74958847  0.50000000  0.75090345  1
  Mg  Mg22  1  0.25074418  0.25074418  -0.00000000  1
  Mg  Mg23  1  0.25651976  0.25651976  0.50000000  1
  Mg  Mg24  1  0.25074418  0.74925582  -0.00000000  1
  Mg  Mg25  1  0.25651976  0.74348024  0.50000000  1
  Mg  Mg26  1  0.74925582  0.25074418  -0.00000000  1
  Mg  Mg27  1  0.74348024  0.25651976  0.50000000  1
  Mg  Mg28  1  0.74925582  0.74925582  -0.00000000  1
  Mg  Mg29  1  0.74348024  0.74348024  0.50000000  1
  Cr  Cr30  1  -0.00000000  0.00000000  -0.00000000  1
  Bi  Bi31  1  -0.00000000  0.00000000  0.50000000  1
  O  O32  1  0.26346427  0.00000000  -0.00000000  1
  O  O33  1  0.26923677  0.00000000  0.50000000  1
  O  O34  1  0.25190266  0.50000000  -0.00000000  1
  O  O35  1  0.25279375  0.50000000  0.50000000  1
  O  O36  1  0.73653573  0.00000000  -0.00000000  1
  O  O37  1  0.73076323  0.00000000  0.50000000  1
  O  O38  1  0.74809734  0.50000000  -0.00000000  1
  O  O39  1  0.74720625  0.50000000  0.50000000  1
  O  O40  1  0.24888639  0.24888639  0.25105767  1
  O  O41  1  0.24888639  0.24888639  0.74894233  1
  O  O42  1  0.24888639  0.75111361  0.25105767  1
  O  O43  1  0.24888639  0.75111361  0.74894233  1
  O  O44  1  0.75111361  0.24888639  0.25105767  1
  O  O45  1  0.75111361  0.24888639  0.74894233  1
  O  O46  1  0.75111361  0.75111361  0.25105767  1
  O  O47  1  0.75111361  0.75111361  0.74894233  1
  O  O48  1  -0.00000000  0.00000000  0.23203083  1
  O  O49  1  -0.00000000  0.00000000  0.76796917  1
  O  O50  1  -0.00000000  0.50000000  0.24939708  1
  O  O51  1  -0.00000000  0.50000000  0.75060292  1
  O  O52  1  0.50000000  0.00000000  0.24939708  1
  O  O53  1  0.50000000  0.00000000  0.75060292  1
  O  O54  1  0.50000000  0.50000000  0.25039835  1
  O  O55  1  0.50000000  0.50000000  0.74960165  1
  O  O56  1  -0.00000000  0.26346427  -0.00000000  1
  O  O57  1  -0.00000000  0.26923677  0.50000000  1
  O  O58  1  -0.00000000  0.73653573  -0.00000000  1
  O  O59  1  -0.00000000  0.73076323  0.50000000  1
  O  O60  1  0.50000000  0.25190266  -0.00000000  1
  O  O61  1  0.50000000  0.25279375  0.50000000  1
  O  O62  1  0.50000000  0.74809734  -0.00000000  1
  O  O63  1  0.50000000  0.74720625  0.50000000  1
