# generated using pymatgen
data_Rb4V2S4O19
_symmetry_space_group_name_H-M   'P 1'
_cell_length_a   8.08382880
_cell_length_b   11.10228973
_cell_length_c   12.38393894
_cell_angle_alpha   77.78180259
_cell_angle_beta   76.99140799
_cell_angle_gamma   71.97770999
_symmetry_Int_Tables_number   1
_chemical_formula_structural   Rb4V2S4O19
_chemical_formula_sum   'Rb8 V4 S8 O38'
_cell_volume   1017.62537992
_cell_formula_units_Z   2
loop_
 _symmetry_equiv_pos_site_id
 _symmetry_equiv_pos_as_xyz
  1  'x, y, z'
loop_
 _atom_site_type_symbol
 _atom_site_label
 _atom_site_symmetry_multiplicity
 _atom_site_fract_x
 _atom_site_fract_y
 _atom_site_fract_z
 _atom_site_occupancy
  Rb  Rb0  1  0.20993244  0.65829962  0.05465359  1
  Rb  Rb1  1  0.79006756  0.34170038  0.94534641  1
  Rb  Rb2  1  0.59590417  0.96848512  0.16005975  1
  Rb  Rb3  1  0.40409583  0.03151488  0.83994025  1
  Rb  Rb4  1  0.94309011  0.83025473  0.45556889  1
  Rb  Rb5  1  0.05690989  0.16974527  0.54443111  1
  Rb  Rb6  1  0.30364511  0.45531859  0.65301870  1
  Rb  Rb7  1  0.69635489  0.54468141  0.34698130  1
  V  V8  1  0.55781617  0.71276797  0.69699637  1
  V  V9  1  0.44218383  0.28723203  0.30300363  1
  V  V10  1  0.88817339  0.77555184  0.80903628  1
  V  V11  1  0.11182661  0.22444816  0.19096372  1
  S  S12  1  0.90984781  0.00041303  0.84606171  1
  S  S13  1  0.09015219  0.99958697  0.15393829  1
  S  S14  1  0.79767456  0.48024502  0.63663236  1
  S  S15  1  0.20232544  0.51975498  0.36336764  1
  S  S16  1  0.41685544  0.82105647  0.51026215  1
  S  S17  1  0.58314456  0.17894353  0.48973785  1
  S  S18  1  0.28002320  0.31709526  0.97880605  1
  S  S19  1  0.71997680  0.68290474  0.02119395  1
  O  O20  1  0.36301406  0.18674956  0.03529644  1
  O  O21  1  0.63698594  0.81325044  0.96470356  1
  O  O22  1  0.63604859  0.53136080  0.73306863  1
  O  O23  1  0.36395141  0.46863920  0.26693137  1
  O  O24  1  0.52443203  0.86536429  0.57667663  1
  O  O25  1  0.47556797  0.13463571  0.42332337  1
  O  O26  1  0.22003213  0.31319186  0.87692354  1
  O  O27  1  0.77996787  0.68680814  0.12307646  1
  O  O28  1  0.98435190  0.86265896  0.90276567  1
  O  O29  1  0.01564810  0.13734104  0.09723433  1
  O  O30  1  0.82008580  0.60175943  0.56581742  1
  O  O31  1  0.17991420  0.39824057  0.43418258  1
  O  O32  1  0.73835208  0.40259619  0.57952726  1
  O  O33  1  0.26164792  0.59740381  0.42047274  1
  O  O34  1  0.43339163  0.68662355  0.58024804  1
  O  O35  1  0.56660837  0.31337645  0.41975196  1
  O  O36  1  0.10678305  0.36224292  0.06956293  1
  O  O37  1  0.89321695  0.63775708  0.93043707  1
  O  O38  1  0.06931663  0.71237409  0.72952945  1
  O  O39  1  0.93068337  0.28762591  0.27047055  1
  O  O40  1  0.82155741  0.96628987  0.76134162  1
  O  O41  1  0.17844259  0.03371013  0.23865838  1
  O  O42  1  0.77670411  0.07665470  0.92382017  1
  O  O43  1  0.22329589  0.92334530  0.07617983  1
  O  O44  1  0.94518121  0.40735035  0.69451428  1
  O  O45  1  0.05481879  0.59264965  0.30548572  1
  O  O46  1  0.23473149  0.89903751  0.52177873  1
  O  O47  1  0.76526851  0.10096249  0.47822127  1
  O  O48  1  0.38158653  0.40879228  0.96529604  1
  O  O49  1  0.61841347  0.59120772  0.03470396  1
  O  O50  1  0.72337055  0.76583109  0.73601176  1
  O  O51  1  0.27662945  0.23416891  0.26398824  1
  O  O52  1  0.04942808  0.05919730  0.78669975  1
  O  O53  1  0.95057192  0.94080270  0.21330025  1
  O  O54  1  0.50757589  0.81292166  0.39531578  1
  O  O55  1  0.49242411  0.18707834  0.60468422  1
  O  O56  1  0.39280322  0.74495582  0.79805481  1
  O  O57  1  0.60719678  0.25504418  0.20194519  1
