# generated using pymatgen
data_Ba3In2(PO4)4
_symmetry_space_group_name_H-M   'P 1'
_cell_length_a   9.07536066
_cell_length_b   9.30199384
_cell_length_c   9.80208263
_cell_angle_alpha   90.00000000
_cell_angle_beta   90.00000000
_cell_angle_gamma   115.19382179
_symmetry_Int_Tables_number   1
_chemical_formula_structural   Ba3In2(PO4)4
_chemical_formula_sum   'Ba6 In4 P8 O32'
_cell_volume   748.76564558
_cell_formula_units_Z   2
loop_
 _symmetry_equiv_pos_site_id
 _symmetry_equiv_pos_as_xyz
  1  'x, y, z'
loop_
 _atom_site_type_symbol
 _atom_site_label
 _atom_site_symmetry_multiplicity
 _atom_site_fract_x
 _atom_site_fract_y
 _atom_site_fract_z
 _atom_site_occupancy
  Ba  Ba0  1  -0.00000000  0.50000000  0.50000000  1
  Ba  Ba1  1  -0.00000000  -0.00000000  0.00000000  1
  Ba  Ba2  1  0.27242913  0.44602762  0.17647056  1
  Ba  Ba3  1  0.72757087  0.05397238  0.67647056  1
  Ba  Ba4  1  0.72757087  0.55397238  0.82352944  1
  Ba  Ba5  1  0.27242913  0.94602762  0.32352944  1
  In  In6  1  0.25803375  0.25847573  0.62691793  1
  In  In7  1  0.74196625  0.24152427  0.12691793  1
  In  In8  1  0.74196625  0.74152427  0.37308207  1
  In  In9  1  0.25803375  0.75847573  0.87308207  1
  P  P10  1  0.02955427  0.35476842  0.86145686  1
  P  P11  1  0.97044573  0.14523158  0.36145686  1
  P  P12  1  0.97044573  0.64523158  0.13854314  1
  P  P13  1  0.02955427  0.85476842  0.63854314  1
  P  P14  1  0.58423435  0.31527907  0.41376754  1
  P  P15  1  0.41576565  0.18472093  0.91376754  1
  P  P16  1  0.41576565  0.68472093  0.58623246  1
  P  P17  1  0.58423435  0.81527907  0.08623246  1
  O  O18  1  0.18002235  0.50444567  0.91017083  1
  O  O19  1  0.81997765  0.99555433  0.41017083  1
  O  O20  1  0.81997765  0.49555433  0.08982917  1
  O  O21  1  0.18002235  0.00444567  0.58982917  1
  O  O22  1  0.94190270  0.26156249  0.99281486  1
  O  O23  1  0.05809730  0.23843751  0.49281486  1
  O  O24  1  0.05809730  0.73843751  0.00718514  1
  O  O25  1  0.94190270  0.76156249  0.50718514  1
  O  O26  1  0.91252273  0.39044485  0.76879882  1
  O  O27  1  0.08747727  0.10955515  0.26879882  1
  O  O28  1  0.08747727  0.60955515  0.23120118  1
  O  O29  1  0.91252273  0.89044485  0.73120118  1
  O  O30  1  0.07848336  0.23231220  0.78734650  1
  O  O31  1  0.92151664  0.26768780  0.28734650  1
  O  O32  1  0.92151664  0.76768780  0.21265350  1
  O  O33  1  0.07848336  0.73231220  0.71265350  1
  O  O34  1  0.56593105  0.20856151  0.28354295  1
  O  O35  1  0.43406895  0.29143849  0.78354295  1
  O  O36  1  0.43406895  0.79143849  0.71645705  1
  O  O37  1  0.56593105  0.70856151  0.21645705  1
  O  O38  1  0.40475515  0.28461332  0.44514588  1
  O  O39  1  0.59524485  0.21538668  0.94514588  1
  O  O40  1  0.59524485  0.71538668  0.55485412  1
  O  O41  1  0.40475515  0.78461332  0.05485412  1
  O  O42  1  0.69246370  0.49134359  0.37894615  1
  O  O43  1  0.30753630  0.00865641  0.87894615  1
  O  O44  1  0.30753630  0.50865641  0.62105385  1
  O  O45  1  0.69246370  0.99134359  0.12105385  1
  O  O46  1  0.66478048  0.26557528  0.53187914  1
  O  O47  1  0.33521952  0.23442472  0.03187914  1
  O  O48  1  0.33521952  0.73442472  0.46812086  1
  O  O49  1  0.66478048  0.76557528  0.96812086  1
