# generated using pymatgen
data_Nb4FeTe4
_symmetry_space_group_name_H-M   'P 1'
_cell_length_a   4.88879871
_cell_length_b   10.65475765
_cell_length_c   18.46997425
_cell_angle_alpha   90.00000000
_cell_angle_beta   90.00000000
_cell_angle_gamma   90.00000000
_symmetry_Int_Tables_number   1
_chemical_formula_structural   Nb4FeTe4
_chemical_formula_sum   'Nb16 Fe4 Te16'
_cell_volume   962.08185066
_cell_formula_units_Z   4
loop_
 _symmetry_equiv_pos_site_id
 _symmetry_equiv_pos_as_xyz
  1  'x, y, z'
loop_
 _atom_site_type_symbol
 _atom_site_label
 _atom_site_symmetry_multiplicity
 _atom_site_fract_x
 _atom_site_fract_y
 _atom_site_fract_z
 _atom_site_occupancy
  Nb  Nb0  1  0.50000000  0.56573521  0.38076187  1
  Nb  Nb1  1  0.50000000  0.43426479  0.61923813  1
  Nb  Nb2  1  0.50000000  0.06573521  0.11923813  1
  Nb  Nb3  1  0.50000000  0.93426479  0.88076187  1
  Nb  Nb4  1  0.50000000  0.70846772  0.53736749  1
  Nb  Nb5  1  0.50000000  0.29153228  0.46263251  1
  Nb  Nb6  1  0.50000000  0.20846772  0.96263251  1
  Nb  Nb7  1  0.50000000  0.79153228  0.03736749  1
  Nb  Nb8  1  -0.00000000  0.69387371  0.44152242  1
  Nb  Nb9  1  -0.00000000  0.30612629  0.55847758  1
  Nb  Nb10  1  -0.00000000  0.19387371  0.05847758  1
  Nb  Nb11  1  -0.00000000  0.80612629  0.94152242  1
  Nb  Nb12  1  -0.00000000  0.39925325  0.38917970  1
  Nb  Nb13  1  -0.00000000  0.60074675  0.61082030  1
  Nb  Nb14  1  -0.00000000  0.89925325  0.11082030  1
  Nb  Nb15  1  -0.00000000  0.10074675  0.88917970  1
  Fe  Fe16  1  0.24927065  0.50000000  0.50000000  1
  Fe  Fe17  1  0.75072935  -0.00000000  0.00000000  1
  Fe  Fe18  1  0.75072935  0.50000000  0.50000000  1
  Fe  Fe19  1  0.24927065  -0.00000000  0.00000000  1
  Te  Te20  1  -0.00000000  0.85600546  0.56477260  1
  Te  Te21  1  -0.00000000  0.14399454  0.43522740  1
  Te  Te22  1  -0.00000000  0.35600546  0.93522740  1
  Te  Te23  1  -0.00000000  0.64399454  0.06477260  1
  Te  Te24  1  0.50000000  0.32859940  0.31022660  1
  Te  Te25  1  0.50000000  0.67140060  0.68977340  1
  Te  Te26  1  0.50000000  0.82859940  0.18977340  1
  Te  Te27  1  0.50000000  0.17140060  0.81022660  1
  Te  Te28  1  0.50000000  0.83203464  0.40043132  1
  Te  Te29  1  0.50000000  0.16796536  0.59956868  1
  Te  Te30  1  0.50000000  0.33203464  0.09956868  1
  Te  Te31  1  0.50000000  0.66796536  0.90043132  1
  Te  Te32  1  -0.00000000  0.61020535  0.29492469  1
  Te  Te33  1  -0.00000000  0.38979465  0.70507531  1
  Te  Te34  1  -0.00000000  0.11020535  0.20507531  1
  Te  Te35  1  -0.00000000  0.88979465  0.79492469  1
