# generated using pymatgen
data_Rb7EuFe6(P4O17)2
_symmetry_space_group_name_H-M   'P 1'
_cell_length_a   9.43150160
_cell_length_b   10.04325894
_cell_length_c   10.14322818
_cell_angle_alpha   91.95611248
_cell_angle_beta   94.08771549
_cell_angle_gamma   116.31760102
_symmetry_Int_Tables_number   1
_chemical_formula_structural   Rb7EuFe6(P4O17)2
_chemical_formula_sum   'Rb7 Eu1 Fe6 P8 O34'
_cell_volume   856.69483110
_cell_formula_units_Z   1
loop_
 _symmetry_equiv_pos_site_id
 _symmetry_equiv_pos_as_xyz
  1  'x, y, z'
loop_
 _atom_site_type_symbol
 _atom_site_label
 _atom_site_symmetry_multiplicity
 _atom_site_fract_x
 _atom_site_fract_y
 _atom_site_fract_z
 _atom_site_occupancy
  Rb  Rb0  1  0.07267463  0.20906909  0.34232681  1
  Rb  Rb1  1  0.92732537  0.79093091  0.65767319  1
  Rb  Rb2  1  0.62550926  0.97537296  0.37460983  1
  Rb  Rb3  1  0.37449074  0.02462704  0.62539017  1
  Rb  Rb4  1  0.67659967  0.43915984  0.90434942  1
  Rb  Rb5  1  0.32340033  0.56084016  0.09565058  1
  Rb  Rb6  1  0.50000000  0.00000000  -0.00000000  1
  Eu  Eu7  1  0.50000000  0.50000000  0.50000000  1
  Fe  Fe8  1  0.15610643  0.10791582  0.96605099  1
  Fe  Fe9  1  0.84389357  0.89208418  0.03394901  1
  Fe  Fe10  1  0.83467920  0.09451906  0.75421083  1
  Fe  Fe11  1  0.16532080  0.90548094  0.24578917  1
  Fe  Fe12  1  0.84354915  0.42335284  0.27723831  1
  Fe  Fe13  1  0.15645085  0.57664716  0.72276169  1
  P  P14  1  0.78769983  0.33254934  0.57274968  1
  P  P15  1  0.21230017  0.66745066  0.42725032  1
  P  P16  1  0.19373890  0.26481379  0.69147818  1
  P  P17  1  0.80626110  0.73518621  0.30852182  1
  P  P18  1  0.91075624  0.23161055  0.03834911  1
  P  P19  1  0.08924376  0.76838945  0.96165089  1
  P  P20  1  0.55854086  0.75621053  0.78331964  1
  P  P21  1  0.44145914  0.24378947  0.21668036  1
  O  O22  1  0.37396812  0.21945894  0.06815825  1
  O  O23  1  0.62603188  0.78054106  0.93184175  1
  O  O24  1  0.83646244  0.31066975  0.43227422  1
  O  O25  1  0.16353756  0.68933025  0.56772578  1
  O  O26  1  0.01564904  0.15716298  0.64382348  1
  O  O27  1  0.98435096  0.84283702  0.35617652  1
  O  O28  1  0.17974133  0.91496763  0.89269865  1
  O  O29  1  0.82025867  0.08503237  0.10730135  1
  O  O30  1  0.25833662  0.19689775  0.80117354  1
  O  O31  1  0.74166338  0.80310225  0.19882646  1
  O  O32  1  0.93265266  0.00588325  0.87652071  1
  O  O33  1  0.06734734  0.99411675  0.12347929  1
  O  O34  1  0.20994457  0.41646362  0.74789400  1
  O  O35  1  0.79005543  0.58353638  0.25210600  1
  O  O36  1  0.08714065  0.26769539  0.02772148  1
  O  O37  1  0.91285935  0.73230461  0.97227852  1
  O  O38  1  0.61689511  0.27294814  0.21728473  1
  O  O39  1  0.38310489  0.72705186  0.78271527  1
  O  O40  1  0.29037336  0.28558008  0.57140419  1
  O  O41  1  0.70962664  0.71441992  0.42859581  1
  O  O42  1  0.71737446  0.17567720  0.62896292  1
  O  O43  1  0.28262554  0.82432280  0.37103708  1
  O  O44  1  0.65938181  0.38763069  0.56102191  1
  O  O45  1  0.34061819  0.61236931  0.43897809  1
  O  O46  1  0.81833260  0.21957693  0.90003550  1
  O  O47  1  0.18166740  0.78042307  0.09996450  1
  O  O48  1  0.91104815  0.36509205  0.11923149  1
  O  O49  1  0.08895185  0.63490795  0.88076851  1
  O  O50  1  0.58045789  0.62978878  0.71216132  1
  O  O51  1  0.41954211  0.37021122  0.28783868  1
  O  O52  1  0.64605834  0.90351239  0.71152294  1
  O  O53  1  0.35394166  0.09648761  0.28847706  1
  O  O54  1  0.92993544  0.44410770  0.66540278  1
  O  O55  1  0.07006456  0.55589230  0.33459722  1
