# generated using pymatgen
data_Ba4CrGa2(S3F2)2
_symmetry_space_group_name_H-M   'P 1'
_cell_length_a   6.24266033
_cell_length_b   13.26556234
_cell_length_c   18.71770612
_cell_angle_alpha   90.00000000
_cell_angle_beta   90.00000000
_cell_angle_gamma   90.00000000
_symmetry_Int_Tables_number   1
_chemical_formula_structural   Ba4CrGa2(S3F2)2
_chemical_formula_sum   'Ba16 Cr4 Ga8 S24 F16'
_cell_volume   1550.05816208
_cell_formula_units_Z   4
loop_
 _symmetry_equiv_pos_site_id
 _symmetry_equiv_pos_as_xyz
  1  'x, y, z'
loop_
 _atom_site_type_symbol
 _atom_site_label
 _atom_site_symmetry_multiplicity
 _atom_site_fract_x
 _atom_site_fract_y
 _atom_site_fract_z
 _atom_site_occupancy
  Ba  Ba0  1  0.26865994  0.74880385  0.07824570  1
  Ba  Ba1  1  0.23134006  0.24880385  0.42175430  1
  Ba  Ba2  1  0.73134006  0.25119615  0.57824570  1
  Ba  Ba3  1  0.76865994  0.75119615  0.92175430  1
  Ba  Ba4  1  0.73134006  0.25119615  0.92175430  1
  Ba  Ba5  1  0.76865994  0.75119615  0.57824570  1
  Ba  Ba6  1  0.26865994  0.74880385  0.42175430  1
  Ba  Ba7  1  0.23134006  0.24880385  0.07824570  1
  Ba  Ba8  1  0.75644533  0.00000832  0.07786540  1
  Ba  Ba9  1  0.74355467  0.50000832  0.42213460  1
  Ba  Ba10  1  0.24355467  -0.00000832  0.57786540  1
  Ba  Ba11  1  0.25644533  0.49999168  0.92213460  1
  Ba  Ba12  1  0.24355467  -0.00000832  0.92213460  1
  Ba  Ba13  1  0.25644533  0.49999168  0.57786540  1
  Ba  Ba14  1  0.75644533  0.00000832  0.42213460  1
  Ba  Ba15  1  0.74355467  0.50000832  0.07786540  1
  Cr  Cr16  1  0.49733702  0.12496842  0.25000000  1
  Cr  Cr17  1  0.00266298  0.62496842  0.25000000  1
  Cr  Cr18  1  0.50266298  0.87503158  0.75000000  1
  Cr  Cr19  1  0.99733702  0.37503158  0.75000000  1
  Ga  Ga20  1  0.65468979  0.79903475  0.25000000  1
  Ga  Ga21  1  0.84531021  0.29903475  0.25000000  1
  Ga  Ga22  1  0.34531021  0.20096525  0.75000000  1
  Ga  Ga23  1  0.15468979  0.70096525  0.75000000  1
  Ga  Ga24  1  0.15169547  0.94991424  0.25000000  1
  Ga  Ga25  1  0.34830453  0.44991424  0.25000000  1
  Ga  Ga26  1  0.84830453  0.05008576  0.75000000  1
  Ga  Ga27  1  0.65169547  0.55008576  0.75000000  1
  S  S28  1  0.28350735  0.02810834  0.34822715  1
  S  S29  1  0.21649265  0.52810834  0.15177285  1
  S  S30  1  0.71649265  0.97189166  0.84822715  1
  S  S31  1  0.78350735  0.47189166  0.65177285  1
  S  S32  1  0.71649265  0.97189166  0.65177285  1
  S  S33  1  0.78350735  0.47189166  0.84822715  1
  S  S34  1  0.28350735  0.02810834  0.15177285  1
  S  S35  1  0.21649265  0.52810834  0.34822715  1
  S  S36  1  0.78868709  0.72167981  0.15171638  1
  S  S37  1  0.71131291  0.22167981  0.34828362  1
  S  S38  1  0.21131291  0.27832019  0.65171638  1
  S  S39  1  0.28868709  0.77832019  0.84828362  1
  S  S40  1  0.21131291  0.27832019  0.84828362  1
  S  S41  1  0.28868709  0.77832019  0.65171638  1
  S  S42  1  0.78868709  0.72167981  0.34828362  1
  S  S43  1  0.71131291  0.22167981  0.15171638  1
  S  S44  1  0.28405068  0.78688362  0.25000000  1
  S  S45  1  0.21594932  0.28688362  0.25000000  1
  S  S46  1  0.71594932  0.21311638  0.75000000  1
  S  S47  1  0.78405068  0.71311638  0.75000000  1
  S  S48  1  0.78138731  0.96266427  0.25000000  1
  S  S49  1  0.71861269  0.46266427  0.25000000  1
  S  S50  1  0.21861269  0.03733573  0.75000000  1
  S  S51  1  0.28138731  0.53733573  0.75000000  1
  F  F52  1  0.01331264  0.87470355  0.00359859  1
  F  F53  1  0.48668736  0.37470355  0.49640141  1
  F  F54  1  0.98668736  0.12529645  0.50359859  1
  F  F55  1  0.51331264  0.62529645  0.99640141  1
  F  F56  1  0.98668736  0.12529645  0.99640141  1
  F  F57  1  0.51331264  0.62529645  0.50359859  1
  F  F58  1  0.01331264  0.87470355  0.49640141  1
  F  F59  1  0.48668736  0.37470355  0.00359859  1
  F  F60  1  0.01077113  0.62535080  0.99831877  1
  F  F61  1  0.48922887  0.12535080  0.50168123  1
  F  F62  1  0.98922887  0.37464920  0.49831877  1
  F  F63  1  0.51077113  0.87464920  0.00168123  1
  F  F64  1  0.98922887  0.37464920  0.00168123  1
  F  F65  1  0.51077113  0.87464920  0.49831877  1
  F  F66  1  0.01077113  0.62535080  0.50168123  1
  F  F67  1  0.48922887  0.12535080  0.99831877  1
