# generated using pymatgen
data_LiYb(CN2)2
_symmetry_space_group_name_H-M   'P 1'
_cell_length_a   6.05501314
_cell_length_b   6.94255859
_cell_length_c   10.12593617
_cell_angle_alpha   90.00000000
_cell_angle_beta   90.00000000
_cell_angle_gamma   90.00000000
_symmetry_Int_Tables_number   1
_chemical_formula_structural   LiYb(CN2)2
_chemical_formula_sum   'Li4 Yb4 C8 N16'
_cell_volume   425.66684936
_cell_formula_units_Z   4
loop_
 _symmetry_equiv_pos_site_id
 _symmetry_equiv_pos_as_xyz
  1  'x, y, z'
loop_
 _atom_site_type_symbol
 _atom_site_label
 _atom_site_symmetry_multiplicity
 _atom_site_fract_x
 _atom_site_fract_y
 _atom_site_fract_z
 _atom_site_occupancy
  Li  Li0  1  0.25000000  0.60867562  0.00000000  1
  Li  Li1  1  0.75000000  0.89132438  0.50000000  1
  Li  Li2  1  0.75000000  0.39132438  0.00000000  1
  Li  Li3  1  0.25000000  0.10867562  0.50000000  1
  Yb  Yb4  1  0.25000000  0.13782618  0.00000000  1
  Yb  Yb5  1  0.75000000  0.36217382  0.50000000  1
  Yb  Yb6  1  0.75000000  0.86217382  0.00000000  1
  Yb  Yb7  1  0.25000000  0.63782618  0.50000000  1
  C  C8  1  0.41901461  0.38775294  0.75367785  1
  C  C9  1  0.91901461  0.11224706  0.74632215  1
  C  C10  1  0.58098539  0.11224706  0.25367785  1
  C  C11  1  0.08098539  0.38775294  0.24632215  1
  C  C12  1  0.58098539  0.61224706  0.24632215  1
  C  C13  1  0.08098539  0.88775294  0.25367785  1
  C  C14  1  0.41901461  0.88775294  0.74632215  1
  C  C15  1  0.91901461  0.61224706  0.75367785  1
  N  N16  1  0.41861006  0.38964371  0.87547636  1
  N  N17  1  0.91861006  0.11035629  0.62452364  1
  N  N18  1  0.58138994  0.11035629  0.37547636  1
  N  N19  1  0.08138994  0.38964371  0.12452364  1
  N  N20  1  0.58138994  0.61035629  0.12452364  1
  N  N21  1  0.08138994  0.88964371  0.37547636  1
  N  N22  1  0.41861006  0.88964371  0.62452364  1
  N  N23  1  0.91861006  0.61035629  0.87547636  1
  N  N24  1  0.42061672  0.38685978  0.63159289  1
  N  N25  1  0.92061672  0.11314022  0.86840711  1
  N  N26  1  0.57938328  0.11314022  0.13159289  1
  N  N27  1  0.07938328  0.38685978  0.36840711  1
  N  N28  1  0.57938328  0.61314022  0.36840711  1
  N  N29  1  0.07938328  0.88685978  0.13159289  1
  N  N30  1  0.42061672  0.88685978  0.86840711  1
  N  N31  1  0.92061672  0.61314022  0.63159289  1
