# generated using pymatgen
data_InAgP2O7
_symmetry_space_group_name_H-M   'P 1'
_cell_length_a   7.60782274
_cell_length_b   8.41253454
_cell_length_c   10.00021631
_cell_angle_alpha   90.00000000
_cell_angle_beta   111.93266836
_cell_angle_gamma   90.00000000
_symmetry_Int_Tables_number   1
_chemical_formula_structural   InAgP2O7
_chemical_formula_sum   'In4 Ag4 P8 O28'
_cell_volume   593.70178151
_cell_formula_units_Z   4
loop_
 _symmetry_equiv_pos_site_id
 _symmetry_equiv_pos_as_xyz
  1  'x, y, z'
loop_
 _atom_site_type_symbol
 _atom_site_label
 _atom_site_symmetry_multiplicity
 _atom_site_fract_x
 _atom_site_fract_y
 _atom_site_fract_z
 _atom_site_occupancy
  In  In0  1  0.24270270  0.00480196  0.74761094  1
  In  In1  1  0.75729730  0.50480196  0.75238906  1
  In  In2  1  0.75729730  0.99519804  0.25238906  1
  In  In3  1  0.24270270  0.49519804  0.24761094  1
  Ag  Ag4  1  0.79101043  0.97284433  0.80478498  1
  Ag  Ag5  1  0.20898957  0.47284433  0.69521502  1
  Ag  Ag6  1  0.20898957  0.02715567  0.19521502  1
  Ag  Ag7  1  0.79101043  0.52715567  0.30478498  1
  P  P8  1  0.57650818  0.75236575  0.96071740  1
  P  P9  1  0.42349182  0.25236575  0.53928260  1
  P  P10  1  0.42349182  0.24763425  0.03928260  1
  P  P11  1  0.57650818  0.74763425  0.46071740  1
  P  P12  1  0.17623764  0.71253285  0.95158197  1
  P  P13  1  0.82376236  0.21253285  0.54841803  1
  P  P14  1  0.82376236  0.28746715  0.04841803  1
  P  P15  1  0.17623764  0.78746715  0.45158197  1
  O  O16  1  0.68016379  0.63285785  0.90498578  1
  O  O17  1  0.31983621  0.13285785  0.59501422  1
  O  O18  1  0.31983621  0.36714215  0.09501422  1
  O  O19  1  0.68016379  0.86714215  0.40498578  1
  O  O20  1  0.68286193  0.78384119  0.12149349  1
  O  O21  1  0.31713807  0.28384119  0.37850651  1
  O  O22  1  0.31713807  0.21615881  0.87850651  1
  O  O23  1  0.68286193  0.71615881  0.62149349  1
  O  O24  1  0.52509448  0.90667603  0.86954647  1
  O  O25  1  0.47490552  0.40667603  0.63045353  1
  O  O26  1  0.47490552  0.09332397  0.13045353  1
  O  O27  1  0.52509448  0.59332397  0.36954647  1
  O  O28  1  0.04550872  0.58902747  0.85101727  1
  O  O29  1  0.95449128  0.08902747  0.64898273  1
  O  O30  1  0.95449128  0.41097253  0.14898273  1
  O  O31  1  0.04550872  0.91097253  0.35101727  1
  O  O32  1  0.19162815  0.70426250  0.10826772  1
  O  O33  1  0.80837185  0.20426250  0.39173228  1
  O  O34  1  0.80837185  0.29573750  0.89173228  1
  O  O35  1  0.19162815  0.79573750  0.60826772  1
  O  O36  1  0.13245657  0.88533507  0.89584425  1
  O  O37  1  0.86754343  0.38533507  0.60415575  1
  O  O38  1  0.86754343  0.11466493  0.10415575  1
  O  O39  1  0.13245657  0.61466493  0.39584425  1
  O  O40  1  0.37849160  0.66492404  0.94239841  1
  O  O41  1  0.62150840  0.16492404  0.55760159  1
  O  O42  1  0.62150840  0.33507596  0.05760159  1
  O  O43  1  0.37849160  0.83507596  0.44239841  1
