# generated using pymatgen
data_SrMg30NbO32
_symmetry_space_group_name_H-M   'P 1'
_cell_length_a   8.61771840
_cell_length_b   8.61771840
_cell_length_c   8.69905337
_cell_angle_alpha   90.00000000
_cell_angle_beta   90.00000000
_cell_angle_gamma   90.00000000
_symmetry_Int_Tables_number   1
_chemical_formula_structural   SrMg30NbO32
_chemical_formula_sum   'Sr1 Mg30 Nb1 O32'
_cell_volume   646.03581113
_cell_formula_units_Z   1
loop_
 _symmetry_equiv_pos_site_id
 _symmetry_equiv_pos_as_xyz
  1  'x, y, z'
loop_
 _atom_site_type_symbol
 _atom_site_label
 _atom_site_symmetry_multiplicity
 _atom_site_fract_x
 _atom_site_fract_y
 _atom_site_fract_z
 _atom_site_occupancy
  Sr  Sr0  1  -0.00000000  0.00000000  0.00000000  1
  Mg  Mg1  1  -0.00000000  0.50000000  0.00000000  1
  Mg  Mg2  1  -0.00000000  0.50000000  0.50000000  1
  Mg  Mg3  1  0.50000000  0.00000000  0.00000000  1
  Mg  Mg4  1  0.50000000  -0.00000000  0.50000000  1
  Mg  Mg5  1  0.50000000  0.50000000  0.00000000  1
  Mg  Mg6  1  0.50000000  0.50000000  0.50000000  1
  Mg  Mg7  1  -0.00000000  0.25704086  0.25249860  1
  Mg  Mg8  1  -0.00000000  0.25704086  0.74750140  1
  Mg  Mg9  1  -0.00000000  0.74295914  0.25249860  1
  Mg  Mg10  1  -0.00000000  0.74295914  0.74750140  1
  Mg  Mg11  1  0.50000000  0.25076831  0.25035483  1
  Mg  Mg12  1  0.50000000  0.25076831  0.74964517  1
  Mg  Mg13  1  0.50000000  0.74923169  0.25035483  1
  Mg  Mg14  1  0.50000000  0.74923169  0.74964517  1
  Mg  Mg15  1  0.25704086  0.00000000  0.25249860  1
  Mg  Mg16  1  0.25704086  -0.00000000  0.74750140  1
  Mg  Mg17  1  0.25076831  0.50000000  0.25035483  1
  Mg  Mg18  1  0.25076831  0.50000000  0.74964517  1
  Mg  Mg19  1  0.74295914  0.00000000  0.25249860  1
  Mg  Mg20  1  0.74295914  -0.00000000  0.74750140  1
  Mg  Mg21  1  0.74923169  0.50000000  0.25035483  1
  Mg  Mg22  1  0.74923169  0.50000000  0.74964517  1
  Mg  Mg23  1  0.25530894  0.25530894  0.00000000  1
  Mg  Mg24  1  0.25234841  0.25234841  0.50000000  1
  Mg  Mg25  1  0.25530894  0.74469106  0.00000000  1
  Mg  Mg26  1  0.25234841  0.74765159  0.50000000  1
  Mg  Mg27  1  0.74469106  0.25530894  0.00000000  1
  Mg  Mg28  1  0.74765159  0.25234841  0.50000000  1
  Mg  Mg29  1  0.74469106  0.74469106  0.00000000  1
  Mg  Mg30  1  0.74765159  0.74765159  0.50000000  1
  Nb  Nb31  1  -0.00000000  -0.00000000  0.50000000  1
  O  O32  1  0.27126013  0.00000000  0.00000000  1
  O  O33  1  0.26277641  0.00000000  0.50000000  1
  O  O34  1  0.25413556  0.50000000  -0.00000000  1
  O  O35  1  0.25211049  0.50000000  0.50000000  1
  O  O36  1  0.72873987  0.00000000  0.00000000  1
  O  O37  1  0.73722359  0.00000000  0.50000000  1
  O  O38  1  0.74586444  0.50000000  0.00000000  1
  O  O39  1  0.74788951  0.50000000  0.50000000  1
  O  O40  1  0.24957445  0.24957445  0.25010750  1
  O  O41  1  0.24957445  0.24957445  0.74989250  1
  O  O42  1  0.24957445  0.75042555  0.25010750  1
  O  O43  1  0.24957445  0.75042555  0.74989250  1
  O  O44  1  0.75042555  0.24957445  0.25010750  1
  O  O45  1  0.75042555  0.24957445  0.74989250  1
  O  O46  1  0.75042555  0.75042555  0.25010750  1
  O  O47  1  0.75042555  0.75042555  0.74989250  1
  O  O48  1  -0.00000000  0.00000000  0.25717251  1
  O  O49  1  -0.00000000  -0.00000000  0.74282749  1
  O  O50  1  -0.00000000  0.50000000  0.25288261  1
  O  O51  1  -0.00000000  0.50000000  0.74711739  1
  O  O52  1  0.50000000  -0.00000000  0.25288261  1
  O  O53  1  0.50000000  0.00000000  0.74711739  1
  O  O54  1  0.50000000  0.50000000  0.25074739  1
  O  O55  1  0.50000000  0.50000000  0.74925261  1
  O  O56  1  -0.00000000  0.27126013  0.00000000  1
  O  O57  1  -0.00000000  0.26277641  0.50000000  1
  O  O58  1  -0.00000000  0.72873987  0.00000000  1
  O  O59  1  -0.00000000  0.73722359  0.50000000  1
  O  O60  1  0.50000000  0.25413556  0.00000000  1
  O  O61  1  0.50000000  0.25211049  0.50000000  1
  O  O62  1  0.50000000  0.74586444  0.00000000  1
  O  O63  1  0.50000000  0.74788951  0.50000000  1
