# generated using pymatgen
data_Tb(NO3)3
_symmetry_space_group_name_H-M   'P 1'
_cell_length_a   6.23694795
_cell_length_b   9.89580004
_cell_length_c   11.16144426
_cell_angle_alpha   92.34876737
_cell_angle_beta   90.00000000
_cell_angle_gamma   90.00000000
_symmetry_Int_Tables_number   1
_chemical_formula_structural   Tb(NO3)3
_chemical_formula_sum   'Tb4 N12 O36'
_cell_volume   688.30101590
_cell_formula_units_Z   4
loop_
 _symmetry_equiv_pos_site_id
 _symmetry_equiv_pos_as_xyz
  1  'x, y, z'
loop_
 _atom_site_type_symbol
 _atom_site_label
 _atom_site_symmetry_multiplicity
 _atom_site_fract_x
 _atom_site_fract_y
 _atom_site_fract_z
 _atom_site_occupancy
  Tb  Tb0  1  0.32145958  0.71049847  0.73749926  1
  Tb  Tb1  1  0.82145958  0.78950153  0.26250074  1
  Tb  Tb2  1  0.67854042  0.28950153  0.26250074  1
  Tb  Tb3  1  0.17854042  0.21049847  0.73749926  1
  N  N4  1  0.61699643  0.82704850  0.49102028  1
  N  N5  1  0.11699643  0.67295150  0.50897972  1
  N  N6  1  0.38300357  0.17295150  0.50897972  1
  N  N7  1  0.88300357  0.32704850  0.49102028  1
  N  N8  1  0.26944593  0.80292175  0.21055572  1
  N  N9  1  0.76944593  0.69707825  0.78944428  1
  N  N10  1  0.73055407  0.19707825  0.78944428  1
  N  N11  1  0.23055407  0.30292175  0.21055572  1
  N  N12  1  0.27891686  0.46760897  0.88163871  1
  N  N13  1  0.77891686  0.03239103  0.11836129  1
  N  N14  1  0.72108314  0.53239103  0.11836129  1
  N  N15  1  0.22108314  0.96760897  0.88163871  1
  O  O16  1  0.57690576  0.72449887  0.42091172  1
  O  O17  1  0.07690576  0.77550113  0.57908828  1
  O  O18  1  0.42309424  0.27550113  0.57908828  1
  O  O19  1  0.92309424  0.22449887  0.42091172  1
  O  O20  1  0.74256178  0.91640322  0.45217027  1
  O  O21  1  0.24256178  0.58359678  0.54782973  1
  O  O22  1  0.25743822  0.08359678  0.54782973  1
  O  O23  1  0.75743822  0.41640322  0.45217027  1
  O  O24  1  0.53701886  0.83917209  0.59384205  1
  O  O25  1  0.03701886  0.66082791  0.40615795  1
  O  O26  1  0.46298114  0.16082791  0.40615795  1
  O  O27  1  0.96298114  0.33917209  0.59384205  1
  O  O28  1  0.17710076  0.89686970  0.27303474  1
  O  O29  1  0.67710076  0.60313030  0.72696526  1
  O  O30  1  0.82289924  0.10313030  0.72696526  1
  O  O31  1  0.32289924  0.39686970  0.27303474  1
  O  O32  1  0.46665659  0.80713095  0.18893014  1
  O  O33  1  0.96665659  0.69286905  0.81106986  1
  O  O34  1  0.53334341  0.19286905  0.81106986  1
  O  O35  1  0.03334341  0.30713095  0.18893014  1
  O  O36  1  0.15533806  0.70561183  0.16939373  1
  O  O37  1  0.65533806  0.79438817  0.83060627  1
  O  O38  1  0.84466194  0.29438817  0.83060627  1
  O  O39  1  0.34466194  0.20561183  0.16939373  1
  O  O40  1  0.26352338  0.45514272  0.76464901  1
  O  O41  1  0.76352338  0.04485728  0.23535099  1
  O  O42  1  0.73647662  0.54485728  0.23535099  1
  O  O43  1  0.23647662  0.95514272  0.76464901  1
  O  O44  1  0.33382943  0.58222887  0.92477870  1
  O  O45  1  0.83382943  0.91777113  0.07522130  1
  O  O46  1  0.66617057  0.41777113  0.07522130  1
  O  O47  1  0.16617057  0.08222887  0.92477870  1
  O  O48  1  0.23835872  0.36823783  0.94163245  1
  O  O49  1  0.73835872  0.13176217  0.05836755  1
  O  O50  1  0.76164128  0.63176217  0.05836755  1
  O  O51  1  0.26164128  0.86823783  0.94163245  1
