# generated using pymatgen
data_DySiOs2C
_symmetry_space_group_name_H-M   'P 1'
_cell_length_a   3.86034297
_cell_length_b   5.89482458
_cell_length_c   7.13988607
_cell_angle_alpha   90.00000000
_cell_angle_beta   90.00000000
_cell_angle_gamma   109.11316479
_symmetry_Int_Tables_number   1
_chemical_formula_structural   DySiOs2C
_chemical_formula_sum   'Dy2 Si2 Os4 C2'
_cell_volume   153.51888961
_cell_formula_units_Z   2
loop_
 _symmetry_equiv_pos_site_id
 _symmetry_equiv_pos_as_xyz
  1  'x, y, z'
loop_
 _atom_site_type_symbol
 _atom_site_label
 _atom_site_symmetry_multiplicity
 _atom_site_fract_x
 _atom_site_fract_y
 _atom_site_fract_z
 _atom_site_occupancy
  Dy  Dy0  1  0.45318936  0.90637873  0.25000000  1
  Dy  Dy1  1  0.54681064  0.09362127  0.75000000  1
  Si  Si2  1  0.73120812  0.46241624  0.25000000  1
  Si  Si3  1  0.26879188  0.53758376  0.75000000  1
  Os  Os4  1  0.16497071  0.32994143  0.05827132  1
  Os  Os5  1  0.83502929  0.67005857  0.94172868  1
  Os  Os6  1  0.83502929  0.67005857  0.55827132  1
  Os  Os7  1  0.16497071  0.32994143  0.44172868  1
  C  C8  1  -0.00000000  0.00000000  -0.00000000  1
  C  C9  1  -0.00000000  0.00000000  0.50000000  1
