# generated using pymatgen
data_Ba4MnIn2(S3F2)2
_symmetry_space_group_name_H-M   'P 1'
_cell_length_a   6.45716277
_cell_length_b   13.24601477
_cell_length_c   19.07975027
_cell_angle_alpha   90.00000000
_cell_angle_beta   90.00000000
_cell_angle_gamma   90.00000000
_symmetry_Int_Tables_number   1
_chemical_formula_structural   Ba4MnIn2(S3F2)2
_chemical_formula_sum   'Ba16 Mn4 In8 S24 F16'
_cell_volume   1631.92296910
_cell_formula_units_Z   4
loop_
 _symmetry_equiv_pos_site_id
 _symmetry_equiv_pos_as_xyz
  1  'x, y, z'
loop_
 _atom_site_type_symbol
 _atom_site_label
 _atom_site_symmetry_multiplicity
 _atom_site_fract_x
 _atom_site_fract_y
 _atom_site_fract_z
 _atom_site_occupancy
  Ba  Ba0  1  0.26067302  0.74844694  0.07481500  1
  Ba  Ba1  1  0.23932698  0.24844694  0.42518500  1
  Ba  Ba2  1  0.73932698  0.25155306  0.57481500  1
  Ba  Ba3  1  0.76067302  0.75155306  0.92518500  1
  Ba  Ba4  1  0.73932698  0.25155306  0.92518500  1
  Ba  Ba5  1  0.76067302  0.75155306  0.57481500  1
  Ba  Ba6  1  0.26067302  0.74844694  0.42518500  1
  Ba  Ba7  1  0.23932698  0.24844694  0.07481500  1
  Ba  Ba8  1  0.75370847  0.00022529  0.07477743  1
  Ba  Ba9  1  0.74629153  0.50022529  0.42522257  1
  Ba  Ba10  1  0.24629153  -0.00022529  0.57477743  1
  Ba  Ba11  1  0.25370847  0.49977471  0.92522257  1
  Ba  Ba12  1  0.24629153  -0.00022529  0.92522257  1
  Ba  Ba13  1  0.25370847  0.49977471  0.57477743  1
  Ba  Ba14  1  0.75370847  0.00022529  0.42522257  1
  Ba  Ba15  1  0.74629153  0.50022529  0.07477743  1
  Mn  Mn16  1  0.49941462  0.12435036  0.25000000  1
  Mn  Mn17  1  0.00058538  0.62435036  0.25000000  1
  Mn  Mn18  1  0.50058538  0.87564964  0.75000000  1
  Mn  Mn19  1  0.99941462  0.37564964  0.75000000  1
  In  In20  1  0.63446554  0.79393438  0.25000000  1
  In  In21  1  0.86553446  0.29393438  0.25000000  1
  In  In22  1  0.36553446  0.20606562  0.75000000  1
  In  In23  1  0.13446554  0.70606562  0.75000000  1
  In  In24  1  0.13290525  0.95427095  0.25000000  1
  In  In25  1  0.36709475  0.45427095  0.25000000  1
  In  In26  1  0.86709475  0.04572905  0.75000000  1
  In  In27  1  0.63290525  0.54572905  0.75000000  1
  S  S28  1  0.28181778  0.02431250  0.35651776  1
  S  S29  1  0.21818222  0.52431250  0.14348224  1
  S  S30  1  0.71818222  0.97568750  0.85651776  1
  S  S31  1  0.78181778  0.47568750  0.64348224  1
  S  S32  1  0.71818222  0.97568750  0.64348224  1
  S  S33  1  0.78181778  0.47568750  0.85651776  1
  S  S34  1  0.28181778  0.02431250  0.14348224  1
  S  S35  1  0.21818222  0.52431250  0.35651776  1
  S  S36  1  0.78534385  0.72439934  0.14355735  1
  S  S37  1  0.71465615  0.22439934  0.35644265  1
  S  S38  1  0.21465615  0.27560066  0.64355735  1
  S  S39  1  0.28534385  0.77560066  0.85644265  1
  S  S40  1  0.21465615  0.27560066  0.85644265  1
  S  S41  1  0.28534385  0.77560066  0.64355735  1
  S  S42  1  0.78534385  0.72439934  0.35644265  1
  S  S43  1  0.71465615  0.22439934  0.14355735  1
  S  S44  1  0.25095860  0.77344530  0.25000000  1
  S  S45  1  0.24904140  0.27344530  0.25000000  1
  S  S46  1  0.74904140  0.22655470  0.75000000  1
  S  S47  1  0.75095860  0.72655470  0.75000000  1
  S  S48  1  0.74924860  0.97503792  0.25000000  1
  S  S49  1  0.75075140  0.47503792  0.25000000  1
  S  S50  1  0.25075140  0.02496208  0.75000000  1
  S  S51  1  0.24924860  0.52496208  0.75000000  1
  F  F52  1  0.00544472  0.87481318  0.00304809  1
  F  F53  1  0.49455528  0.37481318  0.49695191  1
  F  F54  1  0.99455528  0.12518682  0.50304809  1
  F  F55  1  0.50544472  0.62518682  0.99695191  1
  F  F56  1  0.99455528  0.12518682  0.99695191  1
  F  F57  1  0.50544472  0.62518682  0.50304809  1
  F  F58  1  0.00544472  0.87481318  0.49695191  1
  F  F59  1  0.49455528  0.37481318  0.00304809  1
  F  F60  1  0.00873033  0.62535250  0.99810552  1
  F  F61  1  0.49126967  0.12535250  0.50189448  1
  F  F62  1  0.99126967  0.37464750  0.49810552  1
  F  F63  1  0.50873033  0.87464750  0.00189448  1
  F  F64  1  0.99126967  0.37464750  0.00189448  1
  F  F65  1  0.50873033  0.87464750  0.49810552  1
  F  F66  1  0.00873033  0.62535250  0.50189448  1
  F  F67  1  0.49126967  0.12535250  0.99810552  1
