# generated using pymatgen
data_ErCoSi3
_symmetry_space_group_name_H-M   'P 1'
_cell_length_a   3.92064920
_cell_length_b   3.93943457
_cell_length_c   10.70105628
_cell_angle_alpha   90.00000000
_cell_angle_beta   100.55561336
_cell_angle_gamma   90.00000000
_symmetry_Int_Tables_number   1
_chemical_formula_structural   ErCoSi3
_chemical_formula_sum   'Er2 Co2 Si6'
_cell_volume   162.48239366
_cell_formula_units_Z   2
loop_
 _symmetry_equiv_pos_site_id
 _symmetry_equiv_pos_as_xyz
  1  'x, y, z'
loop_
 _atom_site_type_symbol
 _atom_site_label
 _atom_site_symmetry_multiplicity
 _atom_site_fract_x
 _atom_site_fract_y
 _atom_site_fract_z
 _atom_site_occupancy
  Er  Er0  1  0.66886587  0.50000000  0.33773174  1
  Er  Er1  1  0.33113413  0.50000000  0.66226826  1
  Co  Co2  1  0.89062675  -0.00000000  0.78125351  1
  Co  Co3  1  0.10937325  0.00000000  0.21874649  1
  Si  Si4  1  0.94385209  0.50000000  0.88770418  1
  Si  Si5  1  0.05614791  0.50000000  0.11229582  1
  Si  Si6  1  0.78413708  -0.00000000  0.56827417  1
  Si  Si7  1  0.21586292  0.00000000  0.43172583  1
  Si  Si8  1  0.55632421  -0.00000000  0.11264841  1
  Si  Si9  1  0.44367579  -0.00000000  0.88735159  1
