# generated using pymatgen
data_K2AlSO4F3
_symmetry_space_group_name_H-M   'P 1'
_cell_length_a   6.96194001
_cell_length_b   8.47483834
_cell_length_c   11.12115033
_cell_angle_alpha   90.00000000
_cell_angle_beta   90.00000000
_cell_angle_gamma   90.00000000
_symmetry_Int_Tables_number   1
_chemical_formula_structural   K2AlSO4F3
_chemical_formula_sum   'K8 Al4 S4 O16 F12'
_cell_volume   656.16250621
_cell_formula_units_Z   4
loop_
 _symmetry_equiv_pos_site_id
 _symmetry_equiv_pos_as_xyz
  1  'x, y, z'
loop_
 _atom_site_type_symbol
 _atom_site_label
 _atom_site_symmetry_multiplicity
 _atom_site_fract_x
 _atom_site_fract_y
 _atom_site_fract_z
 _atom_site_occupancy
  K  K0  1  0.29986785  0.32424047  0.30346866  1
  K  K1  1  0.79986785  0.17575953  0.19653134  1
  K  K2  1  0.70013215  0.17575953  0.80346866  1
  K  K3  1  0.20013215  0.32424047  0.69653134  1
  K  K4  1  0.70013215  0.67575953  0.69653134  1
  K  K5  1  0.20013215  0.82424047  0.80346866  1
  K  K6  1  0.29986785  0.82424047  0.19653134  1
  K  K7  1  0.79986785  0.67575953  0.30346866  1
  Al  Al8  1  0.50000000  0.00000000  0.50000000  1
  Al  Al9  1  0.00000000  0.50000000  0.00000000  1
  Al  Al10  1  0.50000000  0.50000000  0.00000000  1
  Al  Al11  1  0.00000000  0.00000000  0.50000000  1
  S  S12  1  0.25000000  0.19195872  0.00000000  1
  S  S13  1  0.75000000  0.30804128  0.50000000  1
  S  S14  1  0.75000000  0.80804128  0.00000000  1
  S  S15  1  0.25000000  0.69195872  0.50000000  1
  O  O16  1  0.17231879  0.09807855  0.09904589  1
  O  O17  1  0.67231879  0.40192145  0.40095411  1
  O  O18  1  0.82768121  0.40192145  0.59904589  1
  O  O19  1  0.32768121  0.09807855  0.90095411  1
  O  O20  1  0.82768121  0.90192145  0.90095411  1
  O  O21  1  0.32768121  0.59807855  0.59904589  1
  O  O22  1  0.17231879  0.59807855  0.40095411  1
  O  O23  1  0.67231879  0.90192145  0.09904589  1
  O  O24  1  0.40581417  0.29758275  0.05198075  1
  O  O25  1  0.90581417  0.20241725  0.44801925  1
  O  O26  1  0.59418583  0.20241725  0.55198075  1
  O  O27  1  0.09418583  0.29758275  0.94801925  1
  O  O28  1  0.59418583  0.70241725  0.94801925  1
  O  O29  1  0.09418583  0.79758275  0.55198075  1
  O  O30  1  0.40581417  0.79758275  0.44801925  1
  O  O31  1  0.90581417  0.70241725  0.05198075  1
  F  F32  1  0.02160725  0.44775476  0.15478116  1
  F  F33  1  0.52160725  0.05224524  0.34521884  1
  F  F34  1  0.97839275  0.05224524  0.65478116  1
  F  F35  1  0.47839275  0.44775476  0.84521884  1
  F  F36  1  0.97839275  0.55224524  0.84521884  1
  F  F37  1  0.47839275  0.94775476  0.65478116  1
  F  F38  1  0.02160725  0.94775476  0.34521884  1
  F  F39  1  0.52160725  0.55224524  0.15478116  1
  F  F40  1  0.25000000  0.08371705  0.50000000  1
  F  F41  1  0.75000000  0.41628295  0.00000000  1
  F  F42  1  0.75000000  0.91628295  0.50000000  1
  F  F43  1  0.25000000  0.58371705  0.00000000  1
