# generated using pymatgen
data_K2Fe2P2O7F2
_symmetry_space_group_name_H-M   'P 1'
_cell_length_a   6.94419919
_cell_length_b   10.57902249
_cell_length_c   11.41415904
_cell_angle_alpha   90.00000000
_cell_angle_beta   90.00000000
_cell_angle_gamma   90.00000000
_symmetry_Int_Tables_number   1
_chemical_formula_structural   K2Fe2P2O7F2
_chemical_formula_sum   'K8 Fe8 P8 O28 F8'
_cell_volume   838.51653251
_cell_formula_units_Z   4
loop_
 _symmetry_equiv_pos_site_id
 _symmetry_equiv_pos_as_xyz
  1  'x, y, z'
loop_
 _atom_site_type_symbol
 _atom_site_label
 _atom_site_symmetry_multiplicity
 _atom_site_fract_x
 _atom_site_fract_y
 _atom_site_fract_z
 _atom_site_occupancy
  K  K0  1  0.49907273  0.43431900  0.17335728  1
  K  K1  1  0.00092727  0.93431900  0.32664272  1
  K  K2  1  0.99907273  0.56568100  0.32664272  1
  K  K3  1  0.50092727  0.06568100  0.17335728  1
  K  K4  1  0.50092727  0.56568100  0.82664272  1
  K  K5  1  0.99907273  0.06568100  0.67335728  1
  K  K6  1  0.00092727  0.43431900  0.67335728  1
  K  K7  1  0.49907273  0.93431900  0.82664272  1
  Fe  Fe8  1  -0.00000000  0.25000000  0.16439744  1
  Fe  Fe9  1  0.50000000  0.75000000  0.33560256  1
  Fe  Fe10  1  -0.00000000  0.75000000  0.83560256  1
  Fe  Fe11  1  0.50000000  0.25000000  0.66439744  1
  Fe  Fe12  1  -0.00000000  0.50000000  0.00000000  1
  Fe  Fe13  1  0.50000000  0.00000000  0.50000000  1
  Fe  Fe14  1  0.50000000  0.50000000  0.50000000  1
  Fe  Fe15  1  -0.00000000  0.00000000  0.00000000  1
  P  P16  1  0.78169305  0.25141735  0.42068761  1
  P  P17  1  0.71830695  0.75141735  0.07931239  1
  P  P18  1  0.28169305  0.74858265  0.07931239  1
  P  P19  1  0.21830695  0.24858265  0.42068761  1
  P  P20  1  0.21830695  0.74858265  0.57931239  1
  P  P21  1  0.28169305  0.24858265  0.92068761  1
  P  P22  1  0.71830695  0.25141735  0.92068761  1
  P  P23  1  0.78169305  0.75141735  0.57931239  1
  O  O24  1  -0.00000000  0.25000000  0.47801452  1
  O  O25  1  0.50000000  0.75000000  0.02198548  1
  O  O26  1  -0.00000000  0.75000000  0.52198548  1
  O  O27  1  0.50000000  0.25000000  0.97801452  1
  O  O28  1  0.82585501  0.17113106  0.01275579  1
  O  O29  1  0.67414499  0.67113106  0.48724421  1
  O  O30  1  0.32585501  0.82886894  0.48724421  1
  O  O31  1  0.17414499  0.32886894  0.01275579  1
  O  O32  1  0.17414499  0.82886894  0.98724421  1
  O  O33  1  0.32585501  0.32886894  0.51275579  1
  O  O34  1  0.67414499  0.17113106  0.51275579  1
  O  O35  1  0.82585501  0.67113106  0.98724421  1
  O  O36  1  0.71959083  0.39037846  0.41676925  1
  O  O37  1  0.78040917  0.89037846  0.08323075  1
  O  O38  1  0.21959083  0.60962154  0.08323075  1
  O  O39  1  0.28040917  0.10962154  0.41676925  1
  O  O40  1  0.28040917  0.60962154  0.58323075  1
  O  O41  1  0.21959083  0.10962154  0.91676925  1
  O  O42  1  0.78040917  0.39037846  0.91676925  1
  O  O43  1  0.71959083  0.89037846  0.58323075  1
  O  O44  1  0.79369361  0.19064033  0.29915207  1
  O  O45  1  0.70630639  0.69064033  0.20084793  1
  O  O46  1  0.29369361  0.80935967  0.20084793  1
  O  O47  1  0.20630639  0.30935967  0.29915207  1
  O  O48  1  0.20630639  0.80935967  0.70084793  1
  O  O49  1  0.29369361  0.30935967  0.79915207  1
  O  O50  1  0.70630639  0.19064033  0.79915207  1
  O  O51  1  0.79369361  0.69064033  0.70084793  1
  F  F52  1  0.88423106  0.42414663  0.15566605  1
  F  F53  1  0.61576894  0.92414663  0.34433395  1
  F  F54  1  0.38423106  0.57585337  0.34433395  1
  F  F55  1  0.11576894  0.07585337  0.15566605  1
  F  F56  1  0.11576894  0.57585337  0.84433395  1
  F  F57  1  0.38423106  0.07585337  0.65566605  1
  F  F58  1  0.61576894  0.42414663  0.65566605  1
  F  F59  1  0.88423106  0.92414663  0.84433395  1
