# generated using pymatgen
data_CuAg2(NO3)4
_symmetry_space_group_name_H-M   'P 1'
_cell_length_a   7.73557808
_cell_length_b   8.36669834
_cell_length_c   8.75110036
_cell_angle_alpha   65.55066720
_cell_angle_beta   86.82142749
_cell_angle_gamma   86.01054572
_symmetry_Int_Tables_number   1
_chemical_formula_structural   CuAg2(NO3)4
_chemical_formula_sum   'Cu2 Ag4 N8 O24'
_cell_volume   514.12239253
_cell_formula_units_Z   2
loop_
 _symmetry_equiv_pos_site_id
 _symmetry_equiv_pos_as_xyz
  1  'x, y, z'
loop_
 _atom_site_type_symbol
 _atom_site_label
 _atom_site_symmetry_multiplicity
 _atom_site_fract_x
 _atom_site_fract_y
 _atom_site_fract_z
 _atom_site_occupancy
  Cu  Cu0  1  0.50000000  0.50000000  0.00000000  1
  Cu  Cu1  1  0.00000000  -0.00000000  0.50000000  1
  Ag  Ag2  1  0.93065300  0.76841521  0.00131595  1
  Ag  Ag3  1  0.06934700  0.23158479  0.99868405  1
  Ag  Ag4  1  0.54422548  0.27872210  0.53833742  1
  Ag  Ag5  1  0.45577452  0.72127790  0.46166258  1
  N  N6  1  0.72097802  0.35826118  0.82222031  1
  N  N7  1  0.27902198  0.64173882  0.17777969  1
  N  N8  1  0.59141964  0.84236111  0.79110042  1
  N  N9  1  0.40858036  0.15763889  0.20889958  1
  N  N10  1  0.19794551  0.08997348  0.70530674  1
  N  N11  1  0.80205449  0.91002652  0.29469326  1
  N  N12  1  0.89425890  0.36215102  0.31627369  1
  N  N13  1  0.10574110  0.63784898  0.68372631  1
  O  O14  1  0.71643130  0.36775958  0.96680884  1
  O  O15  1  0.28356870  0.63224042  0.03319116  1
  O  O16  1  0.59095418  0.41913629  0.73019282  1
  O  O17  1  0.40904582  0.58086371  0.26980718  1
  O  O18  1  0.85250422  0.28867040  0.78126573  1
  O  O19  1  0.14749578  0.71132960  0.21873427  1
  O  O20  1  0.64077126  0.71071055  0.93142930  1
  O  O21  1  0.35922874  0.28928945  0.06857070  1
  O  O22  1  0.67281692  0.97910010  0.74593252  1
  O  O23  1  0.32718308  0.02089990  0.25406748  1
  O  O24  1  0.46992602  0.82309407  0.71410800  1
  O  O25  1  0.53007398  0.17690593  0.28589200  1
  O  O26  1  0.06422196  0.99610110  0.72107380  1
  O  O27  1  0.93577804  0.00389890  0.27892620  1
  O  O28  1  0.25679607  0.17551400  0.55842541  1
  O  O29  1  0.74320393  0.82448600  0.44157459  1
  O  O30  1  0.25983370  0.09040070  0.83319195  1
  O  O31  1  0.74016630  0.90959930  0.16680805  1
  O  O32  1  0.84991374  0.22076932  0.44854223  1
  O  O33  1  0.15008626  0.77923068  0.55145777  1
  O  O34  1  0.03059419  0.35636822  0.23532480  1
  O  O35  1  0.96940581  0.64363178  0.76467520  1
  O  O36  1  0.79445993  0.49590794  0.28004457  1
  O  O37  1  0.20554007  0.50409206  0.71995543  1
