# generated using pymatgen
data_U2NiC3
_symmetry_space_group_name_H-M   'P 1'
_cell_length_a   3.55025654
_cell_length_b   6.38435522
_cell_length_c   13.14787025
_cell_angle_alpha   90.00000000
_cell_angle_beta   90.00000000
_cell_angle_gamma   90.00000000
_symmetry_Int_Tables_number   1
_chemical_formula_structural   U2NiC3
_chemical_formula_sum   'U8 Ni4 C12'
_cell_volume   298.01092706
_cell_formula_units_Z   4
loop_
 _symmetry_equiv_pos_site_id
 _symmetry_equiv_pos_as_xyz
  1  'x, y, z'
loop_
 _atom_site_type_symbol
 _atom_site_label
 _atom_site_symmetry_multiplicity
 _atom_site_fract_x
 _atom_site_fract_y
 _atom_site_fract_z
 _atom_site_occupancy
  U  U0  1  0.75000000  0.74805929  0.47733403  1
  U  U1  1  0.25000000  0.25194071  0.52266597  1
  U  U2  1  0.25000000  0.75194071  0.97733403  1
  U  U3  1  0.75000000  0.24805929  0.02266597  1
  U  U4  1  0.75000000  0.87385912  0.20954743  1
  U  U5  1  0.25000000  0.12614088  0.79045257  1
  U  U6  1  0.25000000  0.62614088  0.70954743  1
  U  U7  1  0.75000000  0.37385912  0.29045257  1
  Ni  Ni8  1  0.75000000  0.99178530  0.65179285  1
  Ni  Ni9  1  0.25000000  0.00821470  0.34820715  1
  Ni  Ni10  1  0.25000000  0.50821470  0.15179285  1
  Ni  Ni11  1  0.75000000  0.49178530  0.84820715  1
  C  C12  1  0.75000000  0.81965070  0.82269062  1
  C  C13  1  0.25000000  0.18034930  0.17730938  1
  C  C14  1  0.25000000  0.68034930  0.32269062  1
  C  C15  1  0.75000000  0.31965070  0.67730938  1
  C  C16  1  0.75000000  0.97856374  0.90211252  1
  C  C17  1  0.25000000  0.02143626  0.09788748  1
  C  C18  1  0.25000000  0.52143626  0.40211252  1
  C  C19  1  0.75000000  0.47856374  0.59788748  1
  C  C20  1  0.75000000  0.60488748  0.09002740  1
  C  C21  1  0.25000000  0.39511252  0.90997260  1
  C  C22  1  0.25000000  0.89511252  0.59002740  1
  C  C23  1  0.75000000  0.10488748  0.40997260  1
