# generated using pymatgen
data_MgBi2
_symmetry_space_group_name_H-M   'P 1'
_cell_length_a   13.32144395
_cell_length_b   3.56279452
_cell_length_c   7.92998926
_cell_angle_alpha   90.00000000
_cell_angle_beta   107.98064409
_cell_angle_gamma   90.00000000
_symmetry_Int_Tables_number   1
_chemical_formula_structural   MgBi2
_chemical_formula_sum   'Mg4 Bi8'
_cell_volume   357.98814541
_cell_formula_units_Z   4
loop_
 _symmetry_equiv_pos_site_id
 _symmetry_equiv_pos_as_xyz
  1  'x, y, z'
loop_
 _atom_site_type_symbol
 _atom_site_label
 _atom_site_symmetry_multiplicity
 _atom_site_fract_x
 _atom_site_fract_y
 _atom_site_fract_z
 _atom_site_occupancy
  Mg  Mg0  1  0.19946344  0.00000000  0.64383329  1
  Mg  Mg1  1  0.30053656  0.50000000  0.35616671  1
  Mg  Mg2  1  0.69946344  0.50000000  0.64383329  1
  Mg  Mg3  1  0.80053656  0.00000000  0.35616671  1
  Bi  Bi4  1  0.34346197  0.50000000  0.96632988  1
  Bi  Bi5  1  0.44330700  0.00000000  0.65556000  1
  Bi  Bi6  1  0.05669300  0.50000000  0.34444000  1
  Bi  Bi7  1  0.15653803  0.00000000  0.03367012  1
  Bi  Bi8  1  0.84346197  -0.00000000  0.96632988  1
  Bi  Bi9  1  0.94330700  0.50000000  0.65556000  1
  Bi  Bi10  1  0.55669300  0.00000000  0.34444000  1
  Bi  Bi11  1  0.65653803  0.50000000  0.03367012  1
