# generated using pymatgen
data_Tm12Al7Si
_symmetry_space_group_name_H-M   'P 1'
_cell_length_a   11.06716335
_cell_length_b   11.06716335
_cell_length_c   11.06716335
_cell_angle_alpha   94.39308282
_cell_angle_beta   117.49690332
_cell_angle_gamma   117.49690332
_symmetry_Int_Tables_number   1
_chemical_formula_structural   Tm12Al7Si
_chemical_formula_sum   'Tm24 Al14 Si2'
_cell_volume   991.61490719
_cell_formula_units_Z   2
loop_
 _symmetry_equiv_pos_site_id
 _symmetry_equiv_pos_as_xyz
  1  'x, y, z'
loop_
 _atom_site_type_symbol
 _atom_site_label
 _atom_site_symmetry_multiplicity
 _atom_site_fract_x
 _atom_site_fract_y
 _atom_site_fract_z
 _atom_site_occupancy
  Tm  Tm0  1  0.50000000  0.85324814  0.35324814  1
  Tm  Tm1  1  0.50000000  0.14675186  0.64675186  1
  Tm  Tm2  1  0.50000000  0.35324814  0.85324814  1
  Tm  Tm3  1  0.50000000  0.64675186  0.14675186  1
  Tm  Tm4  1  0.73464012  0.79914669  0.66208331  1
  Tm  Tm5  1  0.26535988  0.20085331  0.33791669  1
  Tm  Tm6  1  0.26535988  0.92744319  0.06450657  1
  Tm  Tm7  1  0.13706338  0.06450657  0.79914669  1
  Tm  Tm8  1  0.86293662  0.70085331  0.43549343  1
  Tm  Tm9  1  0.73464012  0.07255681  0.93549343  1
  Tm  Tm10  1  0.86293662  0.93549343  0.20085331  1
  Tm  Tm11  1  0.13706338  0.29914669  0.56450657  1
  Tm  Tm12  1  0.86293662  0.66208331  0.92744319  1
  Tm  Tm13  1  0.13706338  0.57255681  0.83791669  1
  Tm  Tm14  1  0.13706338  0.33791669  0.07255681  1
  Tm  Tm15  1  0.86293662  0.42744319  0.16208331  1
  Tm  Tm16  1  0.73464012  0.43549343  0.57255681  1
  Tm  Tm17  1  0.26535988  0.56450657  0.42744319  1
  Tm  Tm18  1  0.26535988  0.83791669  0.70085331  1
  Tm  Tm19  1  0.73464012  0.16208331  0.29914669  1
  Tm  Tm20  1  0.15882174  0.82941087  0.32941087  1
  Tm  Tm21  1  0.84117826  0.17058913  0.67058913  1
  Tm  Tm22  1  0.50000000  0.67058913  0.82941087  1
  Tm  Tm23  1  0.50000000  0.32941087  0.17058913  1
  Al  Al24  1  0.26286203  0.38143102  0.88143102  1
  Al  Al25  1  0.73713797  0.61856898  0.11856898  1
  Al  Al26  1  0.50000000  0.11856898  0.38143102  1
  Al  Al27  1  0.50000000  0.88143102  0.61856898  1
  Al  Al28  1  0.00000000  -0.00000000  -0.00000000  1
  Al  Al29  1  0.00000000  0.50000000  0.50000000  1
  Al  Al30  1  0.14451355  0.61905112  0.11905112  1
  Al  Al31  1  0.85548645  0.38094888  0.88094888  1
  Al  Al32  1  0.85548645  0.97453757  0.47453757  1
  Al  Al33  1  0.50000000  0.47453757  0.61905112  1
  Al  Al34  1  0.50000000  0.88094888  0.02546243  1
  Al  Al35  1  0.14451355  0.02546243  0.52546243  1
  Al  Al36  1  0.50000000  0.52546243  0.38094888  1
  Al  Al37  1  0.50000000  0.11905112  0.97453757  1
  Si  Si38  1  0.00000000  0.75000000  0.75000000  1
  Si  Si39  1  0.00000000  0.25000000  0.25000000  1
