# generated using pymatgen
data_Dy2MgCu2
_symmetry_space_group_name_H-M   'P 1'
_cell_length_a   3.61747640
_cell_length_b   7.73388795
_cell_length_c   7.73388795
_cell_angle_alpha   90.00000000
_cell_angle_beta   90.00000000
_cell_angle_gamma   90.00000000
_symmetry_Int_Tables_number   1
_chemical_formula_structural   Dy2MgCu2
_chemical_formula_sum   'Dy4 Mg2 Cu4'
_cell_volume   216.37219848
_cell_formula_units_Z   2
loop_
 _symmetry_equiv_pos_site_id
 _symmetry_equiv_pos_as_xyz
  1  'x, y, z'
loop_
 _atom_site_type_symbol
 _atom_site_label
 _atom_site_symmetry_multiplicity
 _atom_site_fract_x
 _atom_site_fract_y
 _atom_site_fract_z
 _atom_site_occupancy
  Dy  Dy0  1  0.50000000  0.17059769  0.67059769  1
  Dy  Dy1  1  0.50000000  0.82940231  0.32940231  1
  Dy  Dy2  1  0.50000000  0.32940231  0.17059769  1
  Dy  Dy3  1  0.50000000  0.67059769  0.82940231  1
  Mg  Mg4  1  0.00000000  0.00000000  0.00000000  1
  Mg  Mg5  1  -0.00000000  0.50000000  0.50000000  1
  Cu  Cu6  1  0.00000000  0.62115806  0.12115806  1
  Cu  Cu7  1  -0.00000000  0.37884194  0.87884194  1
  Cu  Cu8  1  -0.00000000  0.87884194  0.62115806  1
  Cu  Cu9  1  0.00000000  0.12115806  0.37884194  1
