# generated using pymatgen
data_Tb3CrS6
_symmetry_space_group_name_H-M   'P 1'
_cell_length_a   3.79560642
_cell_length_b   13.32396568
_cell_length_c   16.03020979
_cell_angle_alpha   90.00000000
_cell_angle_beta   90.00000000
_cell_angle_gamma   90.00000000
_symmetry_Int_Tables_number   1
_chemical_formula_structural   Tb3CrS6
_chemical_formula_sum   'Tb12 Cr4 S24'
_cell_volume   810.68826030
_cell_formula_units_Z   4
loop_
 _symmetry_equiv_pos_site_id
 _symmetry_equiv_pos_as_xyz
  1  'x, y, z'
loop_
 _atom_site_type_symbol
 _atom_site_label
 _atom_site_symmetry_multiplicity
 _atom_site_fract_x
 _atom_site_fract_y
 _atom_site_fract_z
 _atom_site_occupancy
  Tb  Tb0  1  0.00000000  0.55033359  0.28085994  1
  Tb  Tb1  1  0.00000000  0.44966641  0.71914006  1
  Tb  Tb2  1  0.50000000  0.94966641  0.78085994  1
  Tb  Tb3  1  0.50000000  0.05033359  0.21914006  1
  Tb  Tb4  1  -0.00000000  0.75417479  0.09716162  1
  Tb  Tb5  1  0.00000000  0.24582521  0.90283838  1
  Tb  Tb6  1  0.50000000  0.74582521  0.59716162  1
  Tb  Tb7  1  0.50000000  0.25417479  0.40283838  1
  Tb  Tb8  1  0.00000000  0.31979225  0.14837475  1
  Tb  Tb9  1  0.00000000  0.68020775  0.85162525  1
  Tb  Tb10  1  0.50000000  0.18020775  0.64837475  1
  Tb  Tb11  1  0.50000000  0.81979225  0.35162525  1
  Cr  Cr12  1  0.00000000  0.00000000  0.50000000  1
  Cr  Cr13  1  0.50000000  0.50000000  0.00000000  1
  Cr  Cr14  1  0.00000000  0.00000000  0.00000000  1
  Cr  Cr15  1  0.50000000  0.50000000  0.50000000  1
  S  S16  1  -0.00000000  0.12098133  0.10671016  1
  S  S17  1  -0.00000000  0.87901867  0.89328984  1
  S  S18  1  0.50000000  0.37901867  0.60671016  1
  S  S19  1  0.50000000  0.62098133  0.39328984  1
  S  S20  1  -0.00000000  0.18713160  0.28944599  1
  S  S21  1  -0.00000000  0.81286840  0.71055401  1
  S  S22  1  0.50000000  0.31286840  0.78944599  1
  S  S23  1  0.50000000  0.68713160  0.21055401  1
  S  S24  1  -0.00000000  0.17939239  0.52136804  1
  S  S25  1  -0.00000000  0.82060761  0.47863196  1
  S  S26  1  0.50000000  0.32060761  0.02136804  1
  S  S27  1  0.50000000  0.67939239  0.97863196  1
  S  S28  1  0.00000000  0.52387431  0.09668299  1
  S  S29  1  0.00000000  0.47612569  0.90331701  1
  S  S30  1  0.50000000  0.97612569  0.59668299  1
  S  S31  1  0.50000000  0.02387431  0.40331701  1
  S  S32  1  -0.00000000  0.10333168  0.75442657  1
  S  S33  1  -0.00000000  0.89666832  0.24557343  1
  S  S34  1  0.50000000  0.39666832  0.25442657  1
  S  S35  1  0.50000000  0.60333168  0.74557343  1
  S  S36  1  -0.00000000  0.41738698  0.42560967  1
  S  S37  1  0.00000000  0.58261302  0.57439033  1
  S  S38  1  0.50000000  0.08261302  0.92560967  1
  S  S39  1  0.50000000  0.91738698  0.07439033  1
