# generated using pymatgen
data_Y5BiPd2
_symmetry_space_group_name_H-M   'P 1'
_cell_length_a   7.84349674
_cell_length_b   7.84349674
_cell_length_c   8.88538364
_cell_angle_alpha   116.19136896
_cell_angle_beta   116.19136896
_cell_angle_gamma   90.00000000
_symmetry_Int_Tables_number   1
_chemical_formula_structural   Y5BiPd2
_chemical_formula_sum   'Y10 Bi2 Pd4'
_cell_volume   427.06810418
_cell_formula_units_Z   2
loop_
 _symmetry_equiv_pos_site_id
 _symmetry_equiv_pos_as_xyz
  1  'x, y, z'
loop_
 _atom_site_type_symbol
 _atom_site_label
 _atom_site_symmetry_multiplicity
 _atom_site_fract_x
 _atom_site_fract_y
 _atom_site_fract_z
 _atom_site_occupancy
  Y  Y0  1  0.00000000  -0.00000000  -0.00000000  1
  Y  Y1  1  0.50000000  0.50000000  -0.00000000  1
  Y  Y2  1  0.29502065  0.79502065  0.28171089  1
  Y  Y3  1  0.70497935  0.20497935  0.71828911  1
  Y  Y4  1  0.98669024  0.48669024  0.28171089  1
  Y  Y5  1  0.48669024  0.29502065  0.28171089  1
  Y  Y6  1  0.20497935  0.01330976  0.71828911  1
  Y  Y7  1  0.01330976  0.51330976  0.71828911  1
  Y  Y8  1  0.51330976  0.70497935  0.71828911  1
  Y  Y9  1  0.79502065  0.98669024  0.28171089  1
  Bi  Bi10  1  0.25000000  0.25000000  0.50000000  1
  Bi  Bi11  1  0.75000000  0.75000000  0.50000000  1
  Pd  Pd12  1  0.63753001  0.13753001  1.00000000  1
  Pd  Pd13  1  0.36246999  0.86246999  0.00000000  1
  Pd  Pd14  1  0.86246999  0.63753001  -0.00000000  1
  Pd  Pd15  1  0.13753001  0.36246999  -0.00000000  1
