# generated using pymatgen
data_NaHoCl4
_symmetry_space_group_name_H-M   'P 1'
_cell_length_a   6.65548969
_cell_length_b   6.74533036
_cell_length_c   7.04204528
_cell_angle_alpha   89.27903910
_cell_angle_beta   87.74604814
_cell_angle_gamma   78.36107003
_symmetry_Int_Tables_number   1
_chemical_formula_structural   NaHoCl4
_chemical_formula_sum   'Na2 Ho2 Cl8'
_cell_volume   309.39846048
_cell_formula_units_Z   2
loop_
 _symmetry_equiv_pos_site_id
 _symmetry_equiv_pos_as_xyz
  1  'x, y, z'
loop_
 _atom_site_type_symbol
 _atom_site_label
 _atom_site_symmetry_multiplicity
 _atom_site_fract_x
 _atom_site_fract_y
 _atom_site_fract_z
 _atom_site_occupancy
  Na  Na0  1  0.23145315  0.19776853  0.53538107  1
  Na  Na1  1  0.76854685  0.80223147  0.46461893  1
  Ho  Ho2  1  0.78908687  0.29994122  0.05492112  1
  Ho  Ho3  1  0.21091313  0.70005878  0.94507888  1
  Cl  Cl4  1  0.61241265  0.20753255  0.36441116  1
  Cl  Cl5  1  0.38758735  0.79246745  0.63558884  1
  Cl  Cl6  1  0.09649056  0.00169235  0.20463964  1
  Cl  Cl7  1  0.90350944  0.99830765  0.79536036  1
  Cl  Cl8  1  0.04658731  0.50296880  0.24000322  1
  Cl  Cl9  1  0.95341269  0.49703120  0.75999678  1
  Cl  Cl10  1  0.56507522  0.68580650  0.11800346  1
  Cl  Cl11  1  0.43492478  0.31419350  0.88199654  1
