# generated using pymatgen
data_RbBi3Se5
_symmetry_space_group_name_H-M   'P 1'
_cell_length_a   4.22866199
_cell_length_b   22.24204515
_cell_length_c   12.59233254
_cell_angle_alpha   90.00000000
_cell_angle_beta   90.00000000
_cell_angle_gamma   90.00000000
_symmetry_Int_Tables_number   1
_chemical_formula_structural   RbBi3Se5
_chemical_formula_sum   'Rb4 Bi12 Se20'
_cell_volume   1184.36038943
_cell_formula_units_Z   4
loop_
 _symmetry_equiv_pos_site_id
 _symmetry_equiv_pos_as_xyz
  1  'x, y, z'
loop_
 _atom_site_type_symbol
 _atom_site_label
 _atom_site_symmetry_multiplicity
 _atom_site_fract_x
 _atom_site_fract_y
 _atom_site_fract_z
 _atom_site_occupancy
  Rb  Rb0  1  0.75000000  0.78779187  0.51078938  1
  Rb  Rb1  1  0.25000000  0.21220813  0.48921062  1
  Rb  Rb2  1  0.25000000  0.71220813  0.01078938  1
  Rb  Rb3  1  0.75000000  0.28779187  0.98921062  1
  Bi  Bi4  1  0.75000000  0.97509445  0.63592349  1
  Bi  Bi5  1  0.25000000  0.02490555  0.36407651  1
  Bi  Bi6  1  0.25000000  0.52490555  0.13592349  1
  Bi  Bi7  1  0.75000000  0.47509445  0.86407651  1
  Bi  Bi8  1  0.75000000  0.87149188  0.19555074  1
  Bi  Bi9  1  0.25000000  0.12850812  0.80444926  1
  Bi  Bi10  1  0.25000000  0.62850812  0.69555074  1
  Bi  Bi11  1  0.75000000  0.37149188  0.30444926  1
  Bi  Bi12  1  0.75000000  0.57661548  0.40578015  1
  Bi  Bi13  1  0.25000000  0.42338452  0.59421985  1
  Bi  Bi14  1  0.25000000  0.92338452  0.90578015  1
  Bi  Bi15  1  0.75000000  0.07661548  0.09421985  1
  Se  Se16  1  0.75000000  0.61415612  0.19313419  1
  Se  Se17  1  0.25000000  0.38584388  0.80686581  1
  Se  Se18  1  0.25000000  0.88584388  0.69313419  1
  Se  Se19  1  0.75000000  0.11415612  0.30686581  1
  Se  Se20  1  0.75000000  0.70550954  0.75179400  1
  Se  Se21  1  0.25000000  0.29449046  0.24820600  1
  Se  Se22  1  0.25000000  0.79449046  0.25179400  1
  Se  Se23  1  0.75000000  0.20550954  0.74820600  1
  Se  Se24  1  0.75000000  0.51977282  0.63859954  1
  Se  Se25  1  0.25000000  0.48022718  0.36140046  1
  Se  Se26  1  0.25000000  0.98022718  0.13859954  1
  Se  Se27  1  0.75000000  0.01977282  0.86140046  1
  Se  Se28  1  0.75000000  0.84014463  0.97316314  1
  Se  Se29  1  0.25000000  0.15985537  0.02683686  1
  Se  Se30  1  0.25000000  0.65985537  0.47316314  1
  Se  Se31  1  0.75000000  0.34014463  0.52683686  1
  Se  Se32  1  0.75000000  0.93578433  0.41498897  1
  Se  Se33  1  0.25000000  0.06421567  0.58501103  1
  Se  Se34  1  0.25000000  0.56421567  0.91498897  1
  Se  Se35  1  0.75000000  0.43578433  0.08501103  1
