# generated using pymatgen
data_Pr3IrI3
_symmetry_space_group_name_H-M   'P 1'
_cell_length_a   10.92691643
_cell_length_b   10.92691643
_cell_length_c   10.92691643
_cell_angle_alpha   109.47122063
_cell_angle_beta   109.47122063
_cell_angle_gamma   109.47122063
_symmetry_Int_Tables_number   1
_chemical_formula_structural   Pr3IrI3
_chemical_formula_sum   'Pr12 Ir4 I12'
_cell_volume   1004.31736875
_cell_formula_units_Z   4
loop_
 _symmetry_equiv_pos_site_id
 _symmetry_equiv_pos_as_xyz
  1  'x, y, z'
loop_
 _atom_site_type_symbol
 _atom_site_label
 _atom_site_symmetry_multiplicity
 _atom_site_fract_x
 _atom_site_fract_y
 _atom_site_fract_z
 _atom_site_occupancy
  Pr  Pr0  1  0.77156239  0.52156239  0.54312478  1
  Pr  Pr1  1  0.72843761  0.77156239  0.25000000  1
  Pr  Pr2  1  0.52156239  0.97843761  0.25000000  1
  Pr  Pr3  1  0.52156239  0.54312478  0.77156239  1
  Pr  Pr4  1  0.77156239  0.25000000  0.72843761  1
  Pr  Pr5  1  0.97843761  0.72843761  0.95687522  1
  Pr  Pr6  1  0.72843761  0.95687522  0.97843761  1
  Pr  Pr7  1  0.97843761  0.25000000  0.52156239  1
  Pr  Pr8  1  0.54312478  0.77156239  0.52156239  1
  Pr  Pr9  1  0.25000000  0.52156239  0.97843761  1
  Pr  Pr10  1  0.95687522  0.97843761  0.72843761  1
  Pr  Pr11  1  0.25000000  0.72843761  0.77156239  1
  Ir  Ir12  1  0.75000000  0.75000000  0.75000000  1
  Ir  Ir13  1  0.75000000  0.00000000  0.50000000  1
  Ir  Ir14  1  0.50000000  0.75000000  0.00000000  1
  Ir  Ir15  1  0.00000000  0.50000000  0.75000000  1
  I  I16  1  0.25921054  0.24078946  0.75000000  1
  I  I17  1  0.24078946  0.49078946  0.48157892  1
  I  I18  1  0.00921054  0.25921054  0.01842108  1
  I  I19  1  0.24078946  0.75000000  0.25921054  1
  I  I20  1  0.25921054  0.01842108  0.00921054  1
  I  I21  1  0.49078946  0.00921054  0.75000000  1
  I  I22  1  0.49078946  0.48157892  0.24078946  1
  I  I23  1  0.00921054  0.75000000  0.49078946  1
  I  I24  1  0.75000000  0.25921054  0.24078946  1
  I  I25  1  0.01842108  0.00921054  0.25921054  1
  I  I26  1  0.75000000  0.49078946  0.00921054  1
  I  I27  1  0.48157892  0.24078946  0.49078946  1
