# generated using pymatgen
data_Sc2TlCu3Se5
_symmetry_space_group_name_H-M   'P 1'
_cell_length_a   3.98251091
_cell_length_b   7.44609454
_cell_length_c   16.38487475
_cell_angle_alpha   90.00000000
_cell_angle_beta   90.00000000
_cell_angle_gamma   105.51096581
_symmetry_Int_Tables_number   1
_chemical_formula_structural   Sc2TlCu3Se5
_chemical_formula_sum   'Sc4 Tl2 Cu6 Se10'
_cell_volume   468.18349862
_cell_formula_units_Z   2
loop_
 _symmetry_equiv_pos_site_id
 _symmetry_equiv_pos_as_xyz
  1  'x, y, z'
loop_
 _atom_site_type_symbol
 _atom_site_label
 _atom_site_symmetry_multiplicity
 _atom_site_fract_x
 _atom_site_fract_y
 _atom_site_fract_z
 _atom_site_occupancy
  Sc  Sc0  1  0.30806456  0.61612912  0.59399219  1
  Sc  Sc1  1  0.69193544  0.38387088  0.40600781  1
  Sc  Sc2  1  0.69193544  0.38387088  0.09399219  1
  Sc  Sc3  1  0.30806456  0.61612912  0.90600781  1
  Tl  Tl4  1  0.43516468  0.87032936  0.25000000  1
  Tl  Tl5  1  0.56483532  0.12967064  0.75000000  1
  Cu  Cu6  1  0.08259374  0.16518748  0.53585007  1
  Cu  Cu7  1  0.91740626  0.83481252  0.46414993  1
  Cu  Cu8  1  0.91740626  0.83481252  0.03585007  1
  Cu  Cu9  1  0.08259374  0.16518748  0.96414993  1
  Cu  Cu10  1  0.15268702  0.30537403  0.25000000  1
  Cu  Cu11  1  0.84731298  0.69462597  0.75000000  1
  Se  Se12  1  0.75049665  0.50099329  0.25000000  1
  Se  Se13  1  0.24950335  0.49900671  0.75000000  1
  Se  Se14  1  0.06348329  0.12696658  0.11705296  1
  Se  Se15  1  0.93651671  0.87303342  0.88294704  1
  Se  Se16  1  0.93651671  0.87303342  0.61705296  1
  Se  Se17  1  0.06348329  0.12696658  0.38294704  1
  Se  Se18  1  0.32590221  0.65180442  0.07086739  1
  Se  Se19  1  0.67409779  0.34819558  0.92913261  1
  Se  Se20  1  0.67409779  0.34819558  0.57086739  1
  Se  Se21  1  0.32590221  0.65180442  0.42913261  1
