# generated using pymatgen
data_NdIn2Pd
_symmetry_space_group_name_H-M   'P 1'
_cell_length_a   9.34136188
_cell_length_b   11.06213716
_cell_length_c   11.06213716
_cell_angle_alpha   79.73089231
_cell_angle_beta   65.02502707
_cell_angle_gamma   65.02502707
_symmetry_Int_Tables_number   1
_chemical_formula_structural   NdIn2Pd
_chemical_formula_sum   'Nd10 In20 Pd10'
_cell_volume   939.32637277
_cell_formula_units_Z   10
loop_
 _symmetry_equiv_pos_site_id
 _symmetry_equiv_pos_as_xyz
  1  'x, y, z'
loop_
 _atom_site_type_symbol
 _atom_site_label
 _atom_site_symmetry_multiplicity
 _atom_site_fract_x
 _atom_site_fract_y
 _atom_site_fract_z
 _atom_site_occupancy
  Nd  Nd0  1  0.66970631  0.71856137  0.71856137  1
  Nd  Nd1  1  0.10682904  0.28143863  0.28143863  1
  Nd  Nd2  1  0.38826768  0.28143863  0.71856137  1
  Nd  Nd3  1  0.38826768  0.71856137  0.28143863  1
  Nd  Nd4  1  0.67419374  1.00000000  0.40371034  1
  Nd  Nd5  1  0.07790407  1.00000000  0.59628966  1
  Nd  Nd6  1  0.07790407  0.59628966  1.00000000  1
  Nd  Nd7  1  0.67419374  0.40371034  1.00000000  1
  Nd  Nd8  1  0.46313408  1.00000000  1.00000000  1
  Nd  Nd9  1  0.99510004  0.00000000  0.00000000  1
  In  In10  1  0.26577061  0.21010949  0.50780902  1
  In  In11  1  0.98368912  0.78989051  0.49219098  1
  In  In12  1  0.77357963  0.49219098  0.21010949  1
  In  In13  1  0.26577061  0.50780902  0.21010949  1
  In  In14  1  0.47588010  0.50780902  0.78989051  1
  In  In15  1  0.98368912  0.49219098  0.78989051  1
  In  In16  1  0.77357963  0.21010949  0.49219098  1
  In  In17  1  0.47588010  0.78989051  0.50780902  1
  In  In18  1  0.24623881  0.61814707  0.61814707  1
  In  In19  1  0.48253296  0.38185293  0.38185293  1
  In  In20  1  0.86438589  0.38185293  0.61814707  1
  In  In21  1  0.86438589  0.61814707  0.38185293  1
  In  In22  1  0.35590914  0.00000000  0.73347847  1
  In  In23  1  0.08938761  0.00000000  0.26652153  1
  In  In24  1  0.08938761  0.26652153  0.00000000  1
  In  In25  1  0.35590914  0.73347847  0.00000000  1
  In  In26  1  0.88332599  0.83667251  0.83667251  1
  In  In27  1  0.55667102  0.16332749  0.16332749  1
  In  In28  1  0.71999851  0.16332749  0.83667251  1
  In  In29  1  0.71999851  0.83667251  0.16332749  1
  Pd  Pd30  1  0.11593635  0.50000000  0.50000000  1
  Pd  Pd31  1  0.61593635  0.50000000  0.50000000  1
  Pd  Pd32  1  0.37608521  1.00000000  0.31917927  1
  Pd  Pd33  1  0.69526447  1.00000000  0.68082073  1
  Pd  Pd34  1  0.69526447  0.68082073  1.00000000  1
  Pd  Pd35  1  0.37608521  0.31917927  1.00000000  1
  Pd  Pd36  1  0.24506398  0.78420039  0.78420039  1
  Pd  Pd37  1  0.81346477  0.21579961  0.21579961  1
  Pd  Pd38  1  0.02926437  0.21579961  0.78420039  1
  Pd  Pd39  1  0.02926437  0.78420039  0.21579961  1
