# generated using pymatgen
data_Nd4CdPt
_symmetry_space_group_name_H-M   'P 1'
_cell_length_a   10.02155702
_cell_length_b   10.02155702
_cell_length_c   10.02155702
_cell_angle_alpha   60.00000000
_cell_angle_beta   60.00000000
_cell_angle_gamma   60.00000000
_symmetry_Int_Tables_number   1
_chemical_formula_structural   Nd4CdPt
_chemical_formula_sum   'Nd16 Cd4 Pt4'
_cell_volume   711.68958160
_cell_formula_units_Z   4
loop_
 _symmetry_equiv_pos_site_id
 _symmetry_equiv_pos_as_xyz
  1  'x, y, z'
loop_
 _atom_site_type_symbol
 _atom_site_label
 _atom_site_symmetry_multiplicity
 _atom_site_fract_x
 _atom_site_fract_y
 _atom_site_fract_z
 _atom_site_occupancy
  Nd  Nd0  1  0.65084916  0.65084916  0.65084916  1
  Nd  Nd1  1  0.04745252  0.65084916  0.65084916  1
  Nd  Nd2  1  0.65084916  0.04745252  0.65084916  1
  Nd  Nd3  1  0.65084916  0.65084916  0.04745252  1
  Nd  Nd4  1  0.80836794  0.80836794  0.19163206  1
  Nd  Nd5  1  0.19163206  0.19163206  0.80836794  1
  Nd  Nd6  1  0.80836794  0.19163206  0.80836794  1
  Nd  Nd7  1  0.19163206  0.80836794  0.19163206  1
  Nd  Nd8  1  0.19163206  0.80836794  0.80836794  1
  Nd  Nd9  1  0.80836794  0.19163206  0.19163206  1
  Nd  Nd10  1  0.43455125  0.43455125  0.06544875  1
  Nd  Nd11  1  0.06544875  0.06544875  0.43455125  1
  Nd  Nd12  1  0.43455125  0.06544875  0.43455125  1
  Nd  Nd13  1  0.06544875  0.43455125  0.06544875  1
  Nd  Nd14  1  0.06544875  0.43455125  0.43455125  1
  Nd  Nd15  1  0.43455125  0.06544875  0.06544875  1
  Cd  Cd16  1  0.41962747  0.41962747  0.41962747  1
  Cd  Cd17  1  0.74111760  0.41962747  0.41962747  1
  Cd  Cd18  1  0.41962747  0.74111760  0.41962747  1
  Cd  Cd19  1  0.41962747  0.41962747  0.74111760  1
  Pt  Pt20  1  0.85767808  0.85767808  0.85767808  1
  Pt  Pt21  1  0.42696577  0.85767808  0.85767808  1
  Pt  Pt22  1  0.85767808  0.42696577  0.85767808  1
  Pt  Pt23  1  0.85767808  0.85767808  0.42696577  1
