# generated using pymatgen
data_RbNbCl6
_symmetry_space_group_name_H-M   'P 1'
_cell_length_a   6.53415849
_cell_length_b   7.02721723
_cell_length_c   12.62970858
_cell_angle_alpha   100.72579219
_cell_angle_beta   90.00000000
_cell_angle_gamma   117.70491039
_symmetry_Int_Tables_number   1
_chemical_formula_structural   RbNbCl6
_chemical_formula_sum   'Rb2 Nb2 Cl12'
_cell_volume   501.96050122
_cell_formula_units_Z   2
loop_
 _symmetry_equiv_pos_site_id
 _symmetry_equiv_pos_as_xyz
  1  'x, y, z'
loop_
 _atom_site_type_symbol
 _atom_site_label
 _atom_site_symmetry_multiplicity
 _atom_site_fract_x
 _atom_site_fract_y
 _atom_site_fract_z
 _atom_site_occupancy
  Rb  Rb0  1  0.88120547  -0.00000000  0.75000000  1
  Rb  Rb1  1  0.11879453  0.00000000  0.25000000  1
  Nb  Nb2  1  0.50000000  0.50000000  -0.00000000  1
  Nb  Nb3  1  0.00000000  0.50000000  0.50000000  1
  Cl  Cl4  1  0.46333745  0.16445618  0.89704510  1
  Cl  Cl5  1  0.53666255  0.83554382  0.10295490  1
  Cl  Cl6  1  0.29888127  0.83554382  0.60295490  1
  Cl  Cl7  1  0.70111873  0.16445618  0.39704510  1
  Cl  Cl8  1  0.37096792  0.57073796  0.84220464  1
  Cl  Cl9  1  0.62903208  0.42926204  0.15779536  1
  Cl  Cl10  1  0.80022996  0.42926204  0.65779536  1
  Cl  Cl11  1  0.19977004  0.57073796  0.34220464  1
  Cl  Cl12  1  0.79585023  0.68844019  0.46001611  1
  Cl  Cl13  1  0.20414977  0.31155981  0.53998389  1
  Cl  Cl14  1  0.10741005  0.31155981  0.03998389  1
  Cl  Cl15  1  0.89258995  0.68844019  0.96001611  1
