# generated using pymatgen
data_Rb3Sb2I9
_symmetry_space_group_name_H-M   'P 1'
_cell_length_a   8.42643173
_cell_length_b   15.03050895
_cell_length_c   21.13849180
_cell_angle_alpha   88.92221149
_cell_angle_beta   90.00000000
_cell_angle_gamma   90.00000000
_symmetry_Int_Tables_number   1
_chemical_formula_structural   Rb3Sb2I9
_chemical_formula_sum   'Rb12 Sb8 I36'
_cell_volume   2676.79152356
_cell_formula_units_Z   4
loop_
 _symmetry_equiv_pos_site_id
 _symmetry_equiv_pos_as_xyz
  1  'x, y, z'
loop_
 _atom_site_type_symbol
 _atom_site_label
 _atom_site_symmetry_multiplicity
 _atom_site_fract_x
 _atom_site_fract_y
 _atom_site_fract_z
 _atom_site_occupancy
  Rb  Rb0  1  0.26249789  0.36220734  0.63442967  1
  Rb  Rb1  1  0.73750211  0.86220734  0.13442967  1
  Rb  Rb2  1  0.78678585  0.90108693  0.68053415  1
  Rb  Rb3  1  0.21321415  0.40108693  0.18053415  1
  Rb  Rb4  1  0.72414196  0.51756914  0.79646402  1
  Rb  Rb5  1  0.27585804  0.01756914  0.29646402  1
  Rb  Rb6  1  0.77155907  0.58033577  0.34916324  1
  Rb  Rb7  1  0.22844093  0.08033577  0.84916324  1
  Rb  Rb8  1  0.76002887  0.23188743  0.00709444  1
  Rb  Rb9  1  0.23997113  0.73188743  0.50709444  1
  Rb  Rb10  1  0.72375858  0.19531621  0.46517728  1
  Rb  Rb11  1  0.27624142  0.69531621  0.96517728  1
  Sb  Sb12  1  0.75552868  0.88109216  0.90987510  1
  Sb  Sb13  1  0.24447132  0.38109216  0.40987510  1
  Sb  Sb14  1  0.74307794  0.88780386  0.41362361  1
  Sb  Sb15  1  0.25692206  0.38780386  0.91362361  1
  Sb  Sb16  1  0.26011614  0.71682044  0.72993689  1
  Sb  Sb17  1  0.73988386  0.21682044  0.22993689  1
  Sb  Sb18  1  0.75328534  0.21661960  0.73028027  1
  Sb  Sb19  1  0.24671466  0.71661960  0.23028027  1
  I  I20  1  0.56856032  0.75178104  0.81572357  1
  I  I21  1  0.43143968  0.25178104  0.31572357  1
  I  I22  1  0.94854482  0.29254392  0.85126539  1
  I  I23  1  0.05145518  0.79254392  0.35126539  1
  I  I24  1  0.55112473  0.14380607  0.63240151  1
  I  I25  1  0.44887527  0.64380607  0.13240151  1
  I  I26  1  0.96207335  0.63055638  0.18277735  1
  I  I27  1  0.03792665  0.13055638  0.68277735  1
  I  I28  1  0.82091419  0.72470589  0.98832190  1
  I  I29  1  0.17908581  0.22470589  0.48832190  1
  I  I30  1  0.54373130  0.47515403  0.95813117  1
  I  I31  1  0.45626870  0.97515403  0.45813117  1
  I  I32  1  0.33302299  0.87106016  0.65094255  1
  I  I33  1  0.66697701  0.37106016  0.15094255  1
  I  I34  1  0.94515361  0.99647036  0.99048187  1
  I  I35  1  0.05484639  0.49647036  0.49048187  1
  I  I36  1  0.67098823  0.04677185  0.81760583  1
  I  I37  1  0.32901177  0.54677185  0.31760583  1
  I  I38  1  0.83237411  0.05533607  0.32517322  1
  I  I39  1  0.16762589  0.55533607  0.82517322  1
  I  I40  1  0.45354305  0.59806911  0.65382046  1
  I  I41  1  0.54645695  0.09806911  0.15382046  1
  I  I42  1  0.68758263  0.72717137  0.48992862  1
  I  I43  1  0.31241737  0.22717137  0.98992862  1
  I  I44  1  0.44374843  0.30675963  0.79347763  1
  I  I45  1  0.55625157  0.80675963  0.29347763  1
  I  I46  1  0.46658507  0.92150917  0.98026247  1
  I  I47  1  0.53341493  0.42150917  0.48026247  1
  I  I48  1  0.97643131  0.67620483  0.65649111  1
  I  I49  1  0.02356869  0.17620483  0.15649111  1
  I  I50  1  0.93147297  0.34764653  0.32422256  1
  I  I51  1  0.06852703  0.84764653  0.82422256  1
  I  I52  1  0.80954113  0.37869857  0.65540622  1
  I  I53  1  0.19045887  0.87869857  0.15540622  1
  I  I54  1  0.93754408  0.96431612  0.51258790  1
  I  I55  1  0.06245592  0.46431612  0.01258790  1
