# generated using pymatgen
data_Ho6Al43V4
_symmetry_space_group_name_H-M   'P 1'
_cell_length_a   10.99906851
_cell_length_b   10.99906851
_cell_length_c   17.56453402
_cell_angle_alpha   90.00000000
_cell_angle_beta   90.00000000
_cell_angle_gamma   120.00000379
_symmetry_Int_Tables_number   1
_chemical_formula_structural   Ho6Al43V4
_chemical_formula_sum   'Ho12 Al86 V8'
_cell_volume   1840.25947323
_cell_formula_units_Z   2
loop_
 _symmetry_equiv_pos_site_id
 _symmetry_equiv_pos_as_xyz
  1  'x, y, z'
loop_
 _atom_site_type_symbol
 _atom_site_label
 _atom_site_symmetry_multiplicity
 _atom_site_fract_x
 _atom_site_fract_y
 _atom_site_fract_z
 _atom_site_occupancy
  Ho  Ho0  1  0.46967922  0.46967922  0.90411685  1
  Ho  Ho1  1  0.53032078  0.53032078  0.09588315  1
  Ho  Ho2  1  0.00000000  0.53032078  0.90411685  1
  Ho  Ho3  1  0.53032078  0.53032078  0.40411685  1
  Ho  Ho4  1  0.00000000  0.53032078  0.59588315  1
  Ho  Ho5  1  1.00000000  0.46967922  0.09588315  1
  Ho  Ho6  1  0.46967922  0.46967922  0.59588315  1
  Ho  Ho7  1  1.00000000  0.46967922  0.40411685  1
  Ho  Ho8  1  0.53032078  0.00000000  0.90411685  1
  Ho  Ho9  1  0.46967922  1.00000000  0.09588315  1
  Ho  Ho10  1  0.46967922  1.00000000  0.40411685  1
  Ho  Ho11  1  0.53032078  0.00000000  0.59588315  1
  Al  Al12  1  0.85400289  0.45162359  0.75000000  1
  Al  Al13  1  0.14599711  0.54837641  0.25000000  1
  Al  Al14  1  0.59762070  0.14599711  0.75000000  1
  Al  Al15  1  0.40237930  0.54837641  0.75000000  1
  Al  Al16  1  0.40237930  0.85400289  0.25000000  1
  Al  Al17  1  0.59762070  0.45162359  0.25000000  1
  Al  Al18  1  0.54837641  0.40237930  0.75000000  1
  Al  Al19  1  0.45162359  0.85400289  0.75000000  1
  Al  Al20  1  0.45162359  0.59762070  0.25000000  1
  Al  Al21  1  0.54837641  0.14599711  0.25000000  1
  Al  Al22  1  0.14599711  0.59762070  0.75000000  1
  Al  Al23  1  0.85400289  0.40237930  0.25000000  1
  Al  Al24  1  0.84409741  0.84409741  0.38436474  1
  Al  Al25  1  0.15590259  0.15590259  0.61563526  1
  Al  Al26  1  1.00000000  0.15590259  0.38436474  1
  Al  Al27  1  0.15590259  0.15590259  0.88436474  1
  Al  Al28  1  1.00000000  0.15590259  0.11563526  1
  Al  Al29  1  0.00000000  0.84409741  0.61563526  1
  Al  Al30  1  0.84409741  0.84409741  0.11563526  1
  Al  Al31  1  0.00000000  0.84409741  0.88436474  1
  Al  Al32  1  0.15590259  1.00000000  0.38436474  1
  Al  Al33  1  0.84409741  0.00000000  0.61563526  1
  Al  Al34  1  0.84409741  0.00000000  0.88436474  1
  Al  Al35  1  0.15590259  1.00000000  0.11563526  1
  Al  Al36  1  0.75292351  0.24707649  -0.00000000  1
  Al  Al37  1  0.24707649  0.75292351  -0.00000000  1
  Al  Al38  1  0.49415297  0.24707649  -0.00000000  1
  Al  Al39  1  0.24707649  0.75292351  0.50000000  1
  Al  Al40  1  0.50584703  0.75292351  0.50000000  1
  Al  Al41  1  0.50584703  0.75292351  -0.00000000  1
  Al  Al42  1  0.75292351  0.24707649  0.50000000  1
  Al  Al43  1  0.49415297  0.24707649  0.50000000  1
  Al  Al44  1  0.75292351  0.50584703  -0.00000000  1
  Al  Al45  1  0.24707649  0.49415297  -0.00000000  1
  Al  Al46  1  0.24707649  0.49415297  0.50000000  1
  Al  Al47  1  0.75292351  0.50584703  0.50000000  1
  Al  Al48  1  0.85453777  0.85453777  0.75000000  1
  Al  Al49  1  0.14546223  0.14546223  0.25000000  1
  Al  Al50  1  1.00000000  0.14546223  0.75000000  1
  Al  Al51  1  0.00000000  0.85453777  0.25000000  1
  Al  Al52  1  0.14546223  1.00000000  0.75000000  1
  Al  Al53  1  0.85453777  0.00000000  0.25000000  1
  Al  Al54  1  0.66666700  0.33333300  0.87267543  1
  Al  Al55  1  0.33333300  0.66666700  0.12732457  1
  Al  Al56  1  0.33333300  0.66666700  0.37267543  1
  Al  Al57  1  0.33333300  0.66666700  0.62732457  1
  Al  Al58  1  0.66666700  0.33333300  0.62732457  1
  Al  Al59  1  0.66666700  0.33333300  0.37267543  1
  Al  Al60  1  0.66666700  0.33333300  0.12732457  1
  Al  Al61  1  0.33333300  0.66666700  0.87267543  1
  Al  Al62  1  0.74703835  0.74703835  0.97025946  1
  Al  Al63  1  0.25296165  0.25296165  0.02974054  1
  Al  Al64  1  1.00000000  0.25296165  0.97025946  1
  Al  Al65  1  0.25296165  0.25296165  0.47025946  1
  Al  Al66  1  1.00000000  0.25296165  0.52974054  1
  Al  Al67  1  0.00000000  0.74703835  0.02974054  1
  Al  Al68  1  0.74703835  0.74703835  0.52974054  1
  Al  Al69  1  0.00000000  0.74703835  0.47025946  1
  Al  Al70  1  0.25296165  1.00000000  0.97025946  1
  Al  Al71  1  0.74703835  0.00000000  0.02974054  1
  Al  Al72  1  0.74703835  0.00000000  0.47025946  1
  Al  Al73  1  0.25296165  1.00000000  0.52974054  1
  Al  Al74  1  0.84285785  0.23453557  0.83443904  1
  Al  Al75  1  0.15714215  0.76546443  0.16556096  1
  Al  Al76  1  0.39167772  0.15714215  0.83443904  1
  Al  Al77  1  0.15714215  0.76546443  0.33443904  1
  Al  Al78  1  0.60832228  0.76546443  0.66556096  1
  Al  Al79  1  0.60832228  0.84285785  0.16556096  1
  Al  Al80  1  0.84285785  0.23453557  0.66556096  1
  Al  Al81  1  0.39167772  0.23453557  0.33443904  1
  Al  Al82  1  0.76546443  0.60832228  0.83443904  1
  Al  Al83  1  0.60832228  0.84285785  0.33443904  1
  Al  Al84  1  0.23453557  0.84285785  0.66556096  1
  Al  Al85  1  0.23453557  0.39167772  0.16556096  1
  Al  Al86  1  0.39167772  0.15714215  0.66556096  1
  Al  Al87  1  0.76546443  0.15714215  0.33443904  1
  Al  Al88  1  0.39167772  0.23453557  0.16556096  1
  Al  Al89  1  0.60832228  0.76546443  0.83443904  1
  Al  Al90  1  0.23453557  0.39167772  0.33443904  1
  Al  Al91  1  0.76546443  0.15714215  0.16556096  1
  Al  Al92  1  0.76546443  0.60832228  0.66556096  1
  Al  Al93  1  0.23453557  0.84285785  0.83443904  1
  Al  Al94  1  0.15714215  0.39167772  0.66556096  1
  Al  Al95  1  0.84285785  0.60832228  0.33443904  1
  Al  Al96  1  0.84285785  0.60832228  0.16556096  1
  Al  Al97  1  0.15714215  0.39167772  0.83443904  1
  V  V98  1  0.00000000  0.00000000  -0.00000000  1
  V  V99  1  0.00000000  0.00000000  0.50000000  1
  V  V100  1  0.26981875  0.26981875  0.75000000  1
  V  V101  1  0.73018125  0.73018125  0.25000000  1
  V  V102  1  1.00000000  0.73018125  0.75000000  1
  V  V103  1  0.00000000  0.26981875  0.25000000  1
  V  V104  1  0.73018125  1.00000000  0.75000000  1
  V  V105  1  0.26981875  0.00000000  0.25000000  1
