# generated using pymatgen
data_HfTe7SeCl6
_symmetry_space_group_name_H-M   'P 1'
_cell_length_a   11.70991742
_cell_length_b   11.99101901
_cell_length_c   15.66532256
_cell_angle_alpha   90.00000000
_cell_angle_beta   110.37728029
_cell_angle_gamma   90.00000000
_symmetry_Int_Tables_number   1
_chemical_formula_structural   HfTe7SeCl6
_chemical_formula_sum   'Hf4 Te28 Se4 Cl24'
_cell_volume   2061.97570468
_cell_formula_units_Z   4
loop_
 _symmetry_equiv_pos_site_id
 _symmetry_equiv_pos_as_xyz
  1  'x, y, z'
loop_
 _atom_site_type_symbol
 _atom_site_label
 _atom_site_symmetry_multiplicity
 _atom_site_fract_x
 _atom_site_fract_y
 _atom_site_fract_z
 _atom_site_occupancy
  Hf  Hf0  1  0.20571354  0.28422769  0.09820265  1
  Hf  Hf1  1  0.79428646  0.71577231  0.90179735  1
  Hf  Hf2  1  0.79428646  0.78422769  0.40179735  1
  Hf  Hf3  1  0.20571354  0.21577231  0.59820265  1
  Te  Te4  1  0.62091670  0.36627609  0.23110924  1
  Te  Te5  1  0.37908330  0.63372391  0.76889076  1
  Te  Te6  1  0.37908330  0.86627609  0.26889076  1
  Te  Te7  1  0.62091670  0.13372391  0.73110924  1
  Te  Te8  1  0.15422964  0.78521125  0.16349844  1
  Te  Te9  1  0.84577036  0.21478875  0.83650156  1
  Te  Te10  1  0.84577036  0.28521125  0.33650156  1
  Te  Te11  1  0.15422964  0.71478875  0.66349844  1
  Te  Te12  1  0.80318482  0.35183911  0.04998203  1
  Te  Te13  1  0.19681518  0.64816089  0.95001797  1
  Te  Te14  1  0.19681518  0.85183911  0.45001797  1
  Te  Te15  1  0.80318482  0.14816089  0.54998203  1
  Te  Te16  1  0.35306586  0.56248357  0.53739249  1
  Te  Te17  1  0.64693414  0.43751643  0.46260751  1
  Te  Te18  1  0.64693414  0.06248357  0.96260751  1
  Te  Te19  1  0.35306586  0.93751643  0.03739249  1
  Te  Te20  1  0.65399087  0.04924597  0.14133475  1
  Te  Te21  1  0.34600913  0.95075403  0.85866525  1
  Te  Te22  1  0.34600913  0.54924597  0.35866525  1
  Te  Te23  1  0.65399087  0.45075403  0.64133475  1
  Te  Te24  1  0.12421171  0.66070908  0.30315272  1
  Te  Te25  1  0.87578829  0.33929092  0.69684728  1
  Te  Te26  1  0.87578829  0.16070908  0.19684728  1
  Te  Te27  1  0.12421171  0.83929092  0.80315272  1
  Te  Te28  1  0.26885766  0.01401717  0.35096856  1
  Te  Te29  1  0.73114234  0.98598283  0.64903144  1
  Te  Te30  1  0.73114234  0.51401717  0.14903144  1
  Te  Te31  1  0.26885766  0.48598283  0.85096856  1
  Se  Se32  1  0.59283321  0.22866372  0.46459508  1
  Se  Se33  1  0.40716679  0.77133628  0.53540492  1
  Se  Se34  1  0.40716679  0.72866372  0.03540492  1
  Se  Se35  1  0.59283321  0.27133628  0.96459508  1
  Cl  Cl36  1  0.08762955  0.35968953  0.18960485  1
  Cl  Cl37  1  0.91237045  0.64031047  0.81039515  1
  Cl  Cl38  1  0.91237045  0.85968953  0.31039515  1
  Cl  Cl39  1  0.08762955  0.14031047  0.68960485  1
  Cl  Cl40  1  0.07168655  0.11816223  0.45985587  1
  Cl  Cl41  1  0.92831345  0.88183777  0.54014413  1
  Cl  Cl42  1  0.92831345  0.61816223  0.04014413  1
  Cl  Cl43  1  0.07168655  0.38183777  0.95985587  1
  Cl  Cl44  1  0.31289819  0.29470128  0.50305605  1
  Cl  Cl45  1  0.68710181  0.70529872  0.49694395  1
  Cl  Cl46  1  0.68710181  0.79470128  0.99694395  1
  Cl  Cl47  1  0.31289819  0.20529872  0.00305605  1
  Cl  Cl48  1  0.33343595  0.45568960  0.13346592  1
  Cl  Cl49  1  0.66656405  0.54431040  0.86653408  1
  Cl  Cl50  1  0.66656405  0.95568960  0.36653408  1
  Cl  Cl51  1  0.33343595  0.04431040  0.63346592  1
  Cl  Cl52  1  0.07268016  0.12254171  0.06825869  1
  Cl  Cl53  1  0.92731984  0.87745829  0.93174131  1
  Cl  Cl54  1  0.92731984  0.62254171  0.43174131  1
  Cl  Cl55  1  0.07268016  0.37745829  0.56825869  1
  Cl  Cl56  1  0.35606447  0.19752215  0.23329604  1
  Cl  Cl57  1  0.64393553  0.80247785  0.76670396  1
  Cl  Cl58  1  0.64393553  0.69752215  0.26670396  1
  Cl  Cl59  1  0.35606447  0.30247785  0.73329604  1
