# generated using pymatgen
data_Ho3(Al3Os)4
_symmetry_space_group_name_H-M   'P 1'
_cell_length_a   8.83353367
_cell_length_b   8.83353367
_cell_length_c   9.56594408
_cell_angle_alpha   90.00000000
_cell_angle_beta   90.00000000
_cell_angle_gamma   119.99999661
_symmetry_Int_Tables_number   1
_chemical_formula_structural   Ho3(Al3Os)4
_chemical_formula_sum   'Ho6 Al24 Os8'
_cell_volume   646.43880907
_cell_formula_units_Z   2
loop_
 _symmetry_equiv_pos_site_id
 _symmetry_equiv_pos_as_xyz
  1  'x, y, z'
loop_
 _atom_site_type_symbol
 _atom_site_label
 _atom_site_symmetry_multiplicity
 _atom_site_fract_x
 _atom_site_fract_y
 _atom_site_fract_z
 _atom_site_occupancy
  Ho  Ho0  1  0.80669475  0.19330525  0.75000000  1
  Ho  Ho1  1  0.19330525  0.80669475  0.25000000  1
  Ho  Ho2  1  0.38661050  0.19330525  0.75000000  1
  Ho  Ho3  1  0.61338950  0.80669475  0.25000000  1
  Ho  Ho4  1  0.80669475  0.61338950  0.75000000  1
  Ho  Ho5  1  0.19330525  0.38661050  0.25000000  1
  Al  Al6  1  0.66666700  0.33333300  0.98448464  1
  Al  Al7  1  0.33333300  0.66666700  0.01551536  1
  Al  Al8  1  0.33333300  0.66666700  0.48448464  1
  Al  Al9  1  0.66666700  0.33333300  0.51551536  1
  Al  Al10  1  0.83730181  0.16269819  0.42375447  1
  Al  Al11  1  0.16269819  0.83730181  0.57624553  1
  Al  Al12  1  0.32539639  0.16269819  0.42375447  1
  Al  Al13  1  0.16269819  0.83730181  0.92375447  1
  Al  Al14  1  0.67460361  0.83730181  0.57624553  1
  Al  Al15  1  0.83730181  0.16269819  0.07624553  1
  Al  Al16  1  0.83730181  0.67460361  0.42375447  1
  Al  Al17  1  0.67460361  0.83730181  0.92375447  1
  Al  Al18  1  0.16269819  0.32539639  0.57624553  1
  Al  Al19  1  0.32539639  0.16269819  0.07624553  1
  Al  Al20  1  0.16269819  0.32539639  0.92375447  1
  Al  Al21  1  0.83730181  0.67460361  0.07624553  1
  Al  Al22  1  0.44011665  0.55988335  0.75000000  1
  Al  Al23  1  0.55988335  0.44011665  0.25000000  1
  Al  Al24  1  0.11976670  0.55988335  0.75000000  1
  Al  Al25  1  0.88023330  0.44011665  0.25000000  1
  Al  Al26  1  0.44011665  0.88023330  0.75000000  1
  Al  Al27  1  0.55988335  0.11976670  0.25000000  1
  Al  Al28  1  -0.00000000  -0.00000000  0.75000000  1
  Al  Al29  1  -0.00000000  -0.00000000  0.25000000  1
  Os  Os30  1  0.50000000  0.50000000  -0.00000000  1
  Os  Os31  1  -0.00000000  0.50000000  -0.00000000  1
  Os  Os32  1  0.50000000  0.50000000  0.50000000  1
  Os  Os33  1  0.50000000  -0.00000000  -0.00000000  1
  Os  Os34  1  -0.00000000  0.50000000  0.50000000  1
  Os  Os35  1  0.50000000  -0.00000000  0.50000000  1
  Os  Os36  1  -0.00000000  -0.00000000  -0.00000000  1
  Os  Os37  1  -0.00000000  -0.00000000  0.50000000  1
