# generated using pymatgen
data_KMg3Cu(AsO4)3
_symmetry_space_group_name_H-M   'P 1'
_cell_length_a   6.88878851
_cell_length_b   8.93838630
_cell_length_c   8.93838630
_cell_angle_alpha   92.74958227
_cell_angle_beta   105.87592898
_cell_angle_gamma   105.87592898
_symmetry_Int_Tables_number   1
_chemical_formula_structural   KMg3Cu(AsO4)3
_chemical_formula_sum   'K2 Mg6 Cu2 As6 O24'
_cell_volume   504.68627602
_cell_formula_units_Z   2
loop_
 _symmetry_equiv_pos_site_id
 _symmetry_equiv_pos_as_xyz
  1  'x, y, z'
loop_
 _atom_site_type_symbol
 _atom_site_label
 _atom_site_symmetry_multiplicity
 _atom_site_fract_x
 _atom_site_fract_y
 _atom_site_fract_z
 _atom_site_occupancy
  K  K0  1  0.75000000  0.51531112  0.48468888  1
  K  K1  1  0.25000000  0.48468888  0.51531112  1
  Mg  Mg2  1  0.75000000  0.24244514  0.75755486  1
  Mg  Mg3  1  0.25000000  0.75755486  0.24244514  1
  Mg  Mg4  1  0.63424651  0.56199962  0.87806464  1
  Mg  Mg5  1  0.36575349  0.43800038  0.12193536  1
  Mg  Mg6  1  0.86575349  0.12193536  0.43800038  1
  Mg  Mg7  1  0.13424651  0.87806464  0.56199962  1
  Cu  Cu8  1  0.75000000  0.99753617  0.00246383  1
  Cu  Cu9  1  0.25000000  0.00246383  0.99753617  1
  As  As10  1  0.75000000  0.78480119  0.21519881  1
  As  As11  1  0.25000000  0.21519881  0.78480119  1
  As  As12  1  0.87083018  0.37775981  0.14762254  1
  As  As13  1  0.12916982  0.62224019  0.85237746  1
  As  As14  1  0.62916982  0.85237746  0.62224019  1
  As  As15  1  0.37083018  0.14762254  0.37775981  1
  O  O16  1  0.88246207  0.49109443  0.82939394  1
  O  O17  1  0.11753793  0.50890557  0.17060606  1
  O  O18  1  0.61753793  0.17060606  0.50890557  1
  O  O19  1  0.38246207  0.82939394  0.49109443  1
  O  O20  1  0.52304500  0.67322813  0.24906446  1
  O  O21  1  0.47695500  0.32677187  0.75093554  1
  O  O22  1  0.97695500  0.75093554  0.32677187  1
  O  O23  1  0.02304500  0.24906446  0.67322813  1
  O  O24  1  0.62550597  0.67574547  0.68625210  1
  O  O25  1  0.37449403  0.32425453  0.31374790  1
  O  O26  1  0.87449403  0.31374790  0.32425453  1
  O  O27  1  0.12550597  0.68625210  0.67574547  1
  O  O28  1  0.73905026  0.77609749  0.01650186  1
  O  O29  1  0.26094974  0.22390251  0.98349814  1
  O  O30  1  0.76094974  0.98349814  0.22390251  1
  O  O31  1  0.23905026  0.01650186  0.77609749  1
  O  O32  1  0.81378673  0.22401558  0.99955490  1
  O  O33  1  0.18621327  0.77598442  0.00044510  1
  O  O34  1  0.68621327  0.00044510  0.77598442  1
  O  O35  1  0.31378673  0.99955490  0.22401558  1
  O  O36  1  0.67936903  0.47128279  0.09347019  1
  O  O37  1  0.32063097  0.52871721  0.90652981  1
  O  O38  1  0.82063097  0.90652981  0.52871721  1
  O  O39  1  0.17936903  0.09347019  0.47128279  1
