# generated using pymatgen
data_Lu4MgGe4
_symmetry_space_group_name_H-M   'P 1'
_cell_length_a   7.10767124
_cell_length_b   7.64138390
_cell_length_c   14.30192264
_cell_angle_alpha   90.00000000
_cell_angle_beta   90.00000000
_cell_angle_gamma   90.00000000
_symmetry_Int_Tables_number   1
_chemical_formula_structural   Lu4MgGe4
_chemical_formula_sum   'Lu16 Mg4 Ge16'
_cell_volume   776.77238077
_cell_formula_units_Z   4
loop_
 _symmetry_equiv_pos_site_id
 _symmetry_equiv_pos_as_xyz
  1  'x, y, z'
loop_
 _atom_site_type_symbol
 _atom_site_label
 _atom_site_symmetry_multiplicity
 _atom_site_fract_x
 _atom_site_fract_y
 _atom_site_fract_z
 _atom_site_occupancy
  Lu  Lu0  1  0.66704682  0.82364838  0.87369238  1
  Lu  Lu1  1  0.33295318  0.17635162  0.12630762  1
  Lu  Lu2  1  0.83295318  0.32364838  0.12630762  1
  Lu  Lu3  1  0.33295318  0.17635162  0.37369238  1
  Lu  Lu4  1  0.16704682  0.67635162  0.87369238  1
  Lu  Lu5  1  0.66704682  0.82364838  0.62630762  1
  Lu  Lu6  1  0.16704682  0.67635162  0.62630762  1
  Lu  Lu7  1  0.83295318  0.32364838  0.37369238  1
  Lu  Lu8  1  0.99322220  0.81752179  0.40660031  1
  Lu  Lu9  1  0.00677780  0.18247821  0.59339969  1
  Lu  Lu10  1  0.50677780  0.31752179  0.59339969  1
  Lu  Lu11  1  0.00677780  0.18247821  0.90660031  1
  Lu  Lu12  1  0.49322220  0.68247821  0.40660031  1
  Lu  Lu13  1  0.99322220  0.81752179  0.09339969  1
  Lu  Lu14  1  0.49322220  0.68247821  0.09339969  1
  Lu  Lu15  1  0.50677780  0.31752179  0.90660031  1
  Mg  Mg16  1  0.83673444  0.48468754  0.75000000  1
  Mg  Mg17  1  0.16326556  0.51531246  0.25000000  1
  Mg  Mg18  1  0.66326556  0.98468754  0.25000000  1
  Mg  Mg19  1  0.33673444  0.01531246  0.75000000  1
  Ge  Ge20  1  0.97262839  0.90747782  0.75000000  1
  Ge  Ge21  1  0.02737161  0.09252218  0.25000000  1
  Ge  Ge22  1  0.52737161  0.40747782  0.25000000  1
  Ge  Ge23  1  0.47262839  0.59252218  0.75000000  1
  Ge  Ge24  1  0.82439700  0.53479074  0.96399640  1
  Ge  Ge25  1  0.17560300  0.46520926  0.03600360  1
  Ge  Ge26  1  0.67560300  0.03479074  0.03600360  1
  Ge  Ge27  1  0.17560300  0.46520926  0.46399640  1
  Ge  Ge28  1  0.32439700  0.96520926  0.96399640  1
  Ge  Ge29  1  0.82439700  0.53479074  0.53600360  1
  Ge  Ge30  1  0.32439700  0.96520926  0.53600360  1
  Ge  Ge31  1  0.67560300  0.03479074  0.46399640  1
  Ge  Ge32  1  0.70697791  0.14038448  0.75000000  1
  Ge  Ge33  1  0.29302209  0.85961552  0.25000000  1
  Ge  Ge34  1  0.79302209  0.64038448  0.25000000  1
  Ge  Ge35  1  0.20697791  0.35961552  0.75000000  1
