# generated using pymatgen
data_KLaTiO4
_symmetry_space_group_name_H-M   'P 1'
_cell_length_a   5.46568762
_cell_length_b   13.61461240
_cell_length_c   5.44867908
_cell_angle_alpha   89.99980063
_cell_angle_beta   89.99922828
_cell_angle_gamma   90.00080056
_symmetry_Int_Tables_number   1
_chemical_formula_structural   KLaTiO4
_chemical_formula_sum   'K4 La4 Ti4 O16'
_cell_volume   405.45374664
_cell_formula_units_Z   4
loop_
 _symmetry_equiv_pos_site_id
 _symmetry_equiv_pos_as_xyz
  1  'x, y, z'
loop_
 _atom_site_type_symbol
 _atom_site_label
 _atom_site_symmetry_multiplicity
 _atom_site_fract_x
 _atom_site_fract_y
 _atom_site_fract_z
 _atom_site_occupancy
  K  K0  1  0.00616880  0.40916704  0.74999604  1
  K  K1  1  0.99378589  0.59081824  0.25000958  1
  K  K2  1  0.50617483  0.59072687  0.75000079  1
  K  K3  1  0.49380966  0.40913895  0.24999691  1
  La  La4  1  0.50994919  0.89507142  0.74999634  1
  La  La5  1  0.49008920  0.10497541  0.25001860  1
  La  La6  1  0.00994717  0.10497977  0.74999842  1
  La  La7  1  0.99003731  0.89507400  0.24999666  1
  Ti  Ti8  1  0.00212136  0.73996252  0.75000257  1
  Ti  Ti9  1  0.99790744  0.25992947  0.24999874  1
  Ti  Ti10  1  0.50209075  0.26000255  0.74999980  1
  Ti  Ti11  1  0.49791342  0.73997681  0.24999978  1
  O  O12  1  0.96900301  0.93343629  0.75000555  1
  O  O13  1  0.03086681  0.06664877  0.25001181  1
  O  O14  1  0.46906132  0.06658252  0.74996738  1
  O  O15  1  0.53097610  0.93343026  0.24999639  1
  O  O16  1  0.75002062  0.76785730  0.00001312  1
  O  O17  1  0.25001428  0.23217303  0.99997602  1
  O  O18  1  0.25003013  0.23216615  0.50001051  1
  O  O19  1  0.75001724  0.76784260  0.49999836  1
  O  O20  1  0.50890293  0.38917002  0.74999912  1
  O  O21  1  0.49111665  0.61086007  0.24999934  1
  O  O22  1  0.00893663  0.61084680  0.75000634  1
  O  O23  1  0.99110283  0.38911148  0.24999351  1
  O  O24  1  0.74997509  0.22411280  0.99998829  1
  O  O25  1  0.24999498  0.77589869  0.00000241  1
  O  O26  1  0.24999613  0.77591525  0.49999261  1
  O  O27  1  0.74999022  0.22412491  0.50002499  1
