# generated using pymatgen
data_KGd(MoO4)2
_symmetry_space_group_name_H-M   'P 1'
_cell_length_a   5.19307146
_cell_length_b   8.22557618
_cell_length_c   18.52048252
_cell_angle_alpha   90.00000000
_cell_angle_beta   90.00000000
_cell_angle_gamma   90.00000000
_symmetry_Int_Tables_number   1
_chemical_formula_structural   KGd(MoO4)2
_chemical_formula_sum   'K4 Gd4 Mo8 O32'
_cell_volume   791.12102212
_cell_formula_units_Z   4
loop_
 _symmetry_equiv_pos_site_id
 _symmetry_equiv_pos_as_xyz
  1  'x, y, z'
loop_
 _atom_site_type_symbol
 _atom_site_label
 _atom_site_symmetry_multiplicity
 _atom_site_fract_x
 _atom_site_fract_y
 _atom_site_fract_z
 _atom_site_occupancy
  K  K0  1  0.00000000  0.75000000  0.23009595  1
  K  K1  1  -0.00000000  0.25000000  0.76990405  1
  K  K2  1  0.50000000  0.25000000  0.26990405  1
  K  K3  1  0.50000000  0.75000000  0.73009595  1
  Gd  Gd4  1  0.00000000  0.75000000  0.99380260  1
  Gd  Gd5  1  -0.00000000  0.25000000  0.00619740  1
  Gd  Gd6  1  0.50000000  0.25000000  0.50619740  1
  Gd  Gd7  1  0.50000000  0.75000000  0.49380260  1
  Mo  Mo8  1  0.97663883  0.98345526  0.60112124  1
  Mo  Mo9  1  0.02336117  0.01654474  0.39887876  1
  Mo  Mo10  1  0.52336117  0.48345526  0.89887876  1
  Mo  Mo11  1  0.02336117  0.51654474  0.60112124  1
  Mo  Mo12  1  0.47663883  0.51654474  0.10112124  1
  Mo  Mo13  1  0.97663883  0.48345526  0.39887876  1
  Mo  Mo14  1  0.47663883  0.01654474  0.89887876  1
  Mo  Mo15  1  0.52336117  0.98345526  0.10112124  1
  O  O16  1  0.89789957  0.52532559  0.68905398  1
  O  O17  1  0.10210043  0.47467441  0.31094602  1
  O  O18  1  0.60210043  0.02532559  0.81094602  1
  O  O19  1  0.10210043  0.97467441  0.68905398  1
  O  O20  1  0.39789957  0.97467441  0.18905398  1
  O  O21  1  0.89789957  0.02532559  0.31094602  1
  O  O22  1  0.39789957  0.47467441  0.81094602  1
  O  O23  1  0.60210043  0.52532559  0.18905398  1
  O  O24  1  0.72784952  0.66007046  0.90046189  1
  O  O25  1  0.27215048  0.33992954  0.09953811  1
  O  O26  1  0.77215048  0.16007046  0.59953811  1
  O  O27  1  0.27215048  0.83992954  0.90046189  1
  O  O28  1  0.22784952  0.83992954  0.40046189  1
  O  O29  1  0.72784952  0.16007046  0.09953811  1
  O  O30  1  0.22784952  0.33992954  0.59953811  1
  O  O31  1  0.77215048  0.66007046  0.40046189  1
  O  O32  1  0.74776372  0.99627652  0.96460181  1
  O  O33  1  0.25223628  0.00372348  0.03539819  1
  O  O34  1  0.75223628  0.49627652  0.53539819  1
  O  O35  1  0.25223628  0.50372348  0.96460181  1
  O  O36  1  0.24776372  0.50372348  0.46460181  1
  O  O37  1  0.74776372  0.49627652  0.03539819  1
  O  O38  1  0.24776372  0.00372348  0.53539819  1
  O  O39  1  0.75223628  0.99627652  0.46460181  1
  O  O40  1  0.75650870  0.81223749  0.59306336  1
  O  O41  1  0.24349130  0.18776251  0.40693664  1
  O  O42  1  0.74349130  0.31223749  0.90693664  1
  O  O43  1  0.24349130  0.68776251  0.59306336  1
  O  O44  1  0.25650870  0.68776251  0.09306336  1
  O  O45  1  0.75650870  0.31223749  0.40693664  1
  O  O46  1  0.25650870  0.18776251  0.90693664  1
  O  O47  1  0.74349130  0.81223749  0.09306336  1
