# generated using pymatgen
data_BaAs2F12
_symmetry_space_group_name_H-M   'P 1'
_cell_length_a   10.28853090
_cell_length_b   10.28853090
_cell_length_c   10.28853090
_cell_angle_alpha   90.00000000
_cell_angle_beta   90.00000000
_cell_angle_gamma   90.00000000
_symmetry_Int_Tables_number   1
_chemical_formula_structural   BaAs2F12
_chemical_formula_sum   'Ba4 As8 F48'
_cell_volume   1089.08079263
_cell_formula_units_Z   4
loop_
 _symmetry_equiv_pos_site_id
 _symmetry_equiv_pos_as_xyz
  1  'x, y, z'
loop_
 _atom_site_type_symbol
 _atom_site_label
 _atom_site_symmetry_multiplicity
 _atom_site_fract_x
 _atom_site_fract_y
 _atom_site_fract_z
 _atom_site_occupancy
  Ba  Ba0  1  0.50000000  0.00000000  0.00000000  1
  Ba  Ba1  1  -0.00000000  0.50000000  0.00000000  1
  Ba  Ba2  1  -0.00000000  0.00000000  0.50000000  1
  Ba  Ba3  1  -0.00000000  0.00000000  0.00000000  1
  As  As4  1  0.24999730  0.24999730  0.24999730  1
  As  As5  1  0.75000270  0.75000270  0.24999730  1
  As  As6  1  0.75000270  0.24999730  0.75000270  1
  As  As7  1  0.24999730  0.75000270  0.75000270  1
  As  As8  1  0.74615358  0.74615358  0.74615358  1
  As  As9  1  0.25384642  0.25384642  0.74615358  1
  As  As10  1  0.25384642  0.74615358  0.25384642  1
  As  As11  1  0.74615358  0.25384642  0.25384642  1
  F  F12  1  0.12948493  0.12948493  0.29896631  1
  F  F13  1  0.87051507  0.87051507  0.29896631  1
  F  F14  1  0.87051507  0.12948493  0.70103369  1
  F  F15  1  0.29896631  0.12948493  0.12948493  1
  F  F16  1  0.12948493  0.87051507  0.70103369  1
  F  F17  1  0.29896631  0.87051507  0.87051507  1
  F  F18  1  0.70103369  0.87051507  0.12948493  1
  F  F19  1  0.70103369  0.12948493  0.87051507  1
  F  F20  1  0.12948493  0.29896631  0.12948493  1
  F  F21  1  0.12948493  0.70103369  0.87051507  1
  F  F22  1  0.87051507  0.70103369  0.12948493  1
  F  F23  1  0.87051507  0.29896631  0.87051507  1
  F  F24  1  0.36344851  0.36344851  0.81201336  1
  F  F25  1  0.63655149  0.63655149  0.81201336  1
  F  F26  1  0.63655149  0.36344851  0.18798664  1
  F  F27  1  0.81201336  0.36344851  0.36344851  1
  F  F28  1  0.36344851  0.63655149  0.18798664  1
  F  F29  1  0.81201336  0.63655149  0.63655149  1
  F  F30  1  0.18798664  0.63655149  0.36344851  1
  F  F31  1  0.18798664  0.36344851  0.63655149  1
  F  F32  1  0.36344851  0.81201336  0.36344851  1
  F  F33  1  0.36344851  0.18798664  0.63655149  1
  F  F34  1  0.63655149  0.18798664  0.36344851  1
  F  F35  1  0.63655149  0.81201336  0.63655149  1
  F  F36  1  0.13351302  0.13351302  0.69660448  1
  F  F37  1  0.86648698  0.86648698  0.69660448  1
  F  F38  1  0.86648698  0.13351302  0.30339552  1
  F  F39  1  0.69660448  0.13351302  0.13351302  1
  F  F40  1  0.13351302  0.86648698  0.30339552  1
  F  F41  1  0.69660448  0.86648698  0.86648698  1
  F  F42  1  0.30339552  0.86648698  0.13351302  1
  F  F43  1  0.30339552  0.13351302  0.86648698  1
  F  F44  1  0.13351302  0.69660448  0.13351302  1
  F  F45  1  0.13351302  0.30339552  0.86648698  1
  F  F46  1  0.86648698  0.30339552  0.13351302  1
  F  F47  1  0.86648698  0.69660448  0.86648698  1
  F  F48  1  0.35947914  0.35947914  0.18394291  1
  F  F49  1  0.64052086  0.64052086  0.18394291  1
  F  F50  1  0.64052086  0.35947914  0.81605709  1
  F  F51  1  0.18394291  0.35947914  0.35947914  1
  F  F52  1  0.35947914  0.64052086  0.81605709  1
  F  F53  1  0.18394291  0.64052086  0.64052086  1
  F  F54  1  0.81605709  0.64052086  0.35947914  1
  F  F55  1  0.81605709  0.35947914  0.64052086  1
  F  F56  1  0.35947914  0.18394291  0.35947914  1
  F  F57  1  0.35947914  0.81605709  0.64052086  1
  F  F58  1  0.64052086  0.81605709  0.35947914  1
  F  F59  1  0.64052086  0.18394291  0.64052086  1
