# generated using pymatgen
data_Dy3(GeRh)2
_symmetry_space_group_name_H-M   'P 1'
_cell_length_a   5.60398392
_cell_length_b   7.88239466
_cell_length_c   13.23927099
_cell_angle_alpha   90.00000000
_cell_angle_beta   90.00000000
_cell_angle_gamma   90.00000000
_symmetry_Int_Tables_number   1
_chemical_formula_structural   Dy3(GeRh)2
_chemical_formula_sum   'Dy12 Ge8 Rh8'
_cell_volume   584.81584071
_cell_formula_units_Z   4
loop_
 _symmetry_equiv_pos_site_id
 _symmetry_equiv_pos_as_xyz
  1  'x, y, z'
loop_
 _atom_site_type_symbol
 _atom_site_label
 _atom_site_symmetry_multiplicity
 _atom_site_fract_x
 _atom_site_fract_y
 _atom_site_fract_z
 _atom_site_occupancy
  Dy  Dy0  1  0.63331883  0.25177662  0.25000000  1
  Dy  Dy1  1  0.36668117  0.74822338  0.75000000  1
  Dy  Dy2  1  0.36668117  0.75177662  0.25000000  1
  Dy  Dy3  1  0.63331883  0.24822338  0.75000000  1
  Dy  Dy4  1  0.14737308  0.39312976  0.10047628  1
  Dy  Dy5  1  0.85262692  0.60687024  0.89952372  1
  Dy  Dy6  1  0.85262692  0.60687024  0.60047628  1
  Dy  Dy7  1  0.85262692  0.89312976  0.39952372  1
  Dy  Dy8  1  0.14737308  0.39312976  0.39952372  1
  Dy  Dy9  1  0.14737308  0.10687024  0.60047628  1
  Dy  Dy10  1  0.14737308  0.10687024  0.89952372  1
  Dy  Dy11  1  0.85262692  0.89312976  0.10047628  1
  Ge  Ge12  1  0.13032969  0.10790060  0.25000000  1
  Ge  Ge13  1  0.86967031  0.89209940  0.75000000  1
  Ge  Ge14  1  0.86967031  0.60790060  0.25000000  1
  Ge  Ge15  1  0.13032969  0.39209940  0.75000000  1
  Ge  Ge16  1  0.65912714  0.25000000  0.00000000  1
  Ge  Ge17  1  0.34087286  0.75000000  0.00000000  1
  Ge  Ge18  1  0.34087286  0.75000000  0.50000000  1
  Ge  Ge19  1  0.65912714  0.25000000  0.50000000  1
  Rh  Rh20  1  0.37539620  0.03854108  0.09369019  1
  Rh  Rh21  1  0.62460380  0.96145892  0.90630981  1
  Rh  Rh22  1  0.62460380  0.96145892  0.59369019  1
  Rh  Rh23  1  0.62460380  0.53854108  0.40630981  1
  Rh  Rh24  1  0.37539620  0.03854108  0.40630981  1
  Rh  Rh25  1  0.37539620  0.46145892  0.59369019  1
  Rh  Rh26  1  0.37539620  0.46145892  0.90630981  1
  Rh  Rh27  1  0.62460380  0.53854108  0.09369019  1
