# generated using pymatgen
data_Eu2Ni12P5
_symmetry_space_group_name_H-M   'P 1'
_cell_length_a   3.66647460
_cell_length_b   10.88585869
_cell_length_c   13.22337190
_cell_angle_alpha   107.97744910
_cell_angle_beta   90.00000000
_cell_angle_gamma   90.00000000
_symmetry_Int_Tables_number   1
_chemical_formula_structural   Eu2Ni12P5
_chemical_formula_sum   'Eu4 Ni24 P10'
_cell_volume   502.01351983
_cell_formula_units_Z   2
loop_
 _symmetry_equiv_pos_site_id
 _symmetry_equiv_pos_as_xyz
  1  'x, y, z'
loop_
 _atom_site_type_symbol
 _atom_site_label
 _atom_site_symmetry_multiplicity
 _atom_site_fract_x
 _atom_site_fract_y
 _atom_site_fract_z
 _atom_site_occupancy
  Eu  Eu0  1  0.75000000  0.28024078  0.31716411  1
  Eu  Eu1  1  0.25000000  0.71975922  0.68283589  1
  Eu  Eu2  1  0.75000000  0.24817307  0.81237583  1
  Eu  Eu3  1  0.25000000  0.75182693  0.18762417  1
  Ni  Ni4  1  0.75000000  0.84437702  0.86546427  1
  Ni  Ni5  1  0.25000000  0.15562298  0.13453573  1
  Ni  Ni6  1  0.75000000  0.28728800  0.56125964  1
  Ni  Ni7  1  0.25000000  0.71271200  0.43874036  1
  Ni  Ni8  1  0.75000000  0.07196007  0.98599323  1
  Ni  Ni9  1  0.25000000  0.92803993  0.01400677  1
  Ni  Ni10  1  0.75000000  0.06596904  0.55140557  1
  Ni  Ni11  1  0.25000000  0.93403096  0.44859443  1
  Ni  Ni12  1  0.75000000  0.59415289  0.30497156  1
  Ni  Ni13  1  0.25000000  0.40584711  0.69502844  1
  Ni  Ni14  1  0.75000000  0.58088972  0.99047920  1
  Ni  Ni15  1  0.25000000  0.41911028  0.00952080  1
  Ni  Ni16  1  0.75000000  0.57840606  0.49041320  1
  Ni  Ni17  1  0.25000000  0.42159394  0.50958680  1
  Ni  Ni18  1  0.75000000  0.29865772  0.08195483  1
  Ni  Ni19  1  0.25000000  0.70134228  0.91804517  1
  Ni  Ni20  1  0.75000000  0.99399546  0.34094139  1
  Ni  Ni21  1  0.25000000  0.00600454  0.65905861  1
  Ni  Ni22  1  0.75000000  0.84351058  0.56105052  1
  Ni  Ni23  1  0.25000000  0.15648942  0.43894948  1
  Ni  Ni24  1  0.75000000  0.98976776  0.15117588  1
  Ni  Ni25  1  0.25000000  0.01023224  0.84882412  1
  Ni  Ni26  1  0.75000000  0.56191303  0.79628791  1
  Ni  Ni27  1  0.25000000  0.43808697  0.20371209  1
  P  P28  1  0.75000000  0.50890568  0.12921229  1
  P  P29  1  0.25000000  0.49109432  0.87078771  1
  P  P30  1  0.75000000  0.79934956  0.01643137  1
  P  P31  1  0.25000000  0.20065044  0.98356863  1
  P  P32  1  0.75000000  0.49430431  0.62204488  1
  P  P33  1  0.25000000  0.50569569  0.37795512  1
  P  P34  1  0.75000000  0.81060089  0.38740785  1
  P  P35  1  0.25000000  0.18939911  0.61259215  1
  P  P36  1  0.75000000  0.94948310  0.73973876  1
  P  P37  1  0.25000000  0.05051690  0.26026124  1
