# generated using pymatgen
data_CeMg2
_symmetry_space_group_name_H-M   'P 1'
_cell_length_a   10.10246624
_cell_length_b   5.74853850
_cell_length_c   6.00112501
_cell_angle_alpha   90.00000000
_cell_angle_beta   116.66364551
_cell_angle_gamma   90.00000000
_symmetry_Int_Tables_number   1
_chemical_formula_structural   CeMg2
_chemical_formula_sum   'Ce4 Mg8'
_cell_volume   311.44979471
_cell_formula_units_Z   4
loop_
 _symmetry_equiv_pos_site_id
 _symmetry_equiv_pos_as_xyz
  1  'x, y, z'
loop_
 _atom_site_type_symbol
 _atom_site_label
 _atom_site_symmetry_multiplicity
 _atom_site_fract_x
 _atom_site_fract_y
 _atom_site_fract_z
 _atom_site_occupancy
  Ce  Ce0  1  0.50000000  0.42419607  0.25000000  1
  Ce  Ce1  1  -0.00000000  0.07580393  0.75000000  1
  Ce  Ce2  1  -0.00000000  0.92419607  0.25000000  1
  Ce  Ce3  1  0.50000000  0.57580393  0.75000000  1
  Mg  Mg4  1  0.16575595  0.57954078  0.74851790  1
  Mg  Mg5  1  0.33424405  0.07954078  0.75148210  1
  Mg  Mg6  1  0.16575595  0.42045922  0.24851790  1
  Mg  Mg7  1  0.33424405  0.92045922  0.25148210  1
  Mg  Mg8  1  0.66575595  0.07954078  0.74851790  1
  Mg  Mg9  1  0.83424405  0.57954078  0.75148210  1
  Mg  Mg10  1  0.66575595  0.92045922  0.24851790  1
  Mg  Mg11  1  0.83424405  0.42045922  0.25148210  1
