# generated using pymatgen
data_CsLa(NbBr3)6
_symmetry_space_group_name_H-M   'P 1'
_cell_length_a   10.03327038
_cell_length_b   10.03327038
_cell_length_c   18.74645748
_cell_angle_alpha   90.00000000
_cell_angle_beta   90.00000000
_cell_angle_gamma   120.00000040
_symmetry_Int_Tables_number   1
_chemical_formula_structural   CsLa(NbBr3)6
_chemical_formula_sum   'Cs2 La2 Nb12 Br36'
_cell_volume   1634.31163661
_cell_formula_units_Z   2
loop_
 _symmetry_equiv_pos_site_id
 _symmetry_equiv_pos_as_xyz
  1  'x, y, z'
loop_
 _atom_site_type_symbol
 _atom_site_label
 _atom_site_symmetry_multiplicity
 _atom_site_fract_x
 _atom_site_fract_y
 _atom_site_fract_z
 _atom_site_occupancy
  Cs  Cs0  1  0.33333300  0.66666700  0.75000000  1
  Cs  Cs1  1  0.66666700  0.33333300  0.25000000  1
  La  La2  1  0.66666700  0.33333300  0.75000000  1
  La  La3  1  0.33333300  0.66666700  0.25000000  1
  Nb  Nb4  1  0.96272522  0.14888189  0.93566711  1
  Nb  Nb5  1  0.03727478  0.85111811  0.06433289  1
  Nb  Nb6  1  0.18615667  0.03727478  0.93566711  1
  Nb  Nb7  1  0.18615667  0.14888189  0.56433289  1
  Nb  Nb8  1  0.81384333  0.96272522  0.06433289  1
  Nb  Nb9  1  0.81384333  0.85111811  0.43566711  1
  Nb  Nb10  1  0.85111811  0.81384333  0.93566711  1
  Nb  Nb11  1  0.85111811  0.03727478  0.56433289  1
  Nb  Nb12  1  0.14888189  0.18615667  0.06433289  1
  Nb  Nb13  1  0.14888189  0.96272522  0.43566711  1
  Nb  Nb14  1  0.96272522  0.81384333  0.56433289  1
  Nb  Nb15  1  0.03727478  0.18615667  0.43566711  1
  Br  Br16  1  0.92215446  0.36260306  0.84200721  1
  Br  Br17  1  0.07784554  0.63739694  0.15799279  1
  Br  Br18  1  0.44044860  0.07784554  0.84200721  1
  Br  Br19  1  0.44044860  0.36260306  0.65799279  1
  Br  Br20  1  0.55955140  0.92215446  0.15799279  1
  Br  Br21  1  0.55955140  0.63739694  0.34200721  1
  Br  Br22  1  0.63739694  0.55955140  0.84200721  1
  Br  Br23  1  0.63739694  0.07784554  0.65799279  1
  Br  Br24  1  0.36260306  0.44044860  0.15799279  1
  Br  Br25  1  0.36260306  0.92215446  0.34200721  1
  Br  Br26  1  0.92215446  0.55955140  0.65799279  1
  Br  Br27  1  0.07784554  0.44044860  0.34200721  1
  Br  Br28  1  0.77091218  0.95494876  0.84209351  1
  Br  Br29  1  0.22908782  0.04505124  0.15790649  1
  Br  Br30  1  0.18403658  0.22908782  0.84209351  1
  Br  Br31  1  0.18403658  0.95494876  0.65790649  1
  Br  Br32  1  0.81596342  0.77091218  0.15790649  1
  Br  Br33  1  0.81596342  0.04505124  0.34209351  1
  Br  Br34  1  0.04505124  0.81596342  0.84209351  1
  Br  Br35  1  0.04505124  0.22908782  0.65790649  1
  Br  Br36  1  0.95494876  0.18403658  0.15790649  1
  Br  Br37  1  0.95494876  0.77091218  0.34209351  1
  Br  Br38  1  0.77091218  0.81596342  0.65790649  1
  Br  Br39  1  0.22908782  0.18403658  0.34209351  1
  Br  Br40  1  0.58838930  0.72695102  0.99946245  1
  Br  Br41  1  0.41161070  0.27304898  0.00053755  1
  Br  Br42  1  0.13856172  0.41161070  0.99946245  1
  Br  Br43  1  0.13856172  0.72695102  0.50053755  1
  Br  Br44  1  0.86143828  0.58838930  0.00053755  1
  Br  Br45  1  0.86143828  0.27304898  0.49946245  1
  Br  Br46  1  0.27304898  0.86143828  0.99946245  1
  Br  Br47  1  0.27304898  0.41161070  0.50053755  1
  Br  Br48  1  0.72695102  0.13856172  0.00053755  1
  Br  Br49  1  0.72695102  0.58838930  0.49946245  1
  Br  Br50  1  0.58838930  0.86143828  0.50053755  1
  Br  Br51  1  0.41161070  0.13856172  0.49946245  1
