# generated using pymatgen
data_CuH2CN2Cl
_symmetry_space_group_name_H-M   'P 1'
_cell_length_a   3.95441690
_cell_length_b   17.85905152
_cell_length_c   16.06580329
_cell_angle_alpha   90.00000000
_cell_angle_beta   90.00000000
_cell_angle_gamma   90.00000000
_symmetry_Int_Tables_number   1
_chemical_formula_structural   CuH2CN2Cl
_chemical_formula_sum   'Cu12 H24 C12 N24 Cl12'
_cell_volume   1134.60133122
_cell_formula_units_Z   12
loop_
 _symmetry_equiv_pos_site_id
 _symmetry_equiv_pos_as_xyz
  1  'x, y, z'
loop_
 _atom_site_type_symbol
 _atom_site_label
 _atom_site_symmetry_multiplicity
 _atom_site_fract_x
 _atom_site_fract_y
 _atom_site_fract_z
 _atom_site_occupancy
  Cu  Cu0  1  0.64601242  0.70224871  0.81946741  1
  Cu  Cu1  1  0.35398758  0.29775129  0.31946741  1
  Cu  Cu2  1  0.85398758  0.20224871  0.81946741  1
  Cu  Cu3  1  0.14601242  0.79775129  0.31946741  1
  Cu  Cu4  1  0.82065723  0.99567984  0.31315852  1
  Cu  Cu5  1  0.17934277  0.00432016  0.81315852  1
  Cu  Cu6  1  0.67934277  0.49567984  0.31315852  1
  Cu  Cu7  1  0.32065723  0.50432016  0.81315852  1
  Cu  Cu8  1  0.58383593  0.88663967  0.11834892  1
  Cu  Cu9  1  0.41616407  0.11336033  0.61834892  1
  Cu  Cu10  1  0.91616407  0.38663967  0.11834892  1
  Cu  Cu11  1  0.08383593  0.61336033  0.61834892  1
  H  H12  1  0.40391155  0.39140819  0.72901600  1
  H  H13  1  0.59608845  0.60859181  0.22901600  1
  H  H14  1  0.09608845  0.89140819  0.72901600  1
  H  H15  1  0.90391155  0.10859181  0.22901600  1
  H  H16  1  0.96773575  0.96259582  0.46168487  1
  H  H17  1  0.03226425  0.03740418  0.96168487  1
  H  H18  1  0.53226425  0.46259582  0.46168487  1
  H  H19  1  0.46773575  0.53740418  0.96168487  1
  H  H20  1  0.34972590  0.49915113  0.55514146  1
  H  H21  1  0.65027410  0.50084887  0.05514146  1
  H  H22  1  0.15027410  0.99915113  0.55514146  1
  H  H23  1  0.84972590  0.00084887  0.05514146  1
  H  H24  1  0.93591667  0.79764680  0.72996724  1
  H  H25  1  0.06408333  0.20235320  0.22996724  1
  H  H26  1  0.56408333  0.29764680  0.72996724  1
  H  H27  1  0.43591667  0.70235320  0.22996724  1
  H  H28  1  0.94671089  0.79333266  0.46671014  1
  H  H29  1  0.05328911  0.20666734  0.96671014  1
  H  H30  1  0.55328911  0.29333266  0.46671014  1
  H  H31  1  0.44671089  0.70666734  0.96671014  1
  H  H32  1  0.92693521  0.73600419  0.55828092  1
  H  H33  1  0.07306479  0.26399581  0.05828092  1
  H  H34  1  0.57306479  0.23600419  0.55828092  1
  H  H35  1  0.42693521  0.76399581  0.05828092  1
  C  C36  1  0.65405604  0.81004121  0.95775684  1
  C  C37  1  0.34594396  0.18995879  0.45775684  1
  C  C38  1  0.84594396  0.31004121  0.95775684  1
  C  C39  1  0.15405604  0.68995879  0.45775684  1
  C  C40  1  0.89114879  0.85661263  0.83771107  1
  C  C41  1  0.10885121  0.14338737  0.33771107  1
  C  C42  1  0.60885121  0.35661263  0.83771107  1
  C  C43  1  0.39114879  0.64338737  0.33771107  1
  C  C44  1  0.85864432  0.93063224  0.95557579  1
  C  C45  1  0.14135568  0.06936776  0.45557579  1
  C  C46  1  0.64135568  0.43063224  0.95557579  1
  C  C47  1  0.35864432  0.56936776  0.45557579  1
  N  N48  1  0.74064523  0.79817792  0.87703615  1
  N  N49  1  0.25935477  0.20182208  0.37703615  1
  N  N50  1  0.75935477  0.29817792  0.87703615  1
  N  N51  1  0.24064523  0.70182208  0.37703615  1
  N  N52  1  0.98535045  0.84753520  0.75894234  1
  N  N53  1  0.01464955  0.15246480  0.25894234  1
  N  N54  1  0.51464955  0.34753520  0.75894234  1
  N  N55  1  0.48535045  0.65246480  0.25894234  1
  N  N56  1  0.70741341  0.87503554  0.99949227  1
  N  N57  1  0.29258659  0.12496446  0.49949227  1
  N  N58  1  0.79258659  0.37503554  0.99949227  1
  N  N59  1  0.20741341  0.62496446  0.49949227  1
  N  N60  1  0.50866890  0.75408515  0.99894904  1
  N  N61  1  0.49133110  0.24591485  0.49894904  1
  N  N62  1  0.99133110  0.25408515  0.99894904  1
  N  N63  1  0.00866890  0.74591485  0.49894904  1
  N  N64  1  0.95438072  0.92395509  0.87445315  1
  N  N65  1  0.04561928  0.07604491  0.37445315  1
  N  N66  1  0.54561928  0.42395509  0.87445315  1
  N  N67  1  0.45438072  0.57604491  0.37445315  1
  N  N68  1  0.91871177  0.99523363  0.99405275  1
  N  N69  1  0.08128823  0.00476637  0.49405275  1
  N  N70  1  0.58128823  0.49523363  0.99405275  1
  N  N71  1  0.41871177  0.50476637  0.49405275  1
  Cl  Cl72  1  0.64520098  0.68652582  0.67744959  1
  Cl  Cl73  1  0.35479902  0.31347418  0.17744959  1
  Cl  Cl74  1  0.85479902  0.18652582  0.67744959  1
  Cl  Cl75  1  0.14520098  0.81347418  0.17744959  1
  Cl  Cl76  1  0.44020883  0.00289109  0.68915565  1
  Cl  Cl77  1  0.55979117  0.99710891  0.18915565  1
  Cl  Cl78  1  0.05979117  0.50289109  0.68915565  1
  Cl  Cl79  1  0.94020883  0.49710891  0.18915565  1
  Cl  Cl80  1  0.71548945  0.87711080  0.36831988  1
  Cl  Cl81  1  0.28451055  0.12288920  0.86831988  1
  Cl  Cl82  1  0.78451055  0.37711080  0.36831988  1
  Cl  Cl83  1  0.21548945  0.62288920  0.86831988  1
