# generated using pymatgen
data_EuMgAg
_symmetry_space_group_name_H-M   'P 1'
_cell_length_a   4.60863812
_cell_length_b   7.74894384
_cell_length_c   8.92239940
_cell_angle_alpha   90.00000000
_cell_angle_beta   90.00000000
_cell_angle_gamma   90.00000000
_symmetry_Int_Tables_number   1
_chemical_formula_structural   EuMgAg
_chemical_formula_sum   'Eu4 Mg4 Ag4'
_cell_volume   318.63742306
_cell_formula_units_Z   4
loop_
 _symmetry_equiv_pos_site_id
 _symmetry_equiv_pos_as_xyz
  1  'x, y, z'
loop_
 _atom_site_type_symbol
 _atom_site_label
 _atom_site_symmetry_multiplicity
 _atom_site_fract_x
 _atom_site_fract_y
 _atom_site_fract_z
 _atom_site_occupancy
  Eu  Eu0  1  0.75000000  0.96684487  0.32187417  1
  Eu  Eu1  1  0.25000000  0.03315513  0.67812583  1
  Eu  Eu2  1  0.25000000  0.53315513  0.82187417  1
  Eu  Eu3  1  0.75000000  0.46684487  0.17812583  1
  Mg  Mg4  1  0.75000000  0.86084263  0.93981594  1
  Mg  Mg5  1  0.25000000  0.13915737  0.06018406  1
  Mg  Mg6  1  0.25000000  0.63915737  0.43981594  1
  Mg  Mg7  1  0.75000000  0.36084263  0.56018406  1
  Ag  Ag8  1  0.75000000  0.72813586  0.62443666  1
  Ag  Ag9  1  0.25000000  0.27186414  0.37556334  1
  Ag  Ag10  1  0.25000000  0.77186414  0.12443666  1
  Ag  Ag11  1  0.75000000  0.22813586  0.87556334  1
