# generated using pymatgen
data_CsYb2Cl7
_symmetry_space_group_name_H-M   'P 1'
_cell_length_a   5.75092164
_cell_length_b   16.02326539
_cell_length_c   14.17324103
_cell_angle_alpha   90.00000000
_cell_angle_beta   90.00000000
_cell_angle_gamma   90.00000000
_symmetry_Int_Tables_number   1
_chemical_formula_structural   CsYb2Cl7
_chemical_formula_sum   'Cs4 Yb8 Cl28'
_cell_volume   1306.04352007
_cell_formula_units_Z   4
loop_
 _symmetry_equiv_pos_site_id
 _symmetry_equiv_pos_as_xyz
  1  'x, y, z'
loop_
 _atom_site_type_symbol
 _atom_site_label
 _atom_site_symmetry_multiplicity
 _atom_site_fract_x
 _atom_site_fract_y
 _atom_site_fract_z
 _atom_site_occupancy
  Cs  Cs0  1  0.75000000  0.97807920  0.19967171  1
  Cs  Cs1  1  0.25000000  0.02192080  0.80032829  1
  Cs  Cs2  1  0.25000000  0.52192080  0.69967171  1
  Cs  Cs3  1  0.75000000  0.47807920  0.30032829  1
  Yb  Yb4  1  0.75000000  0.76419122  0.55308202  1
  Yb  Yb5  1  0.25000000  0.23580878  0.44691798  1
  Yb  Yb6  1  0.25000000  0.73580878  0.05308202  1
  Yb  Yb7  1  0.75000000  0.26419122  0.94691798  1
  Yb  Yb8  1  0.75000000  0.75109368  0.83186188  1
  Yb  Yb9  1  0.25000000  0.24890632  0.16813812  1
  Yb  Yb10  1  0.25000000  0.74890632  0.33186188  1
  Yb  Yb11  1  0.75000000  0.25109368  0.66813812  1
  Cl  Cl12  1  0.00245266  0.83924060  0.69643157  1
  Cl  Cl13  1  0.99754734  0.16075940  0.30356843  1
  Cl  Cl14  1  0.99754734  0.66075940  0.19643157  1
  Cl  Cl15  1  0.50245266  0.16075940  0.30356843  1
  Cl  Cl16  1  0.00245266  0.33924060  0.80356843  1
  Cl  Cl17  1  0.49754734  0.83924060  0.69643157  1
  Cl  Cl18  1  0.49754734  0.33924060  0.80356843  1
  Cl  Cl19  1  0.50245266  0.66075940  0.19643157  1
  Cl  Cl20  1  -0.00070642  0.86530009  0.43197832  1
  Cl  Cl21  1  0.00070642  0.13469991  0.56802168  1
  Cl  Cl22  1  0.00070642  0.63469991  0.93197832  1
  Cl  Cl23  1  0.49929358  0.13469991  0.56802168  1
  Cl  Cl24  1  -0.00070642  0.36530009  0.06802168  1
  Cl  Cl25  1  0.50070642  0.86530009  0.43197832  1
  Cl  Cl26  1  0.50070642  0.36530009  0.06802168  1
  Cl  Cl27  1  0.49929358  0.63469991  0.93197832  1
  Cl  Cl28  1  0.99840813  0.85506762  0.95285254  1
  Cl  Cl29  1  0.00159187  0.14493238  0.04714746  1
  Cl  Cl30  1  0.00159187  0.64493238  0.45285254  1
  Cl  Cl31  1  0.49840813  0.14493238  0.04714746  1
  Cl  Cl32  1  0.99840813  0.35506762  0.54714746  1
  Cl  Cl33  1  0.50159187  0.85506762  0.95285254  1
  Cl  Cl34  1  0.50159187  0.35506762  0.54714746  1
  Cl  Cl35  1  0.49840813  0.64493238  0.45285254  1
  Cl  Cl36  1  0.75000000  0.64001287  0.68772319  1
  Cl  Cl37  1  0.25000000  0.35998713  0.31227681  1
  Cl  Cl38  1  0.25000000  0.85998713  0.18772319  1
  Cl  Cl39  1  0.75000000  0.14001287  0.81227681  1
