# generated using pymatgen
data_ThV2PbO8
_symmetry_space_group_name_H-M   'P 1'
_cell_length_a   6.26121251
_cell_length_b   6.26121251
_cell_length_c   6.26121251
_cell_angle_alpha   63.50152741
_cell_angle_beta   73.92394970
_cell_angle_gamma   106.07605030
_symmetry_Int_Tables_number   1
_chemical_formula_structural   ThV2PbO8
_chemical_formula_sum   'Th1 V2 Pb1 O8'
_cell_volume   186.79599437
_cell_formula_units_Z   1
loop_
 _symmetry_equiv_pos_site_id
 _symmetry_equiv_pos_as_xyz
  1  'x, y, z'
loop_
 _atom_site_type_symbol
 _atom_site_label
 _atom_site_symmetry_multiplicity
 _atom_site_fract_x
 _atom_site_fract_y
 _atom_site_fract_z
 _atom_site_occupancy
  Th  Th0  1  0.75000000  0.62500000  0.12500000  1
  V  V1  1  0.75000000  0.12500000  0.62500000  1
  V  V2  1  0.25000000  0.87500000  0.37500000  1
  Pb  Pb3  1  0.25000000  0.37500000  0.87500000  1
  O  O4  1  0.92119023  0.30358548  0.27522430  1
  O  O5  1  0.06316279  0.84683127  0.21633152  1
  O  O6  1  0.43683721  0.22050569  0.21633152  1
  O  O7  1  0.57880977  0.30358548  0.61760475  1
  O  O8  1  0.06316279  0.71633152  0.72050569  1
  O  O9  1  0.92119023  0.11760475  0.80358548  1
  O  O10  1  0.57880977  0.77522430  0.80358548  1
  O  O11  1  0.43683721  0.71633152  0.34683127  1
