# generated using pymatgen
data_Sr3Fe2MoO9
_symmetry_space_group_name_H-M   'P 1'
_cell_length_a   5.63018142
_cell_length_b   8.00904194
_cell_length_c   9.77507855
_cell_angle_alpha   65.81612569
_cell_angle_beta   73.29081004
_cell_angle_gamma   90.00000000
_symmetry_Int_Tables_number   1
_chemical_formula_structural   Sr3Fe2MoO9
_chemical_formula_sum   'Sr6 Fe4 Mo2 O18'
_cell_volume   381.60291025
_cell_formula_units_Z   2
loop_
 _symmetry_equiv_pos_site_id
 _symmetry_equiv_pos_as_xyz
  1  'x, y, z'
loop_
 _atom_site_type_symbol
 _atom_site_label
 _atom_site_symmetry_multiplicity
 _atom_site_fract_x
 _atom_site_fract_y
 _atom_site_fract_z
 _atom_site_occupancy
  Sr  Sr0  1  0.15642829  0.39919639  0.68326333  1
  Sr  Sr1  1  0.50000000  0.76688321  1.00000000  1
  Sr  Sr2  1  0.84357171  0.08245872  0.31673667  1
  Sr  Sr3  1  0.50000000  0.23311679  0.00000000  1
  Sr  Sr4  1  0.84357171  0.60080361  0.31673667  1
  Sr  Sr5  1  0.15642829  0.91754128  0.68326333  1
  Fe  Fe6  1  -0.00000000  0.50000000  -0.00000000  1
  Fe  Fe7  1  0.33568917  0.83510284  0.32979332  1
  Fe  Fe8  1  0.66431083  0.16489716  0.67020668  1
  Fe  Fe9  1  -0.00000000  -0.00000000  -0.00000000  1
  Mo  Mo10  1  0.33390700  0.33222939  0.33554022  1
  Mo  Mo11  1  0.66609300  0.66777061  0.66445978  1
  O  O12  1  0.66942327  0.91179202  0.66212626  1
  O  O13  1  0.00000000  0.25569733  1.00000000  1
  O  O14  1  0.33057673  0.57391727  0.33787374  1
  O  O15  1  0.66942327  0.42608273  0.66212626  1
  O  O16  1  1.00000000  0.74430267  0.00000000  1
  O  O17  1  0.33057673  0.08820798  0.33787374  1
  O  O18  1  0.80902958  0.07904621  0.84190657  1
  O  O19  1  0.14276785  0.40633669  0.18732761  1
  O  O20  1  0.46742921  0.73884401  0.52231199  1
  O  O21  1  0.85723215  0.59366331  0.81267239  1
  O  O22  1  0.19097042  0.92095379  0.15809343  1
  O  O23  1  0.53257079  0.26115599  0.47768801  1
  O  O24  1  0.36012672  0.57852747  0.84294506  1
  O  O25  1  0.67675678  0.90712952  0.18573997  1
  O  O26  1  0.02313495  0.24510391  0.50979317  1
  O  O27  1  0.32324322  0.09287048  0.81426003  1
  O  O28  1  0.63987328  0.42147253  0.15705494  1
  O  O29  1  0.97686505  0.75489609  0.49020683  1
