# generated using pymatgen
data_Zr2CoNi
_symmetry_space_group_name_H-M   'P 1'
_cell_length_a   3.31702790
_cell_length_b   4.08845242
_cell_length_c   5.21851393
_cell_angle_alpha   90.00000000
_cell_angle_beta   71.46925657
_cell_angle_gamma   90.00000000
_symmetry_Int_Tables_number   1
_chemical_formula_structural   Zr2CoNi
_chemical_formula_sum   'Zr2 Co1 Ni1'
_cell_volume   67.10169065
_cell_formula_units_Z   1
loop_
 _symmetry_equiv_pos_site_id
 _symmetry_equiv_pos_as_xyz
  1  'x, y, z'
loop_
 _atom_site_type_symbol
 _atom_site_label
 _atom_site_symmetry_multiplicity
 _atom_site_fract_x
 _atom_site_fract_y
 _atom_site_fract_z
 _atom_site_occupancy
  Zr  Zr0  1  0.14110926  0.75000000  0.71778149  1
  Zr  Zr1  1  0.86162957  0.25000000  0.27674087  1
  Co  Co2  1  0.41444034  0.75000000  0.17111932  1
  Ni  Ni3  1  0.58282084  0.25000000  0.83435832  1
