# generated using pymatgen
data_Sr6Zn(RuO6)2
_symmetry_space_group_name_H-M   'P 1'
_cell_length_a   5.57063802
_cell_length_b   6.98442049
_cell_length_c   8.81128223
_cell_angle_alpha   112.22289916
_cell_angle_beta   108.42773084
_cell_angle_gamma   90.00000000
_symmetry_Int_Tables_number   1
_chemical_formula_structural   Sr6Zn(RuO6)2
_chemical_formula_sum   'Sr6 Zn1 Ru2 O12'
_cell_volume   298.28512480
_cell_formula_units_Z   1
loop_
 _symmetry_equiv_pos_site_id
 _symmetry_equiv_pos_as_xyz
  1  'x, y, z'
loop_
 _atom_site_type_symbol
 _atom_site_label
 _atom_site_symmetry_multiplicity
 _atom_site_fract_x
 _atom_site_fract_y
 _atom_site_fract_z
 _atom_site_occupancy
  Sr  Sr0  1  0.20787620  0.29532525  0.41575240  1
  Sr  Sr1  1  0.88938179  0.29452964  0.77876259  1
  Sr  Sr2  1  0.54797372  0.28535805  0.09594844  1
  Sr  Sr3  1  0.79212380  0.70467475  0.58424760  1
  Sr  Sr4  1  0.45202628  0.71464195  0.90405156  1
  Sr  Sr5  1  0.11061821  0.70547036  0.22123741  1
  Zn  Zn6  1  -0.00000000  -0.00000000  -0.00000000  1
  Ru  Ru7  1  0.67025485  0.99853128  0.34050870  1
  Ru  Ru8  1  0.32974515  0.00146872  0.65949130  1
  O  O9  1  0.27948595  0.67809266  0.55897089  1
  O  O10  1  0.94438575  0.66996987  0.88877249  1
  O  O11  1  0.61356585  0.67883313  0.22713169  1
  O  O12  1  0.72051405  0.32190734  0.44102911  1
  O  O13  1  0.38643415  0.32116687  0.77286831  1
  O  O14  1  0.05561425  0.33003013  0.11122751  1
  O  O15  1  0.50000000  -0.00000000  0.50000000  1
  O  O16  1  0.17222347  0.99927263  0.82317631  1
  O  O17  1  0.82777653  0.00072737  0.17682369  1
  O  O18  1  -0.00000000  -0.00000000  0.50000000  1
  O  O19  1  0.65095384  0.99927263  0.82317631  1
  O  O20  1  0.34904616  0.00072737  0.17682369  1
