# generated using pymatgen
data_Tb2VFeO6
_symmetry_space_group_name_H-M   'P 1'
_cell_length_a   5.36070932
_cell_length_b   5.67189106
_cell_length_c   7.73144639
_cell_angle_alpha   90.00000000
_cell_angle_beta   89.94508058
_cell_angle_gamma   90.00000000
_symmetry_Int_Tables_number   1
_chemical_formula_structural   Tb2VFeO6
_chemical_formula_sum   'Tb4 V2 Fe2 O12'
_cell_volume   235.07729695
_cell_formula_units_Z   2
loop_
 _symmetry_equiv_pos_site_id
 _symmetry_equiv_pos_as_xyz
  1  'x, y, z'
loop_
 _atom_site_type_symbol
 _atom_site_label
 _atom_site_symmetry_multiplicity
 _atom_site_fract_x
 _atom_site_fract_y
 _atom_site_fract_z
 _atom_site_occupancy
  Tb  Tb0  1  0.51977517  0.56957504  0.24966593  1
  Tb  Tb1  1  0.98022483  0.06957504  0.25033407  1
  Tb  Tb2  1  0.48022483  0.43042496  0.75033407  1
  Tb  Tb3  1  0.01977517  0.93042496  0.74966593  1
  V  V4  1  0.50000000  -0.00000000  0.50000000  1
  V  V5  1  -0.00000000  0.50000000  0.00000000  1
  Fe  Fe6  1  0.50000000  0.00000000  0.00000000  1
  Fe  Fe7  1  -0.00000000  0.50000000  0.50000000  1
  O  O8  1  0.38622582  0.95969162  0.24878826  1
  O  O9  1  0.11377418  0.45969162  0.25121174  1
  O  O10  1  0.61377418  0.04030838  0.75121174  1
  O  O11  1  0.88622582  0.54030838  0.74878826  1
  O  O12  1  0.80922282  0.80355067  0.05710612  1
  O  O13  1  0.69077718  0.30355067  0.44289388  1
  O  O14  1  0.18794619  0.19736745  0.55799796  1
  O  O15  1  0.31205381  0.69736745  0.94200204  1
  O  O16  1  0.19077718  0.19644933  0.94289388  1
  O  O17  1  0.30922282  0.69644933  0.55710612  1
  O  O18  1  0.81205381  0.80263255  0.44200204  1
  O  O19  1  0.68794619  0.30263255  0.05799796  1
