# generated using pymatgen
data_TlMo2P3O13
_symmetry_space_group_name_H-M   'P 1'
_cell_length_a   6.51645744
_cell_length_b   9.96926897
_cell_length_c   19.38993422
_cell_angle_alpha   90.00000000
_cell_angle_beta   90.00000000
_cell_angle_gamma   107.17396719
_symmetry_Int_Tables_number   1
_chemical_formula_structural   TlMo2P3O13
_chemical_formula_sum   'Tl4 Mo8 P12 O52'
_cell_volume   1203.48916997
_cell_formula_units_Z   4
loop_
 _symmetry_equiv_pos_site_id
 _symmetry_equiv_pos_as_xyz
  1  'x, y, z'
loop_
 _atom_site_type_symbol
 _atom_site_label
 _atom_site_symmetry_multiplicity
 _atom_site_fract_x
 _atom_site_fract_y
 _atom_site_fract_z
 _atom_site_occupancy
  Tl  Tl0  1  0.54121389  0.35612298  0.34078414  1
  Tl  Tl1  1  0.95878611  0.64387702  0.84078414  1
  Tl  Tl2  1  0.45878611  0.64387702  0.65921586  1
  Tl  Tl3  1  0.04121389  0.35612298  0.15921586  1
  Mo  Mo4  1  0.88681498  0.06051304  0.33868132  1
  Mo  Mo5  1  0.61318502  0.93948696  0.83868132  1
  Mo  Mo6  1  0.11318502  0.93948696  0.66131868  1
  Mo  Mo7  1  0.38681498  0.06051304  0.16131868  1
  Mo  Mo8  1  0.68737872  0.62123104  0.12354332  1
  Mo  Mo9  1  0.81262128  0.37876896  0.62354332  1
  Mo  Mo10  1  0.31262128  0.37876896  0.87645668  1
  Mo  Mo11  1  0.18737872  0.62123104  0.37645668  1
  P  P12  1  0.84530839  0.96598867  0.17518922  1
  P  P13  1  0.65469161  0.03401133  0.67518922  1
  P  P14  1  0.15469161  0.03401133  0.82481078  1
  P  P15  1  0.34530839  0.96598867  0.32481078  1
  P  P16  1  0.50944281  0.30288672  0.03419790  1
  P  P17  1  0.99055719  0.69711328  0.53419790  1
  P  P18  1  0.49055719  0.69711328  0.96580210  1
  P  P19  1  0.00944281  0.30288672  0.46580210  1
  P  P20  1  0.76628953  0.29220673  0.91035133  1
  P  P21  1  0.73371047  0.70779327  0.41035133  1
  P  P22  1  0.23371047  0.70779327  0.08964867  1
  P  P23  1  0.26628953  0.29220673  0.58964867  1
  O  O24  1  0.57229191  0.05901798  0.34526673  1
  O  O25  1  0.92770809  0.94098202  0.84526673  1
  O  O26  1  0.42770809  0.94098202  0.65473327  1
  O  O27  1  0.07229191  0.05901798  0.15473327  1
  O  O28  1  0.92762173  0.15625538  0.43427274  1
  O  O29  1  0.57237827  0.84374462  0.93427274  1
  O  O30  1  0.07237827  0.84374462  0.56572726  1
  O  O31  1  0.42762173  0.15625538  0.06572726  1
  O  O32  1  0.19417650  0.05186149  0.34743474  1
  O  O33  1  0.30582350  0.94813851  0.84743474  1
  O  O34  1  0.80582350  0.94813851  0.65256526  1
  O  O35  1  0.69417650  0.05186149  0.15256526  1
  O  O36  1  0.95608433  0.21338002  0.29083714  1
  O  O37  1  0.54391567  0.78661998  0.79083714  1
  O  O38  1  0.04391567  0.78661998  0.70916286  1
  O  O39  1  0.45608433  0.21338002  0.20916286  1
  O  O40  1  0.72678915  0.30653666  0.99207716  1
  O  O41  1  0.77321085  0.69346334  0.49207716  1
  O  O42  1  0.27321085  0.69346334  0.00792284  1
  O  O43  1  0.22678915  0.30653666  0.50792284  1
  O  O44  1  0.82863387  0.93264923  0.25306472  1
  O  O45  1  0.67136613  0.06735077  0.75306472  1
  O  O46  1  0.17136613  0.06735077  0.74693528  1
  O  O47  1  0.32863387  0.93264923  0.24693528  1
  O  O48  1  0.68612606  0.57140161  0.20822509  1
  O  O49  1  0.81387394  0.42859839  0.70822509  1
  O  O50  1  0.31387394  0.42859839  0.79177491  1
  O  O51  1  0.18612606  0.57140161  0.29177491  1
  O  O52  1  0.36976519  0.62696448  0.12693480  1
  O  O53  1  0.13023481  0.37303552  0.62693480  1
  O  O54  1  0.63023481  0.37303552  0.87306520  1
  O  O55  1  0.86976519  0.62696448  0.37306520  1
  O  O56  1  0.78651023  0.86208417  0.39246380  1
  O  O57  1  0.71348977  0.13791583  0.89246380  1
  O  O58  1  0.21348977  0.13791583  0.60753620  1
  O  O59  1  0.28651023  0.86208417  0.10753620  1
  O  O60  1  0.99699051  0.62188905  0.09945802  1
  O  O61  1  0.50300949  0.37811095  0.59945802  1
  O  O62  1  0.00300949  0.37811095  0.90054198  1
  O  O63  1  0.49699051  0.62188905  0.40054198  1
  O  O64  1  0.58124397  0.41181224  0.09162335  1
  O  O65  1  0.91875603  0.58818776  0.59162335  1
  O  O66  1  0.41875603  0.58818776  0.90837665  1
  O  O67  1  0.08124397  0.41181224  0.40837665  1
  O  O68  1  0.64858977  0.66500833  0.01615292  1
  O  O69  1  0.85141023  0.33499167  0.51615292  1
  O  O70  1  0.35141023  0.33499167  0.98384708  1
  O  O71  1  0.14858977  0.66500833  0.48384708  1
  O  O72  1  0.79086561  0.82901095  0.13404265  1
  O  O73  1  0.70913439  0.17098905  0.63404265  1
  O  O74  1  0.20913439  0.17098905  0.86595735  1
  O  O75  1  0.29086561  0.82901095  0.36595735  1
