# generated using pymatgen
data_HfNi3
_symmetry_space_group_name_H-M   'P 1'
_cell_length_a   5.26660196
_cell_length_b   5.26660196
_cell_length_c   21.41055273
_cell_angle_alpha   90.00000000
_cell_angle_beta   90.00000000
_cell_angle_gamma   119.99999999
_symmetry_Int_Tables_number   1
_chemical_formula_structural   HfNi3
_chemical_formula_sum   'Hf10 Ni30'
_cell_volume   514.30352829
_cell_formula_units_Z   10
loop_
 _symmetry_equiv_pos_site_id
 _symmetry_equiv_pos_as_xyz
  1  'x, y, z'
loop_
 _atom_site_type_symbol
 _atom_site_label
 _atom_site_symmetry_multiplicity
 _atom_site_fract_x
 _atom_site_fract_y
 _atom_site_fract_z
 _atom_site_occupancy
  Ni  Ni0  1  0.83223250  0.16776750  0.35041772  1
  Ni  Ni1  1  0.83223250  0.66446499  0.35041772  1
  Ni  Ni2  1  0.33553501  0.16776750  0.35041772  1
  Ni  Ni3  1  0.66446499  0.83223250  0.85041772  1
  Ni  Ni4  1  0.16776750  0.33553501  0.64958228  1
  Ni  Ni5  1  0.16776750  0.83223250  0.85041772  1
  Ni  Ni6  1  0.16776750  0.33553501  0.85041772  1
  Ni  Ni7  1  0.83223250  0.16776750  0.14958228  1
  Ni  Ni8  1  0.33553501  0.16776750  0.14958228  1
  Ni  Ni9  1  0.66446499  0.83223250  0.64958228  1
  Ni  Ni10  1  0.51065307  0.02130614  0.25000000  1
  Ni  Ni11  1  0.48934693  0.51065307  0.75000000  1
  Ni  Ni12  1  0.02130614  0.51065307  0.75000000  1
  Ni  Ni13  1  0.97869386  0.48934693  0.25000000  1
  Ni  Ni14  1  0.51065307  0.48934693  0.25000000  1
  Ni  Ni15  1  0.48934693  0.97869386  0.75000000  1
  Ni  Ni16  1  0.15629514  0.31259028  0.05119273  1
  Ni  Ni17  1  0.84370486  0.15629514  0.55119273  1
  Ni  Ni18  1  0.31259028  0.15629514  0.55119273  1
  Ni  Ni19  1  0.68740972  0.84370486  0.05119273  1
  Ni  Ni20  1  0.15629514  0.84370486  0.05119273  1
  Ni  Ni21  1  0.84370486  0.68740972  0.94880727  1
  Ni  Ni22  1  0.84370486  0.15629514  0.94880727  1
  Ni  Ni23  1  0.84370486  0.68740972  0.55119273  1
  Ni  Ni24  1  0.31259028  0.15629514  0.94880727  1
  Ni  Ni25  1  0.68740972  0.84370486  0.44880727  1
  Ni  Ni26  1  0.15629514  0.31259028  0.44880727  1
  Ni  Ni27  1  0.15629514  0.84370486  0.44880727  1
  Ni  Ni28  1  0.83223250  0.66446499  0.14958228  1
  Ni  Ni29  1  0.16776750  0.83223250  0.64958228  1
  Hf  Hf30  1  0.33333333  0.66666667  0.95385274  1
  Hf  Hf31  1  0.66666667  0.33333333  0.45385274  1
  Hf  Hf32  1  0.66666667  0.33333333  0.04614726  1
  Hf  Hf33  1  0.33333333  0.66666667  0.54614726  1
  Hf  Hf34  1  0.33333333  0.66666667  0.15106697  1
  Hf  Hf35  1  0.66666667  0.33333333  0.65106697  1
  Hf  Hf36  1  0.66666667  0.33333333  0.84893303  1
  Hf  Hf37  1  0.33333333  0.66666667  0.34893303  1
  Hf  Hf38  1  0.00000000  0.00000000  0.75000000  1
  Hf  Hf39  1  0.00000000  0.00000000  0.25000000  1
