# generated using pymatgen
data_KHfMg30O31
_symmetry_space_group_name_H-M   'P 1'
_cell_length_a   8.61415972
_cell_length_b   8.64460427
_cell_length_c   8.64615551
_cell_angle_alpha   90.00000000
_cell_angle_beta   90.00000000
_cell_angle_gamma   90.00000000
_symmetry_Int_Tables_number   1
_chemical_formula_structural   KHfMg30O31
_chemical_formula_sum   'K1 Hf1 Mg30 O31'
_cell_volume   643.84463262
_cell_formula_units_Z   1
loop_
 _symmetry_equiv_pos_site_id
 _symmetry_equiv_pos_as_xyz
  1  'x, y, z'
loop_
 _atom_site_type_symbol
 _atom_site_label
 _atom_site_symmetry_multiplicity
 _atom_site_fract_x
 _atom_site_fract_y
 _atom_site_fract_z
 _atom_site_occupancy
  K  K0  1  0.00026193  -0.00000000  0.00000000  1
  Hf  Hf1  1  0.01720188  -0.00000000  0.50000000  1
  Mg  Mg2  1  0.99954958  0.50000000  0.00000000  1
  Mg  Mg3  1  0.99723935  0.50000000  0.50000000  1
  Mg  Mg4  1  0.50088917  -0.00000000  0.00000000  1
  Mg  Mg5  1  0.50062482  -0.00000000  0.50000000  1
  Mg  Mg6  1  0.50032291  0.50000000  0.00000000  1
  Mg  Mg7  1  0.50092232  0.50000000  0.50000000  1
  Mg  Mg8  1  0.99962783  0.25890885  0.24546554  1
  Mg  Mg9  1  0.99962783  0.25890885  0.75453446  1
  Mg  Mg10  1  0.99962783  0.74109115  0.24546554  1
  Mg  Mg11  1  0.99962783  0.74109115  0.75453446  1
  Mg  Mg12  1  0.50000488  0.25166045  0.24907815  1
  Mg  Mg13  1  0.50000488  0.25166045  0.75092185  1
  Mg  Mg14  1  0.50000488  0.74833955  0.24907815  1
  Mg  Mg15  1  0.50000488  0.74833955  0.75092185  1
  Mg  Mg16  1  0.25954336  -0.00000000  0.24276536  1
  Mg  Mg17  1  0.25954336  -0.00000000  0.75723464  1
  Mg  Mg18  1  0.25136524  0.50000000  0.24767855  1
  Mg  Mg19  1  0.25136524  0.50000000  0.75232145  1
  Mg  Mg20  1  0.74324928  -0.00000000  0.24755654  1
  Mg  Mg21  1  0.74324928  -0.00000000  0.75244346  1
  Mg  Mg22  1  0.74827010  0.50000000  0.24918539  1
  Mg  Mg23  1  0.74827010  0.50000000  0.75081461  1
  Mg  Mg24  1  0.25267539  0.25404706  0.00000000  1
  Mg  Mg25  1  0.25287973  0.25684723  0.50000000  1
  Mg  Mg26  1  0.25267539  0.74595294  0.00000000  1
  Mg  Mg27  1  0.25287973  0.74315277  0.50000000  1
  Mg  Mg28  1  0.74736675  0.25218937  0.00000000  1
  Mg  Mg29  1  0.74699992  0.25223515  0.50000000  1
  Mg  Mg30  1  0.74736675  0.74781063  0.00000000  1
  Mg  Mg31  1  0.74699992  0.74776485  0.50000000  1
  O  O32  1  0.27471603  -0.00000000  0.00000000  1
  O  O33  1  0.25457830  0.50000000  0.00000000  1
  O  O34  1  0.25021311  0.50000000  0.50000000  1
  O  O35  1  0.72628803  -0.00000000  0.00000000  1
  O  O36  1  0.74881252  -0.00000000  0.50000000  1
  O  O37  1  0.74529002  0.50000000  0.00000000  1
  O  O38  1  0.74731815  0.50000000  0.50000000  1
  O  O39  1  0.24960269  0.25242411  0.24668276  1
  O  O40  1  0.24960269  0.25242411  0.75331724  1
  O  O41  1  0.24960269  0.74757589  0.24668276  1
  O  O42  1  0.24960269  0.74757589  0.75331724  1
  O  O43  1  0.75022847  0.24923410  0.24955549  1
  O  O44  1  0.75022847  0.24923410  0.75044451  1
  O  O45  1  0.75022847  0.75076590  0.24955549  1
  O  O46  1  0.75022847  0.75076590  0.75044451  1
  O  O47  1  0.99839238  -0.00000000  0.26967647  1
  O  O48  1  0.99839238  -0.00000000  0.73032353  1
  O  O49  1  0.99934548  0.50000000  0.25530256  1
  O  O50  1  0.99934548  0.50000000  0.74469744  1
  O  O51  1  0.50007637  -0.00000000  0.25592354  1
  O  O52  1  0.50007637  -0.00000000  0.74407646  1
  O  O53  1  0.50029091  0.50000000  0.25200221  1
  O  O54  1  0.50029091  0.50000000  0.74799779  1
  O  O55  1  0.99924950  0.27417669  0.00000000  1
  O  O56  1  0.99329684  0.25619686  0.50000000  1
  O  O57  1  0.99924950  0.72582331  0.00000000  1
  O  O58  1  0.99329684  0.74380314  0.50000000  1
  O  O59  1  0.50042489  0.25446791  0.00000000  1
  O  O60  1  0.50053204  0.25153734  0.50000000  1
  O  O61  1  0.50042489  0.74553209  0.00000000  1
  O  O62  1  0.50053204  0.74846266  0.50000000  1
