# generated using pymatgen
data_LuAlFe
_symmetry_space_group_name_H-M   'P 1'
_cell_length_a   5.22664588
_cell_length_b   5.22662817
_cell_length_c   8.53817808
_cell_angle_alpha   90.00000000
_cell_angle_beta   90.00000000
_cell_angle_gamma   60.89756092
_symmetry_Int_Tables_number   1
_chemical_formula_structural   LuAlFe
_chemical_formula_sum   'Lu4 Al4 Fe4'
_cell_volume   203.79702190
_cell_formula_units_Z   4
loop_
 _symmetry_equiv_pos_site_id
 _symmetry_equiv_pos_as_xyz
  1  'x, y, z'
loop_
 _atom_site_type_symbol
 _atom_site_label
 _atom_site_symmetry_multiplicity
 _atom_site_fract_x
 _atom_site_fract_y
 _atom_site_fract_z
 _atom_site_occupancy
  Lu  Lu0  1  0.33328078  0.33328793  0.55318514  1
  Lu  Lu1  1  0.66922611  0.66922274  0.42602777  1
  Lu  Lu2  1  0.66922611  0.66922274  0.07397223  1
  Lu  Lu3  1  0.33328078  0.33328793  0.94681486  1
  Al  Al4  1  0.99430325  0.99433350  0.48508429  1
  Al  Al5  1  0.99430325  0.99433350  0.01491571  1
  Al  Al6  1  0.83469909  0.34056156  0.75000000  1
  Al  Al7  1  0.34055754  0.83470348  0.75000000  1
  Fe  Fe8  1  0.83296921  0.83296728  0.75000000  1
  Fe  Fe9  1  0.18004276  0.64440671  0.25000000  1
  Fe  Fe10  1  0.64441310  0.18000659  0.25000000  1
  Fe  Fe11  1  0.17369802  0.17366605  0.25000000  1
