# generated using pymatgen
data_LiP5Pb2O15
_symmetry_space_group_name_H-M   'P 1'
_cell_length_a   5.60401642
_cell_length_b   9.80989931
_cell_length_c   12.47711675
_cell_angle_alpha   90.00000000
_cell_angle_beta   91.27313752
_cell_angle_gamma   90.00000000
_symmetry_Int_Tables_number   1
_chemical_formula_structural   LiP5Pb2O15
_chemical_formula_sum   'Li2 P10 Pb4 O30'
_cell_volume   685.75812644
_cell_formula_units_Z   2
loop_
 _symmetry_equiv_pos_site_id
 _symmetry_equiv_pos_as_xyz
  1  'x, y, z'
loop_
 _atom_site_type_symbol
 _atom_site_label
 _atom_site_symmetry_multiplicity
 _atom_site_fract_x
 _atom_site_fract_y
 _atom_site_fract_z
 _atom_site_occupancy
  Li  Li0  1  0.55688851  0.01518392  0.47538428  1
  Li  Li1  1  0.05688851  0.98481608  0.97538428  1
  P  P2  1  0.89103168  0.45918307  0.34945145  1
  P  P3  1  0.10782605  0.54089643  0.65054449  1
  P  P4  1  0.60782605  0.45910357  0.15054449  1
  P  P5  1  0.39103168  0.54081693  0.84945145  1
  P  P6  1  0.25054795  0.00256919  0.24932312  1
  P  P7  1  0.75054795  0.99743081  0.74932312  1
  P  P8  1  0.07852208  0.19080847  0.41816122  1
  P  P9  1  0.92359015  0.80806940  0.58110930  1
  P  P10  1  0.42359015  0.19193060  0.08110930  1
  P  P11  1  0.57852208  0.80919153  0.91816122  1
  Pb  Pb12  1  0.09506508  0.68501720  0.09207761  1
  Pb  Pb13  1  0.90240702  0.31238453  0.91089955  1
  Pb  Pb14  1  0.40240702  0.68761547  0.41089955  1
  Pb  Pb15  1  0.59506508  0.31498280  0.59207761  1
  O  O16  1  0.74978435  0.38786322  0.24996273  1
  O  O17  1  0.24978435  0.61213678  0.74996273  1
  O  O18  1  0.30989485  0.16683224  0.47832104  1
  O  O19  1  0.69265892  0.83446984  0.52036060  1
  O  O20  1  0.19265892  0.16553016  0.02036060  1
  O  O21  1  0.80989485  0.83316776  0.97832104  1
  O  O22  1  0.40187775  0.92873378  0.33231507  1
  O  O23  1  0.60387373  0.07552772  0.66845133  1
  O  O24  1  0.10387373  0.92447228  0.16845133  1
  O  O25  1  0.90187775  0.07126622  0.83231507  1
  O  O26  1  0.84358297  0.16880267  0.47233491  1
  O  O27  1  0.15557559  0.82712314  0.52597915  1
  O  O28  1  0.65557559  0.17287686  0.02597915  1
  O  O29  1  0.34358297  0.83119733  0.97233491  1
  O  O30  1  0.09279099  0.34573479  0.37294295  1
  O  O31  1  0.90488902  0.65364747  0.62775637  1
  O  O32  1  0.40488902  0.34635253  0.12775637  1
  O  O33  1  0.59279099  0.65426521  0.87294295  1
  O  O34  1  0.72185673  0.47008519  0.44167641  1
  O  O35  1  0.27807674  0.52952006  0.55866604  1
  O  O36  1  0.77807674  0.47047994  0.05866604  1
  O  O37  1  0.22185673  0.52991481  0.94167641  1
  O  O38  1  0.01403093  0.58719782  0.31403353  1
  O  O39  1  0.98586101  0.41247641  0.68567020  1
  O  O40  1  0.48586101  0.58752359  0.18567020  1
  O  O41  1  0.51403093  0.41280218  0.81403353  1
  O  O42  1  0.43191529  0.10591632  0.19098271  1
  O  O43  1  0.56745262  0.89545207  0.80859594  1
  O  O44  1  0.06745262  0.10454793  0.30859594  1
  O  O45  1  0.93191529  0.89408368  0.69098271  1
