# generated using pymatgen
data_Na5EuTaAs4
_symmetry_space_group_name_H-M   'P 1'
_cell_length_a   7.49251027
_cell_length_b   9.56267827
_cell_length_c   9.60129974
_cell_angle_alpha   60.13297512
_cell_angle_beta   89.69434463
_cell_angle_gamma   89.38621155
_symmetry_Int_Tables_number   1
_chemical_formula_structural   Na5EuTaAs4
_chemical_formula_sum   'Na10 Eu2 Ta2 As8'
_cell_volume   596.51724549
_cell_formula_units_Z   2
loop_
 _symmetry_equiv_pos_site_id
 _symmetry_equiv_pos_as_xyz
  1  'x, y, z'
loop_
 _atom_site_type_symbol
 _atom_site_label
 _atom_site_symmetry_multiplicity
 _atom_site_fract_x
 _atom_site_fract_y
 _atom_site_fract_z
 _atom_site_occupancy
  Na  Na0  1  0.38683254  0.53342146  0.93827162  1
  Na  Na1  1  0.38663562  0.93908251  0.53200289  1
  Na  Na2  1  0.88683254  0.47169308  0.06172838  1
  Na  Na3  1  0.88663562  0.47108540  0.46799711  1
  Na  Na4  1  0.21625758  0.13895766  0.71423083  1
  Na  Na5  1  0.20976430  0.71182693  0.13774004  1
  Na  Na6  1  0.22135990  0.14680028  0.14270417  1
  Na  Na7  1  0.71625758  0.85318850  0.28576917  1
  Na  Na8  1  0.72135990  0.28950445  0.85729583  1
  Na  Na9  1  0.70976430  0.84956697  0.86225996  1
  Eu  Eu10  1  0.39073978  0.53123427  0.52836932  1
  Eu  Eu11  1  0.89073978  0.05960359  0.47163068  1
  Ta  Ta12  1  0.49944800  0.33320274  0.33074762  1
  Ta  Ta13  1  0.99944800  0.66395037  0.66925238  1
  As  As14  1  0.10697431  0.81007057  0.38339279  1
  As  As15  1  0.11266613  0.38226139  0.80617693  1
  As  As16  1  0.09760396  0.81410346  0.80494944  1
  As  As17  1  0.60697431  0.19346337  0.61660721  1
  As  As18  1  0.59760396  0.61905290  0.19505056  1
  As  As19  1  0.61266613  0.18843833  0.19382307  1
  As  As20  1  0.16641788  0.33044999  0.33859178  1
  As  As21  1  0.66641788  0.66904177  0.66140822  1
