# generated using pymatgen
data_Pr9Ga5S21
_symmetry_space_group_name_H-M   'P 1'
_cell_length_a   11.81898138
_cell_length_b   11.81881802
_cell_length_c   11.81908492
_cell_angle_alpha   95.60025973
_cell_angle_beta   84.39905376
_cell_angle_gamma   84.39958728
_symmetry_Int_Tables_number   1
_chemical_formula_structural   Pr9Ga5S21
_chemical_formula_sum   'Pr18 Ga10 S42'
_cell_volume   1625.65035090
_cell_formula_units_Z   2
loop_
 _symmetry_equiv_pos_site_id
 _symmetry_equiv_pos_as_xyz
  1  'x, y, z'
loop_
 _atom_site_type_symbol
 _atom_site_label
 _atom_site_symmetry_multiplicity
 _atom_site_fract_x
 _atom_site_fract_y
 _atom_site_fract_z
 _atom_site_occupancy
  Pr  Pr0  1  0.25700028  0.11602461  0.87998634  1
  Pr  Pr1  1  0.91707568  0.45797437  0.22467812  1
  Pr  Pr2  1  0.59688155  0.77756831  0.55037029  1
  Pr  Pr3  1  0.44963122  0.40311735  0.77756704  1
  Pr  Pr4  1  0.12001219  0.74299899  0.11604072  1
  Pr  Pr5  1  0.77532881  0.08291933  0.45796646  1
  Pr  Pr6  1  0.54202879  0.22467810  0.08292443  1
  Pr  Pr7  1  0.22243048  0.55037006  0.40311784  1
  Pr  Pr8  1  0.88397248  0.87998717  0.74300368  1
  Pr  Pr9  1  0.41653337  0.21003989  0.44193495  1
  Pr  Pr10  1  0.07159828  0.55304877  0.78548458  1
  Pr  Pr11  1  0.75020685  0.87569077  0.10846846  1
  Pr  Pr12  1  0.21451016  0.92840540  0.55305369  1
  Pr  Pr13  1  0.89152294  0.24978609  0.87569217  1
  Pr  Pr14  1  0.55807170  0.58346308  0.21003611  1
  Pr  Pr15  1  0.12431435  0.10846941  0.24979608  1
  Pr  Pr16  1  0.78996219  0.44193000  0.58346443  1
  Pr  Pr17  1  0.44693956  0.78549001  0.92840331  1
  Ga  Ga18  1  0.94722727  0.72396349  0.39069172  1
  Ga  Ga19  1  0.60931031  0.05277860  0.72396329  1
  Ga  Ga20  1  0.27604146  0.39069355  0.05278098  1
  Ga  Ga21  1  0.44640449  0.88785676  0.22588922  1
  Ga  Ga22  1  0.11213595  0.22588939  0.55359320  1
  Ga  Ga23  1  0.77411609  0.55359697  0.88785664  1
  Ga  Ga24  1  0.14603480  0.85396962  0.85396473  1
  Ga  Ga25  1  0.84559120  0.15440437  0.15440577  1
  Ga  Ga26  1  0.34604346  0.65395444  0.65395253  1
  Ga  Ga27  1  0.64600744  0.35399265  0.35399157  1
  S  S28  1  0.98156428  0.54516033  0.44925191  1
  S  S29  1  0.63985511  0.87469849  0.78215074  1
  S  S30  1  0.30160412  0.20936683  0.10761313  1
  S  S31  1  0.89238561  0.69839295  0.20936285  1
  S  S32  1  0.55075510  0.01843340  0.54516593  1
  S  S33  1  0.21785520  0.36014538  0.87469774  1
  S  S34  1  0.12529905  0.78214353  0.36014019  1
  S  S35  1  0.79063686  0.10761176  0.69838899  1
  S  S36  1  0.45483746  0.44925348  0.01844098  1
  S  S37  1  0.52010986  0.96833188  0.07022485  1
  S  S38  1  0.18538606  0.30045193  0.39376747  1
  S  S39  1  0.84112301  0.63256294  0.72729121  1
  S  S40  1  0.60622935  0.81461284  0.30045444  1
  S  S41  1  0.27270498  0.15888330  0.63256110  1
  S  S42  1  0.92977726  0.47987926  0.96832301  1
  S  S43  1  0.36744638  0.72729177  0.15888653  1
  S  S44  1  0.03167123  0.07022314  0.47987891  1
  S  S45  1  0.69954106  0.39377783  0.81461842  1
  S  S46  1  0.82238983  0.84609640  0.51154555  1
  S  S47  1  0.48845745  0.17761347  0.84609387  1
  S  S48  1  0.15390246  0.51154114  0.17761386  1
  S  S49  1  0.65406139  0.67842577  0.01089145  1
  S  S50  1  0.32158061  0.01089536  0.34593812  1
  S  S51  1  0.98910216  0.34593161  0.67842112  1
  S  S52  1  0.69197613  0.55352042  0.40082701  1
  S  S53  1  0.33698050  0.89116933  0.75226445  1
  S  S54  1  0.00618019  0.23515926  0.08888604  1
  S  S55  1  0.91111296  0.99382173  0.23515879  1
  S  S56  1  0.59917970  0.30802981  0.55352201  1
  S  S57  1  0.24774044  0.66301218  0.89116242  1
  S  S58  1  0.10883107  0.75225840  0.66301362  1
  S  S59  1  0.76483677  0.08888476  0.99382293  1
  S  S60  1  0.44647815  0.40082743  0.30802254  1
  S  S61  1  0.62638723  0.14617007  0.28564371  1
  S  S62  1  0.28087154  0.47715766  0.62093706  1
  S  S63  1  0.96677349  0.78786179  0.94211306  1
  S  S64  1  0.37905819  0.71913776  0.47716194  1
  S  S65  1  0.05788370  0.03322861  0.78786609  1
  S  S66  1  0.71435928  0.37360739  0.14615816  1
  S  S67  1  0.21213480  0.94211048  0.03322365  1
  S  S68  1  0.85383674  0.28564666  0.37361463  1
  S  S69  1  0.52283586  0.62094392  0.71913515  1
