# generated using pymatgen
data_ScNb2B2Ru5
_symmetry_space_group_name_H-M   'P 1'
_cell_length_a   3.05266631
_cell_length_b   9.47581502
_cell_length_c   9.47581502
_cell_angle_alpha   89.98163984
_cell_angle_beta   90.00000000
_cell_angle_gamma   90.00000000
_symmetry_Int_Tables_number   1
_chemical_formula_structural   ScNb2B2Ru5
_chemical_formula_sum   'Sc2 Nb4 B4 Ru10'
_cell_volume   274.10216124
_cell_formula_units_Z   2
loop_
 _symmetry_equiv_pos_site_id
 _symmetry_equiv_pos_as_xyz
  1  'x, y, z'
loop_
 _atom_site_type_symbol
 _atom_site_label
 _atom_site_symmetry_multiplicity
 _atom_site_fract_x
 _atom_site_fract_y
 _atom_site_fract_z
 _atom_site_occupancy
  Sc  Sc0  1  -0.00000000  0.67474227  0.82525773  1
  Sc  Sc1  1  0.00000000  0.32525773  0.17474227  1
  Nb  Nb2  1  -0.00000000  0.50000000  0.50000000  1
  Nb  Nb3  1  -0.00000000  -0.00000000  0.00000000  1
  Nb  Nb4  1  -0.00000000  0.82329317  0.32329317  1
  Nb  Nb5  1  0.00000000  0.17670683  0.67670683  1
  B  B6  1  0.00000000  0.87745386  0.62254614  1
  B  B7  1  -0.00000000  0.12254614  0.37745386  1
  B  B8  1  -0.00000000  0.61940223  0.11940223  1
  B  B9  1  0.00000000  0.38059777  0.88059777  1
  Ru  Ru10  1  0.50000000  -0.00000000  0.50000000  1
  Ru  Ru11  1  0.50000000  0.50000000  0.00000000  1
  Ru  Ru12  1  0.50000000  0.71984677  0.56561416  1
  Ru  Ru13  1  0.50000000  0.28015323  0.43438584  1
  Ru  Ru14  1  0.50000000  0.78379381  0.07606388  1
  Ru  Ru15  1  0.50000000  0.21620619  0.92393612  1
  Ru  Ru16  1  0.50000000  0.57606388  0.28379381  1
  Ru  Ru17  1  0.50000000  0.42393612  0.71620619  1
  Ru  Ru18  1  0.50000000  0.06561416  0.21984677  1
  Ru  Ru19  1  0.50000000  0.93438584  0.78015323  1
