# generated using pymatgen
data_Nb4H3S8
_symmetry_space_group_name_H-M   'P 1'
_cell_length_a   3.35740429
_cell_length_b   3.35740525
_cell_length_c   27.08397092
_cell_angle_alpha   90.00000000
_cell_angle_beta   90.00000000
_cell_angle_gamma   59.99999063
_symmetry_Int_Tables_number   1
_chemical_formula_structural   Nb4H3S8
_chemical_formula_sum   'Nb4 H3 S8'
_cell_volume   264.39323307
_cell_formula_units_Z   1
loop_
 _symmetry_equiv_pos_site_id
 _symmetry_equiv_pos_as_xyz
  1  'x, y, z'
loop_
 _atom_site_type_symbol
 _atom_site_label
 _atom_site_symmetry_multiplicity
 _atom_site_fract_x
 _atom_site_fract_y
 _atom_site_fract_z
 _atom_site_occupancy
  Nb  Nb0  1  0.33329361  0.33335319  0.37500000  1
  Nb  Nb1  1  0.33350590  0.33324705  0.87500000  1
  Nb  Nb2  1  0.66661851  0.66669074  0.12532267  1
  Nb  Nb3  1  0.66661851  0.66669074  0.62467733  1
  H  H4  1  0.00000364  0.99999818  0.87500000  1
  H  H5  1  0.00001085  -0.00000543  0.12534110  1
  H  H6  1  0.00001085  -0.00000543  0.62465890  1
  S  S7  1  0.33333124  0.33333438  0.06450906  1
  S  S8  1  0.33334912  0.33332544  0.56385406  1
  S  S9  1  0.66661687  0.66669157  0.43298325  1
  S  S10  1  0.66667182  0.66666409  0.93578264  1
  S  S11  1  0.66661687  0.66669157  0.31701675  1
  S  S12  1  0.66667182  0.66666409  0.81421736  1
  S  S13  1  0.33334912  0.33332544  0.18614594  1
  S  S14  1  0.33333124  0.33333438  0.68549094  1
