# generated using pymatgen
data_Pr8Br13N3O
_symmetry_space_group_name_H-M   'P 1'
_cell_length_a   8.53839318
_cell_length_b   11.93584396
_cell_length_c   15.79509253
_cell_angle_alpha   86.14585448
_cell_angle_beta   74.31869792
_cell_angle_gamma   110.95770243
_symmetry_Int_Tables_number   1
_chemical_formula_structural   Pr8Br13N3O
_chemical_formula_sum   'Pr16 Br26 N6 O2'
_cell_volume   1423.03324907
_cell_formula_units_Z   2
loop_
 _symmetry_equiv_pos_site_id
 _symmetry_equiv_pos_as_xyz
  1  'x, y, z'
loop_
 _atom_site_type_symbol
 _atom_site_label
 _atom_site_symmetry_multiplicity
 _atom_site_fract_x
 _atom_site_fract_y
 _atom_site_fract_z
 _atom_site_occupancy
  Pr  Pr0  1  0.24303964  0.18266468  0.55532931  1
  Pr  Pr1  1  0.11004370  0.31493344  0.94434319  1
  Pr  Pr2  1  0.76054655  0.81493344  0.44434319  1
  Pr  Pr3  1  0.88429573  0.68266468  0.05532931  1
  Pr  Pr4  1  0.62184780  0.57626796  0.88798659  1
  Pr  Pr5  1  0.43144830  0.93205567  0.61422363  1
  Pr  Pr6  1  0.38638375  0.43205567  0.11422363  1
  Pr  Pr7  1  0.56643357  0.07626796  0.38798659  1
  Pr  Pr8  1  0.01387439  0.98635252  0.88736857  1
  Pr  Pr9  1  0.41387641  0.51266480  0.61352414  1
  Pr  Pr10  1  0.98526425  0.01266480  0.11352414  1
  Pr  Pr11  1  0.58510956  0.48635252  0.38736857  1
  Pr  Pr12  1  0.45090741  0.20209754  0.94001056  1
  Pr  Pr13  1  0.68582682  0.29371819  0.55923317  1
  Pr  Pr14  1  0.54865821  0.79371819  0.05923317  1
  Pr  Pr15  1  0.31117958  0.70209754  0.44001056  1
  Br  Br16  1  0.64514509  0.42037462  0.72840347  1
  Br  Br17  1  0.45255415  0.07816401  0.77326998  1
  Br  Br18  1  0.35233987  0.57816401  0.27326998  1
  Br  Br19  1  0.54682607  0.92037462  0.22840347  1
  Br  Br20  1  0.83463210  0.08219898  0.56225514  1
  Br  Br21  1  0.81086847  0.41550900  0.93758323  1
  Br  Br22  1  0.16705730  0.91550900  0.43758323  1
  Br  Br23  1  0.18531174  0.58219898  0.06225514  1
  Br  Br24  1  0.65641821  0.76153381  0.63837673  1
  Br  Br25  1  0.03341659  0.73790830  0.86063555  1
  Br  Br26  1  0.34385616  0.23790830  0.36063555  1
  Br  Br27  1  0.96673887  0.26153381  0.13837673  1
  Br  Br28  1  0.10835247  0.40314938  0.52858873  1
  Br  Br29  1  0.73578598  0.09917984  0.97056884  1
  Br  Br30  1  0.89282502  0.59917984  0.47056884  1
  Br  Br31  1  0.26620818  0.90314938  0.02858873  1
  Br  Br32  1  0.11841861  0.25018211  0.75055029  1
  Br  Br33  1  0.88121321  0.75018211  0.25055029  1
  Br  Br34  1  0.07219150  0.94433784  0.68425518  1
  Br  Br35  1  0.31142491  0.55400401  0.81735624  1
  Br  Br36  1  0.92522285  0.05400401  0.31735624  1
  Br  Br37  1  0.68789117  0.44433784  0.18425518  1
  Br  Br38  1  0.63881450  0.83530733  0.86230795  1
  Br  Br39  1  0.16761965  0.66623867  0.63603069  1
  Br  Br40  1  0.36258833  0.16623867  0.13603069  1
  Br  Br41  1  0.83418488  0.33530733  0.36230795  1
  N  N42  1  0.47903251  0.11336289  0.53107337  1
  N  N43  1  0.60325701  0.61336289  0.03107337  1
  N  N44  1  0.15196170  0.13343825  0.96367996  1
  N  N45  1  0.48342855  0.36969166  0.53517654  1
  N  N46  1  0.85108657  0.86969166  0.03517654  1
  N  N47  1  0.51779659  0.63343825  0.46367996  1
  O  O48  1  0.39529301  0.38466450  0.96786896  1
  O  O49  1  0.52150252  0.88466450  0.46786896  1
