# generated using pymatgen
data_SiH7N2F5
_symmetry_space_group_name_H-M   'P 1'
_cell_length_a   6.31296360
_cell_length_b   6.31154964
_cell_length_c   7.25941445
_cell_angle_alpha   90.00000000
_cell_angle_beta   90.00000000
_cell_angle_gamma   88.43351160
_symmetry_Int_Tables_number   1
_chemical_formula_structural   SiH7N2F5
_chemical_formula_sum   'Si2 H14 N4 F10'
_cell_volume   289.14024358
_cell_formula_units_Z   2
loop_
 _symmetry_equiv_pos_site_id
 _symmetry_equiv_pos_as_xyz
  1  'x, y, z'
loop_
 _atom_site_type_symbol
 _atom_site_label
 _atom_site_symmetry_multiplicity
 _atom_site_fract_x
 _atom_site_fract_y
 _atom_site_fract_z
 _atom_site_occupancy
  Si  Si0  1  0.74786689  0.75135556  0.27189839  1
  Si  Si1  1  0.24786689  0.25135556  0.72810161  1
  H  H2  1  0.87614855  0.21940248  0.91508486  1
  H  H3  1  0.61404761  0.27362674  0.92023413  1
  H  H4  1  0.22463165  0.61714958  0.91862786  1
  H  H5  1  0.27083064  0.87759230  0.91722674  1
  H  H6  1  0.11404761  0.77362674  0.07976587  1
  H  H7  1  0.37614855  0.71940248  0.08491514  1
  H  H8  1  0.77083064  0.37759230  0.08277326  1
  H  H9  1  0.72463165  0.11714958  0.08137214  1
  H  H10  1  0.61009821  0.63924963  0.57456656  1
  H  H11  1  0.86837781  0.66627736  0.58910650  1
  H  H12  1  0.70631447  0.87905109  0.59287249  1
  H  H13  1  0.11009821  0.13924963  0.42543344  1
  H  H14  1  0.20631447  0.37905109  0.40712751  1
  H  H15  1  0.36837781  0.16627736  0.41089350  1
  N  N16  1  0.74718136  0.24804543  0.00004831  1
  N  N17  1  0.24718136  0.74804543  -0.00004831  1
  N  N18  1  0.73215667  0.73294651  0.53370971  1
  N  N19  1  0.23215667  0.23294651  0.46629029  1
  F  F20  1  0.76222957  0.76871352  0.03764695  1
  F  F21  1  0.26222957  0.26871352  0.96235305  1
  F  F22  1  0.94541024  0.93240891  0.29251063  1
  F  F23  1  0.54956910  0.57113468  0.25396347  1
  F  F24  1  0.93426916  0.54791143  0.27070782  1
  F  F25  1  0.56086807  0.95513478  0.27605944  1
  F  F26  1  0.04956910  0.07113468  0.74603653  1
  F  F27  1  0.44541024  0.43240891  0.70748937  1
  F  F28  1  0.06086807  0.45513478  0.72394056  1
  F  F29  1  0.43426916  0.04791143  0.72929218  1
