# generated using pymatgen
data_Pr9Al5Se21
_symmetry_space_group_name_H-M   'P 1'
_cell_length_a   12.30697056
_cell_length_b   12.30698836
_cell_length_c   12.30700531
_cell_angle_alpha   95.85955946
_cell_angle_beta   84.14061268
_cell_angle_gamma   84.14032304
_symmetry_Int_Tables_number   1
_chemical_formula_structural   Pr9Al5Se21
_chemical_formula_sum   'Pr18 Al10 Se42'
_cell_volume   1832.65117144
_cell_formula_units_Z   2
loop_
 _symmetry_equiv_pos_site_id
 _symmetry_equiv_pos_as_xyz
  1  'x, y, z'
loop_
 _atom_site_type_symbol
 _atom_site_label
 _atom_site_symmetry_multiplicity
 _atom_site_fract_x
 _atom_site_fract_y
 _atom_site_fract_z
 _atom_site_occupancy
  Pr  Pr0  1  0.25450332  0.11502730  0.88291067  1
  Pr  Pr1  1  0.92074420  0.45572549  0.22339740  1
  Pr  Pr2  1  0.59327245  0.77780157  0.55326555  1
  Pr  Pr3  1  0.44673491  0.40673099  0.77779326  1
  Pr  Pr4  1  0.11709392  0.74550092  0.11502407  1
  Pr  Pr5  1  0.77659843  0.07925805  0.45572331  1
  Pr  Pr6  1  0.54427487  0.22339758  0.07925950  1
  Pr  Pr7  1  0.22220688  0.55327118  0.40671993  1
  Pr  Pr8  1  0.88497993  0.88290760  0.74549853  1
  Pr  Pr9  1  0.41622223  0.21301215  0.44320420  1
  Pr  Pr10  1  0.07384887  0.54877902  0.78136769  1
  Pr  Pr11  1  0.75031329  0.87884108  0.10908167  1
  Pr  Pr12  1  0.21863130  0.92614333  0.54878536  1
  Pr  Pr13  1  0.89090770  0.24968637  0.87884357  1
  Pr  Pr14  1  0.55679867  0.58376915  0.21301756  1
  Pr  Pr15  1  0.12116057  0.10908233  0.24968219  1
  Pr  Pr16  1  0.78699323  0.44320655  0.58377856  1
  Pr  Pr17  1  0.45122858  0.78136613  0.92614897  1
  Al  Al18  1  0.94658193  0.72202729  0.38922292  1
  Al  Al19  1  0.61077185  0.05342683  0.72202625  1
  Al  Al20  1  0.27797312  0.38923294  0.05341780  1
  Al  Al21  1  0.44698555  0.88703454  0.22368731  1
  Al  Al22  1  0.11295655  0.22368673  0.55301608  1
  Al  Al23  1  0.77631655  0.55301401  0.88703809  1
  Al  Al24  1  0.15098131  0.84901575  0.84901445  1
  Al  Al25  1  0.83759016  0.16241197  0.16241339  1
  Al  Al26  1  0.33833789  0.66165808  0.66165963  1
  Al  Al27  1  0.65038315  0.34961194  0.34961648  1
  Se  Se28  1  0.82192607  0.84457854  0.51443141  1
  Se  Se29  1  0.48556586  0.17807970  0.84458171  1
  Se  Se30  1  0.15541930  0.51443154  0.17807999  1
  Se  Se31  1  0.65545120  0.67806929  0.01410657  1
  Se  Se32  1  0.32192447  0.01408861  0.34455453  1
  Se  Se33  1  0.98590334  0.34455119  0.67808082  1
  Se  Se34  1  0.98079701  0.54353776  0.44973038  1
  Se  Se35  1  0.64134272  0.87563090  0.78243681  1
  Se  Se36  1  0.30344369  0.20823734  0.10977353  1
  Se  Se37  1  0.89023085  0.69656131  0.20822581  1
  Se  Se38  1  0.55027110  0.01920660  0.54353030  1
  Se  Se39  1  0.21755614  0.35865673  0.87561858  1
  Se  Se40  1  0.12437703  0.78244531  0.35865140  1
  Se  Se41  1  0.79177288  0.10976955  0.69655913  1
  Se  Se42  1  0.45646699  0.44973308  0.01920223  1
  Se  Se43  1  0.51958044  0.96833310  0.06749531  1
  Se  Se44  1  0.18357275  0.30148490  0.39374601  1
  Se  Se45  1  0.84220673  0.63408063  0.72721135  1
  Se  Se46  1  0.60624882  0.81641546  0.30149208  1
  Se  Se47  1  0.27278762  0.15778453  0.63408075  1
  Se  Se48  1  0.93251037  0.48041923  0.96833629  1
  Se  Se49  1  0.36593290  0.72719723  0.15778863  1
  Se  Se50  1  0.03166165  0.06749396  0.48041656  1
  Se  Se51  1  0.69850803  0.39375071  0.81642048  1
  Se  Se52  1  0.69408621  0.54940470  0.39631197  1
  Se  Se53  1  0.34314680  0.88376960  0.74439920  1
  Se  Se54  1  0.00950793  0.23050829  0.08479204  1
  Se  Se55  1  0.91520866  0.99049492  0.23051274  1
  Se  Se56  1  0.60368745  0.30592031  0.54940529  1
  Se  Se57  1  0.25559982  0.65685308  0.88377480  1
  Se  Se58  1  0.11622879  0.74438925  0.65685446  1
  Se  Se59  1  0.76948934  0.08479163  0.99049361  1
  Se  Se60  1  0.45059642  0.39630964  0.30591357  1
  Se  Se61  1  0.63349817  0.14092119  0.27970761  1
  Se  Se62  1  0.28672931  0.47351451  0.61651455  1
  Se  Se63  1  0.97292269  0.78332587  0.93691061  1
  Se  Se64  1  0.38347708  0.71326796  0.47351730  1
  Se  Se65  1  0.06309530  0.02706950  0.78331825  1
  Se  Se66  1  0.72029441  0.36649311  0.14091202  1
  Se  Se67  1  0.21668187  0.93690228  0.02707058  1
  Se  Se68  1  0.85908435  0.27971155  0.36649375  1
  Se  Se69  1  0.52648207  0.61652252  0.71326662  1
