# generated using pymatgen
data_K5NaNi5(P2O7)4
_symmetry_space_group_name_H-M   'P 1'
_cell_length_a   7.28441953
_cell_length_b   9.42186559
_cell_length_c   10.21850970
_cell_angle_alpha   109.52659472
_cell_angle_beta   89.48212984
_cell_angle_gamma   104.18916472
_symmetry_Int_Tables_number   1
_chemical_formula_structural   K5NaNi5(P2O7)4
_chemical_formula_sum   'K5 Na1 Ni5 P8 O28'
_cell_volume   638.78143908
_cell_formula_units_Z   1
loop_
 _symmetry_equiv_pos_site_id
 _symmetry_equiv_pos_as_xyz
  1  'x, y, z'
loop_
 _atom_site_type_symbol
 _atom_site_label
 _atom_site_symmetry_multiplicity
 _atom_site_fract_x
 _atom_site_fract_y
 _atom_site_fract_z
 _atom_site_occupancy
  K  K0  1  0.99983141  0.55067672  0.82470160  1
  K  K1  1  0.00097672  0.45469924  0.18449641  1
  K  K2  1  0.95005032  0.80230577  0.57504366  1
  K  K3  1  0.05425124  0.18831752  0.41536952  1
  K  K4  1  0.50186455  0.99608296  0.49616466  1
  Na  Na5  1  0.56620451  0.62792045  0.32556070  1
  Ni  Ni6  1  0.00120701  0.99966697  0.99832683  1
  Ni  Ni7  1  0.63970029  0.04060589  0.12874223  1
  Ni  Ni8  1  0.36314152  0.95864727  0.87708385  1
  Ni  Ni9  1  0.50351099  0.50575678  0.00133461  1
  Ni  Ni10  1  0.42233019  0.37821778  0.68292673  1
  P  P11  1  0.75124563  0.18940708  0.87496466  1
  P  P12  1  0.25099601  0.81024931  0.12366116  1
  P  P13  1  0.15128476  0.18724975  0.77831559  1
  P  P14  1  0.85332018  0.81654958  0.21729010  1
  P  P15  1  0.33832270  0.65574018  0.60712272  1
  P  P16  1  0.64924719  0.34280066  0.40274909  1
  P  P17  1  0.63880503  0.74021783  0.82714662  1
  P  P18  1  0.36179320  0.25985019  0.16578283  1
  O  O19  1  0.56464363  0.71665676  0.67005311  1
  O  O20  1  0.43254785  0.29350767  0.32659665  1
  O  O21  1  0.93113752  0.19143789  0.76787171  1
  O  O22  1  0.07605129  0.81178997  0.22944224  1
  O  O23  1  0.33764314  0.67294298  0.46556392  1
  O  O24  1  0.61093278  0.32224669  0.54528834  1
  O  O25  1  0.26775219  0.48621373  0.60639373  1
  O  O26  1  0.74826054  0.50724755  0.41052813  1
  O  O27  1  0.27272452  0.35483387  0.85647849  1
  O  O28  1  0.74019020  0.65269316  0.12980138  1
  O  O29  1  0.23772690  0.76437964  0.71123218  1
  O  O30  1  0.74700297  0.22188255  0.31130635  1
  O  O31  1  0.82599084  0.14220241  0.99186481  1
  O  O32  1  0.17860585  0.85948128  0.00669038  1
  O  O33  1  0.15953384  0.06621705  0.84642509  1
  O  O34  1  0.84964999  0.94061641  0.14996960  1
  O  O35  1  0.21408150  0.14579462  0.62885414  1
  O  O36  1  0.80167523  0.86729182  0.36766541  1
  O  O37  1  0.58318681  0.06760644  0.78027352  1
  O  O38  1  0.42156974  0.92901853  0.21769564  1
  O  O39  1  0.73091031  0.35539229  0.92482776  1
  O  O40  1  0.27108413  0.64364235  0.07052064  1
  O  O41  1  0.54168413  0.85025363  0.93302525  1
  O  O42  1  0.46312922  0.14533194  0.06751314  1
  O  O43  1  0.85215272  0.80298916  0.83524418  1
  O  O44  1  0.14882692  0.19239312  0.16062289  1
  O  O45  1  0.58124973  0.57266496  0.83400443  1
  O  O46  1  0.41197207  0.41830963  0.14746335  1
