# generated using pymatgen
data_La8Si5N14O
_symmetry_space_group_name_H-M   'P 1'
_cell_length_a   5.77478061
_cell_length_b   11.45035269
_cell_length_c   13.51545276
_cell_angle_alpha   112.19238281
_cell_angle_beta   89.98931880
_cell_angle_gamma   90.87841793
_symmetry_Int_Tables_number   1
_chemical_formula_structural   La8Si5N14O
_chemical_formula_sum   'La16 Si10 N28 O2'
_cell_volume   827.37005293
_cell_formula_units_Z   2
loop_
 _symmetry_equiv_pos_site_id
 _symmetry_equiv_pos_as_xyz
  1  'x, y, z'
loop_
 _atom_site_type_symbol
 _atom_site_label
 _atom_site_symmetry_multiplicity
 _atom_site_fract_x
 _atom_site_fract_y
 _atom_site_fract_z
 _atom_site_occupancy
  La  La0  1  0.75796492  0.78876608  0.79911613  1
  La  La1  1  0.24203508  0.21123392  0.20088387  1
  La  La2  1  0.31799205  0.89423314  0.58472113  1
  La  La3  1  0.68200795  0.10576686  0.41527887  1
  La  La4  1  0.76254572  0.41850962  0.67168216  1
  La  La5  1  0.23745428  0.58149038  0.32831784  1
  La  La6  1  0.75314284  0.61315747  0.51475699  1
  La  La7  1  0.24685716  0.38684253  0.48524301  1
  La  La8  1  0.20291378  0.31561889  0.95965856  1
  La  La9  1  0.79708622  0.68438111  0.04034144  1
  La  La10  1  0.25855544  0.58342754  0.84322184  1
  La  La11  1  0.74144456  0.41657246  0.15677816  1
  La  La12  1  0.80513343  0.09862959  0.72197677  1
  La  La13  1  0.19486657  0.90137041  0.27802323  1
  La  La14  1  0.25497361  0.00248356  0.90462564  1
  La  La15  1  0.74502639  0.99751644  0.09537436  1
  Si  Si16  1  0.66773839  0.40667448  0.89278467  1
  Si  Si17  1  0.33226161  0.59332552  0.10721533  1
  Si  Si18  1  0.26690358  0.66373335  0.65039949  1
  Si  Si19  1  0.73309642  0.33626665  0.34960051  1
  Si  Si20  1  0.80946398  0.87258795  0.48030455  1
  Si  Si21  1  0.19053602  0.12741205  0.51969545  1
  Si  Si22  1  0.30891776  0.22176791  0.70592696  1
  Si  Si23  1  0.69108224  0.77823209  0.29407304  1
  Si  Si24  1  0.73482510  0.16532085  0.96712274  1
  Si  Si25  1  0.26517490  0.83467915  0.03287726  1
  N  N26  1  0.88758456  0.49751125  0.86957107  1
  N  N27  1  0.11241544  0.50248875  0.13042893  1
  N  N28  1  0.45889897  0.12229446  0.58933259  1
  N  N29  1  0.54110103  0.87770554  0.41066741  1
  N  N30  1  0.91227370  0.74181265  0.37048322  1
  N  N31  1  0.08772630  0.25818735  0.62951678  1
  N  N32  1  0.46321953  0.35449800  0.78746335  1
  N  N33  1  0.53678047  0.64550200  0.21253665  1
  N  N34  1  0.48461937  0.19920853  0.04402996  1
  N  N35  1  0.51538063  0.80079147  0.95597004  1
  N  N36  1  0.72557203  0.01649562  0.86567535  1
  N  N37  1  0.27442797  0.98350438  0.13432465  1
  N  N38  1  0.77998545  0.28110986  0.91418522  1
  N  N39  1  0.22001455  0.71889014  0.08581478  1
  N  N40  1  0.50000000  0.50000000  0.00000000  1
  N  N41  1  0.21518074  0.12311991  0.77141037  1
  N  N42  1  0.78481926  0.87688009  0.22858963  1
  N  N43  1  0.75916294  0.85477033  0.59977274  1
  N  N44  1  0.24083706  0.14522967  0.40022726  1
  N  N45  1  0.97702859  0.17967325  0.04892797  1
  N  N46  1  0.02297141  0.82032675  0.95107203  1
  N  N47  1  0.00000000  0.00000000  0.50000000  1
  N  N48  1  0.01226686  0.58986736  0.66378156  1
  N  N49  1  0.98773314  0.41013264  0.33621844  1
  N  N50  1  0.69861119  0.34532975  0.47972499  1
  N  N51  1  0.30138881  0.65467025  0.52027501  1
  N  N52  1  0.49796276  0.59201777  0.68469803  1
  N  N53  1  0.50203724  0.40798223  0.31530197  1
  O  O54  1  0.26807815  0.81935571  0.73364989  1
  O  O55  1  0.73192185  0.18064429  0.26635011  1
