# generated using pymatgen
data_LiMg30BO31
_symmetry_space_group_name_H-M   'P 1'
_cell_length_a   8.54534179
_cell_length_b   8.39557760
_cell_length_c   8.63106005
_cell_angle_alpha   90.00000000
_cell_angle_beta   90.00000000
_cell_angle_gamma   90.00000000
_symmetry_Int_Tables_number   1
_chemical_formula_structural   LiMg30BO31
_chemical_formula_sum   'Li1 Mg30 B1 O31'
_cell_volume   619.21883266
_cell_formula_units_Z   1
loop_
 _symmetry_equiv_pos_site_id
 _symmetry_equiv_pos_as_xyz
  1  'x, y, z'
loop_
 _atom_site_type_symbol
 _atom_site_label
 _atom_site_symmetry_multiplicity
 _atom_site_fract_x
 _atom_site_fract_y
 _atom_site_fract_z
 _atom_site_occupancy
  Li  Li0  1  0.99763331  -0.00000000  0.00000000  1
  Mg  Mg1  1  -0.00244800  -0.00000000  0.50000000  1
  Mg  Mg2  1  0.99772188  0.50000000  0.00000000  1
  Mg  Mg3  1  0.50113136  -0.00000000  0.00000000  1
  Mg  Mg4  1  0.51020658  -0.00000000  0.50000000  1
  Mg  Mg5  1  0.50175736  0.50000000  0.00000000  1
  Mg  Mg6  1  0.49461914  0.50000000  0.50000000  1
  Mg  Mg7  1  0.00033465  0.25559781  0.24111785  1
  Mg  Mg8  1  0.00033465  0.25559781  0.75888215  1
  Mg  Mg9  1  0.00033465  0.74440219  0.24111785  1
  Mg  Mg10  1  0.00033465  0.74440219  0.75888215  1
  Mg  Mg11  1  0.49913040  0.25001680  0.24897349  1
  Mg  Mg12  1  0.49913040  0.25001680  0.75102651  1
  Mg  Mg13  1  0.49913040  0.74998320  0.24897349  1
  Mg  Mg14  1  0.49913040  0.74998320  0.75102651  1
  Mg  Mg15  1  0.24482717  -0.00000000  0.24120033  1
  Mg  Mg16  1  0.24482717  -0.00000000  0.75879967  1
  Mg  Mg17  1  0.24776262  0.50000000  0.23764790  1
  Mg  Mg18  1  0.24776262  0.50000000  0.76235210  1
  Mg  Mg19  1  0.75425319  -0.00000000  0.24652703  1
  Mg  Mg20  1  0.75425319  -0.00000000  0.75347297  1
  Mg  Mg21  1  0.75453282  0.50000000  0.25576558  1
  Mg  Mg22  1  0.75453282  0.50000000  0.74423442  1
  Mg  Mg23  1  0.24638246  0.24619453  0.00000000  1
  Mg  Mg24  1  0.25177359  0.24504529  0.50000000  1
  Mg  Mg25  1  0.24638246  0.75380547  0.00000000  1
  Mg  Mg26  1  0.25177359  0.75495471  0.50000000  1
  Mg  Mg27  1  0.75332494  0.24809382  0.00000000  1
  Mg  Mg28  1  0.74720526  0.26327583  0.50000000  1
  Mg  Mg29  1  0.75332494  0.75190618  0.00000000  1
  Mg  Mg30  1  0.74720526  0.73672417  0.50000000  1
  B  B31  1  0.05894007  0.50000000  0.50000000  1
  O  O32  1  0.25653857  -0.00000000  0.00000000  1
  O  O33  1  0.25444169  0.50000000  0.00000000  1
  O  O34  1  0.23047869  0.50000000  0.50000000  1
  O  O35  1  0.74342727  -0.00000000  0.00000000  1
  O  O36  1  0.75772905  -0.00000000  0.50000000  1
  O  O37  1  0.74576913  0.50000000  0.00000000  1
  O  O38  1  0.72276143  0.50000000  0.50000000  1
  O  O39  1  0.24778444  0.24928481  0.25221977  1
  O  O40  1  0.24778444  0.24928481  0.74778023  1
  O  O41  1  0.24778444  0.75071519  0.25221977  1
  O  O42  1  0.24778444  0.75071519  0.74778023  1
  O  O43  1  0.75195033  0.25063826  0.25423333  1
  O  O44  1  0.75195033  0.25063826  0.74576667  1
  O  O45  1  0.75195033  0.74936174  0.25423333  1
  O  O46  1  0.75195033  0.74936174  0.74576667  1
  O  O47  1  -0.00095075  -0.00000000  0.26707223  1
  O  O48  1  -0.00095075  -0.00000000  0.73292777  1
  O  O49  1  0.00435392  0.50000000  0.23241808  1
  O  O50  1  0.00435392  0.50000000  0.76758192  1
  O  O51  1  0.49975836  -0.00000000  0.25384613  1
  O  O52  1  0.49975836  -0.00000000  0.74615387  1
  O  O53  1  0.49187809  0.50000000  0.25236620  1
  O  O54  1  0.49187809  0.50000000  0.74763380  1
  O  O55  1  -0.00000203  0.24950259  0.00000000  1
  O  O56  1  0.00346004  0.33602999  0.50000000  1
  O  O57  1  -0.00000203  0.75049741  0.00000000  1
  O  O58  1  0.00346004  0.66397001  0.50000000  1
  O  O59  1  0.49972201  0.25038686  0.00000000  1
  O  O60  1  0.49296488  0.24828218  0.50000000  1
  O  O61  1  0.49972201  0.74961314  0.00000000  1
  O  O62  1  0.49296488  0.75171782  0.50000000  1
