# generated using pymatgen
data_LaAg(MoO4)2
_symmetry_space_group_name_H-M   'P 1'
_cell_length_a   5.45057996
_cell_length_b   5.45057996
_cell_length_c   6.99186548
_cell_angle_alpha   67.05917797
_cell_angle_beta   67.05917797
_cell_angle_gamma   90.00000000
_symmetry_Int_Tables_number   1
_chemical_formula_structural   LaAg(MoO4)2
_chemical_formula_sum   'La1 Ag1 Mo2 O8'
_cell_volume   173.31161576
_cell_formula_units_Z   1
loop_
 _symmetry_equiv_pos_site_id
 _symmetry_equiv_pos_as_xyz
  1  'x, y, z'
loop_
 _atom_site_type_symbol
 _atom_site_label
 _atom_site_symmetry_multiplicity
 _atom_site_fract_x
 _atom_site_fract_y
 _atom_site_fract_z
 _atom_site_occupancy
  La  La0  1  0.62500000  0.37500000  0.75000000  1
  Ag  Ag1  1  0.37500000  0.62500000  0.25000000  1
  Mo  Mo2  1  0.87500000  0.12500000  0.25000000  1
  Mo  Mo3  1  0.12500000  0.87500000  0.75000000  1
  O  O4  1  0.19718936  0.35423369  0.07357262  1
  O  O5  1  0.72923802  0.07219369  0.07357262  1
  O  O6  1  0.35893110  0.71925847  0.58569324  1
  O  O7  1  0.05537566  0.19504829  0.58569324  1
  O  O8  1  0.80495171  0.64106890  0.91430676  1
  O  O9  1  0.28074153  0.94462434  0.91430676  1
  O  O10  1  0.64576631  0.27076198  0.42642738  1
  O  O11  1  0.92780631  0.80281064  0.42642738  1
