# generated using pymatgen
data_Fe3NiP4
_symmetry_space_group_name_H-M   'P 1'
_cell_length_a   3.24809823
_cell_length_b   5.04167159
_cell_length_c   5.64088326
_cell_angle_alpha   89.61723385
_cell_angle_beta   90.00000000
_cell_angle_gamma   90.00000000
_symmetry_Int_Tables_number   1
_chemical_formula_structural   Fe3NiP4
_chemical_formula_sum   'Fe3 Ni1 P4'
_cell_volume   92.37216609
_cell_formula_units_Z   1
loop_
 _symmetry_equiv_pos_site_id
 _symmetry_equiv_pos_as_xyz
  1  'x, y, z'
loop_
 _atom_site_type_symbol
 _atom_site_label
 _atom_site_symmetry_multiplicity
 _atom_site_fract_x
 _atom_site_fract_y
 _atom_site_fract_z
 _atom_site_occupancy
  Fe  Fe0  1  0.75000000  0.00001664  0.79939222  1
  Fe  Fe1  1  0.25000000  0.50215001  0.29662703  1
  Fe  Fe2  1  0.25000000  0.00325498  0.19995288  1
  Ni  Ni3  1  0.75000000  0.49851604  0.69861621  1
  P  P4  1  0.75000000  0.29999590  0.08704486  1
  P  P5  1  0.75000000  0.81484789  0.41851139  1
  P  P6  1  0.25000000  0.70142139  0.92662809  1
  P  P7  1  0.25000000  0.17979715  0.57322732  1
