# generated using pymatgen
data_La3Ge6(Pd2Pt)2
_symmetry_space_group_name_H-M   'P 1'
_cell_length_a   4.50579880
_cell_length_b   4.50579880
_cell_length_c   29.53076241
_cell_angle_alpha   90.00000000
_cell_angle_beta   90.00000000
_cell_angle_gamma   90.00000000
_symmetry_Int_Tables_number   1
_chemical_formula_structural   La3Ge6(Pd2Pt)2
_chemical_formula_sum   'La6 Ge12 Pd8 Pt4'
_cell_volume   599.54011867
_cell_formula_units_Z   2
loop_
 _symmetry_equiv_pos_site_id
 _symmetry_equiv_pos_as_xyz
  1  'x, y, z'
loop_
 _atom_site_type_symbol
 _atom_site_label
 _atom_site_symmetry_multiplicity
 _atom_site_fract_x
 _atom_site_fract_y
 _atom_site_fract_z
 _atom_site_occupancy
  La  La0  1  0.75000000  0.75000000  0.08537665  1
  La  La1  1  0.75000000  0.75000000  0.41928903  1
  La  La2  1  0.75000000  0.75000000  0.75246172  1
  La  La3  1  0.25000000  0.25000000  0.24799152  1
  La  La4  1  0.25000000  0.25000000  0.58116678  1
  La  La5  1  0.25000000  0.25000000  0.91432196  1
  Ge  Ge6  1  0.75000000  0.25000000  0.16671410  1
  Ge  Ge7  1  0.75000000  0.25000000  0.49979937  1
  Ge  Ge8  1  0.75000000  0.25000000  0.83290187  1
  Ge  Ge9  1  0.25000000  0.75000000  0.16671410  1
  Ge  Ge10  1  0.25000000  0.75000000  0.49979937  1
  Ge  Ge11  1  0.25000000  0.75000000  0.83290187  1
  Ge  Ge12  1  0.75000000  0.75000000  0.29224604  1
  Ge  Ge13  1  0.75000000  0.75000000  0.62555916  1
  Ge  Ge14  1  0.75000000  0.75000000  0.95889213  1
  Ge  Ge15  1  0.25000000  0.25000000  0.04080528  1
  Ge  Ge16  1  0.25000000  0.25000000  0.37485575  1
  Ge  Ge17  1  0.25000000  0.25000000  0.70764753  1
  Pd  Pd18  1  0.25000000  0.25000000  0.45972956  1
  Pd  Pd19  1  0.25000000  0.25000000  0.79246616  1
  Pd  Pd20  1  0.75000000  0.25000000  0.99970901  1
  Pd  Pd21  1  0.75000000  0.25000000  0.33355338  1
  Pd  Pd22  1  0.75000000  0.25000000  0.66658031  1
  Pd  Pd23  1  0.25000000  0.75000000  0.99970901  1
  Pd  Pd24  1  0.25000000  0.75000000  0.33355338  1
  Pd  Pd25  1  0.25000000  0.75000000  0.66658031  1
  Pt  Pt26  1  0.75000000  0.75000000  0.20745557  1
  Pt  Pt27  1  0.75000000  0.75000000  0.54109053  1
  Pt  Pt28  1  0.75000000  0.75000000  0.87464029  1
  Pt  Pt29  1  0.25000000  0.25000000  0.12548826  1
