# generated using pymatgen
data_Ag6HgNO11
_symmetry_space_group_name_H-M   'P 1'
_cell_length_a   7.10363875
_cell_length_b   7.14953334
_cell_length_c   7.14953334
_cell_angle_alpha   88.13556876
_cell_angle_beta   60.86573128
_cell_angle_gamma   119.13426872
_symmetry_Int_Tables_number   1
_chemical_formula_structural   Ag6HgNO11
_chemical_formula_sum   'Ag6 Hg1 N1 O11'
_cell_volume   259.17311485
_cell_formula_units_Z   1
loop_
 _symmetry_equiv_pos_site_id
 _symmetry_equiv_pos_as_xyz
  1  'x, y, z'
loop_
 _atom_site_type_symbol
 _atom_site_label
 _atom_site_symmetry_multiplicity
 _atom_site_fract_x
 _atom_site_fract_y
 _atom_site_fract_z
 _atom_site_occupancy
  Ag  Ag0  1  0.00000000  0.99583619  0.49964802  1
  Ag  Ag1  1  0.50000000  0.49873592  0.49873592  1
  Ag  Ag2  1  0.50238635  0.00264207  0.50025572  1
  Ag  Ag3  1  0.00000000  0.49964802  0.99583619  1
  Ag  Ag4  1  0.50000000  0.99873592  0.99873592  1
  Ag  Ag5  1  0.49761365  0.50025572  0.00264207  1
  Hg  Hg6  1  0.00000000  0.00102294  0.00102294  1
  N  N7  1  0.00000000  0.47266196  0.47266196  1
  O  O8  1  0.28119666  0.14321233  0.57545013  1
  O  O9  1  0.71612558  0.14198409  0.13610025  1
  O  O10  1  0.71880334  0.57545013  0.14321233  1
  O  O11  1  0.28387442  0.13610025  0.14198409  1
  O  O12  1  0.71612558  0.85222583  0.42585851  1
  O  O13  1  0.28119666  0.85664679  0.86201567  1
  O  O14  1  0.28387442  0.42585851  0.85222583  1
  O  O15  1  0.71880334  0.86201567  0.85664679  1
  O  O16  1  0.21739099  0.64143729  0.42404630  1
  O  O17  1  0.00000000  0.34888409  0.34888409  1
  O  O18  1  0.78260901  0.42404630  0.64143729  1
