# generated using pymatgen
data_Ca6Fe(CoO4)3
_symmetry_space_group_name_H-M   'P 1'
_cell_length_a   6.34215608
_cell_length_b   6.34215608
_cell_length_c   12.68417330
_cell_angle_alpha   92.49020971
_cell_angle_beta   92.49020971
_cell_angle_gamma   92.63191056
_symmetry_Int_Tables_number   1
_chemical_formula_structural   Ca6Fe(CoO4)3
_chemical_formula_sum   'Ca12 Fe2 Co6 O24'
_cell_volume   508.64718073
_cell_formula_units_Z   2
loop_
 _symmetry_equiv_pos_site_id
 _symmetry_equiv_pos_as_xyz
  1  'x, y, z'
loop_
 _atom_site_type_symbol
 _atom_site_label
 _atom_site_symmetry_multiplicity
 _atom_site_fract_x
 _atom_site_fract_y
 _atom_site_fract_z
 _atom_site_occupancy
  Ca  Ca0  1  0.61984869  0.88015131  0.12500000  1
  Ca  Ca1  1  0.61984869  0.88015131  0.62500000  1
  Ca  Ca2  1  0.88281025  0.25035420  0.30932515  1
  Ca  Ca3  1  0.88281025  0.25035420  0.80932515  1
  Ca  Ca4  1  0.24964580  0.61718975  0.44067485  1
  Ca  Ca5  1  0.24964580  0.61718975  0.94067485  1
  Ca  Ca6  1  0.11970138  0.74925529  0.19038930  1
  Ca  Ca7  1  0.11970138  0.74925529  0.69038930  1
  Ca  Ca8  1  0.75074471  0.38029862  0.05961070  1
  Ca  Ca9  1  0.75074471  0.38029862  0.55961070  1
  Ca  Ca10  1  0.37946110  0.12053890  0.37500000  1
  Ca  Ca11  1  0.37946110  0.12053890  0.87500000  1
  Fe  Fe12  1  0.75020901  0.74979099  0.37500000  1
  Fe  Fe13  1  0.75020901  0.74979099  0.87500000  1
  Co  Co14  1  0.49924129  0.50002787  0.24987779  1
  Co  Co15  1  0.49924129  0.50002787  0.74987779  1
  Co  Co16  1  -0.00002787  0.00075871  0.00012221  1
  Co  Co17  1  -0.00002787  0.00075871  0.50012221  1
  Co  Co18  1  0.25380894  0.24619106  0.12500000  1
  Co  Co19  1  0.25380894  0.24619106  0.62500000  1
  O  O20  1  0.53569419  0.20935896  0.20330698  1
  O  O21  1  0.53569419  0.20935896  0.70330698  1
  O  O22  1  0.20988074  0.41152693  0.26888263  1
  O  O23  1  0.20988074  0.41152693  0.76888263  1
  O  O24  1  0.40699382  0.53784114  0.10576408  1
  O  O25  1  0.40699382  0.53784114  0.60576408  1
  O  O26  1  0.03842996  0.90871136  0.35462567  1
  O  O27  1  0.03842996  0.90871136  0.85462567  1
  O  O28  1  0.90860499  0.70960088  0.01903462  1
  O  O29  1  0.90860499  0.70960088  0.51903462  1
  O  O30  1  0.70945285  0.03746058  0.45415565  1
  O  O31  1  0.70945285  0.03746058  0.95415565  1
  O  O32  1  0.46253942  0.79054715  0.29584435  1
  O  O33  1  0.46253942  0.79054715  0.79584435  1
  O  O34  1  0.79039912  0.59139501  0.23096538  1
  O  O35  1  0.79039912  0.59139501  0.73096538  1
  O  O36  1  0.59128864  0.46157004  0.39537433  1
  O  O37  1  0.59128864  0.46157004  0.89537433  1
  O  O38  1  0.96215886  0.09300618  0.14423592  1
  O  O39  1  0.96215886  0.09300618  0.64423592  1
  O  O40  1  0.08847307  0.29011926  0.48111737  1
  O  O41  1  0.08847307  0.29011926  0.98111737  1
  O  O42  1  0.29064104  0.96430581  0.04669302  1
  O  O43  1  0.29064104  0.96430581  0.54669302  1
