# generated using pymatgen
data_Cs3Rb5Mo12(P3O17)4
_symmetry_space_group_name_H-M   'P 1'
_cell_length_a   9.70480891
_cell_length_b   11.00089532
_cell_length_c   15.78719191
_cell_angle_alpha   109.04785182
_cell_angle_beta   90.01195874
_cell_angle_gamma   89.98119682
_symmetry_Int_Tables_number   1
_chemical_formula_structural   Cs3Rb5Mo12(P3O17)4
_chemical_formula_sum   'Cs3 Rb5 Mo12 P12 O68'
_cell_volume   1593.18015338
_cell_formula_units_Z   1
loop_
 _symmetry_equiv_pos_site_id
 _symmetry_equiv_pos_as_xyz
  1  'x, y, z'
loop_
 _atom_site_type_symbol
 _atom_site_label
 _atom_site_symmetry_multiplicity
 _atom_site_fract_x
 _atom_site_fract_y
 _atom_site_fract_z
 _atom_site_occupancy
  Cs  Cs0  1  0.11745426  0.16910125  0.48953748  1
  Cs  Cs1  1  0.61743666  0.33094316  0.01046351  1
  Cs  Cs2  1  0.88254534  0.83089381  0.51046067  1
  Rb  Rb3  1  0.12943617  0.59886473  0.71049171  1
  Rb  Rb4  1  0.37062274  0.09875338  0.21039625  1
  Rb  Rb5  1  0.87060974  0.40118294  0.28956263  1
  Rb  Rb6  1  0.62937578  0.90116685  0.78956887  1
  Rb  Rb7  1  0.37971850  0.66929962  0.99007071  1
  Mo  Mo8  1  0.24129604  0.97641748  0.90008855  1
  Mo  Mo9  1  0.25886120  0.47669291  0.40002920  1
  Mo  Mo10  1  0.75889372  0.02325818  0.09987713  1
  Mo  Mo11  1  0.74113292  0.52333820  0.59993958  1
  Mo  Mo12  1  0.37877292  0.30172720  0.75496155  1
  Mo  Mo13  1  0.12133091  0.80149011  0.25477731  1
  Mo  Mo14  1  0.62103317  0.69856401  0.24485026  1
  Mo  Mo15  1  0.87879556  0.19855276  0.74519917  1
  Mo  Mo16  1  0.37650443  0.81417257  0.56066821  1
  Mo  Mo17  1  0.12357022  0.31418657  0.06067166  1
  Mo  Mo18  1  0.62350703  0.18582769  0.43934038  1
  Mo  Mo19  1  0.87656843  0.68576834  0.93932315  1
  P  P20  1  0.90317927  0.57823457  0.12230352  1
  P  P21  1  0.59682121  0.07825125  0.62232612  1
  P  P22  1  0.09704866  0.42201057  0.87780794  1
  P  P23  1  0.40318626  0.92181030  0.37769493  1
  P  P24  1  0.09634249  0.89972087  0.06813083  1
  P  P25  1  0.40393798  0.40001442  0.56823186  1
  P  P26  1  0.90400314  0.09999478  0.93176936  1
  P  P27  1  0.59606510  0.60001069  0.43170069  1
  P  P28  1  0.17344911  0.03906391  0.70052952  1
  P  P29  1  0.32664093  0.53907649  0.20040311  1
  P  P30  1  0.82658164  0.96094512  0.29947716  1
  P  P31  1  0.67324195  0.46115472  0.79966023  1
  O  O32  1  0.42300505  0.24124974  0.83842603  1
  O  O33  1  0.07713945  0.74124299  0.33834881  1
  O  O34  1  0.57598212  0.75772726  0.16078977  1
  O  O35  1  0.92297787  0.25872064  0.66158676  1
  O  O36  1  0.51378952  0.45704359  0.79889086  1
  O  O37  1  0.98595658  0.95658712  0.29843223  1
  O  O38  1  0.48600598  0.54328586  0.20156963  1
  O  O39  1  0.01407406  0.04339640  0.70155794  1
  O  O40  1  0.22937219  0.42951580  0.82262131  1
  O  O41  1  0.27099084  0.92894610  0.32230289  1
  O  O42  1  0.77099199  0.57113762  0.17769942  1
  O  O43  1  0.72903884  0.07109541  0.67771681  1
  O  O44  1  0.52449547  0.20868929  0.66548388  1
  O  O45  1  0.97545014  0.70865622  0.16544762  1
  O  O46  1  0.47553458  0.79138071  0.33448724  1
  O  O47  1  0.02477400  0.29156894  0.83461214  1
  O  O48  1  0.36282716  0.93615550  0.47386998  1
  O  O49  1  0.13763849  0.43658623  0.97400885  1
  O  O50  1  0.63718594  0.06384323  0.52612985  1
  O  O51  1  0.86280522  0.56381819  0.02610450  1
  O  O52  1  0.28380317  0.69282450  0.47881391  1
  O  O53  1  0.21618856  0.19278300  0.97880805  1
  O  O54  1  0.71619651  0.30718422  0.52118926  1
  O  O55  1  0.78405235  0.80722859  0.02122889  1
  O  O56  1  0.23375248  0.01454519  0.78392240  1
  O  O57  1  0.26622282  0.51481746  0.28383553  1
  O  O58  1  0.76622772  0.98531387  0.21607391  1
  O  O59  1  0.73356928  0.48536043  0.71618624  1
  O  O60  1  0.23407750  0.16381811  0.69166591  1
  O  O61  1  0.26616813  0.66375300  0.19120855  1
  O  O62  1  0.76580647  0.83618518  0.30826603  1
  O  O63  1  0.73395336  0.33633374  0.80843090  1
  O  O64  1  0.38293016  0.75305570  0.64855823  1
  O  O65  1  0.11713178  0.25307585  0.14855132  1
  O  O66  1  0.61707658  0.24694250  0.35144871  1
  O  O67  1  0.88290677  0.74692925  0.85146119  1
  O  O68  1  0.20867784  0.92476525  0.61459900  1
  O  O69  1  0.29142687  0.42467039  0.11453862  1
  O  O70  1  0.79135249  0.07522322  0.38540387  1
  O  O71  1  0.70841230  0.57550226  0.88559685  1
  O  O72  1  0.41438707  0.01482128  0.92017587  1
  O  O73  1  0.08567728  0.51480167  0.42017506  1
  O  O74  1  0.58571320  0.98511902  0.07976233  1
  O  O75  1  0.91431840  0.48520305  0.57983726  1
  O  O76  1  0.32798772  0.37989963  0.64794492  1
  O  O77  1  0.17246666  0.87958171  0.14779883  1
  O  O78  1  0.67194874  0.62013120  0.35198342  1
  O  O79  1  0.82800773  0.12015329  0.85206929  1
  O  O80  1  0.55582154  0.73301231  0.50118472  1
  O  O81  1  0.94418985  0.23303390  0.00118833  1
  O  O82  1  0.44417322  0.26698482  0.49880623  1
  O  O83  1  0.05646046  0.76659134  0.99868056  1
  O  O84  1  0.02823037  0.01030287  0.90214309  1
  O  O85  1  0.47182917  0.51035545  0.40213880  1
  O  O86  1  0.97203473  0.98934543  0.09776897  1
  O  O87  1  0.52815118  0.48964014  0.59786214  1
  O  O88  1  0.24418460  0.81013346  0.85083845  1
  O  O89  1  0.25632948  0.31050297  0.35046327  1
  O  O90  1  0.75631302  0.18944769  0.14949961  1
  O  O91  1  0.74367826  0.68951877  0.64952712  1
  O  O92  1  0.20721119  0.96354075  0.02375427  1
  O  O93  1  0.29300033  0.46364066  0.52373419  1
  O  O94  1  0.79305637  0.03638799  0.97624194  1
  O  O95  1  0.70698434  0.53637697  0.47624029  1
  O  O96  1  0.50576405  0.96609899  0.62999444  1
  O  O97  1  0.99425210  0.46607824  0.12999727  1
  O  O98  1  0.49425635  0.03392728  0.37001017  1
  O  O99  1  0.00564046  0.53392113  0.86999196  1
