# generated using pymatgen
data_ZnCr2O4
_symmetry_space_group_name_H-M   'P 1'
_cell_length_a   6.00505239
_cell_length_b   6.00506066
_cell_length_c   18.10819191
_cell_angle_alpha   60.17098896
_cell_angle_beta   60.17082621
_cell_angle_gamma   60.00032189
_symmetry_Int_Tables_number   1
_chemical_formula_structural   ZnCr2O4
_chemical_formula_sum   'Zn6 Cr12 O24'
_cell_volume   462.92691697
_cell_formula_units_Z   6
loop_
 _symmetry_equiv_pos_site_id
 _symmetry_equiv_pos_as_xyz
  1  'x, y, z'
loop_
 _atom_site_type_symbol
 _atom_site_label
 _atom_site_symmetry_multiplicity
 _atom_site_fract_x
 _atom_site_fract_y
 _atom_site_fract_z
 _atom_site_occupancy
  Zn  Zn0  1  0.12122708  0.12122738  0.04543687  1
  Zn  Zn1  1  0.12008176  0.12007924  0.37991213  1
  Zn  Zn2  1  0.49705586  0.49705241  0.33627775  1
  Zn  Zn3  1  0.12608744  0.12608724  0.70723943  1
  Zn  Zn4  1  0.49815360  0.49815304  0.00184197  1
  Zn  Zn5  1  0.87721908  0.87721971  0.62279516  1
  Cr  Cr6  1  0.49868583  0.49868879  0.16643945  1
  Cr  Cr7  1  0.49869313  0.00332402  0.16644206  1
  Cr  Cr8  1  0.49885889  0.49882728  0.50043167  1
  Cr  Cr9  1  0.00331550  0.49869366  0.16644379  1
  Cr  Cr10  1  0.49884238  0.00101466  0.50043603  1
  Cr  Cr11  1  0.50099280  0.50100094  0.66567081  1
  Cr  Cr12  1  0.87846531  0.87848616  0.28822183  1
  Cr  Cr13  1  0.50064150  0.50062908  0.83183093  1
  Cr  Cr14  1  0.00102986  0.49884235  0.50042753  1
  Cr  Cr15  1  0.50062075  0.00322243  0.83182789  1
  Cr  Cr16  1  0.00321277  0.50065165  0.83182505  1
  Cr  Cr17  1  0.87793161  0.87794003  0.95538773  1
  O  O18  1  0.25464103  0.25462815  0.09077543  1
  O  O19  1  0.26061391  0.26060288  0.23939415  1
  O  O20  1  0.25464384  0.71840471  0.09077463  1
  O  O21  1  0.71840307  0.25464089  0.09077528  1
  O  O22  1  0.25317079  0.25316250  0.42519075  1
  O  O23  1  0.27258328  0.75010088  0.24241354  1
  O  O24  1  0.26063588  0.26063885  0.57269591  1
  O  O25  1  0.75010084  0.27259425  0.24240942  1
  O  O26  1  0.73972124  0.73971267  0.09361197  1
  O  O27  1  0.25318309  0.71807889  0.42518911  1
  O  O28  1  0.71808011  0.25317985  0.42518839  1
  O  O29  1  0.75009799  0.75008889  0.24243038  1
  O  O30  1  0.26185907  0.26186667  0.75370183  1
  O  O31  1  0.28487581  0.73698364  0.58039354  1
  O  O32  1  0.73698924  0.28487600  0.58039240  1
  O  O33  1  0.26152791  0.26153494  0.90512089  1
  O  O34  1  0.73994267  0.73994156  0.42671065  1
  O  O35  1  0.26185727  0.71514075  0.75371047  1
  O  O36  1  0.71513533  0.26185793  0.75370911  1
  O  O37  1  0.73698908  0.73697538  0.58039353  1
  O  O38  1  0.27182655  0.75189054  0.90812830  1
  O  O39  1  0.75188667  0.27182642  0.90812794  1
  O  O40  1  0.73824702  0.73825262  0.76173877  1
  O  O41  1  0.75187118  0.75187709  0.90813550  1
