# generated using pymatgen
data_CaLa2(FeO3)3
_symmetry_space_group_name_H-M   'P 1'
_cell_length_a   5.54440594
_cell_length_b   7.84792821
_cell_length_c   16.66323562
_cell_angle_alpha   90.00000000
_cell_angle_beta   90.00000000
_cell_angle_gamma   90.00000000
_symmetry_Int_Tables_number   1
_chemical_formula_structural   CaLa2(FeO3)3
_chemical_formula_sum   'Ca4 La8 Fe12 O36'
_cell_volume   725.05237103
_cell_formula_units_Z   4
loop_
 _symmetry_equiv_pos_site_id
 _symmetry_equiv_pos_as_xyz
  1  'x, y, z'
loop_
 _atom_site_type_symbol
 _atom_site_label
 _atom_site_symmetry_multiplicity
 _atom_site_fract_x
 _atom_site_fract_y
 _atom_site_fract_z
 _atom_site_occupancy
  Ca  Ca0  1  0.49351952  0.75000000  0.15544183  1
  Ca  Ca1  1  0.00648048  0.75000000  0.65544183  1
  Ca  Ca2  1  0.50648048  0.25000000  0.84455817  1
  Ca  Ca3  1  0.99351952  0.25000000  0.34455817  1
  La  La4  1  0.49688375  0.75000000  0.49159431  1
  La  La5  1  0.49234660  0.75000000  0.82241315  1
  La  La6  1  0.00765340  0.75000000  0.32241315  1
  La  La7  1  0.00311625  0.75000000  0.99159431  1
  La  La8  1  0.50765340  0.25000000  0.17758685  1
  La  La9  1  0.50311625  0.25000000  0.50840569  1
  La  La10  1  0.99688375  0.25000000  0.00840569  1
  La  La11  1  0.99234660  0.25000000  0.67758685  1
  Fe  Fe12  1  0.00036226  0.99861307  0.16752646  1
  Fe  Fe13  1  -0.00000000  -0.00000000  0.50000000  1
  Fe  Fe14  1  0.99963774  0.00138693  0.83247354  1
  Fe  Fe15  1  0.50000000  0.50000000  -0.00000000  1
  Fe  Fe16  1  0.50036226  0.49861307  0.33247354  1
  Fe  Fe17  1  0.49963774  0.50138693  0.66752646  1
  Fe  Fe18  1  0.00036226  0.50138693  0.16752646  1
  Fe  Fe19  1  -0.00000000  0.50000000  0.50000000  1
  Fe  Fe20  1  0.99963774  0.49861307  0.83247354  1
  Fe  Fe21  1  0.50000000  -0.00000000  -0.00000000  1
  Fe  Fe22  1  0.50036226  0.00138693  0.33247354  1
  Fe  Fe23  1  0.49963774  0.99861307  0.66752646  1
  O  O24  1  0.21271400  0.53452872  0.07110984  1
  O  O25  1  0.21891694  0.53973580  0.40549268  1
  O  O26  1  0.21240698  0.54085119  0.73730095  1
  O  O27  1  0.28759302  0.95914881  0.23730095  1
  O  O28  1  0.28728600  0.96547128  0.57110984  1
  O  O29  1  0.28108306  0.96026420  0.90549268  1
  O  O30  1  0.78759302  0.04085119  0.26269905  1
  O  O31  1  0.78108306  0.03973580  0.59450732  1
  O  O32  1  0.78728600  0.03452872  0.92889016  1
  O  O33  1  0.71891694  0.46026420  0.09450732  1
  O  O34  1  0.71271400  0.46547128  0.42889016  1
  O  O35  1  0.71240698  0.45914881  0.76269905  1
  O  O36  1  0.78759302  0.45914881  0.26269905  1
  O  O37  1  0.78108306  0.46026420  0.59450732  1
  O  O38  1  0.78728600  0.46547128  0.92889016  1
  O  O39  1  0.71891694  0.03973580  0.09450732  1
  O  O40  1  0.71271400  0.03452872  0.42889016  1
  O  O41  1  0.71240698  0.04085119  0.76269905  1
  O  O42  1  0.21271400  0.96547128  0.07110984  1
  O  O43  1  0.21891694  0.96026420  0.40549268  1
  O  O44  1  0.21240698  0.95914881  0.73730095  1
  O  O45  1  0.28759302  0.54085119  0.23730095  1
  O  O46  1  0.28728600  0.53452872  0.57110984  1
  O  O47  1  0.28108306  0.53973580  0.90549268  1
  O  O48  1  0.56952239  0.75000000  0.00351959  1
  O  O49  1  0.57172456  0.75000000  0.33872323  1
  O  O50  1  0.57766418  0.75000000  0.67164891  1
  O  O51  1  0.92233582  0.75000000  0.17164891  1
  O  O52  1  0.93047761  0.75000000  0.50351959  1
  O  O53  1  0.92827544  0.75000000  0.83872323  1
  O  O54  1  0.42233582  0.25000000  0.32835109  1
  O  O55  1  0.42827544  0.25000000  0.66127677  1
  O  O56  1  0.43047761  0.25000000  0.99648041  1
  O  O57  1  0.07172456  0.25000000  0.16127677  1
  O  O58  1  0.06952239  0.25000000  0.49648041  1
  O  O59  1  0.07766418  0.25000000  0.82835109  1
