# generated using pymatgen
data_Ba2Ag8S7
_symmetry_space_group_name_H-M   'P 1'
_cell_length_a   4.43961010
_cell_length_b   10.99393556
_cell_length_c   16.15018612
_cell_angle_alpha   90.00000000
_cell_angle_beta   90.00000000
_cell_angle_gamma   90.00000000
_symmetry_Int_Tables_number   1
_chemical_formula_structural   Ba2Ag8S7
_chemical_formula_sum   'Ba4 Ag16 S14'
_cell_volume   788.27100001
_cell_formula_units_Z   2
loop_
 _symmetry_equiv_pos_site_id
 _symmetry_equiv_pos_as_xyz
  1  'x, y, z'
loop_
 _atom_site_type_symbol
 _atom_site_label
 _atom_site_symmetry_multiplicity
 _atom_site_fract_x
 _atom_site_fract_y
 _atom_site_fract_z
 _atom_site_occupancy
  Ba  Ba0  1  0.75729923  0.12286732  0.61306942  1
  Ba  Ba1  1  0.75729923  0.12286732  0.88693058  1
  Ba  Ba2  1  0.25729923  0.87713268  0.38693058  1
  Ba  Ba3  1  0.25729923  0.87713268  0.11306942  1
  Ag  Ag4  1  0.25283548  0.52123024  0.64518306  1
  Ag  Ag5  1  0.25283548  0.52123024  0.85481694  1
  Ag  Ag6  1  0.75283548  0.47876976  0.35481694  1
  Ag  Ag7  1  0.75283548  0.47876976  0.14518306  1
  Ag  Ag8  1  0.26621026  0.80330692  0.60604131  1
  Ag  Ag9  1  0.26621026  0.80330692  0.89395869  1
  Ag  Ag10  1  0.76621026  0.19669308  0.39395869  1
  Ag  Ag11  1  0.76621026  0.19669308  0.10604131  1
  Ag  Ag12  1  0.75577459  0.63169394  0.54018046  1
  Ag  Ag13  1  0.75577459  0.63169394  0.95981954  1
  Ag  Ag14  1  0.25577459  0.36830606  0.45981954  1
  Ag  Ag15  1  0.25577459  0.36830606  0.04018046  1
  Ag  Ag16  1  0.74781049  0.42239914  0.75000000  1
  Ag  Ag17  1  0.24781049  0.57760086  0.25000000  1
  Ag  Ag18  1  0.67222477  0.81233688  0.75000000  1
  Ag  Ag19  1  0.17222477  0.18766312  0.25000000  1
  S  S20  1  0.74384783  0.42301804  0.59808035  1
  S  S21  1  0.74384783  0.42301804  0.90191965  1
  S  S22  1  0.24384783  0.57698196  0.40191965  1
  S  S23  1  0.24384783  0.57698196  0.09808035  1
  S  S24  1  0.26246042  0.20090942  0.75000000  1
  S  S25  1  0.76246042  0.79909058  0.25000000  1
  S  S26  1  0.25671680  0.00443869  0.75000000  1
  S  S27  1  0.75671680  0.99556131  0.25000000  1
  S  S28  1  0.75783499  0.85427111  0.52865135  1
  S  S29  1  0.75783499  0.85427111  0.97134865  1
  S  S30  1  0.25783499  0.14572889  0.47134865  1
  S  S31  1  0.25783499  0.14572889  0.02865135  1
  S  S32  1  0.16018274  0.70095332  0.75000000  1
  S  S33  1  0.66018274  0.29904668  0.25000000  1
