# generated using pymatgen
data_BaGa2GeS6
_symmetry_space_group_name_H-M   'P 1'
_cell_length_a   6.40037020
_cell_length_b   6.35148637
_cell_length_c   6.30377140
_cell_angle_alpha   99.81176549
_cell_angle_beta   101.08314425
_cell_angle_gamma   100.45015089
_symmetry_Int_Tables_number   1
_chemical_formula_structural   BaGa2GeS6
_chemical_formula_sum   'Ba1 Ga2 Ge1 S6'
_cell_volume   241.64982108
_cell_formula_units_Z   1
loop_
 _symmetry_equiv_pos_site_id
 _symmetry_equiv_pos_as_xyz
  1  'x, y, z'
loop_
 _atom_site_type_symbol
 _atom_site_label
 _atom_site_symmetry_multiplicity
 _atom_site_fract_x
 _atom_site_fract_y
 _atom_site_fract_z
 _atom_site_occupancy
  Ba  Ba0  1  0.93947076  0.94313493  0.94327258  1
  Ga  Ga1  1  0.75601738  0.33489341  0.48417950  1
  Ga  Ga2  1  0.34059063  0.47475283  0.75249563  1
  Ge  Ge3  1  0.47988016  0.75617311  0.33674512  1
  S  S4  1  0.20871747  0.52876904  0.07347517  1
  S  S5  1  0.51823659  0.06310174  0.20301562  1
  S  S6  1  0.06844591  0.20523221  0.52271625  1
  S  S7  1  0.39106940  0.81600962  0.66412238  1
  S  S8  1  0.80829705  0.67160216  0.38476959  1
  S  S9  1  0.67443465  0.39149093  0.82036815  1
