# generated using pymatgen
data_TmFe10Mo2N
_symmetry_space_group_name_H-M   'P 1'
_cell_length_a   4.74307922
_cell_length_b   6.55567668
_cell_length_c   6.55567668
_cell_angle_alpha   98.07308617
_cell_angle_beta   111.20792583
_cell_angle_gamma   68.79207417
_symmetry_Int_Tables_number   1
_chemical_formula_structural   TmFe10Mo2N
_chemical_formula_sum   'Tm1 Fe10 Mo2 N1'
_cell_volume   177.15606654
_cell_formula_units_Z   1
loop_
 _symmetry_equiv_pos_site_id
 _symmetry_equiv_pos_as_xyz
  1  'x, y, z'
loop_
 _atom_site_type_symbol
 _atom_site_label
 _atom_site_symmetry_multiplicity
 _atom_site_fract_x
 _atom_site_fract_y
 _atom_site_fract_z
 _atom_site_occupancy
  Tm  Tm0  1  -0.00000000  0.00000000  -0.00000000  1
  Fe  Fe1  1  0.71998689  0.78001311  0.21998689  1
  Fe  Fe2  1  0.28001311  0.21998689  0.78001311  1
  Fe  Fe3  1  0.50000000  0.77881478  0.77881478  1
  Fe  Fe4  1  0.50000000  0.22118522  0.22118522  1
  Fe  Fe5  1  0.50000000  0.00000000  0.50000000  1
  Fe  Fe6  1  -0.00000000  0.00000000  0.50000000  1
  Fe  Fe7  1  0.50000000  0.50000000  -0.00000000  1
  Fe  Fe8  1  -0.00000000  0.50000000  -0.00000000  1
  Fe  Fe9  1  0.64040324  0.35959676  0.64040324  1
  Fe  Fe10  1  0.35959676  0.64040324  0.35959676  1
  Mo  Mo11  1  0.00000000  0.35721970  0.35721970  1
  Mo  Mo12  1  0.00000000  0.64278030  0.64278030  1
  N  N13  1  0.50000000  0.00000000  -0.00000000  1
