# generated using pymatgen
data_RbUCuS3
_symmetry_space_group_name_H-M   'P 1'
_cell_length_a   3.98051513
_cell_length_b   7.64617176
_cell_length_c   10.30767684
_cell_angle_alpha   90.00000000
_cell_angle_beta   90.00000000
_cell_angle_gamma   105.08754602
_symmetry_Int_Tables_number   1
_chemical_formula_structural   RbUCuS3
_chemical_formula_sum   'Rb2 U2 Cu2 S6'
_cell_volume   302.90716756
_cell_formula_units_Z   2
loop_
 _symmetry_equiv_pos_site_id
 _symmetry_equiv_pos_as_xyz
  1  'x, y, z'
loop_
 _atom_site_type_symbol
 _atom_site_label
 _atom_site_symmetry_multiplicity
 _atom_site_fract_x
 _atom_site_fract_y
 _atom_site_fract_z
 _atom_site_occupancy
  S  S0  1  0.38262726  0.76525452  0.56094654  1
  S  S1  1  0.61737274  0.23474548  0.43905346  1
  S  S2  1  0.61737274  0.23474548  0.06094654  1
  S  S3  1  0.05663633  0.11327266  0.75000000  1
  S  S4  1  0.94336367  0.88672734  0.25000000  1
  S  S5  1  0.38262726  0.76525452  0.93905346  1
  Cu  Cu6  1  0.46668077  0.93336154  0.75000000  1
  Cu  Cu7  1  0.53331923  0.06663846  0.25000000  1
  Rb  Rb8  1  0.25818259  0.51636519  0.25000000  1
  Rb  Rb9  1  0.74181741  0.48363481  0.75000000  1
  U  U10  1  0.00000000  0.00000000  0.50000000  1
  U  U11  1  0.00000000  0.00000000  0.00000000  1
