# generated using pymatgen
data_Rb2As2Pt
_symmetry_space_group_name_H-M   'P 1'
_cell_length_a   6.41497895
_cell_length_b   6.80493636
_cell_length_c   8.12346150
_cell_angle_alpha   114.76166523
_cell_angle_beta   90.00000000
_cell_angle_gamma   90.00000000
_symmetry_Int_Tables_number   1
_chemical_formula_structural   Rb2As2Pt
_chemical_formula_sum   'Rb4 As4 Pt2'
_cell_volume   322.01342610
_cell_formula_units_Z   2
loop_
 _symmetry_equiv_pos_site_id
 _symmetry_equiv_pos_as_xyz
  1  'x, y, z'
loop_
 _atom_site_type_symbol
 _atom_site_label
 _atom_site_symmetry_multiplicity
 _atom_site_fract_x
 _atom_site_fract_y
 _atom_site_fract_z
 _atom_site_occupancy
  As  As0  1  0.75000000  0.28445106  0.20807558  1
  As  As1  1  0.25000000  0.07637548  0.79192442  1
  As  As2  1  0.25000000  0.71554894  0.79192442  1
  As  As3  1  0.75000000  0.92362452  0.20807558  1
  Rb  Rb4  1  0.75000000  0.79419098  0.58838197  1
  Rb  Rb5  1  0.75000000  0.41754833  0.83509666  1
  Rb  Rb6  1  0.25000000  0.20580902  0.41161803  1
  Rb  Rb7  1  0.25000000  0.58245167  0.16490334  1
  Pt  Pt8  1  0.00000000  0.00000000  0.00000000  1
  Pt  Pt9  1  0.50000000  0.00000000  0.00000000  1
