# generated using pymatgen
data_HoMg(CoO3)2
_symmetry_space_group_name_H-M   'P 1'
_cell_length_a   5.13655199
_cell_length_b   5.55135903
_cell_length_c   7.41336904
_cell_angle_alpha   90.05708961
_cell_angle_beta   91.67411819
_cell_angle_gamma   89.97462846
_symmetry_Int_Tables_number   1
_chemical_formula_structural   HoMg(CoO3)2
_chemical_formula_sum   'Ho2 Mg2 Co4 O12'
_cell_volume   211.30071017
_cell_formula_units_Z   2
loop_
 _symmetry_equiv_pos_site_id
 _symmetry_equiv_pos_as_xyz
  1  'x, y, z'
loop_
 _atom_site_type_symbol
 _atom_site_label
 _atom_site_symmetry_multiplicity
 _atom_site_fract_x
 _atom_site_fract_y
 _atom_site_fract_z
 _atom_site_occupancy
  Ho  Ho0  1  0.02189098  0.91681800  0.74658974  1
  Ho  Ho1  1  0.52187016  0.58278342  0.24644942  1
  Mg  Mg2  1  0.47499279  0.42641633  0.75343886  1
  Mg  Mg3  1  0.97510234  0.07452013  0.25396139  1
  Co  Co4  1  0.00087042  0.48776397  0.99780755  1
  Co  Co5  1  0.00458898  0.49018153  0.50036359  1
  Co  Co6  1  0.50120452  0.01274510  0.49774802  1
  Co  Co7  1  0.50450001  0.00953758  0.00014169  1
  O  O8  1  0.11024196  0.45118435  0.23669039  1
  O  O9  1  0.21033406  0.18558798  0.93595598  1
  O  O10  1  0.20026363  0.19294409  0.56198746  1
  O  O11  1  0.31003931  0.67754799  0.94161474  1
  O  O12  1  0.30165762  0.67161188  0.56274712  1
  O  O13  1  0.36537836  0.96988918  0.26492491  1
  O  O14  1  0.60976946  0.04837683  0.73615411  1
  O  O15  1  0.71048288  0.31426688  0.43502387  1
  O  O16  1  0.69997720  0.30646738  0.06104826  1
  O  O17  1  0.80226324  0.82819714  0.06229742  1
  O  O18  1  0.80940348  0.82340736  0.44110748  1
  O  O19  1  0.86516457  0.52975287  0.76395000  1
