# generated using pymatgen
data_ZnCu3P3O13
_symmetry_space_group_name_H-M   'P 1'
_cell_length_a   6.12522866
_cell_length_b   7.59059542
_cell_length_c   10.07667170
_cell_angle_alpha   100.71314548
_cell_angle_beta   90.00000000
_cell_angle_gamma   90.00000000
_symmetry_Int_Tables_number   1
_chemical_formula_structural   ZnCu3P3O13
_chemical_formula_sum   'Zn2 Cu6 P6 O26'
_cell_volume   460.34012942
_cell_formula_units_Z   2
loop_
 _symmetry_equiv_pos_site_id
 _symmetry_equiv_pos_as_xyz
  1  'x, y, z'
loop_
 _atom_site_type_symbol
 _atom_site_label
 _atom_site_symmetry_multiplicity
 _atom_site_fract_x
 _atom_site_fract_y
 _atom_site_fract_z
 _atom_site_occupancy
  Zn  Zn0  1  0.75000000  0.64012755  0.17554626  1
  Zn  Zn1  1  0.25000000  0.35987245  0.82445374  1
  Cu  Cu2  1  0.25000000  0.35008032  0.20249266  1
  Cu  Cu3  1  0.75000000  0.64991968  0.79750734  1
  Cu  Cu4  1  0.25000000  0.76427174  0.43188251  1
  Cu  Cu5  1  0.50000000  0.00000000  0.00000000  1
  Cu  Cu6  1  0.75000000  0.23572826  0.56811749  1
  Cu  Cu7  1  -0.00000000  0.00000000  0.00000000  1
  P  P8  1  0.25000000  0.20952647  0.48865647  1
  P  P9  1  0.75000000  0.79047353  0.51134353  1
  P  P10  1  0.25000000  0.73730396  0.75956398  1
  P  P11  1  0.75000000  0.26269604  0.24043602  1
  P  P12  1  0.75000000  0.32090768  0.88562330  1
  P  P13  1  0.25000000  0.67909232  0.11437670  1
  O  O14  1  0.75000000  0.37951519  0.74416066  1
  O  O15  1  0.56114266  0.75031550  0.40459075  1
  O  O16  1  0.25000000  0.79772458  0.62558929  1
  O  O17  1  0.53472369  0.21587370  0.89374597  1
  O  O18  1  0.75000000  0.64687168  0.60122800  1
  O  O19  1  0.75000000  0.88187516  0.90624995  1
  O  O20  1  0.25000000  0.35312832  0.39877200  1
  O  O21  1  0.03472369  0.78412630  0.10625403  1
  O  O22  1  0.25000000  0.02424507  0.40063183  1
  O  O23  1  0.75000000  0.97575493  0.59936817  1
  O  O24  1  0.06179540  0.61173846  0.78878686  1
  O  O25  1  0.25000000  0.11812484  0.09375005  1
  O  O26  1  0.56179540  0.38826154  0.21121314  1
  O  O27  1  0.75000000  0.50813435  0.97709218  1
  O  O28  1  0.75000000  0.20227542  0.37441071  1
  O  O29  1  0.46527631  0.78412630  0.10625403  1
  O  O30  1  0.93885734  0.75031550  0.40459075  1
  O  O31  1  0.43885734  0.24968450  0.59540925  1
  O  O32  1  0.43820460  0.61173846  0.78878686  1
  O  O33  1  0.25000000  0.62048481  0.25583934  1
  O  O34  1  0.75000000  0.08950743  0.12783308  1
  O  O35  1  0.25000000  0.91049257  0.87216692  1
  O  O36  1  0.93820460  0.38826154  0.21121314  1
  O  O37  1  0.96527631  0.21587370  0.89374597  1
  O  O38  1  0.06114266  0.24968450  0.59540925  1
  O  O39  1  0.25000000  0.49186565  0.02290782  1
