# generated using pymatgen
data_NaCdSb
_symmetry_space_group_name_H-M   'P 1'
_cell_length_a   4.78985940
_cell_length_b   8.08628705
_cell_length_c   8.62893321
_cell_angle_alpha   90.00000000
_cell_angle_beta   90.00000000
_cell_angle_gamma   90.00000000
_symmetry_Int_Tables_number   1
_chemical_formula_structural   NaCdSb
_chemical_formula_sum   'Na4 Cd4 Sb4'
_cell_volume   334.21737736
_cell_formula_units_Z   4
loop_
 _symmetry_equiv_pos_site_id
 _symmetry_equiv_pos_as_xyz
  1  'x, y, z'
loop_
 _atom_site_type_symbol
 _atom_site_label
 _atom_site_symmetry_multiplicity
 _atom_site_fract_x
 _atom_site_fract_y
 _atom_site_fract_z
 _atom_site_occupancy
  Na  Na0  1  0.75000000  0.48482040  0.32168114  1
  Na  Na1  1  0.25000000  0.51517960  0.67831886  1
  Na  Na2  1  0.75000000  0.98482040  0.17831886  1
  Na  Na3  1  0.25000000  0.01517960  0.82168114  1
  Cd  Cd4  1  0.75000000  0.35023410  0.92357603  1
  Cd  Cd5  1  0.25000000  0.64976590  0.07642397  1
  Cd  Cd6  1  0.75000000  0.85023410  0.57642397  1
  Cd  Cd7  1  0.25000000  0.14976590  0.42357603  1
  Sb  Sb8  1  0.75000000  0.72311876  0.89384736  1
  Sb  Sb9  1  0.25000000  0.27688124  0.10615264  1
  Sb  Sb10  1  0.75000000  0.22311876  0.60615264  1
  Sb  Sb11  1  0.25000000  0.77688124  0.39384736  1
