# generated using pymatgen
data_Li2PdF6
_symmetry_space_group_name_H-M   'P 1'
_cell_length_a   4.74261109
_cell_length_b   4.74671098
_cell_length_c   9.25582155
_cell_angle_alpha   90.00000000
_cell_angle_beta   90.01428168
_cell_angle_gamma   90.00000000
_symmetry_Int_Tables_number   1
_chemical_formula_structural   Li2PdF6
_chemical_formula_sum   'Li4 Pd2 F12'
_cell_volume   208.36523532
_cell_formula_units_Z   2
loop_
 _symmetry_equiv_pos_site_id
 _symmetry_equiv_pos_as_xyz
  1  'x, y, z'
loop_
 _atom_site_type_symbol
 _atom_site_label
 _atom_site_symmetry_multiplicity
 _atom_site_fract_x
 _atom_site_fract_y
 _atom_site_fract_z
 _atom_site_occupancy
  Li  Li0  1  0.00007340  0.99968299  0.33595827  1
  Li  Li1  1  0.50007340  0.50031701  0.83595827  1
  Li  Li2  1  0.99992660  0.00031701  0.66404173  1
  Li  Li3  1  0.49992660  0.49968299  0.16404173  1
  Pd  Pd4  1  0.50000000  0.50000000  0.50000000  1
  Pd  Pd5  1  -0.00000000  0.00000000  0.00000000  1
  F  F6  1  0.30827310  0.69100652  0.65889878  1
  F  F7  1  0.19172690  0.19100652  0.84110122  1
  F  F8  1  0.70949608  0.29162311  0.00001069  1
  F  F9  1  0.79050392  0.79162311  0.49998931  1
  F  F10  1  0.29050392  0.70837689  0.99998931  1
  F  F11  1  0.20949608  0.20837689  0.50001069  1
  F  F12  1  0.19176434  0.19068753  0.15904190  1
  F  F13  1  0.30823566  0.69068753  0.34095810  1
  F  F14  1  0.80823566  0.80931247  0.84095810  1
  F  F15  1  0.69176434  0.30931247  0.65904190  1
  F  F16  1  0.80827310  0.80899348  0.15889878  1
  F  F17  1  0.69172690  0.30899348  0.34110122  1
