# generated using pymatgen
data_Be3Si3(BiO6)2
_symmetry_space_group_name_H-M   'P 1'
_cell_length_a   8.16533090
_cell_length_b   8.36845306
_cell_length_c   14.53924643
_cell_angle_alpha   90.55511242
_cell_angle_beta   90.00000000
_cell_angle_gamma   90.00000000
_symmetry_Int_Tables_number   1
_chemical_formula_structural   Be3Si3(BiO6)2
_chemical_formula_sum   'Be12 Si12 Bi8 O48'
_cell_volume   993.43735943
_cell_formula_units_Z   4
loop_
 _symmetry_equiv_pos_site_id
 _symmetry_equiv_pos_as_xyz
  1  'x, y, z'
loop_
 _atom_site_type_symbol
 _atom_site_label
 _atom_site_symmetry_multiplicity
 _atom_site_fract_x
 _atom_site_fract_y
 _atom_site_fract_z
 _atom_site_occupancy
  Be  Be0  1  0.83757121  0.92925921  0.76002469  1
  Be  Be1  1  0.66911660  0.92583468  0.40464291  1
  Be  Be2  1  0.16911760  0.57416532  0.09535709  1
  Be  Be3  1  0.33088240  0.07416432  0.59535709  1
  Be  Be4  1  0.83088240  0.42583468  0.90464291  1
  Be  Be5  1  0.16661846  0.60572822  0.41695980  1
  Be  Be6  1  0.66661846  0.89427178  0.08304020  1
  Be  Be7  1  0.83338154  0.39427078  0.58304020  1
  Be  Be8  1  0.33338054  0.10572822  0.91695980  1
  Be  Be9  1  0.66242879  0.42925921  0.26002469  1
  Be  Be10  1  0.16242879  0.07073979  0.23997531  1
  Be  Be11  1  0.33757221  0.57074079  0.73997531  1
  Si  Si12  1  0.22374744  0.92821726  0.76035162  1
  Si  Si13  1  0.72374744  0.57178274  0.73964838  1
  Si  Si14  1  0.77625256  0.07178174  0.23964838  1
  Si  Si15  1  0.27625356  0.42821726  0.26035162  1
  Si  Si16  1  0.70819991  0.11002697  0.91568140  1
  Si  Si17  1  0.20819991  0.38997403  0.58431860  1
  Si  Si18  1  0.29180009  0.88997303  0.08431860  1
  Si  Si19  1  0.79179909  0.61002697  0.41568140  1
  Si  Si20  1  0.21137233  0.42567912  0.90505329  1
  Si  Si21  1  0.71137333  0.07431988  0.59494671  1
  Si  Si22  1  0.78862767  0.57432088  0.09494671  1
  Si  Si23  1  0.28862667  0.92567912  0.40505329  1
  Bi  Bi24  1  0.47246147  0.25454251  0.09419975  1
  Bi  Bi25  1  0.02753853  0.75454351  0.59419975  1
  Bi  Bi26  1  0.52753953  0.74545749  0.90580025  1
  Bi  Bi27  1  0.97246147  0.24545649  0.40580025  1
  Bi  Bi28  1  0.53589991  0.25930955  0.42826675  1
  Bi  Bi29  1  0.03590091  0.24068945  0.07173325  1
  Bi  Bi30  1  0.46410009  0.74069045  0.57173325  1
  Bi  Bi31  1  0.96409909  0.75931055  0.92826675  1
  O  O32  1  0.17078504  0.74722674  0.04480504  1
  O  O33  1  0.03284908  0.90189904  0.79614854  1
  O  O34  1  0.53284908  0.59810096  0.70385146  1
  O  O35  1  0.96715092  0.09810096  0.20385146  1
  O  O36  1  0.46714992  0.40189804  0.29614854  1
  O  O37  1  0.52080070  0.16739115  0.94665652  1
  O  O38  1  0.02080070  0.33260885  0.55334448  1
  O  O39  1  0.47919930  0.83260885  0.05334348  1
  O  O40  1  0.97919830  0.66739115  0.44665552  1
  O  O41  1  0.02245992  0.49756922  0.89520260  1
  O  O42  1  0.52245992  0.00243078  0.60479740  1
  O  O43  1  0.97754008  0.50243178  0.10479740  1
  O  O44  1  0.16765262  0.05617311  0.35337297  1
  O  O45  1  0.66765162  0.44382789  0.14662703  1
  O  O46  1  0.83234838  0.94382689  0.64662703  1
  O  O47  1  0.33234838  0.55617311  0.85337297  1
  O  O48  1  0.67078604  0.75277326  0.45519496  1
  O  O49  1  0.47754108  0.99756922  0.39520260  1
  O  O50  1  0.32921496  0.24722674  0.54480504  1
  O  O51  1  0.82921496  0.25277226  0.95519496  1
  O  O52  1  0.75060828  0.06897586  0.47978553  1
  O  O53  1  0.65743477  0.05891904  0.14668473  1
  O  O54  1  0.84256523  0.55891804  0.64668473  1
  O  O55  1  0.34256423  0.94108096  0.85331527  1
  O  O56  1  0.73081683  0.43589498  0.81493236  1
  O  O57  1  0.23081683  0.06410402  0.68506764  1
  O  O58  1  0.26918317  0.56410502  0.18506764  1
  O  O59  1  0.76918217  0.93589498  0.31493236  1
  O  O60  1  0.73008309  0.05447637  0.81135201  1
  O  O61  1  0.23008309  0.44552463  0.68864799  1
  O  O62  1  0.26991591  0.94552363  0.18864799  1
  O  O63  1  0.76991691  0.55447637  0.31135201  1
  O  O64  1  0.22160717  0.24033971  0.87855803  1
  O  O65  1  0.72160617  0.25966029  0.62144297  1
  O  O66  1  0.77839383  0.75965929  0.12144197  1
  O  O67  1  0.27839383  0.74034071  0.37855703  1
  O  O68  1  0.77175521  0.74401777  0.79546047  1
  O  O69  1  0.27175421  0.75598223  0.70453953  1
  O  O70  1  0.22824479  0.25598123  0.20453953  1
  O  O71  1  0.72824579  0.24401877  0.29546047  1
  O  O72  1  0.74101885  0.94209976  0.97714948  1
  O  O73  1  0.24101785  0.55790024  0.52285052  1
  O  O74  1  0.25898115  0.05790024  0.02285052  1
  O  O75  1  0.75898215  0.44209876  0.47714948  1
  O  O76  1  0.74939272  0.56897486  0.97978553  1
  O  O77  1  0.24939272  0.93102414  0.52021447  1
  O  O78  1  0.25060728  0.43102514  0.02021447  1
  O  O79  1  0.15743477  0.44108096  0.35331527  1
