# generated using pymatgen
data_Ca3Zn3(TeO6)2
_symmetry_space_group_name_H-M   'P 1'
_cell_length_a   11.04434188
_cell_length_b   11.04434188
_cell_length_c   11.04434187
_cell_angle_alpha   109.47122062
_cell_angle_beta   109.47122062
_cell_angle_gamma   109.47122065
_symmetry_Int_Tables_number   1
_chemical_formula_structural   Ca3Zn3(TeO6)2
_chemical_formula_sum   'Ca12 Zn12 Te8 O48'
_cell_volume   1037.04507689
_cell_formula_units_Z   4
loop_
 _symmetry_equiv_pos_site_id
 _symmetry_equiv_pos_as_xyz
  1  'x, y, z'
loop_
 _atom_site_type_symbol
 _atom_site_label
 _atom_site_symmetry_multiplicity
 _atom_site_fract_x
 _atom_site_fract_y
 _atom_site_fract_z
 _atom_site_occupancy
  O  O0  1  0.80721043  0.42469213  0.83089524  1
  O  O1  1  0.07530787  0.88251830  0.40620311  1
  O  O2  1  0.66910476  0.09379689  0.97631519  1
  O  O3  1  0.69278957  0.52368481  0.61748170  1
  O  O4  1  0.69278957  0.66910476  0.07530787  1
  O  O5  1  0.52368481  0.61748170  0.69278957  1
  O  O6  1  0.09379689  0.61748170  0.42469213  1
  O  O7  1  0.61748170  0.69278957  0.52368481  1
  O  O8  1  0.40620311  0.83089524  0.52368481  1
  O  O9  1  0.88251830  0.97631519  0.80721043  1
  O  O10  1  0.97631519  0.80721043  0.88251830  1
  O  O11  1  0.07530787  0.69278957  0.66910476  1
  O  O12  1  0.61748170  0.42469213  0.09379689  1
  O  O13  1  0.52368481  0.40620311  0.83089524  1
  O  O14  1  0.66910476  0.07530787  0.69278957  1
  O  O15  1  0.42469213  0.09379689  0.61748170  1
  O  O16  1  0.83089524  0.52368481  0.40620311  1
  O  O17  1  0.40620311  0.07530787  0.88251830  1
  O  O18  1  0.09379689  0.97631519  0.66910476  1
  O  O19  1  0.59379689  0.16910476  0.47631519  1
  O  O20  1  0.97631519  0.66910476  0.09379689  1
  O  O21  1  0.83089524  0.80721043  0.42469213  1
  O  O22  1  0.88251830  0.40620311  0.07530787  1
  O  O23  1  0.80721043  0.88251830  0.97631519  1
  O  O24  1  0.19278957  0.57530787  0.16910476  1
  O  O25  1  0.92469213  0.11748170  0.59379689  1
  O  O26  1  0.33089524  0.90620311  0.02368481  1
  O  O27  1  0.30721043  0.47631519  0.38251830  1
  O  O28  1  0.30721043  0.33089524  0.92469213  1
  O  O29  1  0.47631519  0.38251830  0.30721043  1
  O  O30  1  0.90620311  0.38251830  0.57530787  1
  O  O31  1  0.38251830  0.30721043  0.47631519  1
  O  O32  1  0.19278957  0.11748170  0.02368481  1
  O  O33  1  0.11748170  0.59379689  0.92469213  1
  O  O34  1  0.16910476  0.19278957  0.57530787  1
  O  O35  1  0.57530787  0.16910476  0.19278957  1
  O  O36  1  0.02368481  0.33089524  0.90620311  1
  O  O37  1  0.90620311  0.02368481  0.33089524  1
  O  O38  1  0.59379689  0.92469213  0.11748170  1
  O  O39  1  0.16910476  0.47631519  0.59379689  1
  O  O40  1  0.57530787  0.90620311  0.38251830  1
  O  O41  1  0.33089524  0.92469213  0.30721043  1
  O  O42  1  0.47631519  0.59379689  0.16910476  1
  O  O43  1  0.38251830  0.57530787  0.90620311  1
  O  O44  1  0.92469213  0.30721043  0.33089524  1
  O  O45  1  0.02368481  0.19278957  0.11748170  1
  O  O46  1  0.11748170  0.02368481  0.19278957  1
  O  O47  1  0.42469213  0.83089524  0.80721043  1
  Ca  Ca48  1  0.87500000  0.62500000  0.25000000  1
  Ca  Ca49  1  0.37500000  0.12500000  0.25000000  1
  Ca  Ca50  1  0.12500000  0.37500000  0.75000000  1
  Ca  Ca51  1  0.75000000  0.12500000  0.37500000  1
  Ca  Ca52  1  0.25000000  0.37500000  0.12500000  1
  Ca  Ca53  1  0.12500000  0.25000000  0.37500000  1
  Ca  Ca54  1  0.37500000  0.75000000  0.12500000  1
  Ca  Ca55  1  0.62500000  0.87500000  0.75000000  1
  Ca  Ca56  1  0.25000000  0.87500000  0.62500000  1
  Ca  Ca57  1  0.75000000  0.62500000  0.87500000  1
  Ca  Ca58  1  0.87500000  0.75000000  0.62500000  1
  Ca  Ca59  1  0.62500000  0.25000000  0.87500000  1
  Zn  Zn60  1  0.87500000  0.12500000  0.75000000  1
  Zn  Zn61  1  0.37500000  0.62500000  0.75000000  1
  Zn  Zn62  1  0.75000000  0.37500000  0.62500000  1
  Zn  Zn63  1  0.25000000  0.12500000  0.87500000  1
  Zn  Zn64  1  0.62500000  0.37500000  0.25000000  1
  Zn  Zn65  1  0.87500000  0.25000000  0.12500000  1
  Zn  Zn66  1  0.62500000  0.75000000  0.37500000  1
  Zn  Zn67  1  0.37500000  0.25000000  0.62500000  1
  Zn  Zn68  1  0.75000000  0.87500000  0.12500000  1
  Zn  Zn69  1  0.12500000  0.75000000  0.87500000  1
  Zn  Zn70  1  0.12500000  0.87500000  0.25000000  1
  Zn  Zn71  1  0.25000000  0.62500000  0.37500000  1
  Te  Te72  1  0.50000000  0.50000000  0.50000000  1
  Te  Te73  1  0.50000000  0.50000000  0.00000000  1
  Te  Te74  1  0.50000000  0.00000000  0.50000000  1
  Te  Te75  1  0.00000000  0.50000000  0.50000000  1
  Te  Te76  1  0.50000000  0.00000000  0.00000000  1
  Te  Te77  1  0.00000000  0.00000000  0.50000000  1
  Te  Te78  1  0.00000000  0.50000000  0.00000000  1
  Te  Te79  1  0.00000000  0.00000000  0.00000000  1
