# generated using pymatgen
data_Ho3Al5O12
_symmetry_space_group_name_H-M   'P 1'
_cell_length_a   10.46095274
_cell_length_b   10.46095275
_cell_length_c   10.46095275
_cell_angle_alpha   109.47122064
_cell_angle_beta   109.47122065
_cell_angle_gamma   109.47122064
_symmetry_Int_Tables_number   1
_chemical_formula_structural   Ho3Al5O12
_chemical_formula_sum   'Ho12 Al20 O48'
_cell_volume   881.23518777
_cell_formula_units_Z   4
loop_
 _symmetry_equiv_pos_site_id
 _symmetry_equiv_pos_as_xyz
  1  'x, y, z'
loop_
 _atom_site_type_symbol
 _atom_site_label
 _atom_site_symmetry_multiplicity
 _atom_site_fract_x
 _atom_site_fract_y
 _atom_site_fract_z
 _atom_site_occupancy
  O  O0  1  0.97908933  0.67930482  0.09827022  1
  O  O1  1  0.82069518  0.79978450  0.41896539  1
  O  O2  1  0.40172978  0.08103461  0.88081911  1
  O  O3  1  0.52091067  0.61918089  0.70021550  1
  O  O4  1  0.52091067  0.40172978  0.82069518  1
  O  O5  1  0.61918089  0.70021550  0.52091067  1
  O  O6  1  0.08103461  0.70021550  0.67930482  1
  O  O7  1  0.70021550  0.52091067  0.61918089  1
  O  O8  1  0.41896539  0.09827022  0.61918089  1
  O  O9  1  0.79978450  0.88081911  0.97908933  1
  O  O10  1  0.88081911  0.97908933  0.79978450  1
  O  O11  1  0.82069518  0.52091067  0.40172978  1
  O  O12  1  0.70021550  0.67930482  0.08103461  1
  O  O13  1  0.61918089  0.41896539  0.09827022  1
  O  O14  1  0.40172978  0.82069518  0.52091067  1
  O  O15  1  0.67930482  0.08103461  0.70021550  1
  O  O16  1  0.09827022  0.61918089  0.41896539  1
  O  O17  1  0.41896539  0.82069518  0.79978450  1
  O  O18  1  0.08103461  0.88081911  0.40172978  1
  O  O19  1  0.58103461  0.90172978  0.38081911  1
  O  O20  1  0.88081911  0.40172978  0.08103461  1
  O  O21  1  0.09827022  0.97908933  0.67930482  1
  O  O22  1  0.79978450  0.41896539  0.82069518  1
  O  O23  1  0.97908933  0.79978450  0.88081911  1
  O  O24  1  0.02091067  0.32069518  0.90172978  1
  O  O25  1  0.17930482  0.20021550  0.58103461  1
  O  O26  1  0.59827022  0.91896539  0.11918089  1
  O  O27  1  0.47908933  0.38081911  0.29978450  1
  O  O28  1  0.47908933  0.59827022  0.17930482  1
  O  O29  1  0.38081911  0.29978450  0.47908933  1
  O  O30  1  0.91896539  0.29978450  0.32069518  1
  O  O31  1  0.29978450  0.47908933  0.38081911  1
  O  O32  1  0.02091067  0.20021550  0.11918089  1
  O  O33  1  0.20021550  0.58103461  0.17930482  1
  O  O34  1  0.90172978  0.02091067  0.32069518  1
  O  O35  1  0.32069518  0.90172978  0.02091067  1
  O  O36  1  0.11918089  0.59827022  0.91896539  1
  O  O37  1  0.91896539  0.11918089  0.59827022  1
  O  O38  1  0.58103461  0.17930482  0.20021550  1
  O  O39  1  0.90172978  0.38081911  0.58103461  1
  O  O40  1  0.32069518  0.91896539  0.29978450  1
  O  O41  1  0.59827022  0.17930482  0.47908933  1
  O  O42  1  0.38081911  0.58103461  0.90172978  1
  O  O43  1  0.29978450  0.32069518  0.91896539  1
  O  O44  1  0.17930482  0.47908933  0.59827022  1
  O  O45  1  0.11918089  0.02091067  0.20021550  1
  O  O46  1  0.20021550  0.11918089  0.02091067  1
  O  O47  1  0.67930482  0.09827022  0.97908933  1
  Al  Al48  1  0.25000000  0.12500000  0.87500000  1
  Al  Al49  1  0.75000000  0.87500000  0.12500000  1
  Al  Al50  1  0.37500000  0.25000000  0.62500000  1
  Al  Al51  1  0.62500000  0.37500000  0.25000000  1
  Al  Al52  1  0.12500000  0.75000000  0.87500000  1
  Al  Al53  1  0.87500000  0.12500000  0.75000000  1
  Al  Al54  1  0.75000000  0.37500000  0.62500000  1
  Al  Al55  1  0.37500000  0.62500000  0.75000000  1
  Al  Al56  1  0.12500000  0.87500000  0.25000000  1
  Al  Al57  1  0.87500000  0.25000000  0.12500000  1
  Al  Al58  1  0.62500000  0.75000000  0.37500000  1
  Al  Al59  1  0.25000000  0.62500000  0.37500000  1
  Al  Al60  1  0.50000000  0.50000000  0.50000000  1
  Al  Al61  1  0.50000000  0.50000000  0.00000000  1
  Al  Al62  1  0.50000000  0.00000000  0.50000000  1
  Al  Al63  1  0.00000000  0.50000000  0.50000000  1
  Al  Al64  1  0.50000000  0.00000000  0.00000000  1
  Al  Al65  1  0.00000000  0.00000000  0.50000000  1
  Al  Al66  1  0.00000000  0.50000000  0.00000000  1
  Al  Al67  1  0.00000000  0.00000000  0.00000000  1
  Ho  Ho68  1  0.25000000  0.87500000  0.62500000  1
  Ho  Ho69  1  0.87500000  0.62500000  0.25000000  1
  Ho  Ho70  1  0.62500000  0.87500000  0.75000000  1
  Ho  Ho71  1  0.87500000  0.75000000  0.62500000  1
  Ho  Ho72  1  0.62500000  0.25000000  0.87500000  1
  Ho  Ho73  1  0.75000000  0.62500000  0.87500000  1
  Ho  Ho74  1  0.75000000  0.12500000  0.37500000  1
  Ho  Ho75  1  0.12500000  0.37500000  0.75000000  1
  Ho  Ho76  1  0.37500000  0.12500000  0.25000000  1
  Ho  Ho77  1  0.12500000  0.25000000  0.37500000  1
  Ho  Ho78  1  0.37500000  0.75000000  0.12500000  1
  Ho  Ho79  1  0.25000000  0.37500000  0.12500000  1
