# generated using pymatgen
data_Ba3Lu(BO3)3
_symmetry_space_group_name_H-M   'P 1'
_cell_length_a   9.44866600
_cell_length_b   9.44866600
_cell_length_c   17.88247522
_cell_angle_alpha   90.00000000
_cell_angle_beta   90.00000000
_cell_angle_gamma   119.99999999
_symmetry_Int_Tables_number   1
_chemical_formula_structural   Ba3Lu(BO3)3
_chemical_formula_sum   'Ba18 Lu6 B18 O54'
_cell_volume   1382.60861480
_cell_formula_units_Z   6
loop_
 _symmetry_equiv_pos_site_id
 _symmetry_equiv_pos_as_xyz
  1  'x, y, z'
loop_
 _atom_site_type_symbol
 _atom_site_label
 _atom_site_symmetry_multiplicity
 _atom_site_fract_x
 _atom_site_fract_y
 _atom_site_fract_z
 _atom_site_occupancy
  B  B0  1  0.66046242  0.66046242  0.42385163  1
  B  B1  1  0.00000000  0.66046242  0.92385163  1
  B  B2  1  0.66046242  0.00000000  0.92385163  1
  B  B3  1  0.33953758  0.00000000  0.42385163  1
  B  B4  1  0.00000000  0.33953758  0.42385163  1
  B  B5  1  0.33953758  0.33953758  0.92385163  1
  B  B6  1  0.66744933  0.66744933  0.24953736  1
  B  B7  1  0.00000000  0.66744933  0.74953736  1
  B  B8  1  0.66744933  0.00000000  0.74953736  1
  B  B9  1  0.33255067  0.00000000  0.24953736  1
  B  B10  1  0.00000000  0.33255067  0.24953736  1
  B  B11  1  0.33255067  0.33255067  0.74953736  1
  B  B12  1  0.67303796  0.67303796  0.07194201  1
  B  B13  1  0.00000000  0.67303796  0.57194201  1
  B  B14  1  0.67303796  0.00000000  0.57194201  1
  B  B15  1  0.32696204  0.00000000  0.07194201  1
  B  B16  1  0.00000000  0.32696204  0.07194201  1
  B  B17  1  0.32696204  0.32696204  0.57194201  1
  O  O18  1  0.80733213  0.80733213  0.43315140  1
  O  O19  1  0.00000000  0.80733213  0.93315140  1
  O  O20  1  0.80733213  0.00000000  0.93315140  1
  O  O21  1  0.19266787  0.00000000  0.43315140  1
  O  O22  1  0.00000000  0.19266787  0.43315140  1
  O  O23  1  0.19266787  0.19266787  0.93315140  1
  O  O24  1  0.66145747  0.14763450  0.91870718  1
  O  O25  1  0.85236550  0.51382298  0.91870718  1
  O  O26  1  0.48617702  0.33854253  0.91870718  1
  O  O27  1  0.51382298  0.66145747  0.41870718  1
  O  O28  1  0.33854253  0.85236550  0.41870718  1
  O  O29  1  0.14763450  0.48617702  0.41870718  1
  O  O30  1  0.66145747  0.51382298  0.41870718  1
  O  O31  1  0.14763450  0.66145747  0.91870718  1
  O  O32  1  0.51382298  0.85236550  0.91870718  1
  O  O33  1  0.48617702  0.14763450  0.41870718  1
  O  O34  1  0.85236550  0.33854253  0.41870718  1
  O  O35  1  0.33854253  0.48617702  0.91870718  1
  O  O36  1  0.51986296  0.51986296  0.24935215  1
  O  O37  1  0.00000000  0.51986296  0.74935215  1
  O  O38  1  0.51986296  0.00000000  0.74935215  1
  O  O39  1  0.48013704  0.00000000  0.24935215  1
  O  O40  1  0.00000000  0.48013704  0.24935215  1
  O  O41  1  0.48013704  0.48013704  0.74935215  1
  O  O42  1  0.81492010  0.14758747  0.74998158  1
  O  O43  1  0.85241253  0.66733263  0.74998158  1
  O  O44  1  0.33266737  0.18507990  0.74998158  1
  O  O45  1  0.66733263  0.81492010  0.24998158  1
  O  O46  1  0.18507990  0.85241253  0.24998158  1
  O  O47  1  0.14758747  0.33266737  0.24998158  1
  O  O48  1  0.81492010  0.66733263  0.24998158  1
  O  O49  1  0.14758747  0.81492010  0.74998158  1
  O  O50  1  0.66733263  0.85241253  0.74998158  1
  O  O51  1  0.33266737  0.14758747  0.24998158  1
  O  O52  1  0.85241253  0.18507990  0.24998158  1
  O  O53  1  0.18507990  0.33266737  0.74998158  1
  O  O54  1  0.67322563  0.14710264  0.56746441  1
  O  O55  1  0.85289736  0.52612299  0.56746441  1
  O  O56  1  0.47387701  0.32677437  0.56746441  1
  O  O57  1  0.52612299  0.67322563  0.06746441  1
  O  O58  1  0.32677437  0.85289736  0.06746441  1
  O  O59  1  0.14710264  0.47387701  0.06746441  1
  O  O60  1  0.67322563  0.52612299  0.06746441  1
  O  O61  1  0.14710264  0.67322563  0.56746441  1
  O  O62  1  0.52612299  0.85289736  0.56746441  1
  O  O63  1  0.47387701  0.14710264  0.06746441  1
  O  O64  1  0.85289736  0.32677437  0.06746441  1
  O  O65  1  0.32677437  0.47387701  0.56746441  1
  O  O66  1  0.81922741  0.81922741  0.08142600  1
  O  O67  1  0.00000000  0.81922741  0.58142600  1
  O  O68  1  0.81922741  0.00000000  0.58142600  1
  O  O69  1  0.18077259  0.00000000  0.08142600  1
  O  O70  1  0.00000000  0.18077259  0.08142600  1
  O  O71  1  0.18077259  0.18077259  0.58142600  1
  Ba  Ba72  1  0.68211854  0.68211854  0.87146011  1
  Ba  Ba73  1  0.00000000  0.68211854  0.37146011  1
  Ba  Ba74  1  0.68211854  0.00000000  0.37146011  1
  Ba  Ba75  1  0.31788146  0.00000000  0.87146011  1
  Ba  Ba76  1  0.00000000  0.31788146  0.87146011  1
  Ba  Ba77  1  0.31788146  0.31788146  0.37146011  1
  Ba  Ba78  1  0.65206705  0.65206705  0.62953803  1
  Ba  Ba79  1  0.00000000  0.65206705  0.12953803  1
  Ba  Ba80  1  0.65206705  0.00000000  0.12953803  1
  Ba  Ba81  1  0.34793295  0.00000000  0.62953803  1
  Ba  Ba82  1  0.00000000  0.34793295  0.62953803  1
  Ba  Ba83  1  0.34793295  0.34793295  0.12953803  1
  Ba  Ba84  1  0.33333333  0.66666667  0.27765345  1
  Ba  Ba85  1  0.66666667  0.33333333  0.77765345  1
  Ba  Ba86  1  0.33333333  0.66666667  0.77765345  1
  Ba  Ba87  1  0.66666667  0.33333333  0.27765345  1
  Ba  Ba88  1  0.00000000  0.00000000  0.71721909  1
  Ba  Ba89  1  0.00000000  0.00000000  0.21721909  1
  Lu  Lu90  1  0.33333333  0.66666667  0.99733783  1
  Lu  Lu91  1  0.66666667  0.33333333  0.49733783  1
  Lu  Lu92  1  0.33333333  0.66666667  0.49733783  1
  Lu  Lu93  1  0.66666667  0.33333333  0.99733783  1
  Lu  Lu94  1  0.00000000  0.00000000  0.50350328  1
  Lu  Lu95  1  0.00000000  0.00000000  0.00350328  1
