# generated using pymatgen
data_Y3B7W
_symmetry_space_group_name_H-M   'P 1'
_cell_length_a   3.47319715
_cell_length_b   8.19499657
_cell_length_c   9.49972597
_cell_angle_alpha   90.00000000
_cell_angle_beta   90.00000000
_cell_angle_gamma   102.23428409
_symmetry_Int_Tables_number   1
_chemical_formula_structural   Y3B7W
_chemical_formula_sum   'Y6 B14 W2'
_cell_volume   264.24843270
_cell_formula_units_Z   2
loop_
 _symmetry_equiv_pos_site_id
 _symmetry_equiv_pos_as_xyz
  1  'x, y, z'
loop_
 _atom_site_type_symbol
 _atom_site_label
 _atom_site_symmetry_multiplicity
 _atom_site_fract_x
 _atom_site_fract_y
 _atom_site_fract_z
 _atom_site_occupancy
  B  B0  1  0.45619635  0.91239271  0.25000000  1
  B  B1  1  0.54380365  0.08760729  0.75000000  1
  B  B2  1  0.48026279  0.96052558  0.90795209  1
  B  B3  1  0.51973721  0.03947442  0.09204791  1
  B  B4  1  0.51973721  0.03947442  0.40795209  1
  B  B5  1  0.48026279  0.96052558  0.59204791  1
  B  B6  1  0.36512099  0.73024199  0.85266578  1
  B  B7  1  0.63487901  0.26975801  0.14733422  1
  B  B8  1  0.27253744  0.54507488  0.96709386  1
  B  B9  1  0.72746256  0.45492512  0.03290614  1
  B  B10  1  0.72746256  0.45492512  0.46709386  1
  B  B11  1  0.27253744  0.54507488  0.53290614  1
  B  B12  1  0.36512099  0.73024199  0.64733422  1
  B  B13  1  0.63487901  0.26975801  0.35266578  1
  Y  Y14  1  0.10662439  0.21324879  0.93967297  1
  Y  Y15  1  0.89337561  0.78675121  0.06032703  1
  Y  Y16  1  0.24385774  0.48771548  0.25000000  1
  Y  Y17  1  0.75614226  0.51228452  0.75000000  1
  Y  Y18  1  0.10662439  0.21324879  0.56032703  1
  Y  Y19  1  0.89337561  0.78675121  0.43967297  1
  W  W20  1  0.94646877  0.89293753  0.75000000  1
  W  W21  1  0.05353123  0.10706247  0.25000000  1
