# generated using pymatgen
data_BaSi2
_symmetry_space_group_name_H-M   'P 1'
_cell_length_a   6.77784973
_cell_length_b   9.00946814
_cell_length_c   11.60214297
_cell_angle_alpha   90.00000000
_cell_angle_beta   90.00000000
_cell_angle_gamma   90.00000000
_symmetry_Int_Tables_number   1
_chemical_formula_structural   BaSi2
_chemical_formula_sum   'Ba8 Si16'
_cell_volume   708.48278600
_cell_formula_units_Z   8
loop_
 _symmetry_equiv_pos_site_id
 _symmetry_equiv_pos_as_xyz
  1  'x, y, z'
loop_
 _atom_site_type_symbol
 _atom_site_label
 _atom_site_symmetry_multiplicity
 _atom_site_fract_x
 _atom_site_fract_y
 _atom_site_fract_z
 _atom_site_occupancy
  Ba  Ba0  1  0.75000000  0.48482699  0.19131026  1
  Ba  Ba1  1  0.75000000  0.98482699  0.30868974  1
  Ba  Ba2  1  0.25000000  0.51517301  0.80868974  1
  Ba  Ba3  1  0.25000000  0.01517301  0.69131026  1
  Ba  Ba4  1  0.75000000  0.65930871  0.59334984  1
  Ba  Ba5  1  0.75000000  0.15930871  0.90665016  1
  Ba  Ba6  1  0.25000000  0.34069129  0.40665016  1
  Ba  Ba7  1  0.25000000  0.84069129  0.09334984  1
  Si  Si8  1  0.75000000  0.08290486  0.59200085  1
  Si  Si9  1  0.75000000  0.58290486  0.90799915  1
  Si  Si10  1  0.25000000  0.91709514  0.40799915  1
  Si  Si11  1  0.25000000  0.41709514  0.09200085  1
  Si  Si12  1  0.75000000  0.30230610  0.46694003  1
  Si  Si13  1  0.75000000  0.80230610  0.03305997  1
  Si  Si14  1  0.25000000  0.69769390  0.53305997  1
  Si  Si15  1  0.25000000  0.19769390  0.96694003  1
  Si  Si16  1  0.92745875  0.30572951  0.64674448  1
  Si  Si17  1  0.57254125  0.80572951  0.85325552  1
  Si  Si18  1  0.42745875  0.69427049  0.35325552  1
  Si  Si19  1  0.07254125  0.19427049  0.14674448  1
  Si  Si20  1  0.07254125  0.69427049  0.35325552  1
  Si  Si21  1  0.42745875  0.19427049  0.14674448  1
  Si  Si22  1  0.57254125  0.30572951  0.64674448  1
  Si  Si23  1  0.92745875  0.80572951  0.85325552  1
