# generated using pymatgen
data_Ba3Sc(BO3)3
_symmetry_space_group_name_H-M   'P 1'
_cell_length_a   9.36296543
_cell_length_b   9.36296542
_cell_length_c   17.64879755
_cell_angle_alpha   90.00000000
_cell_angle_beta   90.00000000
_cell_angle_gamma   120.00000000
_symmetry_Int_Tables_number   1
_chemical_formula_structural   Ba3Sc(BO3)3
_chemical_formula_sum   'Ba18 Sc6 B18 O54'
_cell_volume   1339.90063336
_cell_formula_units_Z   6
loop_
 _symmetry_equiv_pos_site_id
 _symmetry_equiv_pos_as_xyz
  1  'x, y, z'
loop_
 _atom_site_type_symbol
 _atom_site_label
 _atom_site_symmetry_multiplicity
 _atom_site_fract_x
 _atom_site_fract_y
 _atom_site_fract_z
 _atom_site_occupancy
  B  B0  1  0.66090408  0.00000000  0.70762339  1
  B  B1  1  0.66090408  0.66090408  0.20762339  1
  B  B2  1  0.00000000  0.33909592  0.20762339  1
  B  B3  1  0.00000000  0.66090408  0.70762339  1
  B  B4  1  0.33909592  0.33909592  0.70762339  1
  B  B5  1  0.33909592  0.00000000  0.20762339  1
  B  B6  1  0.67246586  0.00000000  0.34821532  1
  B  B7  1  0.67246586  0.67246586  0.84821532  1
  B  B8  1  0.00000000  0.32753414  0.84821532  1
  B  B9  1  0.00000000  0.67246586  0.34821532  1
  B  B10  1  0.32753414  0.32753414  0.34821532  1
  B  B11  1  0.32753414  0.00000000  0.84821532  1
  B  B12  1  0.66736403  0.00000000  0.52942563  1
  B  B13  1  0.66736403  0.66736403  0.02942563  1
  B  B14  1  0.00000000  0.33263597  0.02942563  1
  B  B15  1  0.00000000  0.66736403  0.52942563  1
  B  B16  1  0.33263597  0.33263597  0.52942563  1
  B  B17  1  0.33263597  0.00000000  0.02942563  1
  O  O18  1  0.67272371  0.52394320  0.84406496  1
  O  O19  1  0.47605680  0.14878051  0.84406496  1
  O  O20  1  0.85121949  0.32727629  0.84406496  1
  O  O21  1  0.14878051  0.67272371  0.34406496  1
  O  O22  1  0.32727629  0.47605680  0.34406496  1
  O  O23  1  0.52394320  0.85121949  0.34406496  1
  O  O24  1  0.67272371  0.14878051  0.34406496  1
  O  O25  1  0.52394320  0.67272371  0.84406496  1
  O  O26  1  0.14878051  0.47605680  0.84406496  1
  O  O27  1  0.85121949  0.52394320  0.34406496  1
  O  O28  1  0.47605680  0.32727629  0.34406496  1
  O  O29  1  0.32727629  0.85121949  0.84406496  1
  O  O30  1  0.66726340  0.81590187  0.02984462  1
  O  O31  1  0.18409813  0.85136153  0.02984462  1
  O  O32  1  0.14863847  0.33273660  0.02984462  1
  O  O33  1  0.85136153  0.66726340  0.52984462  1
  O  O34  1  0.33273660  0.18409813  0.52984462  1
  O  O35  1  0.81590187  0.14863847  0.52984462  1
  O  O36  1  0.66726340  0.85136153  0.52984462  1
  O  O37  1  0.81590187  0.66726340  0.02984462  1
  O  O38  1  0.85136153  0.18409813  0.02984462  1
  O  O39  1  0.14863847  0.81590187  0.52984462  1
  O  O40  1  0.18409813  0.33273660  0.52984462  1
  O  O41  1  0.33273660  0.14863847  0.02984462  1
  O  O42  1  0.82021202  0.00000000  0.35797784  1
  O  O43  1  0.82021202  0.82021202  0.85797784  1
  O  O44  1  0.00000000  0.17978798  0.85797784  1
  O  O45  1  0.00000000  0.82021202  0.35797784  1
  O  O46  1  0.17978798  0.17978798  0.35797784  1
  O  O47  1  0.17978798  0.00000000  0.85797784  1
  O  O48  1  0.80944472  0.00000000  0.71649990  1
  O  O49  1  0.80944472  0.80944472  0.21649990  1
  O  O50  1  0.00000000  0.19055528  0.21649990  1
  O  O51  1  0.00000000  0.80944472  0.71649990  1
  O  O52  1  0.19055528  0.19055528  0.71649990  1
  O  O53  1  0.19055528  0.00000000  0.21649990  1
  O  O54  1  0.51873798  0.00000000  0.52931899  1
  O  O55  1  0.51873798  0.51873798  0.02931899  1
  O  O56  1  0.00000000  0.48126202  0.02931899  1
  O  O57  1  0.00000000  0.51873798  0.52931899  1
  O  O58  1  0.48126202  0.48126202  0.52931899  1
  O  O59  1  0.48126202  0.00000000  0.02931899  1
  O  O60  1  0.48732025  0.14909342  0.20210602  1
  O  O61  1  0.85090658  0.33822683  0.20210602  1
  O  O62  1  0.66177317  0.51267975  0.20210602  1
  O  O63  1  0.33822683  0.48732025  0.70210602  1
  O  O64  1  0.51267975  0.85090658  0.70210602  1
  O  O65  1  0.14909342  0.66177317  0.70210602  1
  O  O66  1  0.48732025  0.33822683  0.70210602  1
  O  O67  1  0.14909342  0.48732025  0.20210602  1
  O  O68  1  0.33822683  0.85090658  0.20210602  1
  O  O69  1  0.66177317  0.14909342  0.70210602  1
  O  O70  1  0.85090658  0.51267975  0.70210602  1
  O  O71  1  0.51267975  0.66177317  0.20210602  1
  Sc  Sc72  1  0.00000000  0.00000000  0.78410364  1
  Sc  Sc73  1  0.00000000  0.00000000  0.28410364  1
  Sc  Sc74  1  0.33333333  0.66666667  0.27729632  1
  Sc  Sc75  1  0.66666667  0.33333333  0.77729632  1
  Sc  Sc76  1  0.33333333  0.66666667  0.77729632  1
  Sc  Sc77  1  0.66666667  0.33333333  0.27729632  1
  Ba  Ba78  1  0.66666667  0.33333333  0.05857467  1
  Ba  Ba79  1  0.33333333  0.66666667  0.55857467  1
  Ba  Ba80  1  0.66666667  0.33333333  0.55857467  1
  Ba  Ba81  1  0.33333333  0.66666667  0.05857467  1
  Ba  Ba82  1  0.34760602  0.00000000  0.40699582  1
  Ba  Ba83  1  0.34760602  0.34760602  0.90699582  1
  Ba  Ba84  1  0.00000000  0.65239398  0.90699582  1
  Ba  Ba85  1  0.00000000  0.34760602  0.40699582  1
  Ba  Ba86  1  0.65239398  0.65239398  0.40699582  1
  Ba  Ba87  1  0.65239398  0.00000000  0.90699582  1
  Ba  Ba88  1  0.31819484  0.00000000  0.65431950  1
  Ba  Ba89  1  0.31819484  0.31819484  0.15431950  1
  Ba  Ba90  1  0.00000000  0.68180516  0.15431950  1
  Ba  Ba91  1  0.00000000  0.31819484  0.65431950  1
  Ba  Ba92  1  0.68180516  0.68180516  0.65431950  1
  Ba  Ba93  1  0.68180516  0.00000000  0.15431950  1
  Ba  Ba94  1  0.00000000  0.00000000  0.49703162  1
  Ba  Ba95  1  0.00000000  0.00000000  0.99703162  1
