# generated using pymatgen
data_Li6Yb(BO3)3
_symmetry_space_group_name_H-M   'P 1'
_cell_length_a   6.67655919
_cell_length_b   7.28102821
_cell_length_c   16.62595428
_cell_angle_alpha   89.99982781
_cell_angle_beta   90.00010284
_cell_angle_gamma   104.67635399
_symmetry_Int_Tables_number   1
_chemical_formula_structural   Li6Yb(BO3)3
_chemical_formula_sum   'Li24 Yb4 B12 O36'
_cell_volume   781.85404957
_cell_formula_units_Z   4
loop_
 _symmetry_equiv_pos_site_id
 _symmetry_equiv_pos_as_xyz
  1  'x, y, z'
loop_
 _atom_site_type_symbol
 _atom_site_label
 _atom_site_symmetry_multiplicity
 _atom_site_fract_x
 _atom_site_fract_y
 _atom_site_fract_z
 _atom_site_occupancy
  Li  Li0  1  0.66994248  0.54563942  0.97060457  1
  Li  Li1  1  0.83006011  0.45436105  0.47060431  1
  Li  Li2  1  0.33005752  0.45436058  0.02939543  1
  Li  Li3  1  0.16993989  0.54563895  0.52939569  1
  Li  Li4  1  0.95524723  0.43181045  0.79263704  1
  Li  Li5  1  0.54475037  0.56818449  0.29263440  1
  Li  Li6  1  0.04475277  0.56818955  0.20736296  1
  Li  Li7  1  0.45524963  0.43181551  0.70736560  1
  Li  Li8  1  0.60096557  0.13920137  0.05553395  1
  Li  Li9  1  0.89902037  0.86078266  0.55553680  1
  Li  Li10  1  0.39903443  0.86079863  0.94446605  1
  Li  Li11  1  0.10097963  0.13921734  0.44446320  1
  Li  Li12  1  0.36116074  0.72270014  0.79094132  1
  Li  Li13  1  0.13883911  0.27730577  0.29093873  1
  Li  Li14  1  0.63883926  0.27729986  0.20905868  1
  Li  Li15  1  0.86116089  0.72269423  0.70906127  1
  Li  Li16  1  0.94035794  0.29631952  0.95401091  1
  Li  Li17  1  0.55962886  0.70366823  0.45401261  1
  Li  Li18  1  0.05964206  0.70368048  0.04598909  1
  Li  Li19  1  0.44037114  0.29633177  0.54598739  1
  Li  Li20  1  0.17933383  0.07699230  0.00233406  1
  Li  Li21  1  0.32066743  0.92300079  0.50233180  1
  Li  Li22  1  0.82066617  0.92300770  0.99766594  1
  Li  Li23  1  0.67933257  0.07699921  0.49766820  1
  B  B24  1  0.99850857  0.28748095  0.11864032  1
  B  B25  1  0.50149276  0.71251989  0.61864093  1
  B  B26  1  0.00149143  0.71251905  0.88135968  1
  B  B27  1  0.49850724  0.28748011  0.38135907  1
  B  B28  1  0.65847597  0.07896489  0.86299034  1
  B  B29  1  0.84152744  0.92103403  0.36299002  1
  B  B30  1  0.34152403  0.92103511  0.13700966  1
  B  B31  1  0.15847256  0.07896597  0.63700998  1
  B  B32  1  0.81230435  0.44065622  0.61503076  1
  B  B33  1  0.68769514  0.55934316  0.11502977  1
  B  B34  1  0.18769565  0.55934378  0.38496924  1
  B  B35  1  0.31230486  0.44065684  0.88497023  1
  O  O36  1  0.94822757  0.12954138  0.06912390  1
  O  O37  1  0.55177749  0.87045729  0.56912383  1
  O  O38  1  0.05177243  0.87045862  0.93087610  1
  O  O39  1  0.44822251  0.12954271  0.43087617  1
  O  O40  1  0.94975714  0.26275353  0.19950887  1
  O  O41  1  0.55024177  0.73724560  0.69950934  1
  O  O42  1  0.05024286  0.73724647  0.80049113  1
  O  O43  1  0.44975823  0.26275440  0.30049066  1
  O  O44  1  0.08985904  0.46478532  0.08881331  1
  O  O45  1  0.41014259  0.53521673  0.58881253  1
  O  O46  1  0.91014096  0.53521468  0.91118669  1
  O  O47  1  0.58985741  0.46478327  0.41118747  1
  O  O48  1  0.66890138  0.07988903  0.94583967  1
  O  O49  1  0.83110127  0.92010981  0.44584121  1
  O  O50  1  0.33109862  0.92011097  0.05416033  1
  O  O51  1  0.16889873  0.07989019  0.55415879  1
  O  O52  1  0.97235286  0.99618353  0.67402459  1
  O  O53  1  0.52764380  0.00381415  0.17402667  1
  O  O54  1  0.02764714  0.00381647  0.32597541  1
  O  O55  1  0.47235620  0.99618585  0.82597333  1
  O  O56  1  0.83422219  0.15518674  0.81860970  1
  O  O57  1  0.66578045  0.84481130  0.31861184  1
  O  O58  1  0.16577781  0.84481326  0.18139030  1
  O  O59  1  0.33421955  0.15518870  0.68138816  1
  O  O60  1  0.92365188  0.60490544  0.57759894  1
  O  O61  1  0.57634874  0.39509302  0.07759847  1
  O  O62  1  0.07634812  0.39509456  0.42240106  1
  O  O63  1  0.42365126  0.60490698  0.92240153  1
  O  O64  1  0.77551800  0.42891575  0.69700801  1
  O  O65  1  0.72448096  0.57108437  0.19700784  1
  O  O66  1  0.22448200  0.57108425  0.30299199  1
  O  O67  1  0.27551904  0.42891563  0.80299216  1
  O  O68  1  0.73152401  0.28140761  0.56839340  1
  O  O69  1  0.76847729  0.71859497  0.06839324  1
  O  O70  1  0.26847599  0.71859239  0.43160660  1
  O  O71  1  0.23152271  0.28140503  0.93160676  1
  Yb  Yb72  1  0.65619140  0.08150463  0.69248256  1
  Yb  Yb73  1  0.84381209  0.91849721  0.19247189  1
  Yb  Yb74  1  0.34380860  0.91849537  0.30751744  1
  Yb  Yb75  1  0.15618791  0.08150279  0.80752811  1
