# generated using pymatgen
data_KNpN3O11
_symmetry_space_group_name_H-M   'P 1'
_cell_length_a   8.38997882
_cell_length_b   8.38997881
_cell_length_c   8.38997881
_cell_angle_alpha   69.25954970
_cell_angle_beta   69.25954969
_cell_angle_gamma   69.25954969
_symmetry_Int_Tables_number   1
_chemical_formula_structural   KNpN3O11
_chemical_formula_sum   'K2 Np2 N6 O22'
_cell_volume   498.54289222
_cell_formula_units_Z   2
loop_
 _symmetry_equiv_pos_site_id
 _symmetry_equiv_pos_as_xyz
  1  'x, y, z'
loop_
 _atom_site_type_symbol
 _atom_site_label
 _atom_site_symmetry_multiplicity
 _atom_site_fract_x
 _atom_site_fract_y
 _atom_site_fract_z
 _atom_site_occupancy
  N  N0  1  0.44340126  0.75000000  0.05659874  1
  N  N1  1  0.75000000  0.05659874  0.44340126  1
  N  N2  1  0.05659874  0.44340126  0.75000000  1
  N  N3  1  0.55659874  0.25000000  0.94340126  1
  N  N4  1  0.25000000  0.94340126  0.55659874  1
  N  N5  1  0.94340126  0.55659874  0.25000000  1
  O  O6  1  0.65572435  0.65572435  0.65572435  1
  O  O7  1  0.84427565  0.84427565  0.84427565  1
  O  O8  1  0.15572435  0.15572435  0.15572435  1
  O  O9  1  0.34427565  0.34427565  0.34427565  1
  O  O10  1  0.44362000  0.87439412  0.91181701  1
  O  O11  1  0.05638000  0.58818299  0.62560588  1
  O  O12  1  0.62560588  0.05638000  0.58818299  1
  O  O13  1  0.58818299  0.62560588  0.05638000  1
  O  O14  1  0.81457516  0.68542484  0.25000000  1
  O  O15  1  0.25000000  0.81457516  0.68542484  1
  O  O16  1  0.68542484  0.25000000  0.81457516  1
  O  O17  1  0.18542484  0.31457516  0.75000000  1
  O  O18  1  0.75000000  0.18542484  0.31457516  1
  O  O19  1  0.31457516  0.75000000  0.18542484  1
  O  O20  1  0.08818299  0.55638000  0.12560588  1
  O  O21  1  0.12560588  0.08818299  0.55638000  1
  O  O22  1  0.55638000  0.12560588  0.08818299  1
  O  O23  1  0.94362000  0.41181701  0.37439412  1
  O  O24  1  0.37439412  0.94362000  0.41181701  1
  O  O25  1  0.41181701  0.37439412  0.94362000  1
  O  O26  1  0.91181701  0.44362000  0.87439412  1
  O  O27  1  0.87439412  0.91181701  0.44362000  1
  K  K28  1  0.50000000  0.50000000  0.50000000  1
  K  K29  1  0.00000000  0.00000000  0.00000000  1
  Np  Np30  1  0.75000000  0.75000000  0.75000000  1
  Np  Np31  1  0.25000000  0.25000000  0.25000000  1
