# generated using pymatgen
data_MgAg(PO3)3
_symmetry_space_group_name_H-M   'P 1'
_cell_length_a   10.18529759
_cell_length_b   10.88676967
_cell_length_c   14.12282141
_cell_angle_alpha   90.00000000
_cell_angle_beta   90.00000000
_cell_angle_gamma   90.00000000
_symmetry_Int_Tables_number   1
_chemical_formula_structural   MgAg(PO3)3
_chemical_formula_sum   'Mg8 Ag8 P24 O72'
_cell_volume   1566.00889504
_cell_formula_units_Z   8
loop_
 _symmetry_equiv_pos_site_id
 _symmetry_equiv_pos_as_xyz
  1  'x, y, z'
loop_
 _atom_site_type_symbol
 _atom_site_label
 _atom_site_symmetry_multiplicity
 _atom_site_fract_x
 _atom_site_fract_y
 _atom_site_fract_z
 _atom_site_occupancy
  O  O0  1  0.16333298  0.56126505  0.65224773  1
  O  O1  1  0.16333298  0.43873495  0.84775227  1
  O  O2  1  0.33666702  0.56126505  0.34775227  1
  O  O3  1  0.33666702  0.43873495  0.15224773  1
  O  O4  1  0.83666702  0.43873495  0.34775227  1
  O  O5  1  0.83666702  0.56126505  0.15224773  1
  O  O6  1  0.66333298  0.43873495  0.65224773  1
  O  O7  1  0.66333298  0.56126505  0.84775227  1
  O  O8  1  0.38418954  0.55508406  0.85064407  1
  O  O9  1  0.38418954  0.44491594  0.64935593  1
  O  O10  1  0.11581046  0.55508406  0.14935593  1
  O  O11  1  0.11581046  0.44491594  0.35064407  1
  O  O12  1  0.61581046  0.44491594  0.14935593  1
  O  O13  1  0.61581046  0.55508406  0.35064407  1
  O  O14  1  0.88418954  0.44491594  0.85064407  1
  O  O15  1  0.88418954  0.55508406  0.64935593  1
  O  O16  1  0.51870953  0.82467754  0.55504814  1
  O  O17  1  0.51870953  0.17532246  0.94495186  1
  O  O18  1  0.98129047  0.82467754  0.44495186  1
  O  O19  1  0.98129047  0.17532246  0.05504814  1
  O  O20  1  0.48129047  0.17532246  0.44495186  1
  O  O21  1  0.48129047  0.82467754  0.05504814  1
  O  O22  1  0.01870953  0.17532246  0.55504814  1
  O  O23  1  0.01870953  0.82467754  0.94495186  1
  O  O24  1  0.01941096  0.68068132  0.79839734  1
  O  O25  1  0.01941096  0.31931868  0.70160266  1
  O  O26  1  0.48058904  0.68068132  0.20160266  1
  O  O27  1  0.13993886  0.92217013  0.59278325  1
  O  O28  1  0.48058904  0.31931868  0.29839734  1
  O  O29  1  0.98058904  0.68068132  0.29839734  1
  O  O30  1  0.51941096  0.31931868  0.79839734  1
  O  O31  1  0.51941096  0.68068132  0.70160266  1
  O  O32  1  0.35915021  0.95867793  0.89456631  1
  O  O33  1  0.35915021  0.04132207  0.60543369  1
  O  O34  1  0.14084979  0.95867793  0.10543369  1
  O  O35  1  0.14084979  0.04132207  0.39456631  1
  O  O36  1  0.64084979  0.04132207  0.10543369  1
  O  O37  1  0.64084979  0.95867793  0.39456631  1
  O  O38  1  0.85915021  0.04132207  0.89456631  1
  O  O39  1  0.85915021  0.95867793  0.60543369  1
  O  O40  1  0.71019325  0.00000000  0.75000000  1
  O  O41  1  0.78980675  0.00000000  0.25000000  1
  O  O42  1  0.28980675  0.00000000  0.25000000  1
  O  O43  1  0.21019325  0.00000000  0.75000000  1
  O  O44  1  0.83511612  0.82866496  0.82041565  1
  O  O45  1  0.83511612  0.17133504  0.67958435  1
  O  O46  1  0.66488388  0.82866496  0.17958435  1
  O  O47  1  0.66488388  0.17133504  0.32041565  1
  O  O48  1  0.16488388  0.17133504  0.17958435  1
  O  O49  1  0.16488388  0.82866496  0.32041565  1
  O  O50  1  0.33511612  0.17133504  0.82041565  1
  O  O51  1  0.33511612  0.82866496  0.67958435  1
  O  O52  1  0.85969194  0.65095305  0.93507249  1
  O  O53  1  0.85969194  0.34904695  0.56492751  1
  O  O54  1  0.64030806  0.65095305  0.06492751  1
  O  O55  1  0.64030806  0.34904695  0.43507249  1
  O  O56  1  0.14030806  0.34904695  0.06492751  1
  O  O57  1  0.14030806  0.65095305  0.43507249  1
  O  O58  1  0.35969194  0.34904695  0.93507249  1
  O  O59  1  0.35969194  0.65095305  0.56492751  1
  O  O60  1  0.75000000  0.53415743  0.50000000  1
  O  O61  1  0.75000000  0.46584257  0.00000000  1
  O  O62  1  0.25000000  0.46584257  0.50000000  1
  O  O63  1  0.25000000  0.53415743  0.00000000  1
  O  O64  1  0.63993886  0.92217013  0.90721675  1
  O  O65  1  0.63993886  0.07782987  0.59278325  1
  O  O66  1  0.86006114  0.92217013  0.09278325  1
  O  O67  1  0.86006114  0.07782987  0.40721675  1
  O  O68  1  0.36006114  0.07782987  0.09278325  1
  O  O69  1  0.36006114  0.92217013  0.40721675  1
  O  O70  1  0.13993886  0.07782987  0.90721675  1
  O  O71  1  0.98058904  0.31931868  0.20160266  1
  Mg  Mg72  1  0.96882394  0.50000000  0.25000000  1
  Mg  Mg73  1  0.46882394  0.50000000  0.25000000  1
  Mg  Mg74  1  0.03117606  0.50000000  0.75000000  1
  Mg  Mg75  1  0.00000000  0.00000000  0.00000000  1
  Mg  Mg76  1  0.00000000  0.00000000  0.50000000  1
  Mg  Mg77  1  0.50000000  0.00000000  0.00000000  1
  Mg  Mg78  1  0.50000000  0.00000000  0.50000000  1
  Mg  Mg79  1  0.53117606  0.50000000  0.75000000  1
  P  P80  1  0.94563849  0.74771251  0.87437992  1
  P  P81  1  0.44563849  0.25228749  0.87437992  1
  P  P82  1  0.05436151  0.74771251  0.37437992  1
  P  P83  1  0.05436151  0.25228749  0.12562008  1
  P  P84  1  0.55436151  0.25228749  0.37437992  1
  P  P85  1  0.55436151  0.74771251  0.12562008  1
  P  P86  1  0.94563849  0.25228749  0.62562008  1
  P  P87  1  0.44563849  0.74771251  0.62562008  1
  P  P88  1  0.26116809  0.95425872  0.64829207  1
  P  P89  1  0.26116809  0.04574128  0.85170793  1
  P  P90  1  0.23883191  0.95425872  0.35170793  1
  P  P91  1  0.23883191  0.04574128  0.14829207  1
  P  P92  1  0.78603935  0.52698432  0.89918807  1
  P  P93  1  0.73883191  0.95425872  0.14829207  1
  P  P94  1  0.76116809  0.04574128  0.64829207  1
  P  P95  1  0.76116809  0.95425872  0.85170793  1
  P  P96  1  0.78603935  0.47301568  0.60081193  1
  P  P97  1  0.71396065  0.52698432  0.10081193  1
  P  P98  1  0.71396065  0.47301568  0.39918807  1
  P  P99  1  0.21396065  0.47301568  0.10081193  1
  P  P100  1  0.21396065  0.52698432  0.39918807  1
  P  P101  1  0.28603935  0.47301568  0.89918807  1
  P  P102  1  0.28603935  0.52698432  0.60081193  1
  P  P103  1  0.73883191  0.04574128  0.35170793  1
  Ag  Ag104  1  0.47974362  0.75272863  0.87573474  1
  Ag  Ag105  1  0.47974362  0.24727137  0.62426526  1
  Ag  Ag106  1  0.02025638  0.75272863  0.12426526  1
  Ag  Ag107  1  0.02025638  0.24727137  0.37573474  1
  Ag  Ag108  1  0.52025638  0.24727137  0.12426526  1
  Ag  Ag109  1  0.52025638  0.75272863  0.37573474  1
  Ag  Ag110  1  0.97974362  0.24727137  0.87573474  1
  Ag  Ag111  1  0.97974362  0.75272863  0.62426526  1
