# generated using pymatgen
data_Li6Ca12Re4N16O3
_symmetry_space_group_name_H-M   'P 1'
_cell_length_a   11.35528322
_cell_length_b   11.35528322
_cell_length_c   11.35528322
_cell_angle_alpha   109.47122066
_cell_angle_beta   109.47122065
_cell_angle_gamma   109.47122061
_symmetry_Int_Tables_number   1
_chemical_formula_structural   Li6Ca12Re4N16O3
_chemical_formula_sum   'Li12 Ca24 Re8 N32 O6'
_cell_volume   1127.12484055
_cell_formula_units_Z   2
loop_
 _symmetry_equiv_pos_site_id
 _symmetry_equiv_pos_as_xyz
  1  'x, y, z'
loop_
 _atom_site_type_symbol
 _atom_site_label
 _atom_site_symmetry_multiplicity
 _atom_site_fract_x
 _atom_site_fract_y
 _atom_site_fract_z
 _atom_site_occupancy
  Li  Li0  1  0.25000000  0.27627190  0.02627190  1
  Li  Li1  1  0.25000000  0.97372810  0.72372810  1
  Li  Li2  1  0.77627190  0.75000000  0.52627190  1
  Li  Li3  1  0.52627190  0.77627190  0.75000000  1
  Li  Li4  1  0.72372810  0.25000000  0.97372810  1
  Li  Li5  1  0.97372810  0.72372810  0.25000000  1
  Li  Li6  1  0.75000000  0.22372810  0.47372810  1
  Li  Li7  1  0.22372810  0.47372810  0.75000000  1
  Li  Li8  1  0.27627190  0.02627190  0.25000000  1
  Li  Li9  1  0.02627190  0.25000000  0.27627190  1
  Li  Li10  1  0.47372810  0.75000000  0.22372810  1
  Li  Li11  1  0.75000000  0.52627190  0.77627190  1
  N  N12  1  0.45651965  0.82058470  0.58255144  1
  N  N13  1  0.12603178  0.54348035  0.86406504  1
  N  N14  1  0.37396822  0.23803326  0.41744856  1
  N  N15  1  0.08255144  0.32058470  0.95651965  1
  N  N16  1  0.32058470  0.95651965  0.08255144  1
  N  N17  1  0.95651965  0.08255144  0.32058470  1
  N  N18  1  0.91744856  0.73803326  0.87396822  1
  N  N19  1  0.36406504  0.04348035  0.62603178  1
  N  N20  1  0.13593496  0.76196674  0.67941530  1
  N  N21  1  0.41744856  0.37396822  0.23803326  1
  N  N22  1  0.82058470  0.58255144  0.45651965  1
  N  N23  1  0.87396822  0.91744856  0.73803326  1
  N  N24  1  0.04348035  0.62603178  0.36406504  1
  N  N25  1  0.67941530  0.13593496  0.76196674  1
  N  N26  1  0.73803326  0.87396822  0.91744856  1
  N  N27  1  0.62603178  0.36406504  0.04348035  1
  N  N28  1  0.76196674  0.67941530  0.13593496  1
  N  N29  1  0.86406504  0.12603178  0.54348035  1
  N  N30  1  0.63593496  0.17941530  0.26196674  1
  N  N31  1  0.17941530  0.26196674  0.63593496  1
  N  N32  1  0.61540516  0.61540516  0.61540516  1
  N  N33  1  0.38459484  0.50000000  0.00000000  1
  N  N34  1  0.00000000  0.38459484  0.50000000  1
  N  N35  1  0.50000000  0.00000000  0.38459484  1
  N  N36  1  0.00000000  0.88459484  0.50000000  1
  N  N37  1  0.50000000  0.00000000  0.88459484  1
  N  N38  1  0.88459484  0.50000000  0.00000000  1
  N  N39  1  0.11540516  0.11540516  0.11540516  1
  N  N40  1  0.58255144  0.45651965  0.82058470  1
  N  N41  1  0.54348035  0.86406504  0.12603178  1
  N  N42  1  0.23803326  0.41744856  0.37396822  1
  N  N43  1  0.26196674  0.63593496  0.17941530  1
  O  O44  1  0.37500000  0.62500000  0.75000000  1
  O  O45  1  0.12500000  0.87500000  0.25000000  1
  O  O46  1  0.62500000  0.75000000  0.37500000  1
  O  O47  1  0.87500000  0.25000000  0.12500000  1
  O  O48  1  0.25000000  0.12500000  0.87500000  1
  O  O49  1  0.75000000  0.37500000  0.62500000  1
  Ca  Ca50  1  0.70824317  0.03796974  0.09522637  1
  Ca  Ca51  1  0.17027342  0.05725663  0.46203026  1
  Ca  Ca52  1  0.32972658  0.79175683  0.88698321  1
  Ca  Ca53  1  0.44274337  0.61301679  0.40477363  1
  Ca  Ca54  1  0.61301679  0.40477363  0.44274337  1
  Ca  Ca55  1  0.03796974  0.09522637  0.70824317  1
  Ca  Ca56  1  0.05725663  0.46203026  0.17027342  1
  Ca  Ca57  1  0.88698321  0.32972658  0.79175683  1
  Ca  Ca58  1  0.09522637  0.70824317  0.03796974  1
  Ca  Ca59  1  0.46203026  0.17027342  0.05725663  1
  Ca  Ca60  1  0.79175683  0.88698321  0.32972658  1
  Ca  Ca61  1  0.67027342  0.96203026  0.55725663  1
  Ca  Ca62  1  0.82972658  0.38698321  0.29175683  1
  Ca  Ca63  1  0.40477363  0.44274337  0.61301679  1
  Ca  Ca64  1  0.59522637  0.53796974  0.20824317  1
  Ca  Ca65  1  0.94274337  0.90477363  0.11301679  1
  Ca  Ca66  1  0.11301679  0.94274337  0.90477363  1
  Ca  Ca67  1  0.90477363  0.11301679  0.94274337  1
  Ca  Ca68  1  0.29175683  0.82972658  0.38698321  1
  Ca  Ca69  1  0.96203026  0.55725663  0.67027342  1
  Ca  Ca70  1  0.53796974  0.20824317  0.59522637  1
  Ca  Ca71  1  0.20824317  0.59522637  0.53796974  1
  Ca  Ca72  1  0.55725663  0.67027342  0.96203026  1
  Ca  Ca73  1  0.38698321  0.29175683  0.82972658  1
  Re  Re74  1  0.27879339  0.27879339  0.27879339  1
  Re  Re75  1  0.72120661  0.50000000  0.00000000  1
  Re  Re76  1  0.50000000  0.00000000  0.72120661  1
  Re  Re77  1  0.00000000  0.72120661  0.50000000  1
  Re  Re78  1  0.50000000  0.00000000  0.22120661  1
  Re  Re79  1  0.00000000  0.22120661  0.50000000  1
  Re  Re80  1  0.22120661  0.50000000  0.00000000  1
  Re  Re81  1  0.77879339  0.77879339  0.77879339  1
