# generated using pymatgen
data_Sr3Y2(GeO4)3
_symmetry_space_group_name_H-M   'P 1'
_cell_length_a   11.48305134
_cell_length_b   11.48305134
_cell_length_c   11.48305134
_cell_angle_alpha   109.47122063
_cell_angle_beta   109.47122063
_cell_angle_gamma   109.47122062
_symmetry_Int_Tables_number   1
_chemical_formula_structural   Sr3Y2(GeO4)3
_chemical_formula_sum   'Sr12 Y8 Ge12 O48'
_cell_volume   1165.60131580
_cell_formula_units_Z   4
loop_
 _symmetry_equiv_pos_site_id
 _symmetry_equiv_pos_as_xyz
  1  'x, y, z'
loop_
 _atom_site_type_symbol
 _atom_site_label
 _atom_site_symmetry_multiplicity
 _atom_site_fract_x
 _atom_site_fract_y
 _atom_site_fract_z
 _atom_site_occupancy
  O  O0  1  0.78980030  0.40975713  0.80218712  1
  O  O1  1  0.09024287  0.88004316  0.39242999  1
  O  O2  1  0.69781288  0.10757001  0.98761317  1
  O  O3  1  0.71019970  0.51238683  0.61995684  1
  O  O4  1  0.71019970  0.69781288  0.09024287  1
  O  O5  1  0.51238683  0.61995684  0.71019970  1
  O  O6  1  0.10757001  0.61995684  0.40975713  1
  O  O7  1  0.61995684  0.71019970  0.51238683  1
  O  O8  1  0.39242999  0.80218712  0.51238683  1
  O  O9  1  0.88004316  0.98761317  0.78980030  1
  O  O10  1  0.98761317  0.78980030  0.88004316  1
  O  O11  1  0.09024287  0.71019970  0.69781288  1
  O  O12  1  0.61995684  0.40975713  0.10757001  1
  O  O13  1  0.51238683  0.39242999  0.80218712  1
  O  O14  1  0.69781288  0.09024287  0.71019970  1
  O  O15  1  0.40975713  0.10757001  0.61995684  1
  O  O16  1  0.80218712  0.51238683  0.39242999  1
  O  O17  1  0.39242999  0.09024287  0.88004316  1
  O  O18  1  0.10757001  0.98761317  0.69781288  1
  O  O19  1  0.60757001  0.19781288  0.48761317  1
  O  O20  1  0.98761317  0.69781288  0.10757001  1
  O  O21  1  0.80218712  0.78980030  0.40975713  1
  O  O22  1  0.88004316  0.39242999  0.09024287  1
  O  O23  1  0.78980030  0.88004316  0.98761317  1
  O  O24  1  0.21019970  0.59024287  0.19781288  1
  O  O25  1  0.90975713  0.11995684  0.60757001  1
  O  O26  1  0.30218712  0.89242999  0.01238683  1
  O  O27  1  0.28980030  0.48761317  0.38004316  1
  O  O28  1  0.28980030  0.30218712  0.90975713  1
  O  O29  1  0.48761317  0.38004316  0.28980030  1
  O  O30  1  0.89242999  0.38004316  0.59024287  1
  O  O31  1  0.38004316  0.28980030  0.48761317  1
  O  O32  1  0.21019970  0.11995684  0.01238683  1
  O  O33  1  0.11995684  0.60757001  0.90975713  1
  O  O34  1  0.19781288  0.21019970  0.59024287  1
  O  O35  1  0.59024287  0.19781288  0.21019970  1
  O  O36  1  0.01238683  0.30218712  0.89242999  1
  O  O37  1  0.89242999  0.01238683  0.30218712  1
  O  O38  1  0.60757001  0.90975713  0.11995684  1
  O  O39  1  0.19781288  0.48761317  0.60757001  1
  O  O40  1  0.59024287  0.89242999  0.38004316  1
  O  O41  1  0.30218712  0.90975713  0.28980030  1
  O  O42  1  0.48761317  0.60757001  0.19781288  1
  O  O43  1  0.38004316  0.59024287  0.89242999  1
  O  O44  1  0.90975713  0.28980030  0.30218712  1
  O  O45  1  0.01238683  0.21019970  0.11995684  1
  O  O46  1  0.11995684  0.01238683  0.21019970  1
  O  O47  1  0.40975713  0.80218712  0.78980030  1
  Ge  Ge48  1  0.25000000  0.12500000  0.87500000  1
  Ge  Ge49  1  0.75000000  0.87500000  0.12500000  1
  Ge  Ge50  1  0.37500000  0.25000000  0.62500000  1
  Ge  Ge51  1  0.62500000  0.37500000  0.25000000  1
  Ge  Ge52  1  0.12500000  0.75000000  0.87500000  1
  Ge  Ge53  1  0.87500000  0.12500000  0.75000000  1
  Ge  Ge54  1  0.75000000  0.37500000  0.62500000  1
  Ge  Ge55  1  0.37500000  0.62500000  0.75000000  1
  Ge  Ge56  1  0.12500000  0.87500000  0.25000000  1
  Ge  Ge57  1  0.87500000  0.25000000  0.12500000  1
  Ge  Ge58  1  0.62500000  0.75000000  0.37500000  1
  Ge  Ge59  1  0.25000000  0.62500000  0.37500000  1
  Sr  Sr60  1  0.37500000  0.75000000  0.12500000  1
  Sr  Sr61  1  0.12500000  0.25000000  0.37500000  1
  Sr  Sr62  1  0.37500000  0.12500000  0.25000000  1
  Sr  Sr63  1  0.12500000  0.37500000  0.75000000  1
  Sr  Sr64  1  0.87500000  0.75000000  0.62500000  1
  Sr  Sr65  1  0.75000000  0.12500000  0.37500000  1
  Sr  Sr66  1  0.75000000  0.62500000  0.87500000  1
  Sr  Sr67  1  0.62500000  0.25000000  0.87500000  1
  Sr  Sr68  1  0.25000000  0.87500000  0.62500000  1
  Sr  Sr69  1  0.87500000  0.62500000  0.25000000  1
  Sr  Sr70  1  0.62500000  0.87500000  0.75000000  1
  Sr  Sr71  1  0.25000000  0.37500000  0.12500000  1
  Y  Y72  1  0.00000000  0.00000000  0.00000000  1
  Y  Y73  1  0.00000000  0.50000000  0.00000000  1
  Y  Y74  1  0.00000000  0.00000000  0.50000000  1
  Y  Y75  1  0.00000000  0.50000000  0.50000000  1
  Y  Y76  1  0.50000000  0.00000000  0.50000000  1
  Y  Y77  1  0.50000000  0.50000000  0.00000000  1
  Y  Y78  1  0.50000000  0.50000000  0.50000000  1
  Y  Y79  1  0.50000000  0.00000000  0.00000000  1
