# generated using pymatgen
data_Ca3ZrSi2O9
_symmetry_space_group_name_H-M   'P 1'
_cell_length_a   7.44342364
_cell_length_b   10.33124913
_cell_length_c   10.52680596
_cell_angle_alpha   90.00000000
_cell_angle_beta   91.07273409
_cell_angle_gamma   90.00000000
_symmetry_Int_Tables_number   1
_chemical_formula_structural   Ca3ZrSi2O9
_chemical_formula_sum   'Ca12 Zr4 Si8 O36'
_cell_volume   809.36806773
_cell_formula_units_Z   4
loop_
 _symmetry_equiv_pos_site_id
 _symmetry_equiv_pos_as_xyz
  1  'x, y, z'
loop_
 _atom_site_type_symbol
 _atom_site_label
 _atom_site_symmetry_multiplicity
 _atom_site_fract_x
 _atom_site_fract_y
 _atom_site_fract_z
 _atom_site_occupancy
  O  O0  1  0.65605114  0.60782782  0.48468821  1
  O  O1  1  0.34394886  0.10782782  0.01531179  1
  O  O2  1  0.34394886  0.39217218  0.51531179  1
  O  O3  1  0.65605114  0.89217218  0.98468821  1
  O  O4  1  0.09627025  0.88977358  0.01029360  1
  O  O5  1  0.90372975  0.38977358  0.48970640  1
  O  O6  1  0.90372975  0.11022642  0.98970640  1
  O  O7  1  0.09627025  0.61022642  0.51029360  1
  O  O8  1  0.37920885  0.83353552  0.46029406  1
  O  O9  1  0.62079115  0.33353552  0.03970594  1
  O  O10  1  0.62079115  0.16646448  0.53970594  1
  O  O11  1  0.37920885  0.66646448  0.96029406  1
  O  O12  1  0.30739847  0.99951465  0.26318716  1
  O  O13  1  0.69260153  0.49951465  0.23681284  1
  O  O14  1  0.13994315  0.12327067  0.52941712  1
  O  O15  1  0.69260153  0.00048535  0.73681284  1
  O  O16  1  0.35677924  0.76469596  0.72651619  1
  O  O17  1  0.64322076  0.26469596  0.77348381  1
  O  O18  1  0.64322076  0.23530404  0.27348381  1
  O  O19  1  0.35677924  0.73530404  0.22651619  1
  O  O20  1  0.10693611  0.23612953  0.24378626  1
  O  O21  1  0.89306389  0.73612953  0.25621374  1
  O  O22  1  0.89306389  0.76387047  0.75621374  1
  O  O23  1  0.10693611  0.26387047  0.74378626  1
  O  O24  1  0.61750957  0.60567427  0.77516645  1
  O  O25  1  0.38249043  0.10567427  0.72483355  1
  O  O26  1  0.38249043  0.39432573  0.22483355  1
  O  O27  1  0.61750957  0.89432573  0.27516645  1
  O  O28  1  0.08427210  0.99620514  0.75086240  1
  O  O29  1  0.91572790  0.49620514  0.74913760  1
  O  O30  1  0.91572790  0.00379486  0.24913760  1
  O  O31  1  0.08427210  0.50379486  0.25086240  1
  O  O32  1  0.13994315  0.37672933  0.02941712  1
  O  O33  1  0.86005685  0.87672933  0.47058288  1
  O  O34  1  0.86005685  0.62327067  0.97058288  1
  O  O35  1  0.30739847  0.50048535  0.76318716  1
  Si  Si36  1  0.40234526  0.86498301  0.31057762  1
  Si  Si37  1  0.59765474  0.36498301  0.18942238  1
  Si  Si38  1  0.59765474  0.13501699  0.68942238  1
  Si  Si39  1  0.40234526  0.63501699  0.81057762  1
  Si  Si40  1  0.83363968  0.87567831  0.31807711  1
  Si  Si41  1  0.16636032  0.37567831  0.18192289  1
  Si  Si42  1  0.16636032  0.12432169  0.68192289  1
  Si  Si43  1  0.83363968  0.62432169  0.81807711  1
  Ca  Ca44  1  0.63511016  0.07713821  0.11410150  1
  Ca  Ca45  1  0.36488984  0.57713821  0.38589850  1
  Ca  Ca46  1  0.36488984  0.92286179  0.88589850  1
  Ca  Ca47  1  0.63511016  0.42286179  0.61410150  1
  Ca  Ca48  1  0.11881096  0.67506231  0.08960524  1
  Ca  Ca49  1  0.88118904  0.17506231  0.41039476  1
  Ca  Ca50  1  0.88118904  0.32493769  0.91039476  1
  Ca  Ca51  1  0.11881096  0.82493769  0.58960524  1
  Ca  Ca52  1  0.62701558  0.69618890  0.09928703  1
  Ca  Ca53  1  0.37298442  0.19618890  0.40071297  1
  Ca  Ca54  1  0.37298442  0.30381110  0.90071297  1
  Ca  Ca55  1  0.62701558  0.80381110  0.59928703  1
  Zr  Zr56  1  0.12351930  0.43601220  0.61514360  1
  Zr  Zr57  1  0.87648070  0.93601220  0.88485640  1
  Zr  Zr58  1  0.87648070  0.56398780  0.38485640  1
  Zr  Zr59  1  0.12351930  0.06398780  0.11514360  1
