# generated using pymatgen
data_ZnSi2SnO6
_symmetry_space_group_name_H-M   'P 1'
_cell_length_a   5.44799059
_cell_length_b   9.37547376
_cell_length_c   19.41478609
_cell_angle_alpha   90.00000000
_cell_angle_beta   90.00000000
_cell_angle_gamma   90.00000000
_symmetry_Int_Tables_number   1
_chemical_formula_structural   ZnSi2SnO6
_chemical_formula_sum   'Zn8 Si16 Sn8 O48'
_cell_volume   991.65859714
_cell_formula_units_Z   8
loop_
 _symmetry_equiv_pos_site_id
 _symmetry_equiv_pos_as_xyz
  1  'x, y, z'
loop_
 _atom_site_type_symbol
 _atom_site_label
 _atom_site_symmetry_multiplicity
 _atom_site_fract_x
 _atom_site_fract_y
 _atom_site_fract_z
 _atom_site_occupancy
  Zn  Zn0  1  0.61741907  0.14245683  0.62581730  1
  Zn  Zn1  1  0.38258093  0.85754317  0.37418270  1
  Zn  Zn2  1  0.61741907  0.64245683  0.87418270  1
  Zn  Zn3  1  0.11741907  0.85754317  0.87418270  1
  Zn  Zn4  1  0.88258093  0.14245683  0.12581730  1
  Zn  Zn5  1  0.38258093  0.35754317  0.12581730  1
  Zn  Zn6  1  0.11741907  0.35754317  0.62581730  1
  Zn  Zn7  1  0.88258093  0.64245683  0.37418270  1
  Si  Si8  1  0.53362981  0.66169404  0.23505289  1
  Si  Si9  1  0.69229089  0.83706753  0.51730243  1
  Si  Si10  1  0.80770911  0.83706753  0.01730343  1
  Si  Si11  1  0.96637019  0.16169404  0.76494711  1
  Si  Si12  1  0.03362981  0.33830596  0.26494711  1
  Si  Si13  1  0.46637019  0.83830596  0.73505289  1
  Si  Si14  1  0.19229089  0.66293247  0.51730243  1
  Si  Si15  1  0.69229089  0.33706753  0.98269757  1
  Si  Si16  1  0.80770911  0.33706753  0.48269757  1
  Si  Si17  1  0.96637019  0.66169404  0.73505289  1
  Si  Si18  1  0.46637019  0.33830596  0.76494711  1
  Si  Si19  1  0.53362981  0.16169404  0.26494711  1
  Si  Si20  1  0.30770911  0.16293247  0.48269757  1
  Si  Si21  1  0.03362981  0.83830596  0.23505289  1
  Si  Si22  1  0.30770911  0.66293247  0.01730343  1
  Si  Si23  1  0.19229089  0.16293247  0.98269757  1
  Sn  Sn24  1  0.38023223  0.97397384  0.11964068  1
  Sn  Sn25  1  0.61976777  0.02602616  0.88035932  1
  Sn  Sn26  1  0.88023223  0.02602616  0.38035932  1
  Sn  Sn27  1  0.11976777  0.97397384  0.61964068  1
  Sn  Sn28  1  0.38023223  0.47397384  0.38035932  1
  Sn  Sn29  1  0.61976777  0.52602616  0.61964068  1
  Sn  Sn30  1  0.88023223  0.52602616  0.11964068  1
  Sn  Sn31  1  0.11976777  0.47397384  0.88035932  1
  O  O32  1  0.95401566  0.50794273  0.69647822  1
  O  O33  1  0.22940217  0.00842860  0.94719254  1
  O  O34  1  0.04598334  0.49205727  0.30352178  1
  O  O35  1  0.70472761  0.33148967  0.06809008  1
  O  O36  1  0.20472761  0.16851033  0.06809008  1
  O  O37  1  0.92980455  0.23598669  0.95715000  1
  O  O38  1  0.95300433  0.66123572  0.82043905  1
  O  O39  1  0.04699567  0.83876428  0.32043905  1
  O  O40  1  0.70472761  0.83148967  0.43190992  1
  O  O41  1  0.95300433  0.16123572  0.67956095  1
  O  O42  1  0.45401666  0.49205727  0.80352178  1
  O  O43  1  0.79527239  0.33148967  0.56809008  1
  O  O44  1  0.77059783  0.99157140  0.05280746  1
  O  O45  1  0.45300433  0.83876428  0.82043905  1
  O  O46  1  0.54598434  0.00794273  0.30352178  1
  O  O47  1  0.22940217  0.50842860  0.55280746  1
  O  O48  1  0.45401666  0.99205727  0.69647822  1
  O  O49  1  0.21983519  0.74560766  0.71069388  1
  O  O50  1  0.28016481  0.74560766  0.21069388  1
  O  O51  1  0.57019545  0.73598669  0.04285000  1
  O  O52  1  0.79527239  0.83148967  0.93190992  1
  O  O53  1  0.54699567  0.66123572  0.32043905  1
  O  O54  1  0.72940217  0.49157140  0.94719254  1
  O  O55  1  0.21983519  0.24560766  0.78930612  1
  O  O56  1  0.29527239  0.16851033  0.56809008  1
  O  O57  1  0.54699567  0.16123572  0.17956095  1
  O  O58  1  0.77059783  0.49157140  0.44719254  1
  O  O59  1  0.20472761  0.66851033  0.43190992  1
  O  O60  1  0.27059783  0.50842860  0.05280746  1
  O  O61  1  0.71983519  0.75439234  0.71069388  1
  O  O62  1  0.04598334  0.99205727  0.19647822  1
  O  O63  1  0.78016481  0.75439234  0.21069388  1
  O  O64  1  0.78016481  0.25439234  0.28930612  1
  O  O65  1  0.72940217  0.99157140  0.55280746  1
  O  O66  1  0.29527239  0.66851033  0.93190992  1
  O  O67  1  0.27059783  0.00842860  0.44719254  1
  O  O68  1  0.28016481  0.24560766  0.28930612  1
  O  O69  1  0.07019545  0.76401331  0.04285000  1
  O  O70  1  0.42980455  0.76401331  0.54285000  1
  O  O71  1  0.71983519  0.25439234  0.78930612  1
  O  O72  1  0.42980455  0.26401331  0.95715000  1
  O  O73  1  0.57019545  0.23598669  0.45715000  1
  O  O74  1  0.07019545  0.26401331  0.45715000  1
  O  O75  1  0.45300433  0.33876428  0.67956095  1
  O  O76  1  0.54598434  0.50794273  0.19647822  1
  O  O77  1  0.92980455  0.73598669  0.54285000  1
  O  O78  1  0.04699567  0.33876428  0.17956095  1
  O  O79  1  0.95401566  0.00794273  0.80352178  1
