# generated using pymatgen
data_Ca5(GaAs3)2
_symmetry_space_group_name_H-M   'P 1'
_cell_length_a   4.17458054
_cell_length_b   11.44401906
_cell_length_c   13.28657020
_cell_angle_alpha   90.00000000
_cell_angle_beta   90.00000000
_cell_angle_gamma   90.00000000
_symmetry_Int_Tables_number   1
_chemical_formula_structural   Ca5(GaAs3)2
_chemical_formula_sum   'Ca10 Ga4 As12'
_cell_volume   634.75232927
_cell_formula_units_Z   2
loop_
 _symmetry_equiv_pos_site_id
 _symmetry_equiv_pos_as_xyz
  1  'x, y, z'
loop_
 _atom_site_type_symbol
 _atom_site_label
 _atom_site_symmetry_multiplicity
 _atom_site_fract_x
 _atom_site_fract_y
 _atom_site_fract_z
 _atom_site_occupancy
  Ca  Ca0  1  0.50000000  0.08907689  0.75157223  1
  Ca  Ca1  1  0.50000000  0.58907689  0.74842777  1
  Ca  Ca2  1  0.50000000  0.32492167  0.51402415  1
  Ca  Ca3  1  0.50000000  0.67507833  0.48597585  1
  Ca  Ca4  1  0.50000000  0.82492167  0.98597585  1
  Ca  Ca5  1  0.50000000  0.91092311  0.24842777  1
  Ca  Ca6  1  0.50000000  0.17507833  0.01402415  1
  Ca  Ca7  1  0.50000000  0.50000000  0.00000000  1
  Ca  Ca8  1  0.50000000  0.00000000  0.50000000  1
  Ca  Ca9  1  0.50000000  0.41092311  0.25157223  1
  Ga  Ga10  1  0.00000000  0.82787810  0.78748957  1
  Ga  Ga11  1  -0.00000000  0.17212190  0.21251043  1
  Ga  Ga12  1  0.00000000  0.67212190  0.28748957  1
  Ga  Ga13  1  -0.00000000  0.32787810  0.71251043  1
  As  As14  1  0.50000000  0.83941346  0.68035785  1
  As  As15  1  0.00000000  0.48054448  0.40642339  1
  As  As16  1  0.50000000  0.16058654  0.31964215  1
  As  As17  1  0.00000000  0.01945552  0.90642339  1
  As  As18  1  0.00000000  0.84474187  0.40284217  1
  As  As19  1  0.00000000  0.98054448  0.09357661  1
  As  As20  1  0.00000000  0.34474187  0.09715783  1
  As  As21  1  0.00000000  0.51945552  0.59357661  1
  As  As22  1  0.00000000  0.15525813  0.59715783  1
  As  As23  1  0.00000000  0.65525813  0.90284217  1
  As  As24  1  0.50000000  0.66058654  0.18035785  1
  As  As25  1  0.50000000  0.33941346  0.81964215  1
