# generated using pymatgen
data_K3Ce(PO4)2
_symmetry_space_group_name_H-M   'P 1'
_cell_length_a   5.70658611
_cell_length_b   7.55773050
_cell_length_c   9.68644802
_cell_angle_alpha   90.85932061
_cell_angle_beta   90.00000000
_cell_angle_gamma   90.00000000
_symmetry_Int_Tables_number   1
_chemical_formula_structural   K3Ce(PO4)2
_chemical_formula_sum   'K6 Ce2 P4 O16'
_cell_volume   417.71828090
_cell_formula_units_Z   2
loop_
 _symmetry_equiv_pos_site_id
 _symmetry_equiv_pos_as_xyz
  1  'x, y, z'
loop_
 _atom_site_type_symbol
 _atom_site_label
 _atom_site_symmetry_multiplicity
 _atom_site_fract_x
 _atom_site_fract_y
 _atom_site_fract_z
 _atom_site_occupancy
  K  K0  1  0.25000000  0.20380372  0.58342635  1
  K  K1  1  0.25000000  0.49199043  0.30856684  1
  K  K2  1  0.75000000  0.79619628  0.41657365  1
  K  K3  1  0.75000000  0.36060679  0.09433728  1
  K  K4  1  0.75000000  0.50800957  0.69143316  1
  K  K5  1  0.25000000  0.63939321  0.90566272  1
  Ce  Ce6  1  0.75000000  0.00857301  0.79115986  1
  Ce  Ce7  1  0.25000000  0.99142699  0.20884014  1
  P  P8  1  0.25000000  0.19983754  0.92611876  1
  P  P9  1  0.75000000  0.23596309  0.41433916  1
  P  P10  1  0.25000000  0.76403691  0.58566084  1
  P  P11  1  0.75000000  0.80016246  0.07388124  1
  O  O12  1  0.97344149  0.74202879  0.15433948  1
  O  O13  1  0.75000000  0.71545441  0.92581223  1
  O  O14  1  0.97328753  0.15658600  0.34221098  1
  O  O15  1  0.52655851  0.74202879  0.15433948  1
  O  O16  1  0.75000000  0.43826134  0.39995499  1
  O  O17  1  0.25000000  0.28454559  0.07418777  1
  O  O18  1  0.02655851  0.25797121  0.84566052  1
  O  O19  1  0.75000000  0.18077388  0.56925000  1
  O  O20  1  0.52671247  0.15658600  0.34221098  1
  O  O21  1  0.47328753  0.84341400  0.65778902  1
  O  O22  1  0.47344149  0.25797121  0.84566052  1
  O  O23  1  0.02671247  0.84341400  0.65778902  1
  O  O24  1  0.25000000  0.81922612  0.43075000  1
  O  O25  1  0.75000000  0.00441383  0.05664937  1
  O  O26  1  0.25000000  0.56173866  0.60004501  1
  O  O27  1  0.25000000  0.99558617  0.94335063  1
