# generated using pymatgen
data_Y3Ge4
_symmetry_space_group_name_H-M   'P 1'
_cell_length_a   4.08308933
_cell_length_b   5.73906802
_cell_length_c   14.34506422
_cell_angle_alpha   90.00000000
_cell_angle_beta   90.00000000
_cell_angle_gamma   110.83804139
_symmetry_Int_Tables_number   1
_chemical_formula_structural   Y3Ge4
_chemical_formula_sum   'Y6 Ge8'
_cell_volume   314.16206299
_cell_formula_units_Z   2
loop_
 _symmetry_equiv_pos_site_id
 _symmetry_equiv_pos_as_xyz
  1  'x, y, z'
loop_
 _atom_site_type_symbol
 _atom_site_label
 _atom_site_symmetry_multiplicity
 _atom_site_fract_x
 _atom_site_fract_y
 _atom_site_fract_z
 _atom_site_occupancy
  Ge  Ge0  1  0.22695121  0.45390242  0.25000000  1
  Ge  Ge1  1  0.77304879  0.54609758  0.75000000  1
  Ge  Ge2  1  0.00000000  0.00000000  0.50000000  1
  Ge  Ge3  1  0.00000000  0.00000000  0.00000000  1
  Ge  Ge4  1  0.38101779  0.76203558  0.39147804  1
  Ge  Ge5  1  0.61898221  0.23796442  0.60852196  1
  Ge  Ge6  1  0.38101779  0.76203558  0.10852196  1
  Ge  Ge7  1  0.61898221  0.23796442  0.89147804  1
  Y  Y8  1  0.95493379  0.90986758  0.25000000  1
  Y  Y9  1  0.04506621  0.09013242  0.75000000  1
  Y  Y10  1  0.32951763  0.65903527  0.59679799  1
  Y  Y11  1  0.67048237  0.34096473  0.40320201  1
  Y  Y12  1  0.67048237  0.34096473  0.09679799  1
  Y  Y13  1  0.32951763  0.65903527  0.90320201  1
