# generated using pymatgen
data_Mg(AgO2)2
_symmetry_space_group_name_H-M   'P 1'
_cell_length_a   6.15110027
_cell_length_b   6.15109964
_cell_length_c   6.72022651
_cell_angle_alpha   56.88903546
_cell_angle_beta   56.88904568
_cell_angle_gamma   63.95522442
_symmetry_Int_Tables_number   1
_chemical_formula_structural   Mg(AgO2)2
_chemical_formula_sum   'Mg2 Ag4 O8'
_cell_volume   174.77037339
_cell_formula_units_Z   2
loop_
 _symmetry_equiv_pos_site_id
 _symmetry_equiv_pos_as_xyz
  1  'x, y, z'
loop_
 _atom_site_type_symbol
 _atom_site_label
 _atom_site_symmetry_multiplicity
 _atom_site_fract_x
 _atom_site_fract_y
 _atom_site_fract_z
 _atom_site_occupancy
  Mg  Mg0  1  0.12500000  0.62500000  0.62500000  1
  Mg  Mg1  1  0.62500000  0.12500000  0.62500000  1
  Ag  Ag2  1  0.97379510  0.97379510  0.02620490  1
  Ag  Ag3  1  0.27620490  0.27620490  0.22379510  1
  Ag  Ag4  1  0.62500000  0.62500000  0.12500000  1
  Ag  Ag5  1  0.62500000  0.62500000  0.62500000  1
  O  O6  1  0.36891279  0.36891279  0.43271040  1
  O  O7  1  0.43312059  0.84496698  0.36095621  1
  O  O8  1  0.36891279  0.36891279  0.82946502  1
  O  O9  1  0.84496698  0.43312059  0.36095621  1
  O  O10  1  0.40503302  0.81687941  0.88904379  1
  O  O11  1  0.81687941  0.40503302  0.88904379  1
  O  O12  1  0.88108721  0.88108721  0.42053498  1
  O  O13  1  0.88108721  0.88108721  0.81728960  1
