# generated using pymatgen
data_Nd3OsO7
_symmetry_space_group_name_H-M   'P 1'
_cell_length_a   6.65662219
_cell_length_b   6.65662218
_cell_length_c   7.61667431
_cell_angle_alpha   90.00000000
_cell_angle_beta   90.00000000
_cell_angle_gamma   111.07497478
_symmetry_Int_Tables_number   1
_chemical_formula_structural   Nd3OsO7
_chemical_formula_sum   'Nd6 Os2 O14'
_cell_volume   314.92443801
_cell_formula_units_Z   2
loop_
 _symmetry_equiv_pos_site_id
 _symmetry_equiv_pos_as_xyz
  1  'x, y, z'
loop_
 _atom_site_type_symbol
 _atom_site_label
 _atom_site_symmetry_multiplicity
 _atom_site_fract_x
 _atom_site_fract_y
 _atom_site_fract_z
 _atom_site_occupancy
  O  O0  1  0.58341367  0.58341367  0.75000000  1
  O  O1  1  0.41658633  0.41658633  0.25000000  1
  O  O2  1  0.10668284  0.84281911  0.75000000  1
  O  O3  1  0.89331716  0.15718089  0.25000000  1
  O  O4  1  0.84281911  0.10668284  0.75000000  1
  O  O5  1  0.15718089  0.89331716  0.25000000  1
  O  O6  1  0.18853641  0.43949239  0.96166507  1
  O  O7  1  0.81146359  0.56050761  0.46166507  1
  O  O8  1  0.43949239  0.18853641  0.96166507  1
  O  O9  1  0.56050761  0.81146359  0.46166507  1
  O  O10  1  0.18853641  0.43949239  0.53833493  1
  O  O11  1  0.81146359  0.56050761  0.03833493  1
  O  O12  1  0.56050761  0.81146359  0.03833493  1
  O  O13  1  0.43949239  0.18853641  0.53833493  1
  Nd  Nd14  1  0.00000000  0.00000000  0.00000000  1
  Nd  Nd15  1  0.00000000  0.00000000  0.50000000  1
  Nd  Nd16  1  0.92090699  0.47456685  0.75000000  1
  Nd  Nd17  1  0.07909301  0.52543315  0.25000000  1
  Nd  Nd18  1  0.47456685  0.92090699  0.75000000  1
  Nd  Nd19  1  0.52543315  0.07909301  0.25000000  1
  Os  Os20  1  0.50000000  0.50000000  0.00000000  1
  Os  Os21  1  0.50000000  0.50000000  0.50000000  1
