# generated using pymatgen
data_Sr10P6SO24
_symmetry_space_group_name_H-M   'P 1'
_cell_length_a   9.93135799
_cell_length_b   9.93135799
_cell_length_c   7.28635200
_cell_angle_alpha   90.00000000
_cell_angle_beta   90.00000000
_cell_angle_gamma   120.00000002
_symmetry_Int_Tables_number   1
_chemical_formula_structural   Sr10P6SO24
_chemical_formula_sum   'Sr10 P6 S1 O24'
_cell_volume   622.38347535
_cell_formula_units_Z   1
loop_
 _symmetry_equiv_pos_site_id
 _symmetry_equiv_pos_as_xyz
  1  'x, y, z'
loop_
 _atom_site_type_symbol
 _atom_site_label
 _atom_site_symmetry_multiplicity
 _atom_site_fract_x
 _atom_site_fract_y
 _atom_site_fract_z
 _atom_site_occupancy
  O  O0  1  0.47921166  0.15027892  0.73918201  1
  O  O1  1  0.09919361  0.38110211  0.56946755  1
  O  O2  1  0.28190850  0.90080639  0.56946755  1
  O  O3  1  0.61889789  0.71809150  0.56946755  1
  O  O4  1  0.90080639  0.61889789  0.43053245  1
  O  O5  1  0.71809150  0.09919361  0.43053245  1
  O  O6  1  0.38110211  0.28190850  0.43053245  1
  O  O7  1  0.06487960  0.30987588  0.90469013  1
  O  O8  1  0.24499628  0.93512040  0.90469013  1
  O  O9  1  0.69012412  0.75500372  0.90469013  1
  O  O10  1  0.30987588  0.24499628  0.09530987  1
  O  O11  1  0.11244793  0.57613465  0.79491943  1
  O  O12  1  0.46368672  0.88755207  0.79491943  1
  O  O13  1  0.42386535  0.53631328  0.79491943  1
  O  O14  1  0.88755207  0.42386535  0.20508057  1
  O  O15  1  0.53631328  0.11244793  0.20508057  1
  O  O16  1  0.32893274  0.47921166  0.26081799  1
  O  O17  1  0.52078834  0.84972108  0.26081799  1
  O  O18  1  0.15027892  0.67106726  0.26081799  1
  O  O19  1  0.67106726  0.52078834  0.73918201  1
  O  O20  1  0.75500372  0.06487960  0.09530987  1
  O  O21  1  0.84972108  0.32893274  0.73918201  1
  O  O22  1  0.57613465  0.46368672  0.20508057  1
  O  O23  1  0.93512040  0.69012412  0.09530987  1
  P  P24  1  0.36903765  0.97108284  0.75301556  1
  P  P25  1  0.60204519  0.63096235  0.75301556  1
  P  P26  1  0.97108284  0.60204519  0.24698444  1
  P  P27  1  0.02891716  0.39795481  0.75301556  1
  P  P28  1  0.39795481  0.36903765  0.24698444  1
  P  P29  1  0.63096235  0.02891716  0.24698444  1
  S  S30  1  0.00000000  0.00000000  0.50000000  1
  Sr  Sr31  1  0.98861551  0.74278033  0.74076385  1
  Sr  Sr32  1  0.25721967  0.24583518  0.74076385  1
  Sr  Sr33  1  0.75416482  0.01138449  0.74076385  1
  Sr  Sr34  1  0.74278033  0.75416482  0.25923615  1
  Sr  Sr35  1  0.01138449  0.25721967  0.25923615  1
  Sr  Sr36  1  0.24583518  0.98861551  0.25923615  1
  Sr  Sr37  1  0.66666667  0.33333333  0.48117654  1
  Sr  Sr38  1  0.33333333  0.66666667  0.51882346  1
  Sr  Sr39  1  0.66666667  0.33333333  0.97906335  1
  Sr  Sr40  1  0.33333333  0.66666667  0.02093665  1
