# generated using pymatgen
data_KLi3GeO4
_symmetry_space_group_name_H-M   'P 1'
_cell_length_a   5.92982226
_cell_length_b   7.57792657
_cell_length_c   10.05124973
_cell_angle_alpha   83.60458781
_cell_angle_beta   76.53801007
_cell_angle_gamma   79.76267956
_symmetry_Int_Tables_number   1
_chemical_formula_structural   KLi3GeO4
_chemical_formula_sum   'K4 Li12 Ge4 O16'
_cell_volume   431.09982723
_cell_formula_units_Z   4
loop_
 _symmetry_equiv_pos_site_id
 _symmetry_equiv_pos_as_xyz
  1  'x, y, z'
loop_
 _atom_site_type_symbol
 _atom_site_label
 _atom_site_symmetry_multiplicity
 _atom_site_fract_x
 _atom_site_fract_y
 _atom_site_fract_z
 _atom_site_occupancy
  Li  Li0  1  0.97781496  0.82331691  0.11318315  1
  Li  Li1  1  0.02218504  0.17668309  0.88681685  1
  Li  Li2  1  0.30517296  0.32447414  0.35385709  1
  Li  Li3  1  0.69482704  0.67552586  0.64614291  1
  Li  Li4  1  0.92929817  0.54765150  0.87609316  1
  Li  Li5  1  0.07070183  0.45234850  0.12390684  1
  Li  Li6  1  0.03652054  0.92709923  0.62783721  1
  Li  Li7  1  0.31317663  0.05048344  0.10335186  1
  Li  Li8  1  0.69310841  0.44318199  0.39560706  1
  Li  Li9  1  0.30689159  0.55681801  0.60439294  1
  Li  Li10  1  0.96347946  0.07290077  0.37216279  1
  Li  Li11  1  0.68682337  0.94951656  0.89664814  1
  O  O12  1  0.67862184  0.21122984  0.32375482  1
  O  O13  1  0.32137816  0.78877016  0.67624518  1
  O  O14  1  0.86287654  0.33765919  0.03527787  1
  O  O15  1  0.13712346  0.66234081  0.96472213  1
  O  O16  1  0.63820190  0.70438058  0.84976714  1
  O  O17  1  0.36179810  0.29561942  0.15023286  1
  O  O18  1  0.68984318  0.43383550  0.59339333  1
  O  O19  1  0.31015682  0.56616450  0.40660667  1
  O  O20  1  0.15400678  0.89001925  0.24346630  1
  O  O21  1  0.84599322  0.10998075  0.75653370  1
  O  O22  1  0.88237873  0.82587585  0.50827215  1
  O  O23  1  0.11762127  0.17412415  0.49172785  1
  O  O24  1  0.89549295  0.60461382  0.27753093  1
  O  O25  1  0.10450705  0.39538618  0.72246907  1
  O  O26  1  0.69377316  0.98736105  0.09002054  1
  O  O27  1  0.30622684  0.01263895  0.90997946  1
  K  K28  1  0.49609358  0.11710267  0.61682674  1
  K  K29  1  0.50390642  0.88289733  0.38317326  1
  K  K30  1  0.45816952  0.35989495  0.87222883  1
  K  K31  1  0.54183048  0.64010505  0.12777117  1
  Ge  Ge32  1  0.94127025  0.29050702  0.63450770  1
  Ge  Ge33  1  0.05872975  0.70949298  0.36549230  1
  Ge  Ge34  1  0.33394802  0.79350147  0.85181895  1
  Ge  Ge35  1  0.66605198  0.20649853  0.14818105  1
