# generated using pymatgen
data_Er3Ge4
_symmetry_space_group_name_H-M   'P 1'
_cell_length_a   4.03572210
_cell_length_b   5.68019393
_cell_length_c   14.22629435
_cell_angle_alpha   90.00000000
_cell_angle_beta   90.00000000
_cell_angle_gamma   110.80846662
_symmetry_Int_Tables_number   1
_chemical_formula_structural   Er3Ge4
_chemical_formula_sum   'Er6 Ge8'
_cell_volume   304.84737207
_cell_formula_units_Z   2
loop_
 _symmetry_equiv_pos_site_id
 _symmetry_equiv_pos_as_xyz
  1  'x, y, z'
loop_
 _atom_site_type_symbol
 _atom_site_label
 _atom_site_symmetry_multiplicity
 _atom_site_fract_x
 _atom_site_fract_y
 _atom_site_fract_z
 _atom_site_occupancy
  Ge  Ge0  1  0.37952244  0.75904488  0.39162639  1
  Ge  Ge1  1  0.62047756  0.24095512  0.60837361  1
  Ge  Ge2  1  0.62047756  0.24095512  0.89162639  1
  Ge  Ge3  1  0.37952244  0.75904488  0.10837361  1
  Ge  Ge4  1  0.22307975  0.44615951  0.25000000  1
  Ge  Ge5  1  0.77692025  0.55384049  0.75000000  1
  Ge  Ge6  1  0.00000000  0.00000000  0.00000000  1
  Ge  Ge7  1  0.00000000  0.00000000  0.50000000  1
  Er  Er8  1  0.33084577  0.66169153  0.59685421  1
  Er  Er9  1  0.66915423  0.33830847  0.40314579  1
  Er  Er10  1  0.66915423  0.33830847  0.09685421  1
  Er  Er11  1  0.33084577  0.66169153  0.90314579  1
  Er  Er12  1  0.95243272  0.90486544  0.25000000  1
  Er  Er13  1  0.04756728  0.09513456  0.75000000  1
