# generated using pymatgen
data_Sr2SiO4
_symmetry_space_group_name_H-M   'P 1'
_cell_length_a   5.75418457
_cell_length_b   7.16138764
_cell_length_c   9.85357462
_cell_angle_alpha   90.00000000
_cell_angle_beta   93.37741692
_cell_angle_gamma   90.00000000
_symmetry_Int_Tables_number   1
_chemical_formula_structural   Sr2SiO4
_chemical_formula_sum   'Sr8 Si4 O16'
_cell_volume   405.34032357
_cell_formula_units_Z   4
loop_
 _symmetry_equiv_pos_site_id
 _symmetry_equiv_pos_as_xyz
  1  'x, y, z'
loop_
 _atom_site_type_symbol
 _atom_site_label
 _atom_site_symmetry_multiplicity
 _atom_site_fract_x
 _atom_site_fract_y
 _atom_site_fract_z
 _atom_site_occupancy
  O  O0  1  0.52597137  0.76421042  0.18091633  1
  O  O1  1  0.97402863  0.26421042  0.31908367  1
  O  O2  1  0.47402863  0.23578958  0.81908367  1
  O  O3  1  0.02597137  0.73578958  0.68091633  1
  O  O4  1  0.98531016  0.82408664  0.13953220  1
  O  O5  1  0.51468984  0.32408664  0.36046780  1
  O  O6  1  0.01468984  0.17591336  0.86046780  1
  O  O7  1  0.48531016  0.67591336  0.63953220  1
  O  O8  1  0.67867456  0.81899473  0.93010567  1
  O  O9  1  0.82132544  0.31899473  0.56989433  1
  O  O10  1  0.32132544  0.18100527  0.06989433  1
  O  O11  1  0.17867456  0.68100527  0.43010567  1
  O  O12  1  0.28131817  0.00360790  0.56768718  1
  O  O13  1  0.21868183  0.50360790  0.93231282  1
  O  O14  1  0.71868183  0.99639210  0.43231282  1
  O  O15  1  0.78131817  0.49639210  0.06768718  1
  Si  Si16  1  0.74078192  0.72101883  0.08150886  1
  Si  Si17  1  0.75921808  0.22101883  0.41849114  1
  Si  Si18  1  0.25921808  0.27898117  0.91849114  1
  Si  Si19  1  0.24078192  0.77898117  0.58150886  1
  Sr  Sr20  1  0.77415762  0.50145796  0.80197523  1
  Sr  Sr21  1  0.72584238  0.00145796  0.69802477  1
  Sr  Sr22  1  0.22584238  0.49854204  0.19802477  1
  Sr  Sr23  1  0.27415762  0.99854204  0.30197523  1
  Sr  Sr24  1  0.76415154  0.15995648  0.07545829  1
  Sr  Sr25  1  0.73584846  0.65995648  0.42454171  1
  Sr  Sr26  1  0.23584846  0.84004352  0.92454171  1
  Sr  Sr27  1  0.26415154  0.34004352  0.57545829  1
