# generated using pymatgen
data_NaV(OF)2
_symmetry_space_group_name_H-M   'P 1'
_cell_length_a   3.57645555
_cell_length_b   6.56215530
_cell_length_c   7.32517355
_cell_angle_alpha   110.04568890
_cell_angle_beta   90.00000000
_cell_angle_gamma   90.00000000
_symmetry_Int_Tables_number   1
_chemical_formula_structural   NaV(OF)2
_chemical_formula_sum   'Na2 V2 O4 F4'
_cell_volume   161.50161364
_cell_formula_units_Z   2
loop_
 _symmetry_equiv_pos_site_id
 _symmetry_equiv_pos_as_xyz
  1  'x, y, z'
loop_
 _atom_site_type_symbol
 _atom_site_label
 _atom_site_symmetry_multiplicity
 _atom_site_fract_x
 _atom_site_fract_y
 _atom_site_fract_z
 _atom_site_occupancy
  O  O0  1  0.73630393  0.71464294  0.55653202  1
  O  O1  1  0.23630310  0.28535667  0.44346730  1
  O  O2  1  0.26079407  0.90500762  0.85958402  1
  O  O3  1  0.76079491  0.09499360  0.14041578  1
  F  F4  1  0.27211685  0.37894032  0.11753878  1
  F  F5  1  0.77211769  0.62105927  0.88246190  1
  F  F6  1  0.77252509  0.13646616  0.75671863  1
  F  F7  1  0.27252425  0.86353345  0.24328069  1
  Na  Na8  1  0.27415219  0.36486703  0.78507536  1
  Na  Na9  1  0.77415303  0.63513420  0.21492444  1
  V  V10  1  0.74320835  0.86142458  0.78521310  1
  V  V11  1  0.24320752  0.13857664  0.21478670  1
