# generated using pymatgen
data_Ca3(GeAs2)2
_symmetry_space_group_name_H-M   'P 1'
_cell_length_a   7.32775488
_cell_length_b   7.35332357
_cell_length_c   18.10209695
_cell_angle_alpha   90.00000000
_cell_angle_beta   90.00000000
_cell_angle_gamma   111.72450473
_symmetry_Int_Tables_number   1
_chemical_formula_structural   Ca3(GeAs2)2
_chemical_formula_sum   'Ca12 Ge8 As16'
_cell_volume   906.12313617
_cell_formula_units_Z   4
loop_
 _symmetry_equiv_pos_site_id
 _symmetry_equiv_pos_as_xyz
  1  'x, y, z'
loop_
 _atom_site_type_symbol
 _atom_site_label
 _atom_site_symmetry_multiplicity
 _atom_site_fract_x
 _atom_site_fract_y
 _atom_site_fract_z
 _atom_site_occupancy
  Ca  Ca0  1  0.98800919  0.74436180  0.94270597  1
  Ca  Ca1  1  0.51199081  0.25563820  0.44270597  1
  Ca  Ca2  1  0.01199081  0.25563820  0.05729403  1
  Ca  Ca3  1  0.48800919  0.74436180  0.55729403  1
  Ca  Ca4  1  0.50171435  0.26368932  0.93698317  1
  Ca  Ca5  1  0.99828565  0.73631068  0.43698317  1
  Ca  Ca6  1  0.49828565  0.73631068  0.06301683  1
  Ca  Ca7  1  0.00171435  0.26368932  0.56301683  1
  Ca  Ca8  1  0.48662833  0.78341732  0.81674002  1
  Ca  Ca9  1  0.01337167  0.21658268  0.31674002  1
  Ca  Ca10  1  0.51337167  0.21658268  0.18325998  1
  Ca  Ca11  1  0.98662833  0.78341732  0.68325998  1
  Ge  Ge12  1  0.42043628  0.31968529  0.74125808  1
  Ge  Ge13  1  0.07956372  0.68031471  0.24125808  1
  Ge  Ge14  1  0.57956372  0.68031471  0.25874192  1
  Ge  Ge15  1  0.92043628  0.31968529  0.75874192  1
  Ge  Ge16  1  0.46936690  0.79070565  0.37322597  1
  Ge  Ge17  1  0.03063310  0.20929435  0.87322597  1
  Ge  Ge18  1  0.53063310  0.20929435  0.62677403  1
  Ge  Ge19  1  0.96936690  0.79070565  0.12677403  1
  As  As20  1  0.73293048  0.51866509  0.80518099  1
  As  As21  1  0.76706952  0.48133491  0.30518099  1
  As  As22  1  0.26706952  0.48133491  0.19481901  1
  As  As23  1  0.23293048  0.51866509  0.69481901  1
  As  As24  1  0.72215720  0.02712255  0.68629915  1
  As  As25  1  0.77784280  0.97287745  0.18629915  1
  As  As26  1  0.27784280  0.97287745  0.31370085  1
  As  As27  1  0.22215720  0.02712255  0.81370085  1
  As  As28  1  0.74227100  0.00107029  0.94122316  1
  As  As29  1  0.75772900  0.99892971  0.44122316  1
  As  As30  1  0.25772900  0.99892971  0.05877684  1
  As  As31  1  0.24227100  0.00107029  0.55877684  1
  As  As32  1  0.24897518  0.50825901  0.93429583  1
  As  As33  1  0.25102482  0.49174099  0.43429583  1
  As  As34  1  0.75102482  0.49174099  0.06570417  1
  As  As35  1  0.74897518  0.50825901  0.56570417  1
