# generated using pymatgen
data_Ca(YS2)2
_symmetry_space_group_name_H-M   'P 1'
_cell_length_a   3.90903391
_cell_length_b   13.03352526
_cell_length_c   13.17932975
_cell_angle_alpha   90.00000000
_cell_angle_beta   90.00000000
_cell_angle_gamma   90.00000000
_symmetry_Int_Tables_number   1
_chemical_formula_structural   Ca(YS2)2
_chemical_formula_sum   'Ca4 Y8 S16'
_cell_volume   671.46697908
_cell_formula_units_Z   4
loop_
 _symmetry_equiv_pos_site_id
 _symmetry_equiv_pos_as_xyz
  1  'x, y, z'
loop_
 _atom_site_type_symbol
 _atom_site_label
 _atom_site_symmetry_multiplicity
 _atom_site_fract_x
 _atom_site_fract_y
 _atom_site_fract_z
 _atom_site_occupancy
  S  S0  1  0.25000000  0.97118528  0.88244896  1
  S  S1  1  0.75000000  0.02881472  0.11755104  1
  S  S2  1  0.25000000  0.47118528  0.61755104  1
  S  S3  1  0.75000000  0.52881472  0.38244896  1
  S  S4  1  0.75000000  0.74394967  0.97465350  1
  S  S5  1  0.25000000  0.25605033  0.02534650  1
  S  S6  1  0.75000000  0.24394967  0.52534650  1
  S  S7  1  0.25000000  0.75605033  0.47465350  1
  S  S8  1  0.25000000  0.53322079  0.11721931  1
  S  S9  1  0.75000000  0.46677921  0.88278069  1
  S  S10  1  0.25000000  0.03322079  0.38278069  1
  S  S11  1  0.75000000  0.96677921  0.61721931  1
  S  S12  1  0.75000000  0.78228501  0.23679385  1
  S  S13  1  0.25000000  0.21771499  0.76320615  1
  S  S14  1  0.75000000  0.28228501  0.26320615  1
  S  S15  1  0.25000000  0.71771499  0.73679385  1
  Ca  Ca16  1  0.75000000  0.62971920  0.58127681  1
  Ca  Ca17  1  0.25000000  0.37028080  0.41872319  1
  Ca  Ca18  1  0.75000000  0.12971920  0.91872319  1
  Ca  Ca19  1  0.25000000  0.87028080  0.08127681  1
  Y  Y20  1  0.75000000  0.89206692  0.41658610  1
  Y  Y21  1  0.25000000  0.10793308  0.58341390  1
  Y  Y22  1  0.75000000  0.39206692  0.08341390  1
  Y  Y23  1  0.25000000  0.60793308  0.91658610  1
  Y  Y24  1  0.25000000  0.64634979  0.29694280  1
  Y  Y25  1  0.75000000  0.35365021  0.70305720  1
  Y  Y26  1  0.25000000  0.14634979  0.20305720  1
  Y  Y27  1  0.75000000  0.85365021  0.79694280  1
