# generated using pymatgen
data_Ag8GeSe6
_symmetry_space_group_name_H-M   'P 1'
_cell_length_a   7.84894306
_cell_length_b   8.04497607
_cell_length_c   11.02933648
_cell_angle_alpha   90.00000000
_cell_angle_beta   90.00000000
_cell_angle_gamma   90.00000000
_symmetry_Int_Tables_number   1
_chemical_formula_structural   Ag8GeSe6
_chemical_formula_sum   'Ag16 Ge2 Se12'
_cell_volume   696.44258911
_cell_formula_units_Z   2
loop_
 _symmetry_equiv_pos_site_id
 _symmetry_equiv_pos_as_xyz
  1  'x, y, z'
loop_
 _atom_site_type_symbol
 _atom_site_label
 _atom_site_symmetry_multiplicity
 _atom_site_fract_x
 _atom_site_fract_y
 _atom_site_fract_z
 _atom_site_occupancy
  Ge  Ge0  1  0.75044600  0.00000000  0.48100671  1
  Ge  Ge1  1  0.24955400  0.50000000  0.98100671  1
  Se  Se2  1  0.75001157  0.75136281  0.60095818  1
  Se  Se3  1  0.24998843  0.74863719  0.10095818  1
  Se  Se4  1  0.49062837  0.50000000  0.84966753  1
  Se  Se5  1  0.50937163  0.00000000  0.34966753  1
  Se  Se6  1  0.00452792  0.50000000  0.84940374  1
  Se  Se7  1  0.99547208  0.00000000  0.34940374  1
  Se  Se8  1  0.81044969  0.50000000  0.25334868  1
  Se  Se9  1  0.18955031  0.00000000  0.75334868  1
  Se  Se10  1  0.28387331  0.50000000  0.50263730  1
  Se  Se11  1  0.71612669  0.00000000  0.00263730  1
  Se  Se12  1  0.75001157  0.24863719  0.60095818  1
  Se  Se13  1  0.24998843  0.25136281  0.10095818  1
  Ag  Ag14  1  0.27539015  0.00000000  0.51891078  1
  Ag  Ag15  1  0.72460985  0.50000000  0.01891078  1
  Ag  Ag16  1  0.84489540  0.20012098  0.84289557  1
  Ag  Ag17  1  0.15510460  0.29987902  0.34289557  1
  Ag  Ag18  1  0.15510460  0.70012098  0.34289557  1
  Ag  Ag19  1  0.84489540  0.79987902  0.84289557  1
  Ag  Ag20  1  0.46415148  0.19809136  0.73167339  1
  Ag  Ag21  1  0.53584852  0.30190864  0.23167339  1
  Ag  Ag22  1  0.53584852  0.69809136  0.23167339  1
  Ag  Ag23  1  0.46415148  0.80190864  0.73167339  1
  Ag  Ag24  1  0.89790733  0.20839890  0.13641707  1
  Ag  Ag25  1  0.10209267  0.29160110  0.63641707  1
  Ag  Ag26  1  0.10209267  0.70839890  0.63641707  1
  Ag  Ag27  1  0.89790733  0.79160110  0.13641707  1
  Ag  Ag28  1  0.61777884  0.50000000  0.45733681  1
  Ag  Ag29  1  0.38222116  0.00000000  0.95733681  1
