# generated using pymatgen
data_ZnCu(SiO3)2
_symmetry_space_group_name_H-M   'P 1'
_cell_length_a   5.27559421
_cell_length_b   9.14321075
_cell_length_c   18.48020865
_cell_angle_alpha   90.00000000
_cell_angle_beta   90.00000000
_cell_angle_gamma   90.00000000
_symmetry_Int_Tables_number   1
_chemical_formula_structural   ZnCu(SiO3)2
_chemical_formula_sum   'Zn8 Cu8 Si16 O48'
_cell_volume   891.40893635
_cell_formula_units_Z   8
loop_
 _symmetry_equiv_pos_site_id
 _symmetry_equiv_pos_as_xyz
  1  'x, y, z'
loop_
 _atom_site_type_symbol
 _atom_site_label
 _atom_site_symmetry_multiplicity
 _atom_site_fract_x
 _atom_site_fract_y
 _atom_site_fract_z
 _atom_site_occupancy
  Zn  Zn0  1  0.61648508  0.15058167  0.62365566  1
  Zn  Zn1  1  0.38351492  0.84941833  0.37634434  1
  Zn  Zn2  1  0.61648508  0.65058167  0.87634434  1
  Zn  Zn3  1  0.11648508  0.84941833  0.87634434  1
  Zn  Zn4  1  0.88351492  0.15058167  0.12365566  1
  Zn  Zn5  1  0.38351492  0.34941833  0.12365566  1
  Zn  Zn6  1  0.11648508  0.34941833  0.62365566  1
  Zn  Zn7  1  0.88351492  0.65058167  0.37634434  1
  Cu  Cu8  1  0.38000600  0.99108746  0.12414484  1
  Cu  Cu9  1  0.61999400  0.00891254  0.87585516  1
  Cu  Cu10  1  0.88000600  0.00891254  0.37585516  1
  Cu  Cu11  1  0.11999400  0.99108746  0.62414484  1
  Cu  Cu12  1  0.38000600  0.49108746  0.37585516  1
  Cu  Cu13  1  0.61999400  0.50891254  0.62414484  1
  Cu  Cu14  1  0.88000600  0.50891254  0.12414484  1
  Cu  Cu15  1  0.11999400  0.49108746  0.87585516  1
  Si  Si16  1  0.57316657  0.66158511  0.22648197  1
  Si  Si17  1  0.72192201  0.83560344  0.52624232  1
  Si  Si18  1  0.77807799  0.83560344  0.02624232  1
  Si  Si19  1  0.92683343  0.16158511  0.77351803  1
  Si  Si20  1  0.07316657  0.33841489  0.27351803  1
  Si  Si21  1  0.42683343  0.83841489  0.72648197  1
  Si  Si22  1  0.22192201  0.66439656  0.52624232  1
  Si  Si23  1  0.72192201  0.33560344  0.97375768  1
  Si  Si24  1  0.77807799  0.33560344  0.47375768  1
  Si  Si25  1  0.92683343  0.66158511  0.72648197  1
  Si  Si26  1  0.42683343  0.33841489  0.77351803  1
  Si  Si27  1  0.57316657  0.16158511  0.27351803  1
  Si  Si28  1  0.27807799  0.16439656  0.47375768  1
  Si  Si29  1  0.07316657  0.83841489  0.22648197  1
  Si  Si30  1  0.27807799  0.66439656  0.02624232  1
  Si  Si31  1  0.22192201  0.16439656  0.97375768  1
  O  O32  1  0.91448476  0.50223863  0.68665061  1
  O  O33  1  0.31212844  0.01648969  0.93177203  1
  O  O34  1  0.08551524  0.49776137  0.31334939  1
  O  O35  1  0.71388267  0.34241160  0.06279531  1
  O  O36  1  0.21388267  0.15758840  0.06279531  1
  O  O37  1  0.92799787  0.20694198  0.94931908  1
  O  O38  1  0.93655107  0.66170269  0.81453278  1
  O  O39  1  0.06344893  0.83829731  0.31453278  1
  O  O40  1  0.71388267  0.84241160  0.43720469  1
  O  O41  1  0.93655107  0.16170269  0.68546722  1
  O  O42  1  0.41448476  0.49776137  0.81334939  1
  O  O43  1  0.78611733  0.34241160  0.56279531  1
  O  O44  1  0.68787156  0.98351031  0.06822797  1
  O  O45  1  0.43655107  0.83829731  0.81453278  1
  O  O46  1  0.58551524  0.00223863  0.31334939  1
  O  O47  1  0.31212844  0.51648969  0.56822797  1
  O  O48  1  0.41448476  0.99776137  0.68665061  1
  O  O49  1  0.16190056  0.76270530  0.69616621  1
  O  O50  1  0.33809944  0.76270530  0.19616621  1
  O  O51  1  0.57200213  0.70694198  0.05068092  1
  O  O52  1  0.78611733  0.84241160  0.93720469  1
  O  O53  1  0.56344893  0.66170269  0.31453278  1
  O  O54  1  0.81212844  0.48351031  0.93177203  1
  O  O55  1  0.16190056  0.26270530  0.80383379  1
  O  O56  1  0.28611733  0.15758840  0.56279531  1
  O  O57  1  0.56344893  0.16170269  0.18546722  1
  O  O58  1  0.68787156  0.48351031  0.43177203  1
  O  O59  1  0.21388267  0.65758840  0.43720469  1
  O  O60  1  0.18787156  0.51648969  0.06822797  1
  O  O61  1  0.66190056  0.73729470  0.69616621  1
  O  O62  1  0.08551524  0.99776137  0.18665061  1
  O  O63  1  0.83809944  0.73729470  0.19616621  1
  O  O64  1  0.83809944  0.23729470  0.30383379  1
  O  O65  1  0.81212844  0.98351031  0.56822797  1
  O  O66  1  0.28611733  0.65758840  0.93720469  1
  O  O67  1  0.18787156  0.01648969  0.43177203  1
  O  O68  1  0.33809944  0.26270530  0.30383379  1
  O  O69  1  0.07200213  0.79305802  0.05068092  1
  O  O70  1  0.42799787  0.79305802  0.55068092  1
  O  O71  1  0.66190056  0.23729470  0.80383379  1
  O  O72  1  0.42799787  0.29305802  0.94931908  1
  O  O73  1  0.57200213  0.20694198  0.44931908  1
  O  O74  1  0.07200213  0.29305802  0.44931908  1
  O  O75  1  0.43655107  0.33829731  0.68546722  1
  O  O76  1  0.58551524  0.50223863  0.18665061  1
  O  O77  1  0.92799787  0.70694198  0.55068092  1
  O  O78  1  0.06344893  0.33829731  0.18546722  1
  O  O79  1  0.91448476  0.00223863  0.81334939  1
