# generated using pymatgen
data_CaBe13
_symmetry_space_group_name_H-M   'P 1'
_cell_length_a   7.23826100
_cell_length_b   7.23826100
_cell_length_c   7.23826101
_cell_angle_alpha   60.00000001
_cell_angle_beta   60.00000002
_cell_angle_gamma   60.00000000
_symmetry_Int_Tables_number   1
_chemical_formula_structural   CaBe13
_chemical_formula_sum   'Ca2 Be26'
_cell_volume   268.15612441
_cell_formula_units_Z   2
loop_
 _symmetry_equiv_pos_site_id
 _symmetry_equiv_pos_as_xyz
  1  'x, y, z'
loop_
 _atom_site_type_symbol
 _atom_site_label
 _atom_site_symmetry_multiplicity
 _atom_site_fract_x
 _atom_site_fract_y
 _atom_site_fract_z
 _atom_site_occupancy
  Be  Be0  1  0.00000000  0.00000000  0.00000000  1
  Be  Be1  1  0.50000000  0.50000000  0.50000000  1
  Be  Be2  1  0.28869864  0.93532089  0.06467911  1
  Be  Be3  1  0.56467911  0.43532089  0.78869864  1
  Be  Be4  1  0.78869864  0.21130136  0.56467911  1
  Be  Be5  1  0.56467911  0.78869864  0.21130136  1
  Be  Be6  1  0.43532089  0.21130136  0.78869864  1
  Be  Be7  1  0.43532089  0.78869864  0.56467911  1
  Be  Be8  1  0.78869864  0.43532089  0.21130136  1
  Be  Be9  1  0.06467911  0.28869864  0.93532089  1
  Be  Be10  1  0.93532089  0.06467911  0.28869864  1
  Be  Be11  1  0.71130136  0.28869864  0.06467911  1
  Be  Be12  1  0.93532089  0.71130136  0.06467911  1
  Be  Be13  1  0.71130136  0.93532089  0.28869864  1
  Be  Be14  1  0.06467911  0.93532089  0.71130136  1
  Be  Be15  1  0.28869864  0.06467911  0.71130136  1
  Be  Be16  1  0.28869864  0.71130136  0.93532089  1
  Be  Be17  1  0.78869864  0.56467911  0.43532089  1
  Be  Be18  1  0.21130136  0.78869864  0.43532089  1
  Be  Be19  1  0.21130136  0.56467911  0.78869864  1
  Be  Be20  1  0.56467911  0.21130136  0.43532089  1
  Be  Be21  1  0.43532089  0.56467911  0.21130136  1
  Be  Be22  1  0.21130136  0.43532089  0.56467911  1
  Be  Be23  1  0.06467911  0.71130136  0.28869864  1
  Be  Be24  1  0.71130136  0.06467911  0.93532089  1
  Be  Be25  1  0.93532089  0.28869864  0.71130136  1
  Ca  Ca26  1  0.25000000  0.25000000  0.25000000  1
  Ca  Ca27  1  0.75000000  0.75000000  0.75000000  1
