# generated using pymatgen
data_LaP5
_symmetry_space_group_name_H-M   'P 1'
_cell_length_a   5.61140667
_cell_length_b   9.73887212
_cell_length_c   9.83017654
_cell_angle_alpha   90.00000000
_cell_angle_beta   105.38446616
_cell_angle_gamma   90.00000000
_symmetry_Int_Tables_number   1
_chemical_formula_structural   LaP5
_chemical_formula_sum   'La4 P20'
_cell_volume   517.95753121
_cell_formula_units_Z   4
loop_
 _symmetry_equiv_pos_site_id
 _symmetry_equiv_pos_as_xyz
  1  'x, y, z'
loop_
 _atom_site_type_symbol
 _atom_site_label
 _atom_site_symmetry_multiplicity
 _atom_site_fract_x
 _atom_site_fract_y
 _atom_site_fract_z
 _atom_site_occupancy
  La  La0  1  0.36165029  0.25000000  0.51298451  1
  La  La1  1  0.38986856  0.25000000  0.03491135  1
  La  La2  1  0.61013144  0.75000000  0.96508865  1
  La  La3  1  0.63834971  0.75000000  0.48701549  1
  P  P4  1  0.97438917  0.40557333  0.81106403  1
  P  P5  1  0.02561083  0.90557333  0.18893597  1
  P  P6  1  0.97438917  0.09442667  0.81106403  1
  P  P7  1  0.41126762  0.96122431  0.65649746  1
  P  P8  1  0.41126762  0.53877569  0.65649746  1
  P  P9  1  0.58873238  0.46122431  0.34350254  1
  P  P10  1  0.04958071  0.58567291  0.68953056  1
  P  P11  1  0.37016039  0.54451520  0.13730532  1
  P  P12  1  0.62983961  0.04451520  0.86269468  1
  P  P13  1  0.02561083  0.59442667  0.18893597  1
  P  P14  1  0.95041929  0.08567291  0.31046944  1
  P  P15  1  0.62983961  0.45548480  0.86269468  1
  P  P16  1  0.94268084  0.25000000  0.15177007  1
  P  P17  1  0.91669192  0.25000000  0.63931951  1
  P  P18  1  0.58873238  0.03877569  0.34350254  1
  P  P19  1  0.05731916  0.75000000  0.84822993  1
  P  P20  1  0.37016039  0.95548480  0.13730532  1
  P  P21  1  0.04958071  0.91432709  0.68953056  1
  P  P22  1  0.95041929  0.41432709  0.31046944  1
  P  P23  1  0.08330808  0.75000000  0.36068049  1
