# generated using pymatgen
data_Hf2Co4P3
_symmetry_space_group_name_H-M   'P 1'
_cell_length_a   12.05125704
_cell_length_b   12.05125675
_cell_length_c   3.64053544
_cell_angle_alpha   90.00000000
_cell_angle_beta   90.00000000
_cell_angle_gamma   120.00000079
_symmetry_Int_Tables_number   1
_chemical_formula_structural   Hf2Co4P3
_chemical_formula_sum   'Hf8 Co16 P12'
_cell_volume   457.88938974
_cell_formula_units_Z   4
loop_
 _symmetry_equiv_pos_site_id
 _symmetry_equiv_pos_as_xyz
  1  'x, y, z'
loop_
 _atom_site_type_symbol
 _atom_site_label
 _atom_site_symmetry_multiplicity
 _atom_site_fract_x
 _atom_site_fract_y
 _atom_site_fract_z
 _atom_site_occupancy
  Hf  Hf0  1  0.82444462  0.82444462  0.50000000  1
  Hf  Hf1  1  0.44422360  0.44422360  0.00000000  1
  Hf  Hf2  1  1.00000000  0.17555538  0.50000000  1
  Hf  Hf3  1  0.55577640  -0.00000000  -0.00000000  1
  Hf  Hf4  1  0.33333300  0.66666700  0.00000000  1
  Hf  Hf5  1  0.66666700  0.33333300  0.00000000  1
  Hf  Hf6  1  0.00000000  0.55577640  0.00000000  1
  Hf  Hf7  1  0.17555538  -0.00000000  0.50000000  1
  Co  Co8  1  0.62704267  0.82072178  -0.00000000  1
  Co  Co9  1  0.37295733  0.19367911  0.00000000  1
  Co  Co10  1  1.00000000  0.72118855  0.50000000  1
  Co  Co11  1  0.27881145  0.27881145  0.50000000  1
  Co  Co12  1  0.87324540  0.35537334  0.50000000  1
  Co  Co13  1  0.72118855  -0.00000000  0.50000000  1
  Co  Co14  1  0.82072178  0.62704267  -0.00000000  1
  Co  Co15  1  0.17927822  0.80632089  0.00000000  1
  Co  Co16  1  0.35537334  0.87324540  0.50000000  1
  Co  Co17  1  0.12675460  0.48212795  0.50000000  1
  Co  Co18  1  0.64462666  0.51787205  0.50000000  1
  Co  Co19  1  -0.00000000  -0.00000000  0.00000000  1
  Co  Co20  1  0.51787205  0.64462666  0.50000000  1
  Co  Co21  1  0.48212795  0.12675460  0.50000000  1
  Co  Co22  1  0.19367911  0.37295733  -0.00000000  1
  Co  Co23  1  0.80632089  0.17927822  -0.00000000  1
  P  P24  1  1.00000000  0.34484349  -0.00000000  1
  P  P25  1  0.82641644  0.51673691  0.50000000  1
  P  P26  1  0.69032047  0.17358356  0.50000000  1
  P  P27  1  0.17561261  0.17561261  -0.00000000  1
  P  P28  1  0.65515651  0.65515651  -0.00000000  1
  P  P29  1  0.82438739  -0.00000000  -0.00000000  1
  P  P30  1  0.51673691  0.82641644  0.50000000  1
  P  P31  1  0.17358356  0.69032047  0.50000000  1
  P  P32  1  0.34484349  0.00000000  0.00000000  1
  P  P33  1  0.48326309  0.30967953  0.50000000  1
  P  P34  1  0.00000000  0.82438739  -0.00000000  1
  P  P35  1  0.30967953  0.48326309  0.50000000  1
