# generated using pymatgen
data_V2ZnO4
_symmetry_space_group_name_H-M   'P 1'
_cell_length_a   6.06792514
_cell_length_b   6.06571882
_cell_length_c   6.06985851
_cell_angle_alpha   89.68473235
_cell_angle_beta   120.10206296
_cell_angle_gamma   120.32373885
_symmetry_Int_Tables_number   1
_chemical_formula_structural   V2ZnO4
_chemical_formula_sum   'V4 Zn2 O8'
_cell_volume   157.38903982
_cell_formula_units_Z   2
loop_
 _symmetry_equiv_pos_site_id
 _symmetry_equiv_pos_as_xyz
  1  'x, y, z'
loop_
 _atom_site_type_symbol
 _atom_site_label
 _atom_site_symmetry_multiplicity
 _atom_site_fract_x
 _atom_site_fract_y
 _atom_site_fract_z
 _atom_site_occupancy
  O  O0  1  0.02382761  0.74239286  0.25889238  1
  O  O1  1  0.48360539  0.74372694  0.71866078  1
  O  O2  1  0.47496745  0.73070197  0.25625590  1
  O  O3  1  0.98327828  0.71934624  0.73507859  1
  O  O4  1  0.52503474  0.26930005  0.74374458  1
  O  O5  1  0.51639361  0.25627315  0.28133703  1
  O  O6  1  0.01672369  0.28065541  0.26492213  1
  O  O7  1  0.97617412  0.25760786  0.74110889  1
  V  V8  1  0.49999477  -0.00000743  0.49999853  1
  V  V9  1  0.49999944  0.50000240  0.50000012  1
  V  V10  1  0.00000186  0.50000195  0.00000247  1
  V  V11  1  -0.00000207  0.49999776  0.49999885  1
  Zn  Zn12  1  0.24990983  0.12493457  0.87506506  1
  Zn  Zn13  1  0.75009209  0.87506716  0.12493372  1
