# generated using pymatgen
data_CaNi3(P2O7)2
_symmetry_space_group_name_H-M   'P 1'
_cell_length_a   7.40846084
_cell_length_b   7.67364465
_cell_length_c   9.48003573
_cell_angle_alpha   90.00000000
_cell_angle_beta   111.99212579
_cell_angle_gamma   90.00000000
_symmetry_Int_Tables_number   1
_chemical_formula_structural   CaNi3(P2O7)2
_chemical_formula_sum   'Ca2 Ni6 P8 O28'
_cell_volume   499.72332175
_cell_formula_units_Z   2
loop_
 _symmetry_equiv_pos_site_id
 _symmetry_equiv_pos_as_xyz
  1  'x, y, z'
loop_
 _atom_site_type_symbol
 _atom_site_label
 _atom_site_symmetry_multiplicity
 _atom_site_fract_x
 _atom_site_fract_y
 _atom_site_fract_z
 _atom_site_occupancy
  O  O0  1  0.83065797  0.62250333  0.60651618  1
  O  O1  1  0.16934203  0.12250333  0.89348382  1
  O  O2  1  0.16934203  0.37749667  0.39348382  1
  O  O3  1  0.83065797  0.87749667  0.10651618  1
  O  O4  1  0.27300686  0.61884726  0.63009729  1
  O  O5  1  0.72699314  0.11884726  0.86990271  1
  O  O6  1  0.72699314  0.38115274  0.36990271  1
  O  O7  1  0.27300686  0.88115274  0.13009729  1
  O  O8  1  0.62120298  0.19230996  0.58758441  1
  O  O9  1  0.37879702  0.69230996  0.91241559  1
  O  O10  1  0.37879702  0.80769004  0.41241559  1
  O  O11  1  0.62120298  0.30769004  0.08758441  1
  O  O12  1  0.67477259  0.87724030  0.67523660  1
  O  O13  1  0.32522741  0.37724030  0.82476340  1
  O  O14  1  0.32522741  0.12275970  0.32476340  1
  O  O15  1  0.67477259  0.62275970  0.17523660  1
  O  O16  1  0.39304422  0.47606440  0.19538596  1
  O  O17  1  0.60695578  0.97606440  0.30461404  1
  O  O18  1  0.60695578  0.52393560  0.80461404  1
  O  O19  1  0.39304422  0.02393560  0.69538596  1
  O  O20  1  0.00801676  0.21210756  0.13622476  1
  O  O21  1  0.99198324  0.71210756  0.36377524  1
  O  O22  1  0.99198324  0.78789244  0.86377524  1
  O  O23  1  0.00801676  0.28789244  0.63622476  1
  O  O24  1  0.97128115  0.57654607  0.11146480  1
  O  O25  1  0.02871885  0.07654607  0.38853520  1
  O  O26  1  0.02871885  0.42345393  0.88853520  1
  O  O27  1  0.97128115  0.92345393  0.61146480  1
  P  P28  1  0.59799073  0.06534222  0.70329728  1
  P  P29  1  0.40200927  0.56534222  0.79670272  1
  P  P30  1  0.40200927  0.93465778  0.29670272  1
  P  P31  1  0.59799073  0.43465778  0.20329728  1
  P  P32  1  0.88107501  0.79586098  0.69114467  1
  P  P33  1  0.11892499  0.29586098  0.80885533  1
  P  P34  1  0.11892499  0.20413902  0.30885533  1
  P  P35  1  0.88107501  0.70413902  0.19114467  1
  Ca  Ca36  1  0.50000000  0.00000000  0.00000000  1
  Ca  Ca37  1  0.50000000  0.50000000  0.50000000  1
  Ni  Ni38  1  0.18497562  0.87281377  0.52469771  1
  Ni  Ni39  1  0.81502438  0.37281377  0.97530229  1
  Ni  Ni40  1  0.81502438  0.12718623  0.47530229  1
  Ni  Ni41  1  0.18497562  0.62718623  0.02469771  1
  Ni  Ni42  1  0.00000000  0.00000000  0.00000000  1
  Ni  Ni43  1  0.00000000  0.50000000  0.50000000  1
