# generated using pymatgen
data_Na4FeO4
_symmetry_space_group_name_H-M   'P 1'
_cell_length_a   5.82906255
_cell_length_b   5.82861782
_cell_length_c   8.37229889
_cell_angle_alpha   71.82090474
_cell_angle_beta   87.83341309
_cell_angle_gamma   69.21931002
_symmetry_Int_Tables_number   1
_chemical_formula_structural   Na4FeO4
_chemical_formula_sum   'Na8 Fe2 O8'
_cell_volume   251.82056265
_cell_formula_units_Z   2
loop_
 _symmetry_equiv_pos_site_id
 _symmetry_equiv_pos_as_xyz
  1  'x, y, z'
loop_
 _atom_site_type_symbol
 _atom_site_label
 _atom_site_symmetry_multiplicity
 _atom_site_fract_x
 _atom_site_fract_y
 _atom_site_fract_z
 _atom_site_occupancy
  O  O0  1  0.89247024  0.76199156  0.10160839  1
  O  O1  1  0.10752976  0.23800844  0.89839161  1
  O  O2  1  0.97178579  0.31280878  0.38327883  1
  O  O3  1  0.02821421  0.68719122  0.61672117  1
  O  O4  1  0.47458493  0.56341653  0.80145267  1
  O  O5  1  0.52541507  0.43658347  0.19854733  1
  O  O6  1  0.50150713  0.82861688  0.33769491  1
  O  O7  1  0.49849287  0.17138312  0.66230509  1
  Na  Na8  1  0.21617178  0.58601454  0.37147313  1
  Na  Na9  1  0.78382822  0.41398546  0.62852687  1
  Na  Na10  1  0.74373801  0.20816783  0.01897223  1
  Na  Na11  1  0.25626199  0.79183217  0.98102777  1
  Na  Na12  1  0.72444869  0.04944639  0.43232359  1
  Na  Na13  1  0.27555131  0.95055361  0.56767641  1
  Na  Na14  1  0.23697216  0.24043280  0.16932158  1
  Na  Na15  1  0.76302784  0.75956720  0.83067842  1
  Fe  Fe16  1  0.27974200  0.40599594  0.74990962  1
  Fe  Fe17  1  0.72025800  0.59400406  0.25009038  1
