# generated using pymatgen
data_Mg3V2O8
_symmetry_space_group_name_H-M   'P 1'
_cell_length_a   6.12633417
_cell_length_b   6.56680510
_cell_length_c   8.42351352
_cell_angle_alpha   90.00003095
_cell_angle_beta   90.00000000
_cell_angle_gamma   117.80490140
_symmetry_Int_Tables_number   1
_chemical_formula_structural   Mg3V2O8
_chemical_formula_sum   'Mg6 V4 O16'
_cell_volume   299.75476193
_cell_formula_units_Z   2
loop_
 _symmetry_equiv_pos_site_id
 _symmetry_equiv_pos_as_xyz
  1  'x, y, z'
loop_
 _atom_site_type_symbol
 _atom_site_label
 _atom_site_symmetry_multiplicity
 _atom_site_fract_x
 _atom_site_fract_y
 _atom_site_fract_z
 _atom_site_occupancy
  O  O0  1  0.11214597  0.76592812  0.49997671  1
  O  O1  1  0.34621786  0.23407188  0.50002329  1
  O  O2  1  0.38785379  0.23407176  0.99997664  1
  O  O3  1  0.15378203  0.76592824  0.00002336  1
  O  O4  1  0.88785403  0.23407188  0.50002329  1
  O  O5  1  0.65378214  0.76592812  0.49997671  1
  O  O6  1  0.61214621  0.76592824  0.00002336  1
  O  O7  1  0.84621797  0.23407176  0.99997664  1
  O  O8  1  0.50268880  0.00537761  0.74492574  1
  O  O9  1  0.49731120  0.99462239  0.25507426  1
  O  O10  1  0.25090242  0.50180484  0.77467925  1
  O  O11  1  0.74909758  0.49819516  0.22532075  1
  O  O12  1  0.24909742  0.49819485  0.27467937  1
  O  O13  1  0.75090258  0.50180515  0.72532063  1
  O  O14  1  0.00268878  0.00537755  0.75507423  1
  O  O15  1  0.99731122  0.99462245  0.24492577  1
  Mg  Mg16  1  0.00000000  0.00000000  0.00000000  1
  Mg  Mg17  1  0.50000000  0.00000000  0.50000000  1
  Mg  Mg18  1  0.88576916  0.27153856  0.75000014  1
  Mg  Mg19  1  0.61423060  0.72846144  0.24999986  1
  Mg  Mg20  1  0.38576940  0.27153856  0.75000014  1
  Mg  Mg21  1  0.11423084  0.72846144  0.24999986  1
  V  V22  1  0.38000871  0.76001742  0.88035267  1
  V  V23  1  0.61999129  0.23998258  0.11964733  1
  V  V24  1  0.11999148  0.23998296  0.38035293  1
  V  V25  1  0.88000852  0.76001704  0.61964707  1
