# generated using pymatgen
data_Na2SrV4O12
_symmetry_space_group_name_H-M   'P 1'
_cell_length_a   5.09283942
_cell_length_b   10.76081104
_cell_length_c   10.76081104
_cell_angle_alpha   90.00000000
_cell_angle_beta   90.00000000
_cell_angle_gamma   90.00000000
_symmetry_Int_Tables_number   1
_chemical_formula_structural   Na2SrV4O12
_chemical_formula_sum   'Na4 Sr2 V8 O24'
_cell_volume   589.72561687
_cell_formula_units_Z   2
loop_
 _symmetry_equiv_pos_site_id
 _symmetry_equiv_pos_as_xyz
  1  'x, y, z'
loop_
 _atom_site_type_symbol
 _atom_site_label
 _atom_site_symmetry_multiplicity
 _atom_site_fract_x
 _atom_site_fract_y
 _atom_site_fract_z
 _atom_site_occupancy
  O  O0  1  0.23698703  0.55341314  0.68335166  1
  O  O1  1  0.23698703  0.94658686  0.81664834  1
  O  O2  1  0.23698703  0.68335166  0.94658686  1
  O  O3  1  0.23698703  0.81664834  0.55341314  1
  O  O4  1  0.76301297  0.68335166  0.55341314  1
  O  O5  1  0.76301297  0.94658686  0.68335166  1
  O  O6  1  0.76301297  0.55341314  0.81664834  1
  O  O7  1  0.76301297  0.81664834  0.94658686  1
  O  O8  1  0.76301297  0.44658686  0.31664834  1
  O  O9  1  0.76301297  0.05341314  0.18335166  1
  O  O10  1  0.76301297  0.31664834  0.05341314  1
  O  O11  1  0.76301297  0.18335166  0.44658686  1
  O  O12  1  0.23698703  0.31664834  0.44658686  1
  O  O13  1  0.23698703  0.05341314  0.31664834  1
  O  O14  1  0.15046175  0.63161418  0.36838582  1
  O  O15  1  0.15046175  0.13161418  0.63161418  1
  O  O16  1  0.15046175  0.36838582  0.86838582  1
  O  O17  1  0.15046175  0.86838582  0.13161418  1
  O  O18  1  0.84953825  0.63161418  0.13161418  1
  O  O19  1  0.84953825  0.86838582  0.36838582  1
  O  O20  1  0.84953825  0.36838582  0.63161418  1
  O  O21  1  0.84953825  0.13161418  0.86838582  1
  O  O22  1  0.23698703  0.18335166  0.05341314  1
  O  O23  1  0.23698703  0.44658686  0.18335166  1
  Na  Na24  1  0.50000000  0.00000000  0.00000000  1
  Na  Na25  1  0.50000000  0.50000000  0.00000000  1
  Na  Na26  1  0.50000000  0.00000000  0.50000000  1
  Na  Na27  1  0.50000000  0.50000000  0.50000000  1
  V  V28  1  0.00000000  0.25000000  0.96738867  1
  V  V29  1  0.00000000  0.53261133  0.25000000  1
  V  V30  1  0.00000000  0.25000000  0.53261133  1
  V  V31  1  0.00000000  0.03261133  0.75000000  1
  V  V32  1  0.00000000  0.75000000  0.03261133  1
  V  V33  1  0.00000000  0.75000000  0.46738867  1
  V  V34  1  0.00000000  0.46738867  0.75000000  1
  V  V35  1  0.00000000  0.96738867  0.25000000  1
  Sr  Sr36  1  0.50000000  0.75000000  0.75000000  1
  Sr  Sr37  1  0.50000000  0.25000000  0.25000000  1
