# generated using pymatgen
data_K2Mn(SeO3)2
_symmetry_space_group_name_H-M   'P 1'
_cell_length_a   7.16206870
_cell_length_b   7.16206890
_cell_length_c   7.16206924
_cell_angle_alpha   47.02226209
_cell_angle_beta   47.02225838
_cell_angle_gamma   47.02225977
_symmetry_Int_Tables_number   1
_chemical_formula_structural   K2Mn(SeO3)2
_chemical_formula_sum   'K2 Mn1 Se2 O6'
_cell_volume   179.76453578
_cell_formula_units_Z   1
loop_
 _symmetry_equiv_pos_site_id
 _symmetry_equiv_pos_as_xyz
  1  'x, y, z'
loop_
 _atom_site_type_symbol
 _atom_site_label
 _atom_site_symmetry_multiplicity
 _atom_site_fract_x
 _atom_site_fract_y
 _atom_site_fract_z
 _atom_site_occupancy
  K  K0  1  0.19557830  0.19557830  0.19557830  1
  K  K1  1  0.80442170  0.80442170  0.80442170  1
  Mn  Mn2  1  0.00000000  0.00000000  -0.00000000  1
  Se  Se3  1  0.62835565  0.62835565  0.62835565  1
  Se  Se4  1  0.37164435  0.37164435  0.37164435  1
  O  O5  1  0.25026662  0.25026662  0.72732037  1
  O  O6  1  0.25026662  0.72732037  0.25026662  1
  O  O7  1  0.72732037  0.25026662  0.25026662  1
  O  O8  1  0.27267963  0.74973338  0.74973338  1
  O  O9  1  0.74973338  0.74973338  0.27267963  1
  O  O10  1  0.74973338  0.27267963  0.74973338  1
