# generated using pymatgen
data_FeTe2
_symmetry_space_group_name_H-M   'P 1'
_cell_length_a   3.89602825
_cell_length_b   5.26000932
_cell_length_c   6.25867776
_cell_angle_alpha   90.00000000
_cell_angle_beta   90.00000000
_cell_angle_gamma   90.00000000
_symmetry_Int_Tables_number   1
_chemical_formula_structural   FeTe2
_chemical_formula_sum   'Fe2 Te4'
_cell_volume   128.25999026
_cell_formula_units_Z   2
loop_
 _symmetry_equiv_pos_site_id
 _symmetry_equiv_pos_as_xyz
  1  'x, y, z'
loop_
 _atom_site_type_symbol
 _atom_site_label
 _atom_site_symmetry_multiplicity
 _atom_site_fract_x
 _atom_site_fract_y
 _atom_site_fract_z
 _atom_site_occupancy
  Fe  Fe0  1  0.01446422  0.00000000  0.00000000  1
  Fe  Fe1  1  0.51446422  0.50000000  0.50000000  1
  Te  Te2  1  0.01456789  0.22763612  0.36137411  1
  Te  Te3  1  0.01456789  0.77236388  0.63862589  1
  Te  Te4  1  0.51456789  0.27236388  0.86137411  1
  Te  Te5  1  0.51456789  0.72763612  0.13862589  1
