# generated using pymatgen
data_SrV3P4O17
_symmetry_space_group_name_H-M   'P 1'
_cell_length_a   7.55661332
_cell_length_b   10.25788929
_cell_length_c   16.65760114
_cell_angle_alpha   90.00000000
_cell_angle_beta   90.00000000
_cell_angle_gamma   90.00000000
_symmetry_Int_Tables_number   1
_chemical_formula_structural   SrV3P4O17
_chemical_formula_sum   'Sr4 V12 P16 O68'
_cell_volume   1291.21233398
_cell_formula_units_Z   4
loop_
 _symmetry_equiv_pos_site_id
 _symmetry_equiv_pos_as_xyz
  1  'x, y, z'
loop_
 _atom_site_type_symbol
 _atom_site_label
 _atom_site_symmetry_multiplicity
 _atom_site_fract_x
 _atom_site_fract_y
 _atom_site_fract_z
 _atom_site_occupancy
  O  O0  1  0.49820199  0.43684704  0.96680024  1
  O  O1  1  0.99820209  0.06315357  0.03320004  1
  O  O2  1  0.50179823  0.93684666  0.53320018  1
  O  O3  1  0.00179812  0.56315319  0.46680010  1
  O  O4  1  0.50009621  0.37254226  0.72295275  1
  O  O5  1  0.00009610  0.12745835  0.27704693  1
  O  O6  1  0.49990401  0.87254188  0.77704707  1
  O  O7  1  0.99990412  0.62745797  0.22295261  1
  O  O8  1  0.23661126  0.86231852  0.61395395  1
  O  O9  1  0.73661136  0.63768134  0.38604572  1
  O  O10  1  0.76338896  0.36231889  0.88604586  1
  O  O11  1  0.26338885  0.13768073  0.11395442  1
  O  O12  1  0.21161541  0.75072742  0.76576891  1
  O  O13  1  0.71161552  0.74927243  0.23423137  1
  O  O14  1  0.78838480  0.25072779  0.73423151  1
  O  O15  1  0.28838469  0.24927281  0.26576877  1
  O  O16  1  0.27998565  0.61292145  0.54045654  1
  O  O17  1  0.77998576  0.88707841  0.45954313  1
  O  O18  1  0.72001326  0.11292182  0.95954327  1
  O  O19  1  0.22001446  0.38707878  0.04045701  1
  O  O20  1  0.21827309  0.49572032  0.71159516  1
  O  O21  1  0.71827320  0.00427930  0.28840511  1
  O  O22  1  0.78172713  0.99572093  0.78840465  1
  O  O23  1  0.28172702  0.50427892  0.21159503  1
  O  O24  1  0.00111295  0.77442241  0.97889435  1
  O  O25  1  0.81352566  0.66452733  0.09949561  1
  O  O26  1  0.68647466  0.33547290  0.59949574  1
  O  O27  1  0.18647455  0.16452771  0.40050453  1
  O  O28  1  0.22800613  0.57674248  0.93997816  1
  O  O29  1  0.72800624  0.92325737  0.06002211  1
  O  O30  1  0.77199278  0.07674286  0.56002225  1
  O  O31  1  0.27199398  0.42325774  0.43997802  1
  O  O32  1  0.99897158  0.32968061  0.16359759  1
  O  O33  1  0.49897147  0.17031901  0.83640208  1
  O  O34  1  0.00102864  0.82968122  0.33640194  1
  O  O35  1  0.50102875  0.67031864  0.66359773  1
  O  O36  1  0.71594186  0.25099447  0.26431585  1
  O  O37  1  0.21594175  0.24900516  0.73568382  1
  O  O38  1  0.28405836  0.75099507  0.23568428  1
  O  O39  1  0.78405847  0.74900478  0.76431599  1
  O  O40  1  0.49894123  0.33255427  0.14463530  1
  O  O41  1  0.99894134  0.16744633  0.85536497  1
  O  O42  1  0.50105898  0.83255390  0.35536484  1
  O  O43  1  0.00105887  0.66744595  0.64463544  1
  O  O44  1  0.73564605  0.14344176  0.11269899  1
  O  O45  1  0.23564725  0.35655787  0.88730128  1
  O  O46  1  0.26435286  0.64344236  0.38730114  1
  O  O47  1  0.76435297  0.85655749  0.61269913  1
  O  O48  1  0.71986962  0.50396635  0.20738801  1
  O  O49  1  0.21986951  0.99603449  0.79261226  1
  O  O50  1  0.28013060  0.00396574  0.29261213  1
  O  O51  1  0.78013070  0.49603388  0.70738755  1
  O  O52  1  0.77773326  0.38868197  0.03933788  1
  O  O53  1  0.27773315  0.11131765  0.96066240  1
  O  O54  1  0.22226696  0.88868160  0.46066226  1
  O  O55  1  0.72226707  0.61131825  0.53933802  1
  O  O56  1  0.30270795  0.34119980  0.60042203  1
  O  O57  1  0.80270806  0.15879982  0.39957765  1
  O  O58  1  0.69729227  0.84119942  0.89957778  1
  O  O59  1  0.19729216  0.65880043  0.10042189  1
  O  O60  1  0.23647943  0.08090840  0.55903458  1
  O  O61  1  0.73647954  0.41909220  0.44096509  1
  O  O62  1  0.76352078  0.58090803  0.94096523  1
  O  O63  1  0.26352068  0.91909183  0.05903505  1
  O  O64  1  0.49888715  0.22557782  0.47889421  1
  O  O65  1  0.99888595  0.27442279  0.52110546  1
  O  O66  1  0.50111306  0.72557744  0.02110532  1
  O  O67  1  0.31352556  0.83547252  0.90050467  1
  P  P68  1  0.29295875  0.93994481  0.53911010  1
  P  P69  1  0.79295886  0.56005504  0.46089018  1
  P  P70  1  0.70704146  0.43994421  0.96089032  1
  P  P71  1  0.20704135  0.06005542  0.03910996  1
  P  P72  1  0.30296853  0.86214203  0.81177452  1
  P  P73  1  0.80296864  0.63785782  0.18822515  1
  P  P74  1  0.69703169  0.36214240  0.68822529  1
  P  P75  1  0.19703158  0.13785820  0.31177438  1
  P  P76  1  0.28909927  0.43765930  0.96108923  1
  P  P77  1  0.78909938  0.06234130  0.03891105  1
  P  P78  1  0.71090095  0.93765893  0.53891118  1
  P  P79  1  0.21090084  0.56234092  0.46108909  1
  P  P80  1  0.30144319  0.36369062  0.68964723  1
  P  P81  1  0.80144330  0.13630901  0.31035244  1
  P  P82  1  0.69855703  0.86369122  0.81035258  1
  P  P83  1  0.19855692  0.63630863  0.18964770  1
  V  V84  1  0.22293649  0.67624986  0.65025597  1
  V  V85  1  0.72293660  0.82374999  0.34974371  1
  V  V86  1  0.77706372  0.17625024  0.84974384  1
  V  V87  1  0.27706362  0.32374939  0.15025643  1
  V  V88  1  0.21722415  0.75158579  0.99763239  1
  V  V89  1  0.71722426  0.74841406  0.00236728  1
  V  V90  1  0.78277607  0.25158617  0.50236742  1
  V  V91  1  0.28277596  0.24841345  0.49763286  1
  V  V92  1  0.72334080  0.67454874  0.65212293  1
  V  V93  1  0.22334070  0.82545112  0.34787674  1
  V  V94  1  0.27665941  0.17454911  0.84787688  1
  V  V95  1  0.77665952  0.32545149  0.15212339  1
  Sr  Sr96  1  0.99487647  0.56319166  0.82159646  1
  Sr  Sr97  1  0.49487637  0.93680917  0.17840382  1
  Sr  Sr98  1  0.00512374  0.06319106  0.67840396  1
  Sr  Sr99  1  0.50512385  0.43680857  0.32159632  1
