# generated using pymatgen
data_BaV2(PO5)2
_symmetry_space_group_name_H-M   'P 1'
_cell_length_a   5.29680187
_cell_length_b   9.35086864
_cell_length_c   16.58598558
_cell_angle_alpha   90.00000000
_cell_angle_beta   92.73075013
_cell_angle_gamma   90.00000000
_symmetry_Int_Tables_number   1
_chemical_formula_structural   BaV2(PO5)2
_chemical_formula_sum   'Ba4 V8 P8 O40'
_cell_volume   820.56601182
_cell_formula_units_Z   4
loop_
 _symmetry_equiv_pos_site_id
 _symmetry_equiv_pos_as_xyz
  1  'x, y, z'
loop_
 _atom_site_type_symbol
 _atom_site_label
 _atom_site_symmetry_multiplicity
 _atom_site_fract_x
 _atom_site_fract_y
 _atom_site_fract_z
 _atom_site_occupancy
  O  O0  1  0.35744745  0.39664120  0.95099966  1
  O  O1  1  0.64255255  0.89664120  0.54900034  1
  O  O2  1  0.64255255  0.60335880  0.04900034  1
  O  O3  1  0.35744745  0.10335880  0.45099966  1
  O  O4  1  0.62921199  0.62534503  0.89282352  1
  O  O5  1  0.37078801  0.12534503  0.60717648  1
  O  O6  1  0.37078801  0.37465497  0.10717648  1
  O  O7  1  0.62921199  0.87465497  0.39282352  1
  O  O8  1  0.65537735  0.48785488  0.74155280  1
  O  O9  1  0.34462265  0.98785488  0.75844720  1
  O  O10  1  0.34462265  0.51214512  0.25844720  1
  O  O11  1  0.65537735  0.01214512  0.24155280  1
  O  O12  1  0.38526476  0.25184996  0.79493222  1
  O  O13  1  0.61473524  0.75184996  0.70506778  1
  O  O14  1  0.37699165  0.56067521  0.62134981  1
  O  O15  1  0.61473524  0.74815004  0.20506778  1
  O  O16  1  0.19784348  0.52820698  0.80401175  1
  O  O17  1  0.80215652  0.02820698  0.69598825  1
  O  O18  1  0.80215652  0.47179302  0.19598825  1
  O  O19  1  0.19784348  0.97179302  0.30401175  1
  O  O20  1  0.17752111  0.66651075  0.11824860  1
  O  O21  1  0.82247889  0.16651075  0.38175140  1
  O  O22  1  0.82247889  0.33348925  0.88175140  1
  O  O23  1  0.17752111  0.83348925  0.61824860  1
  O  O24  1  0.85103175  0.80359827  0.97666124  1
  O  O25  1  0.14896825  0.30359827  0.52333876  1
  O  O26  1  0.14896825  0.19640173  0.02333876  1
  O  O27  1  0.85103175  0.69640173  0.47666124  1
  O  O28  1  0.86471009  0.92603723  0.12335525  1
  O  O29  1  0.13528991  0.42603723  0.37664475  1
  O  O30  1  0.13528991  0.07396277  0.87664475  1
  O  O31  1  0.86471009  0.57396277  0.62335525  1
  O  O32  1  0.35852509  0.78453894  0.97466741  1
  O  O33  1  0.64147491  0.28453894  0.52533259  1
  O  O34  1  0.64147491  0.21546106  0.02533259  1
  O  O35  1  0.35852509  0.71546106  0.47466741  1
  O  O36  1  0.37699165  0.93932479  0.12134981  1
  O  O37  1  0.62300835  0.43932479  0.37865019  1
  O  O38  1  0.62300835  0.06067521  0.87865019  1
  O  O39  1  0.38526476  0.24815004  0.29493222  1
  P  P40  1  0.37759099  0.09725200  0.82863418  1
  P  P41  1  0.62240901  0.59725200  0.67136582  1
  P  P42  1  0.62240901  0.90274800  0.17136582  1
  P  P43  1  0.37759099  0.40274800  0.32863418  1
  P  P44  1  0.38552218  0.20229165  0.52405328  1
  P  P45  1  0.61447782  0.70229165  0.97594672  1
  P  P46  1  0.61447782  0.79770835  0.47594672  1
  P  P47  1  0.38552218  0.29770835  0.02405328  1
  V  V48  1  0.46168084  0.45340802  0.84287774  1
  V  V49  1  0.53831916  0.95340802  0.65712226  1
  V  V50  1  0.53831916  0.54659198  0.15712226  1
  V  V51  1  0.46168084  0.04659198  0.34287774  1
  V  V52  1  0.12513921  0.68601232  0.56498087  1
  V  V53  1  0.87486079  0.18601232  0.93501913  1
  V  V54  1  0.87486079  0.31398768  0.43501913  1
  V  V55  1  0.12513921  0.81398768  0.06498087  1
  Ba  Ba56  1  0.99889536  0.29867846  0.68088985  1
  Ba  Ba57  1  0.00110464  0.79867846  0.81911015  1
  Ba  Ba58  1  0.00110464  0.70132154  0.31911015  1
  Ba  Ba59  1  0.99889536  0.20132154  0.18088985  1
