# generated using pymatgen
data_Ca3Cr2(SiO4)3
_symmetry_space_group_name_H-M   'P 1'
_cell_length_a   10.53328447
_cell_length_b   10.53328447
_cell_length_c   10.53328447
_cell_angle_alpha   109.47122061
_cell_angle_beta   109.47122061
_cell_angle_gamma   109.47122066
_symmetry_Int_Tables_number   1
_chemical_formula_structural   Ca3Cr2(SiO4)3
_chemical_formula_sum   'Ca12 Cr8 Si12 O48'
_cell_volume   899.64164158
_cell_formula_units_Z   4
loop_
 _symmetry_equiv_pos_site_id
 _symmetry_equiv_pos_as_xyz
  1  'x, y, z'
loop_
 _atom_site_type_symbol
 _atom_site_label
 _atom_site_symmetry_multiplicity
 _atom_site_fract_x
 _atom_site_fract_y
 _atom_site_fract_z
 _atom_site_occupancy
  O  O0  1  0.29700924  0.49119160  0.38382925  1
  O  O1  1  0.00880840  0.30581764  0.89263765  1
  O  O2  1  0.11617075  0.60736235  0.91317999  1
  O  O3  1  0.20299076  0.58682001  0.19418236  1
  O  O4  1  0.20299076  0.11617075  0.00880840  1
  O  O5  1  0.58682001  0.19418236  0.20299076  1
  O  O6  1  0.60736235  0.19418236  0.49119160  1
  O  O7  1  0.19418236  0.20299076  0.58682001  1
  O  O8  1  0.89263765  0.38382925  0.58682001  1
  O  O9  1  0.30581764  0.91317999  0.29700924  1
  O  O10  1  0.91317999  0.29700924  0.30581764  1
  O  O11  1  0.00880840  0.20299076  0.11617075  1
  O  O12  1  0.19418236  0.49119160  0.60736235  1
  O  O13  1  0.58682001  0.89263765  0.38382925  1
  O  O14  1  0.11617075  0.00880840  0.20299076  1
  O  O15  1  0.49119160  0.60736235  0.19418236  1
  O  O16  1  0.38382925  0.58682001  0.89263765  1
  O  O17  1  0.89263765  0.00880840  0.30581764  1
  O  O18  1  0.60736235  0.91317999  0.11617075  1
  O  O19  1  0.10736235  0.61617075  0.41317999  1
  O  O20  1  0.91317999  0.11617075  0.60736235  1
  O  O21  1  0.38382925  0.29700924  0.49119160  1
  O  O22  1  0.30581764  0.89263765  0.00880840  1
  O  O23  1  0.29700924  0.30581764  0.91317999  1
  O  O24  1  0.70299076  0.50880840  0.61617075  1
  O  O25  1  0.99119160  0.69418236  0.10736235  1
  O  O26  1  0.88382925  0.39263765  0.08682001  1
  O  O27  1  0.79700924  0.41317999  0.80581764  1
  O  O28  1  0.79700924  0.88382925  0.99119160  1
  O  O29  1  0.41317999  0.80581764  0.79700924  1
  O  O30  1  0.39263765  0.80581764  0.50880840  1
  O  O31  1  0.80581764  0.79700924  0.41317999  1
  O  O32  1  0.70299076  0.69418236  0.08682001  1
  O  O33  1  0.69418236  0.10736235  0.99119160  1
  O  O34  1  0.61617075  0.70299076  0.50880840  1
  O  O35  1  0.50880840  0.61617075  0.70299076  1
  O  O36  1  0.08682001  0.88382925  0.39263765  1
  O  O37  1  0.39263765  0.08682001  0.88382925  1
  O  O38  1  0.10736235  0.99119160  0.69418236  1
  O  O39  1  0.61617075  0.41317999  0.10736235  1
  O  O40  1  0.50880840  0.39263765  0.80581764  1
  O  O41  1  0.88382925  0.99119160  0.79700924  1
  O  O42  1  0.41317999  0.10736235  0.61617075  1
  O  O43  1  0.80581764  0.50880840  0.39263765  1
  O  O44  1  0.99119160  0.79700924  0.88382925  1
  O  O45  1  0.08682001  0.70299076  0.69418236  1
  O  O46  1  0.69418236  0.08682001  0.70299076  1
  O  O47  1  0.49119160  0.38382925  0.29700924  1
  Si  Si48  1  0.25000000  0.12500000  0.87500000  1
  Si  Si49  1  0.75000000  0.87500000  0.12500000  1
  Si  Si50  1  0.37500000  0.25000000  0.62500000  1
  Si  Si51  1  0.62500000  0.37500000  0.25000000  1
  Si  Si52  1  0.12500000  0.75000000  0.87500000  1
  Si  Si53  1  0.87500000  0.12500000  0.75000000  1
  Si  Si54  1  0.75000000  0.37500000  0.62500000  1
  Si  Si55  1  0.37500000  0.62500000  0.75000000  1
  Si  Si56  1  0.12500000  0.87500000  0.25000000  1
  Si  Si57  1  0.87500000  0.25000000  0.12500000  1
  Si  Si58  1  0.62500000  0.75000000  0.37500000  1
  Si  Si59  1  0.25000000  0.62500000  0.37500000  1
  Ca  Ca60  1  0.37500000  0.75000000  0.12500000  1
  Ca  Ca61  1  0.12500000  0.25000000  0.37500000  1
  Ca  Ca62  1  0.37500000  0.12500000  0.25000000  1
  Ca  Ca63  1  0.12500000  0.37500000  0.75000000  1
  Ca  Ca64  1  0.87500000  0.75000000  0.62500000  1
  Ca  Ca65  1  0.75000000  0.12500000  0.37500000  1
  Ca  Ca66  1  0.75000000  0.62500000  0.87500000  1
  Ca  Ca67  1  0.62500000  0.25000000  0.87500000  1
  Ca  Ca68  1  0.25000000  0.87500000  0.62500000  1
  Ca  Ca69  1  0.87500000  0.62500000  0.25000000  1
  Ca  Ca70  1  0.62500000  0.87500000  0.75000000  1
  Ca  Ca71  1  0.25000000  0.37500000  0.12500000  1
  Cr  Cr72  1  0.00000000  0.00000000  0.00000000  1
  Cr  Cr73  1  0.00000000  0.50000000  0.00000000  1
  Cr  Cr74  1  0.00000000  0.00000000  0.50000000  1
  Cr  Cr75  1  0.00000000  0.50000000  0.50000000  1
  Cr  Cr76  1  0.50000000  0.00000000  0.50000000  1
  Cr  Cr77  1  0.50000000  0.50000000  0.00000000  1
  Cr  Cr78  1  0.50000000  0.50000000  0.50000000  1
  Cr  Cr79  1  0.50000000  0.00000000  0.00000000  1
