# generated using pymatgen
data_MgV2O4
_symmetry_space_group_name_H-M   'P 1'
_cell_length_a   2.96602970
_cell_length_b   9.91403660
_cell_length_c   9.79379161
_cell_angle_alpha   89.98735467
_cell_angle_beta   90.00504662
_cell_angle_gamma   89.98923613
_symmetry_Int_Tables_number   1
_chemical_formula_structural   MgV2O4
_chemical_formula_sum   'Mg4 V8 O16'
_cell_volume   287.98963151
_cell_formula_units_Z   4
loop_
 _symmetry_equiv_pos_site_id
 _symmetry_equiv_pos_as_xyz
  1  'x, y, z'
loop_
 _atom_site_type_symbol
 _atom_site_label
 _atom_site_symmetry_multiplicity
 _atom_site_fract_x
 _atom_site_fract_y
 _atom_site_fract_z
 _atom_site_occupancy
  Mg  Mg0  1  0.27006089  0.74988282  0.13690631  1
  Mg  Mg1  1  0.26982058  0.25000744  0.36310972  1
  Mg  Mg2  1  0.73010637  0.75000497  0.63688450  1
  Mg  Mg3  1  0.72980385  0.25013568  0.86305697  1
  V  V4  1  0.75961276  0.57318652  0.38216137  1
  V  V5  1  0.75982145  0.07312002  0.11786492  1
  V  V6  1  0.24012859  0.07312305  0.61785937  1
  V  V7  1  0.75945597  0.42685709  0.11787937  1
  V  V8  1  0.24054605  0.42685824  0.61781299  1
  V  V9  1  0.75969176  0.92686570  0.38215246  1
  V  V10  1  0.24029639  0.92687991  0.88215119  1
  V  V11  1  0.24010984  0.57309673  0.88202253  1
  O  O12  1  0.24060545  0.88581999  0.52198871  1
  O  O13  1  0.75947332  0.11417328  0.47786637  1
  O  O14  1  0.28696155  0.00001421  0.25004446  1
  O  O15  1  0.75949117  0.88583314  0.02201836  1
  O  O16  1  0.75947493  0.61417201  0.02216457  1
  O  O17  1  0.77491706  0.25002925  0.21415581  1
  O  O18  1  0.24076279  0.11415148  0.97800773  1
  O  O19  1  0.22462710  0.24998260  0.71407773  1
  O  O20  1  0.28677809  0.50006445  0.25004960  1
  O  O21  1  0.71319176  0.99997203  0.74988967  1
  O  O22  1  0.24083474  0.61414498  0.52200109  1
  O  O23  1  0.22498453  0.74998864  0.78582012  1
  O  O24  1  0.77524982  0.75004427  0.28595567  1
  O  O25  1  0.71332884  0.49997317  0.75009010  1
  O  O26  1  0.24030447  0.38579308  0.97795260  1
  O  O27  1  0.75955988  0.38582725  0.47805467  1
