# generated using pymatgen
data_CsFe2P5O16
_symmetry_space_group_name_H-M   'P 1'
_cell_length_a   7.64499269
_cell_length_b   9.54632736
_cell_length_c   10.44326994
_cell_angle_alpha   90.00000000
_cell_angle_beta   111.28268280
_cell_angle_gamma   90.00000000
_symmetry_Int_Tables_number   1
_chemical_formula_structural   CsFe2P5O16
_chemical_formula_sum   'Cs2 Fe4 P10 O32'
_cell_volume   710.18756206
_cell_formula_units_Z   2
loop_
 _symmetry_equiv_pos_site_id
 _symmetry_equiv_pos_as_xyz
  1  'x, y, z'
loop_
 _atom_site_type_symbol
 _atom_site_label
 _atom_site_symmetry_multiplicity
 _atom_site_fract_x
 _atom_site_fract_y
 _atom_site_fract_z
 _atom_site_occupancy
  Cs  Cs0  1  0.74947094  0.19845295  0.74111645  1
  Cs  Cs1  1  0.24947094  0.80154705  0.24111645  1
  Fe  Fe2  1  0.65581274  0.85763190  0.03530289  1
  Fe  Fe3  1  0.15581274  0.14236810  0.53530289  1
  Fe  Fe4  1  0.70697992  0.63245148  0.64052699  1
  Fe  Fe5  1  0.20697992  0.36754852  0.14052699  1
  P  P6  1  0.84810335  0.58223857  0.97502135  1
  P  P7  1  0.34810335  0.41776143  0.47502135  1
  P  P8  1  0.49285859  0.54134179  0.01269515  1
  P  P9  1  0.99285859  0.45865821  0.51269515  1
  P  P10  1  0.30115923  0.29616232  0.87611149  1
  P  P11  1  0.80115923  0.70383768  0.37611149  1
  P  P12  1  0.51303421  0.14021942  0.12704061  1
  P  P13  1  0.01303421  0.85978058  0.62704061  1
  P  P14  1  0.91829430  0.12488837  0.20071961  1
  P  P15  1  0.41829430  0.87511163  0.70071961  1
  O  O16  1  0.04131224  0.52732112  0.05979667  1
  O  O17  1  0.54131224  0.47267888  0.55979667  1
  O  O18  1  0.77797308  0.54239636  0.82362895  1
  O  O19  1  0.27797308  0.45760364  0.32362895  1
  O  O20  1  0.83931118  0.73952696  0.99780939  1
  O  O21  1  0.33931118  0.26047304  0.49780939  1
  O  O22  1  0.70755390  0.50390421  0.04023537  1
  O  O23  1  0.20755390  0.49609579  0.54023537  1
  O  O24  1  0.43662580  0.48170975  0.12534384  1
  O  O25  1  0.93662580  0.51829025  0.62534384  1
  O  O26  1  0.46289251  0.69611079  0.98273723  1
  O  O27  1  0.96289251  0.30388921  0.48273723  1
  O  O28  1  0.38353011  0.45194852  0.87364228  1
  O  O29  1  0.88353011  0.54805148  0.37364228  1
  O  O30  1  0.15183673  0.29951849  0.93895619  1
  O  O31  1  0.65183673  0.70048151  0.43895619  1
  O  O32  1  0.35805423  0.99320431  0.59419700  1
  O  O33  1  0.85805423  0.00679569  0.09419700  1
  O  O34  1  0.49935129  0.74975804  0.65210809  1
  O  O35  1  0.99935129  0.25024196  0.15210809  1
  O  O36  1  0.53985696  0.92859631  0.84308419  1
  O  O37  1  0.03985696  0.07140369  0.34308419  1
  O  O38  1  0.22276587  0.81819746  0.71522135  1
  O  O39  1  0.72276587  0.18180254  0.21522135  1
  O  O40  1  0.88613101  0.79838439  0.69359033  1
  O  O41  1  0.38613101  0.20161561  0.19359033  1
  O  O42  1  0.99412948  0.01674271  0.60286176  1
  O  O43  1  0.49412948  0.98325729  0.10286176  1
  O  O44  1  0.98289392  0.78505205  0.48119284  1
  O  O45  1  0.48289392  0.21494795  0.98119284  1
  O  O46  1  0.75516740  0.76547943  0.23675998  1
  O  O47  1  0.25516740  0.23452057  0.73675998  1
