# generated using pymatgen
data_LaInPt
_symmetry_space_group_name_H-M   'P 1'
_cell_length_a   7.77745646
_cell_length_b   7.77745646
_cell_length_c   4.18905902
_cell_angle_alpha   90.00000000
_cell_angle_beta   90.00000000
_cell_angle_gamma   120.00000000
_symmetry_Int_Tables_number   1
_chemical_formula_structural   LaInPt
_chemical_formula_sum   'La3 In3 Pt3'
_cell_volume   219.44328093
_cell_formula_units_Z   3
loop_
 _symmetry_equiv_pos_site_id
 _symmetry_equiv_pos_as_xyz
  1  'x, y, z'
loop_
 _atom_site_type_symbol
 _atom_site_label
 _atom_site_symmetry_multiplicity
 _atom_site_fract_x
 _atom_site_fract_y
 _atom_site_fract_z
 _atom_site_occupancy
  In  In0  1  0.75382844  0.75382844  0.00000000  1
  In  In1  1  0.24617156  0.00000000  0.00000000  1
  In  In2  1  0.00000000  0.24617156  0.00000000  1
  La  La3  1  0.41443788  0.41443788  0.50000000  1
  La  La4  1  0.00000000  0.58556212  0.50000000  1
  La  La5  1  0.58556212  0.00000000  0.50000000  1
  Pt  Pt6  1  0.66666667  0.33333333  0.00000000  1
  Pt  Pt7  1  0.33333333  0.66666667  0.00000000  1
  Pt  Pt8  1  0.00000000  0.00000000  0.50000000  1
