# generated using pymatgen
data_Cr2AgTe4
_symmetry_space_group_name_H-M   'P 1'
_cell_length_a   8.14585762
_cell_length_b   8.14585763
_cell_length_c   8.14585762
_cell_angle_alpha   60.00000002
_cell_angle_beta   60.00000002
_cell_angle_gamma   59.99999999
_symmetry_Int_Tables_number   1
_chemical_formula_structural   Cr2AgTe4
_chemical_formula_sum   'Cr4 Ag2 Te8'
_cell_volume   382.20419316
_cell_formula_units_Z   2
loop_
 _symmetry_equiv_pos_site_id
 _symmetry_equiv_pos_as_xyz
  1  'x, y, z'
loop_
 _atom_site_type_symbol
 _atom_site_label
 _atom_site_symmetry_multiplicity
 _atom_site_fract_x
 _atom_site_fract_y
 _atom_site_fract_z
 _atom_site_occupancy
  Cr  Cr0  1  0.50000000  0.50000000  0.50000000  1
  Cr  Cr1  1  0.50000000  0.50000000  0.00000000  1
  Cr  Cr2  1  0.50000000  0.00000000  0.50000000  1
  Cr  Cr3  1  0.00000000  0.50000000  0.50000000  1
  Ag  Ag4  1  0.12500000  0.12500000  0.12500000  1
  Ag  Ag5  1  0.87500000  0.87500000  0.87500000  1
  Te  Te6  1  0.26298760  0.26298760  0.71103719  1
  Te  Te7  1  0.73701240  0.73701240  0.73701240  1
  Te  Te8  1  0.26298760  0.71103719  0.26298760  1
  Te  Te9  1  0.71103719  0.26298760  0.26298760  1
  Te  Te10  1  0.73701240  0.28896281  0.73701240  1
  Te  Te11  1  0.28896281  0.73701240  0.73701240  1
  Te  Te12  1  0.73701240  0.73701240  0.28896281  1
  Te  Te13  1  0.26298760  0.26298760  0.26298760  1
