# generated using pymatgen
data_Mg(FeO2)2
_symmetry_space_group_name_H-M   'P 1'
_cell_length_a   2.93267971
_cell_length_b   9.96496983
_cell_length_c   9.75105085
_cell_angle_alpha   89.99997604
_cell_angle_beta   90.00022899
_cell_angle_gamma   90.00262193
_symmetry_Int_Tables_number   1
_chemical_formula_structural   Mg(FeO2)2
_chemical_formula_sum   'Mg4 Fe8 O16'
_cell_volume   284.96534212
_cell_formula_units_Z   4
loop_
 _symmetry_equiv_pos_site_id
 _symmetry_equiv_pos_as_xyz
  1  'x, y, z'
loop_
 _atom_site_type_symbol
 _atom_site_label
 _atom_site_symmetry_multiplicity
 _atom_site_fract_x
 _atom_site_fract_y
 _atom_site_fract_z
 _atom_site_occupancy
  Mg  Mg0  1  0.25573025  0.75003224  0.13748560  1
  Mg  Mg1  1  0.25573632  0.25003130  0.36251800  1
  Mg  Mg2  1  0.74426005  0.74997499  0.63747479  1
  Mg  Mg3  1  0.74428905  0.24998042  0.86251889  1
  Fe  Fe4  1  0.75089915  0.57468578  0.38206922  1
  Fe  Fe5  1  0.75088890  0.07467422  0.11793721  1
  Fe  Fe6  1  0.24895932  0.07467508  0.61793079  1
  Fe  Fe7  1  0.75103826  0.42532330  0.11793120  1
  Fe  Fe8  1  0.24910496  0.42531699  0.61794083  1
  Fe  Fe9  1  0.75081964  0.92531142  0.38207691  1
  Fe  Fe10  1  0.24902495  0.92531693  0.88207192  1
  Fe  Fe11  1  0.24920780  0.57469297  0.88206242  1
  O  O12  1  0.25021497  0.88474981  0.52154402  1
  O  O13  1  0.74957370  0.11524494  0.47845425  1
  O  O14  1  0.25056016  0.99997074  0.24998261  1
  O  O15  1  0.74962021  0.88474291  0.02153937  1
  O  O16  1  0.74980375  0.61525558  0.02154683  1
  O  O17  1  0.75381117  0.24999904  0.21436304  1
  O  O18  1  0.25032837  0.11525243  0.97845862  1
  O  O19  1  0.24620145  0.24999936  0.71436961  1
  O  O20  1  0.25063610  0.49998285  0.25001192  1
  O  O21  1  0.74935051  0.00001237  0.75000679  1
  O  O22  1  0.25037646  0.61525030  0.52154130  1
  O  O23  1  0.24621190  0.75000533  0.78562685  1
  O  O24  1  0.75379271  0.74999526  0.28563155  1
  O  O25  1  0.74946853  0.50001962  0.74999329  1
  O  O26  1  0.25039409  0.38475736  0.97845472  1
  O  O27  1  0.74969826  0.38474545  0.47845743  1
