# generated using pymatgen
data_CsUCuTe3
_symmetry_space_group_name_H-M   'P 1'
_cell_length_a   4.37274414
_cell_length_b   8.95449671
_cell_length_c   11.29624323
_cell_angle_alpha   90.00000000
_cell_angle_beta   90.00000000
_cell_angle_gamma   104.13247237
_symmetry_Int_Tables_number   1
_chemical_formula_structural   CsUCuTe3
_chemical_formula_sum   'Cs2 U2 Cu2 Te6'
_cell_volume   428.92544601
_cell_formula_units_Z   2
loop_
 _symmetry_equiv_pos_site_id
 _symmetry_equiv_pos_as_xyz
  1  'x, y, z'
loop_
 _atom_site_type_symbol
 _atom_site_label
 _atom_site_symmetry_multiplicity
 _atom_site_fract_x
 _atom_site_fract_y
 _atom_site_fract_z
 _atom_site_occupancy
  Cs  Cs0  1  0.74349362  0.48698725  0.75000000  1
  Cs  Cs1  1  0.25650638  0.51301275  0.25000000  1
  U  U2  1  0.00000000  -0.00000000  0.50000000  1
  U  U3  1  0.00000000  -0.00000000  0.00000000  1
  Cu  Cu4  1  0.46685095  0.93370189  0.75000000  1
  Cu  Cu5  1  0.53314905  0.06629811  0.25000000  1
  Te  Te6  1  0.38319521  0.76639041  0.94087032  1
  Te  Te7  1  0.61680479  0.23360959  0.44087032  1
  Te  Te8  1  0.61680479  0.23360959  0.05912968  1
  Te  Te9  1  0.38319521  0.76639041  0.55912968  1
  Te  Te10  1  0.94341510  0.88683020  0.25000000  1
  Te  Te11  1  0.05658490  0.11316980  0.75000000  1
