# generated using pymatgen
data_NdZnSn
_symmetry_space_group_name_H-M   'P 1'
_cell_length_a   4.59285292
_cell_length_b   4.59285292
_cell_length_c   16.41239430
_cell_angle_alpha   90.00000000
_cell_angle_beta   90.00000000
_cell_angle_gamma   120.00348482
_symmetry_Int_Tables_number   1
_chemical_formula_structural   NdZnSn
_chemical_formula_sum   'Nd4 Zn4 Sn4'
_cell_volume   299.81433819
_cell_formula_units_Z   4
loop_
 _symmetry_equiv_pos_site_id
 _symmetry_equiv_pos_as_xyz
  1  'x, y, z'
loop_
 _atom_site_type_symbol
 _atom_site_label
 _atom_site_symmetry_multiplicity
 _atom_site_fract_x
 _atom_site_fract_y
 _atom_site_fract_z
 _atom_site_occupancy
  Nd  Nd0  1  -0.00000000  0.00000000  0.50000000  1
  Nd  Nd1  1  -0.00000000  0.00000000  0.00000000  1
  Nd  Nd2  1  -0.00008534  0.00008534  0.75000000  1
  Nd  Nd3  1  0.00008534  -0.00008534  0.25000000  1
  Zn  Zn4  1  0.66671730  0.33328270  0.65639660  1
  Zn  Zn5  1  0.33328270  0.66671730  0.34360340  1
  Zn  Zn6  1  0.33328270  0.66671730  0.15639660  1
  Zn  Zn7  1  0.66671730  0.33328270  0.84360340  1
  Sn  Sn8  1  0.66670548  0.33329452  0.11503454  1
  Sn  Sn9  1  0.33329452  0.66670548  0.88496546  1
  Sn  Sn10  1  0.33329452  0.66670548  0.61503454  1
  Sn  Sn11  1  0.66670548  0.33329452  0.38496546  1
