# generated using pymatgen
data_MgBiSbO5
_symmetry_space_group_name_H-M   'P 1'
_cell_length_a   5.23060600
_cell_length_b   10.35825859
_cell_length_c   16.09411601
_cell_angle_alpha   90.00000000
_cell_angle_beta   90.00000000
_cell_angle_gamma   90.00000000
_symmetry_Int_Tables_number   1
_chemical_formula_structural   MgBiSbO5
_chemical_formula_sum   'Mg8 Bi8 Sb8 O40'
_cell_volume   871.97871504
_cell_formula_units_Z   8
loop_
 _symmetry_equiv_pos_site_id
 _symmetry_equiv_pos_as_xyz
  1  'x, y, z'
loop_
 _atom_site_type_symbol
 _atom_site_label
 _atom_site_symmetry_multiplicity
 _atom_site_fract_x
 _atom_site_fract_y
 _atom_site_fract_z
 _atom_site_occupancy
  Mg  Mg0  1  0.53366354  0.38253048  0.43915699  1
  Mg  Mg1  1  0.03366354  0.11746952  0.43915699  1
  Mg  Mg2  1  0.03366354  0.61746952  0.06084301  1
  Mg  Mg3  1  0.96633646  0.38253048  0.93915699  1
  Mg  Mg4  1  0.46633646  0.11746952  0.93915699  1
  Mg  Mg5  1  0.96633646  0.88253048  0.56084301  1
  Mg  Mg6  1  0.46633646  0.61746952  0.56084301  1
  Mg  Mg7  1  0.53366354  0.88253048  0.06084301  1
  Bi  Bi8  1  0.01341758  0.85990560  0.22422140  1
  Bi  Bi9  1  0.98658242  0.14009440  0.77577860  1
  Bi  Bi10  1  0.48658242  0.35990560  0.77577860  1
  Bi  Bi11  1  0.98658242  0.64009440  0.72422140  1
  Bi  Bi12  1  0.51341758  0.14009440  0.27577860  1
  Bi  Bi13  1  0.51341758  0.64009440  0.22422140  1
  Bi  Bi14  1  0.48658242  0.85990560  0.72422140  1
  Bi  Bi15  1  0.01341758  0.35990560  0.27577860  1
  Sb  Sb16  1  0.00880893  0.37277899  0.58405003  1
  Sb  Sb17  1  0.49119107  0.87277899  0.41594997  1
  Sb  Sb18  1  0.99119107  0.62722101  0.41594997  1
  Sb  Sb19  1  0.50880893  0.12722101  0.58405003  1
  Sb  Sb20  1  0.99119107  0.12722101  0.08405003  1
  Sb  Sb21  1  0.00880893  0.87277899  0.91594997  1
  Sb  Sb22  1  0.49119107  0.37277899  0.08405003  1
  Sb  Sb23  1  0.50880893  0.62722101  0.91594997  1
  O  O24  1  0.87208865  0.32231940  0.69231382  1
  O  O25  1  0.24814854  0.01929679  0.03404424  1
  O  O26  1  0.25185146  0.51929679  0.96595576  1
  O  O27  1  0.32595168  0.78263176  0.14725705  1
  O  O28  1  0.17404832  0.28263176  0.85274295  1
  O  O29  1  0.87208865  0.82231940  0.80768618  1
  O  O30  1  0.17404832  0.78263176  0.64725705  1
  O  O31  1  0.62791135  0.82231940  0.30768618  1
  O  O32  1  0.24814854  0.51929679  0.46595576  1
  O  O33  1  0.12791135  0.67768060  0.30768618  1
  O  O34  1  0.62791135  0.32231940  0.19231382  1
  O  O35  1  0.79993812  0.22052729  0.53005247  1
  O  O36  1  0.74814854  0.98070321  0.46595576  1
  O  O37  1  0.67404832  0.71736824  0.64725705  1
  O  O38  1  0.22837567  0.00404924  0.86410953  1
  O  O39  1  0.74814854  0.48070321  0.03404424  1
  O  O40  1  0.12791135  0.17768060  0.19231382  1
  O  O41  1  0.82595168  0.21736824  0.35274295  1
  O  O42  1  0.29993812  0.77947271  0.96994753  1
  O  O43  1  0.25185146  0.01929679  0.53404424  1
  O  O44  1  0.20006188  0.77947271  0.46994753  1
  O  O45  1  0.77162433  0.99595076  0.13589047  1
  O  O46  1  0.67404832  0.21736824  0.85274295  1
  O  O47  1  0.72837567  0.99595076  0.63589047  1
  O  O48  1  0.20006188  0.27947271  0.03005247  1
  O  O49  1  0.29993812  0.27947271  0.53005247  1
  O  O50  1  0.75185146  0.48070321  0.53404424  1
  O  O51  1  0.75185146  0.98070321  0.96595576  1
  O  O52  1  0.72837567  0.49595076  0.86410953  1
  O  O53  1  0.70006188  0.72052729  0.46994753  1
  O  O54  1  0.70006188  0.22052729  0.03005247  1
  O  O55  1  0.79993812  0.72052729  0.96994753  1
  O  O56  1  0.77162433  0.49595076  0.36410953  1
  O  O57  1  0.82595168  0.71736824  0.14725705  1
  O  O58  1  0.32595168  0.28263176  0.35274295  1
  O  O59  1  0.22837567  0.50404924  0.63589047  1
  O  O60  1  0.27162433  0.50404924  0.13589047  1
  O  O61  1  0.37208865  0.17768060  0.69231382  1
  O  O62  1  0.27162433  0.00404924  0.36410953  1
  O  O63  1  0.37208865  0.67768060  0.80768618  1
