# generated using pymatgen
data_SrIn4Pt
_symmetry_space_group_name_H-M   'P 1'
_cell_length_a   4.61195620
_cell_length_b   7.62327547
_cell_length_c   8.95915235
_cell_angle_alpha   90.00000000
_cell_angle_beta   104.91513019
_cell_angle_gamma   90.00000000
_symmetry_Int_Tables_number   1
_chemical_formula_structural   SrIn4Pt
_chemical_formula_sum   'Sr2 In8 Pt2'
_cell_volume   304.37525983
_cell_formula_units_Z   2
loop_
 _symmetry_equiv_pos_site_id
 _symmetry_equiv_pos_as_xyz
  1  'x, y, z'
loop_
 _atom_site_type_symbol
 _atom_site_label
 _atom_site_symmetry_multiplicity
 _atom_site_fract_x
 _atom_site_fract_y
 _atom_site_fract_z
 _atom_site_occupancy
  Sr  Sr0  1  0.87428290  0.25000000  0.74856580  1
  Sr  Sr1  1  0.12571710  0.75000000  0.25143420  1
  In  In2  1  0.68462082  0.04964727  0.36924164  1
  In  In3  1  0.50000000  0.50000000  0.00000000  1
  In  In4  1  0.31537918  0.54964727  0.63075836  1
  In  In5  1  0.31537918  0.95035273  0.63075836  1
  In  In6  1  0.68462082  0.45035273  0.36924164  1
  In  In7  1  0.93255976  0.75000000  0.86511952  1
  In  In8  1  0.06744024  0.25000000  0.13488048  1
  In  In9  1  0.50000000  0.00000000  0.00000000  1
  Pt  Pt10  1  0.22472709  0.25000000  0.44945418  1
  Pt  Pt11  1  0.77527291  0.75000000  0.55054582  1
