# generated using pymatgen
data_LuGeRh
_symmetry_space_group_name_H-M   'P 1'
_cell_length_a   4.26872464
_cell_length_b   6.77226495
_cell_length_c   7.52504715
_cell_angle_alpha   90.00000000
_cell_angle_beta   90.00000000
_cell_angle_gamma   90.00000000
_symmetry_Int_Tables_number   1
_chemical_formula_structural   LuGeRh
_chemical_formula_sum   'Lu4 Ge4 Rh4'
_cell_volume   217.54109337
_cell_formula_units_Z   4
loop_
 _symmetry_equiv_pos_site_id
 _symmetry_equiv_pos_as_xyz
  1  'x, y, z'
loop_
 _atom_site_type_symbol
 _atom_site_label
 _atom_site_symmetry_multiplicity
 _atom_site_fract_x
 _atom_site_fract_y
 _atom_site_fract_z
 _atom_site_occupancy
  Lu  Lu0  1  0.75000000  0.99444498  0.80300828  1
  Lu  Lu1  1  0.25000000  0.00555502  0.19699172  1
  Lu  Lu2  1  0.75000000  0.49444498  0.69699172  1
  Lu  Lu3  1  0.25000000  0.50555502  0.30300828  1
  Ge  Ge4  1  0.25000000  0.78395413  0.60893843  1
  Ge  Ge5  1  0.75000000  0.71604587  0.10893843  1
  Ge  Ge6  1  0.75000000  0.21604587  0.39106157  1
  Ge  Ge7  1  0.25000000  0.28395413  0.89106157  1
  Rh  Rh8  1  0.25000000  0.15770231  0.56402066  1
  Rh  Rh9  1  0.25000000  0.65770231  0.93597934  1
  Rh  Rh10  1  0.75000000  0.34229769  0.06402066  1
  Rh  Rh11  1  0.75000000  0.84229769  0.43597934  1
