# generated using pymatgen
data_Er2ReC2
_symmetry_space_group_name_H-M   'P 1'
_cell_length_a   5.06475464
_cell_length_b   6.53420638
_cell_length_c   9.79278232
_cell_angle_alpha   90.00000000
_cell_angle_beta   90.00000000
_cell_angle_gamma   90.00000000
_symmetry_Int_Tables_number   1
_chemical_formula_structural   Er2ReC2
_chemical_formula_sum   'Er8 Re4 C8'
_cell_volume   324.08382740
_cell_formula_units_Z   4
loop_
 _symmetry_equiv_pos_site_id
 _symmetry_equiv_pos_as_xyz
  1  'x, y, z'
loop_
 _atom_site_type_symbol
 _atom_site_label
 _atom_site_symmetry_multiplicity
 _atom_site_fract_x
 _atom_site_fract_y
 _atom_site_fract_z
 _atom_site_occupancy
  C  C0  1  0.25000000  0.17508719  0.94788445  1
  C  C1  1  0.25000000  0.04864633  0.25898366  1
  C  C2  1  0.75000000  0.95135367  0.74101634  1
  C  C3  1  0.75000000  0.32491281  0.44788445  1
  C  C4  1  0.25000000  0.54864633  0.24101634  1
  C  C5  1  0.25000000  0.67508719  0.55211555  1
  C  C6  1  0.75000000  0.82491281  0.05211555  1
  C  C7  1  0.75000000  0.45135367  0.75898366  1
  Er  Er8  1  0.75000000  0.03364075  0.28277583  1
  Er  Er9  1  0.25000000  0.46635925  0.78277583  1
  Er  Er10  1  0.75000000  0.17858921  0.94323211  1
  Er  Er11  1  0.25000000  0.32141079  0.44323211  1
  Er  Er12  1  0.75000000  0.67858921  0.55676789  1
  Er  Er13  1  0.25000000  0.82141079  0.05676789  1
  Er  Er14  1  0.25000000  0.96635925  0.71722417  1
  Er  Er15  1  0.75000000  0.53364075  0.21722417  1
  Re  Re16  1  0.25000000  0.78165637  0.36779007  1
  Re  Re17  1  0.25000000  0.28165637  0.13220993  1
  Re  Re18  1  0.75000000  0.71834363  0.86779007  1
  Re  Re19  1  0.75000000  0.21834363  0.63220993  1
