# generated using pymatgen
data_Gd2AlGe2
_symmetry_space_group_name_H-M   'P 1'
_cell_length_a   5.69816842
_cell_length_b   5.89754402
_cell_length_c   7.78628213
_cell_angle_alpha   103.28246398
_cell_angle_beta   90.00000000
_cell_angle_gamma   118.88785017
_symmetry_Int_Tables_number   1
_chemical_formula_structural   Gd2AlGe2
_chemical_formula_sum   'Gd4 Al2 Ge4'
_cell_volume   221.07238796
_cell_formula_units_Z   2
loop_
 _symmetry_equiv_pos_site_id
 _symmetry_equiv_pos_as_xyz
  1  'x, y, z'
loop_
 _atom_site_type_symbol
 _atom_site_label
 _atom_site_symmetry_multiplicity
 _atom_site_fract_x
 _atom_site_fract_y
 _atom_site_fract_z
 _atom_site_occupancy
  Gd  Gd0  1  0.51521348  0.29005107  0.64712293  1
  Gd  Gd1  1  0.48478652  0.70994893  0.35287707  1
  Gd  Gd2  1  0.77483759  0.29005107  0.14712293  1
  Gd  Gd3  1  0.22516241  0.70994893  0.85287707  1
  Al  Al4  1  0.16327448  -0.00000000  0.25000000  1
  Al  Al5  1  0.83672552  -0.00000000  0.75000000  1
  Ge  Ge6  1  0.00868344  0.27440176  0.49817539  1
  Ge  Ge7  1  0.99131656  0.72559824  0.50182461  1
  Ge  Ge8  1  0.26571833  0.27440176  0.99817539  1
  Ge  Ge9  1  0.73428167  0.72559824  0.00182461  1
