# generated using pymatgen
data_TaMnP
_symmetry_space_group_name_H-M   'P 1'
_cell_length_a   3.66549105
_cell_length_b   6.07257815
_cell_length_c   7.02299113
_cell_angle_alpha   90.00000000
_cell_angle_beta   90.00000000
_cell_angle_gamma   90.00000000
_symmetry_Int_Tables_number   1
_chemical_formula_structural   TaMnP
_chemical_formula_sum   'Ta4 Mn4 P4'
_cell_volume   156.32462514
_cell_formula_units_Z   4
loop_
 _symmetry_equiv_pos_site_id
 _symmetry_equiv_pos_as_xyz
  1  'x, y, z'
loop_
 _atom_site_type_symbol
 _atom_site_label
 _atom_site_symmetry_multiplicity
 _atom_site_fract_x
 _atom_site_fract_y
 _atom_site_fract_z
 _atom_site_occupancy
  Ta  Ta0  1  0.75000000  0.97754905  0.82272129  1
  Ta  Ta1  1  0.25000000  0.52245095  0.32272129  1
  Ta  Ta2  1  0.25000000  0.02245095  0.17727871  1
  Ta  Ta3  1  0.75000000  0.47754905  0.67727871  1
  Mn  Mn4  1  0.75000000  0.34879724  0.05963753  1
  Mn  Mn5  1  0.25000000  0.65120276  0.94036247  1
  Mn  Mn6  1  0.75000000  0.84879724  0.44036247  1
  Mn  Mn7  1  0.25000000  0.15120276  0.55963753  1
  P  P8  1  0.25000000  0.78037740  0.62254796  1
  P  P9  1  0.75000000  0.21962260  0.37745204  1
  P  P10  1  0.25000000  0.28037740  0.87745204  1
  P  P11  1  0.75000000  0.71962260  0.12254796  1
