# generated using pymatgen
data_CaIn2Ir
_symmetry_space_group_name_H-M   'P 1'
_cell_length_a   5.76375728
_cell_length_b   7.96056978
_cell_length_c   16.06643484
_cell_angle_alpha   90.00000000
_cell_angle_beta   90.00000000
_cell_angle_gamma   90.00000000
_symmetry_Int_Tables_number   1
_chemical_formula_structural   CaIn2Ir
_chemical_formula_sum   'Ca8 In16 Ir8'
_cell_volume   737.17288831
_cell_formula_units_Z   8
loop_
 _symmetry_equiv_pos_site_id
 _symmetry_equiv_pos_as_xyz
  1  'x, y, z'
loop_
 _atom_site_type_symbol
 _atom_site_label
 _atom_site_symmetry_multiplicity
 _atom_site_fract_x
 _atom_site_fract_y
 _atom_site_fract_z
 _atom_site_occupancy
  Ca  Ca0  1  0.46105408  0.75000000  0.86178966  1
  Ca  Ca1  1  0.96105408  0.25000000  0.63821034  1
  Ca  Ca2  1  0.53894592  0.25000000  0.13821034  1
  Ca  Ca3  1  0.03894592  0.75000000  0.36178966  1
  Ca  Ca4  1  0.74796375  0.75000000  0.60238495  1
  Ca  Ca5  1  0.24796375  0.25000000  0.89761505  1
  Ca  Ca6  1  0.25203625  0.25000000  0.39761505  1
  Ca  Ca7  1  0.75203625  0.75000000  0.10238495  1
  In  In8  1  0.74832503  0.44594958  0.46071198  1
  In  In9  1  0.25167497  0.94594958  0.53928802  1
  In  In10  1  0.75167497  0.05405042  0.96071198  1
  In  In11  1  0.96702219  0.95006614  0.78781317  1
  In  In12  1  0.24832503  0.55405042  0.03928802  1
  In  In13  1  0.74832503  0.05405042  0.46071198  1
  In  In14  1  0.24832503  0.94594958  0.03928802  1
  In  In15  1  0.25167497  0.55405042  0.53928802  1
  In  In16  1  0.03297781  0.04993386  0.21218683  1
  In  In17  1  0.46702219  0.04993386  0.71218683  1
  In  In18  1  0.03297781  0.45006614  0.21218683  1
  In  In19  1  0.53297781  0.54993386  0.28781317  1
  In  In20  1  0.46702219  0.45006614  0.71218683  1
  In  In21  1  0.53297781  0.95006614  0.28781317  1
  In  In22  1  0.96702219  0.54993386  0.78781317  1
  In  In23  1  0.75167497  0.44594958  0.96071198  1
  Ir  Ir24  1  0.23411642  0.75000000  0.68580492  1
  Ir  Ir25  1  0.52066494  0.75000000  0.42972857  1
  Ir  Ir26  1  0.02066494  0.25000000  0.07027143  1
  Ir  Ir27  1  0.47933506  0.25000000  0.57027143  1
  Ir  Ir28  1  0.97933506  0.75000000  0.92972857  1
  Ir  Ir29  1  0.26588358  0.75000000  0.18580492  1
  Ir  Ir30  1  0.76588358  0.25000000  0.31419508  1
  Ir  Ir31  1  0.73411642  0.25000000  0.81419508  1
