# generated using pymatgen
data_Tm2SiPd2
_symmetry_space_group_name_H-M   'P 1'
_cell_length_a   4.10567924
_cell_length_b   7.49279490
_cell_length_c   13.61214164
_cell_angle_alpha   90.00000000
_cell_angle_beta   90.00000000
_cell_angle_gamma   90.00000000
_symmetry_Int_Tables_number   1
_chemical_formula_structural   Tm2SiPd2
_chemical_formula_sum   'Tm8 Si4 Pd8'
_cell_volume   418.75048302
_cell_formula_units_Z   4
loop_
 _symmetry_equiv_pos_site_id
 _symmetry_equiv_pos_as_xyz
  1  'x, y, z'
loop_
 _atom_site_type_symbol
 _atom_site_label
 _atom_site_symmetry_multiplicity
 _atom_site_fract_x
 _atom_site_fract_y
 _atom_site_fract_z
 _atom_site_occupancy
  Tm  Tm0  1  0.50000000  0.04250350  0.37409348  1
  Tm  Tm1  1  0.50000000  0.95749650  0.62590652  1
  Tm  Tm2  1  -0.00000000  0.54250350  0.12590652  1
  Tm  Tm3  1  0.00000000  0.45749650  0.87409348  1
  Tm  Tm4  1  0.50000000  0.94863690  0.13077118  1
  Tm  Tm5  1  0.50000000  0.05136310  0.86922882  1
  Tm  Tm6  1  0.00000000  0.44863690  0.36922882  1
  Tm  Tm7  1  -0.00000000  0.55136310  0.63077118  1
  Si  Si8  1  0.50000000  0.65285955  0.47225435  1
  Si  Si9  1  0.50000000  0.34714045  0.52774565  1
  Si  Si10  1  0.00000000  0.15285955  0.02774565  1
  Si  Si11  1  0.00000000  0.84714045  0.97225435  1
  Pd  Pd12  1  0.50000000  0.67277186  0.28096892  1
  Pd  Pd13  1  0.50000000  0.32722814  0.71903108  1
  Pd  Pd14  1  -0.00000000  0.17277186  0.21903108  1
  Pd  Pd15  1  0.00000000  0.82722814  0.78096892  1
  Pd  Pd16  1  0.50000000  0.67871987  0.98081860  1
  Pd  Pd17  1  0.50000000  0.32128013  0.01918140  1
  Pd  Pd18  1  -0.00000000  0.17871987  0.51918140  1
  Pd  Pd19  1  0.00000000  0.82128013  0.48081860  1
