# generated using pymatgen
data_Na2InCuF7
_symmetry_space_group_name_H-M   'P 1'
_cell_length_a   7.36060211
_cell_length_b   7.83559469
_cell_length_c   10.72965672
_cell_angle_alpha   90.00000000
_cell_angle_beta   90.00000000
_cell_angle_gamma   90.00000000
_symmetry_Int_Tables_number   1
_chemical_formula_structural   Na2InCuF7
_chemical_formula_sum   'Na8 In4 Cu4 F28'
_cell_volume   618.82967672
_cell_formula_units_Z   4
loop_
 _symmetry_equiv_pos_site_id
 _symmetry_equiv_pos_as_xyz
  1  'x, y, z'
loop_
 _atom_site_type_symbol
 _atom_site_label
 _atom_site_symmetry_multiplicity
 _atom_site_fract_x
 _atom_site_fract_y
 _atom_site_fract_z
 _atom_site_occupancy
  Na  Na0  1  0.25000000  0.21752752  0.76224358  1
  Na  Na1  1  0.25000000  0.28247248  0.26224358  1
  Na  Na2  1  0.75000000  0.78247248  0.23775642  1
  Na  Na3  1  0.50000000  -0.00000000  0.50000000  1
  Na  Na4  1  0.75000000  0.71752752  0.73775642  1
  Na  Na5  1  0.00000000  -0.00000000  0.50000000  1
  Na  Na6  1  0.00000000  0.50000000  -0.00000000  1
  Na  Na7  1  0.50000000  0.50000000  -0.00000000  1
  In  In8  1  0.25000000  0.72547940  0.76732785  1
  In  In9  1  0.75000000  0.27452060  0.23267215  1
  In  In10  1  0.25000000  0.77452060  0.26732785  1
  In  In11  1  0.75000000  0.22547940  0.73267215  1
  Cu  Cu12  1  0.00000000  -0.00000000  -0.00000000  1
  Cu  Cu13  1  0.50000000  -0.00000000  -0.00000000  1
  Cu  Cu14  1  0.00000000  0.50000000  0.50000000  1
  Cu  Cu15  1  0.50000000  0.50000000  0.50000000  1
  F  F16  1  0.01859889  0.73457010  0.37783060  1
  F  F17  1  0.25000000  0.54438415  0.16693342  1
  F  F18  1  0.25000000  0.95561585  0.66693342  1
  F  F19  1  0.51859889  0.23457010  0.12216940  1
  F  F20  1  0.75000000  0.96018424  0.03309447  1
  F  F21  1  0.48140111  0.73457010  0.37783060  1
  F  F22  1  0.04553113  0.84972162  0.14019335  1
  F  F23  1  0.25000000  0.46018424  0.46690553  1
  F  F24  1  0.75000000  0.45561585  0.83306658  1
  F  F25  1  0.25000000  0.48295553  0.85847879  1
  F  F26  1  0.01859889  0.76542990  0.87783060  1
  F  F27  1  0.75000000  0.04438415  0.33306658  1
  F  F28  1  0.75000000  0.53981576  0.53309447  1
  F  F29  1  0.75000000  0.98295553  0.64152121  1
  F  F30  1  0.98140111  0.26542990  0.62216940  1
  F  F31  1  0.54553113  0.34972162  0.35980665  1
  F  F32  1  0.48140111  0.76542990  0.87783060  1
  F  F33  1  0.51859889  0.26542990  0.62216940  1
  F  F34  1  0.75000000  0.51704447  0.14152121  1
  F  F35  1  0.25000000  0.03981576  0.96690553  1
  F  F36  1  0.04553113  0.65027838  0.64019335  1
  F  F37  1  0.54553113  0.15027838  0.85980665  1
  F  F38  1  0.95446887  0.15027838  0.85980665  1
  F  F39  1  0.95446887  0.34972162  0.35980665  1
  F  F40  1  0.25000000  0.01704447  0.35847879  1
  F  F41  1  0.98140111  0.23457010  0.12216940  1
  F  F42  1  0.45446887  0.84972162  0.14019335  1
  F  F43  1  0.45446887  0.65027838  0.64019335  1
