# generated using pymatgen
data_KCu4(AsO4)3
_symmetry_space_group_name_H-M   'P 1'
_cell_length_a   7.54950760
_cell_length_b   8.84231590
_cell_length_c   8.84231586
_cell_angle_alpha   90.67865553
_cell_angle_beta   109.71039178
_cell_angle_gamma   109.71038900
_symmetry_Int_Tables_number   1
_chemical_formula_structural   KCu4(AsO4)3
_chemical_formula_sum   'K2 Cu8 As6 O24'
_cell_volume   517.84825267
_cell_formula_units_Z   2
loop_
 _symmetry_equiv_pos_site_id
 _symmetry_equiv_pos_as_xyz
  1  'x, y, z'
loop_
 _atom_site_type_symbol
 _atom_site_label
 _atom_site_symmetry_multiplicity
 _atom_site_fract_x
 _atom_site_fract_y
 _atom_site_fract_z
 _atom_site_occupancy
  K  K0  1  0.75000000  0.01232415  0.98767585  1
  K  K1  1  0.25000000  0.98767585  0.01232415  1
  Cu  Cu2  1  0.64440428  0.06765549  0.38233923  1
  Cu  Cu3  1  0.25000000  0.50508515  0.49491485  1
  Cu  Cu4  1  0.75000000  0.73747208  0.26252792  1
  Cu  Cu5  1  0.14440428  0.38233923  0.06765549  1
  Cu  Cu6  1  0.25000000  0.26252792  0.73747208  1
  Cu  Cu7  1  0.75000000  0.49491485  0.50508515  1
  Cu  Cu8  1  0.85559572  0.61766077  0.93234451  1
  Cu  Cu9  1  0.35559572  0.93234451  0.61766077  1
  As  As10  1  0.87612002  0.88676949  0.64787633  1
  As  As11  1  0.37612002  0.64787633  0.88676949  1
  As  As12  1  0.62387998  0.35212367  0.11323051  1
  As  As13  1  0.25000000  0.72371724  0.27628276  1
  As  As14  1  0.75000000  0.27628276  0.72371724  1
  As  As15  1  0.12387998  0.11323051  0.35212367  1
  O  O16  1  0.86737292  0.81446658  0.82551981  1
  O  O17  1  0.13262708  0.18553342  0.17448019  1
  O  O18  1  0.30702450  0.02750863  0.41633365  1
  O  O19  1  0.80702450  0.41633365  0.02750863  1
  O  O20  1  0.17989339  0.27410626  0.50062441  1
  O  O21  1  0.74127621  0.27652209  0.51914786  1
  O  O22  1  0.67989339  0.50062441  0.27410626  1
  O  O23  1  0.82010661  0.72589374  0.49937559  1
  O  O24  1  0.96642769  0.25107993  0.84470727  1
  O  O25  1  0.36737292  0.82551981  0.81446658  1
  O  O26  1  0.25872379  0.72347791  0.48085214  1
  O  O27  1  0.88043898  0.97904760  0.31402695  1
  O  O28  1  0.61956102  0.68597305  0.02095240  1
  O  O29  1  0.38043898  0.31402695  0.97904760  1
  O  O30  1  0.03357231  0.74892007  0.15529273  1
  O  O31  1  0.32010661  0.49937559  0.72589374  1
  O  O32  1  0.46642769  0.84470727  0.25107993  1
  O  O33  1  0.75872379  0.48085214  0.72347791  1
  O  O34  1  0.69297550  0.97249137  0.58366635  1
  O  O35  1  0.11956102  0.02095240  0.68597305  1
  O  O36  1  0.19297550  0.58366635  0.97249137  1
  O  O37  1  0.53357231  0.15529273  0.74892007  1
  O  O38  1  0.24127621  0.51914786  0.27652209  1
  O  O39  1  0.63262708  0.17448019  0.18553342  1
