# generated using pymatgen
data_Eu3AuO6
_symmetry_space_group_name_H-M   'P 1'
_cell_length_a   3.75942259
_cell_length_b   5.67910303
_cell_length_c   7.21299774
_cell_angle_alpha   90.54084012
_cell_angle_beta   102.54434575
_cell_angle_gamma   91.00768467
_symmetry_Int_Tables_number   1
_chemical_formula_structural   Eu3AuO6
_chemical_formula_sum   'Eu3 Au1 O6'
_cell_volume   150.28522841
_cell_formula_units_Z   1
loop_
 _symmetry_equiv_pos_site_id
 _symmetry_equiv_pos_as_xyz
  1  'x, y, z'
loop_
 _atom_site_type_symbol
 _atom_site_label
 _atom_site_symmetry_multiplicity
 _atom_site_fract_x
 _atom_site_fract_y
 _atom_site_fract_z
 _atom_site_occupancy
  Eu  Eu0  1  0.61365004  0.52477985  0.76888449  1
  Eu  Eu1  1  0.38634996  0.47522015  0.23111551  1
  Eu  Eu2  1  0.00000000  -0.00000000  0.50000000  1
  Au  Au3  1  0.00000000  -0.00000000  -0.00000000  1
  O  O4  1  0.15920938  0.30247418  0.88736640  1
  O  O5  1  0.87513287  0.20253943  0.20785461  1
  O  O6  1  0.12486713  0.79746057  0.79214539  1
  O  O7  1  0.48463746  0.74564498  0.47826705  1
  O  O8  1  0.84079062  0.69752582  0.11263360  1
  O  O9  1  0.51536254  0.25435502  0.52173295  1
