# generated using pymatgen
data_Ca2V3O8
_symmetry_space_group_name_H-M   'P 1'
_cell_length_a   6.04632398
_cell_length_b   6.04632379
_cell_length_c   10.63482750
_cell_angle_alpha   90.00000000
_cell_angle_beta   90.00000000
_cell_angle_gamma   120.00000102
_symmetry_Int_Tables_number   1
_chemical_formula_structural   Ca2V3O8
_chemical_formula_sum   'Ca4 V6 O16'
_cell_volume   336.70060146
_cell_formula_units_Z   2
loop_
 _symmetry_equiv_pos_site_id
 _symmetry_equiv_pos_as_xyz
  1  'x, y, z'
loop_
 _atom_site_type_symbol
 _atom_site_label
 _atom_site_symmetry_multiplicity
 _atom_site_fract_x
 _atom_site_fract_y
 _atom_site_fract_z
 _atom_site_occupancy
  Ca  Ca0  1  0.66666700  0.33333400  0.02520911  1
  Ca  Ca1  1  0.33333300  0.66666600  0.52521011  1
  Ca  Ca2  1  0.66666700  0.33333400  0.42994586  1
  Ca  Ca3  1  0.33333300  0.66666600  0.92994686  1
  V  V4  1  0.67308552  0.83654326  0.24564813  1
  V  V5  1  0.83654426  0.16345774  0.74564813  1
  V  V6  1  0.16345774  0.32691548  0.24564813  1
  V  V7  1  0.83654226  0.67308552  0.74564813  1
  V  V8  1  0.32691548  0.16345774  0.74564813  1
  V  V9  1  0.16345774  0.83654326  0.24564813  1
  O  O10  1  0.84559643  0.15440457  0.15482704  1
  O  O11  1  0.69119085  0.84559643  0.65482604  1
  O  O12  1  0.15440457  0.30881015  0.65482604  1
  O  O13  1  0.84559543  0.69119085  0.15482704  1
  O  O14  1  0.30880915  0.15440457  0.15482704  1
  O  O15  1  0.15440457  0.84559643  0.65482604  1
  O  O16  1  0.52406164  0.47593736  0.84961823  1
  O  O17  1  0.04812528  0.52406164  0.34961723  1
  O  O18  1  0.47593836  0.95187572  0.34961723  1
  O  O19  1  0.52406164  0.04812528  0.84961823  1
  O  O20  1  -0.00000000  0.00000000  0.34374841  1
  O  O21  1  -0.00000000  0.00000000  0.84374841  1
  O  O22  1  0.33333300  0.66666600  0.14432042  1
  O  O23  1  0.95187372  0.47593736  0.84961823  1
  O  O24  1  0.47593736  0.52406164  0.34961723  1
  O  O25  1  0.66666700  0.33333400  0.64432042  1
