# generated using pymatgen
data_Nd2InPd2
_symmetry_space_group_name_H-M   'P 1'
_cell_length_a   3.88837516
_cell_length_b   7.87710882
_cell_length_c   7.87710882
_cell_angle_alpha   90.00000000
_cell_angle_beta   90.00000000
_cell_angle_gamma   90.00000000
_symmetry_Int_Tables_number   1
_chemical_formula_structural   Nd2InPd2
_chemical_formula_sum   'Nd4 In2 Pd4'
_cell_volume   241.26918124
_cell_formula_units_Z   2
loop_
 _symmetry_equiv_pos_site_id
 _symmetry_equiv_pos_as_xyz
  1  'x, y, z'
loop_
 _atom_site_type_symbol
 _atom_site_label
 _atom_site_symmetry_multiplicity
 _atom_site_fract_x
 _atom_site_fract_y
 _atom_site_fract_z
 _atom_site_occupancy
  Pd  Pd0  1  0.00000000  0.12660829  0.37339171  1
  Pd  Pd1  1  0.00000000  0.37339171  0.87339171  1
  Pd  Pd2  1  0.00000000  0.62660829  0.12660829  1
  Pd  Pd3  1  0.00000000  0.87339171  0.62660829  1
  In  In4  1  0.00000000  0.00000000  0.00000000  1
  In  In5  1  0.00000000  0.50000000  0.50000000  1
  Nd  Nd6  1  0.50000000  0.82490284  0.32490284  1
  Nd  Nd7  1  0.50000000  0.67509716  0.82490284  1
  Nd  Nd8  1  0.50000000  0.32490284  0.17509716  1
  Nd  Nd9  1  0.50000000  0.17509716  0.67509716  1
