# generated using pymatgen
data_DyGaPd
_symmetry_space_group_name_H-M   'P 1'
_cell_length_a   4.47029850
_cell_length_b   6.92303750
_cell_length_c   7.69092943
_cell_angle_alpha   90.00000000
_cell_angle_beta   90.00000000
_cell_angle_gamma   90.00000000
_symmetry_Int_Tables_number   1
_chemical_formula_structural   DyGaPd
_chemical_formula_sum   'Dy4 Ga4 Pd4'
_cell_volume   238.01922357
_cell_formula_units_Z   4
loop_
 _symmetry_equiv_pos_site_id
 _symmetry_equiv_pos_as_xyz
  1  'x, y, z'
loop_
 _atom_site_type_symbol
 _atom_site_label
 _atom_site_symmetry_multiplicity
 _atom_site_fract_x
 _atom_site_fract_y
 _atom_site_fract_z
 _atom_site_occupancy
  Dy  Dy0  1  0.75000000  0.01790920  0.30164085  1
  Dy  Dy1  1  0.75000000  0.51790920  0.19835915  1
  Dy  Dy2  1  0.25000000  0.98209080  0.69835915  1
  Dy  Dy3  1  0.25000000  0.48209080  0.80164085  1
  Ga  Ga4  1  0.25000000  0.82305249  0.07410012  1
  Ga  Ga5  1  0.25000000  0.32305249  0.42589988  1
  Ga  Ga6  1  0.75000000  0.17694751  0.92589988  1
  Ga  Ga7  1  0.75000000  0.67694751  0.57410012  1
  Pd  Pd8  1  0.75000000  0.78004032  0.90183682  1
  Pd  Pd9  1  0.25000000  0.71995968  0.40183682  1
  Pd  Pd10  1  0.25000000  0.21995968  0.09816318  1
  Pd  Pd11  1  0.75000000  0.28004032  0.59816318  1
