# generated using pymatgen
data_Nd(Cu2P)2
_symmetry_space_group_name_H-M   'P 1'
_cell_length_a   3.87769168
_cell_length_b   10.98665869
_cell_length_c   14.66062194
_cell_angle_alpha   90.00000000
_cell_angle_beta   90.00000000
_cell_angle_gamma   90.00000000
_symmetry_Int_Tables_number   1
_chemical_formula_structural   Nd(Cu2P)2
_chemical_formula_sum   'Nd6 Cu24 P12'
_cell_volume   624.58464383
_cell_formula_units_Z   6
loop_
 _symmetry_equiv_pos_site_id
 _symmetry_equiv_pos_as_xyz
  1  'x, y, z'
loop_
 _atom_site_type_symbol
 _atom_site_label
 _atom_site_symmetry_multiplicity
 _atom_site_fract_x
 _atom_site_fract_y
 _atom_site_fract_z
 _atom_site_occupancy
  P  P0  1  0.50000000  0.86574643  0.11467436  1
  P  P1  1  0.50000000  0.13425357  0.88532564  1
  P  P2  1  0.00000000  0.36574643  0.38532564  1
  P  P3  1  0.00000000  0.63425357  0.61467436  1
  P  P4  1  0.50000000  0.70714777  0.37168048  1
  P  P5  1  0.50000000  0.29285223  0.62831952  1
  P  P6  1  0.50000000  0.05867584  0.33437226  1
  P  P7  1  0.50000000  0.94132416  0.66562774  1
  P  P8  1  0.00000000  0.55867584  0.16562774  1
  P  P9  1  0.00000000  0.44132416  0.83437226  1
  P  P10  1  0.00000000  0.20714777  0.12831952  1
  P  P11  1  0.00000000  0.79285223  0.87168048  1
  Cu  Cu12  1  0.00000000  0.06802799  0.43561427  1
  Cu  Cu13  1  0.50000000  0.56802799  0.06438573  1
  Cu  Cu14  1  0.00000000  0.59939762  0.94679137  1
  Cu  Cu15  1  0.00000000  0.40060238  0.05320863  1
  Cu  Cu16  1  0.50000000  0.09939762  0.55320863  1
  Cu  Cu17  1  0.50000000  0.43197201  0.93561427  1
  Cu  Cu18  1  0.00000000  0.26498461  0.53515683  1
  Cu  Cu19  1  0.00000000  0.73501539  0.46484317  1
  Cu  Cu20  1  0.50000000  0.76498461  0.96484317  1
  Cu  Cu21  1  0.50000000  0.23501539  0.03515683  1
  Cu  Cu22  1  0.00000000  0.42570642  0.66815471  1
  Cu  Cu23  1  0.00000000  0.57429358  0.33184529  1
  Cu  Cu24  1  0.50000000  0.92570642  0.83184529  1
  Cu  Cu25  1  0.50000000  0.07429358  0.16815471  1
  Cu  Cu26  1  0.00000000  0.82902515  0.71603994  1
  Cu  Cu27  1  0.00000000  0.17097485  0.28396006  1
  Cu  Cu28  1  0.50000000  0.32902515  0.78396006  1
  Cu  Cu29  1  0.50000000  0.67097485  0.21603994  1
  Cu  Cu30  1  0.50000000  0.24243091  0.41084546  1
  Cu  Cu31  1  0.50000000  0.75756909  0.58915454  1
  Cu  Cu32  1  0.00000000  0.74243091  0.08915454  1
  Cu  Cu33  1  0.00000000  0.25756909  0.91084546  1
  Cu  Cu34  1  0.50000000  0.90060238  0.44679137  1
  Cu  Cu35  1  0.00000000  0.93197201  0.56438573  1
  Nd  Nd36  1  0.50000000  0.37685024  0.22645430  1
  Nd  Nd37  1  0.50000000  0.62314976  0.77354570  1
  Nd  Nd38  1  0.00000000  0.87685024  0.27354570  1
  Nd  Nd39  1  0.00000000  0.12314976  0.72645430  1
  Nd  Nd40  1  0.50000000  0.50000000  0.50000000  1
  Nd  Nd41  1  0.00000000  0.00000000  0.00000000  1
