# generated using pymatgen
data_TbNiSn
_symmetry_space_group_name_H-M   'P 1'
_cell_length_a   4.47386325
_cell_length_b   7.18152178
_cell_length_c   7.68910581
_cell_angle_alpha   90.00000000
_cell_angle_beta   90.00000000
_cell_angle_gamma   90.00000000
_symmetry_Int_Tables_number   1
_chemical_formula_structural   TbNiSn
_chemical_formula_sum   'Tb4 Ni4 Sn4'
_cell_volume   247.04440603
_cell_formula_units_Z   4
loop_
 _symmetry_equiv_pos_site_id
 _symmetry_equiv_pos_as_xyz
  1  'x, y, z'
loop_
 _atom_site_type_symbol
 _atom_site_label
 _atom_site_symmetry_multiplicity
 _atom_site_fract_x
 _atom_site_fract_y
 _atom_site_fract_z
 _atom_site_occupancy
  Tb  Tb0  1  0.75000000  0.48782023  0.20269111  1
  Tb  Tb1  1  0.75000000  0.98782023  0.29730889  1
  Tb  Tb2  1  0.25000000  0.51217977  0.79730889  1
  Tb  Tb3  1  0.25000000  0.01217977  0.70269111  1
  Ni  Ni4  1  0.75000000  0.19891650  0.91494076  1
  Ni  Ni5  1  0.75000000  0.69891650  0.58505924  1
  Ni  Ni6  1  0.25000000  0.80108350  0.08505924  1
  Ni  Ni7  1  0.25000000  0.30108350  0.41494076  1
  Sn  Sn8  1  0.75000000  0.30924463  0.58684263  1
  Sn  Sn9  1  0.75000000  0.80924463  0.91315737  1
  Sn  Sn10  1  0.25000000  0.69075537  0.41315737  1
  Sn  Sn11  1  0.25000000  0.19075537  0.08684263  1
