# generated using pymatgen
data_LuGeRu
_symmetry_space_group_name_H-M   'P 1'
_cell_length_a   4.29969112
_cell_length_b   6.90726001
_cell_length_c   7.33111539
_cell_angle_alpha   90.00000000
_cell_angle_beta   90.00000000
_cell_angle_gamma   90.00000000
_symmetry_Int_Tables_number   1
_chemical_formula_structural   LuGeRu
_chemical_formula_sum   'Lu4 Ge4 Ru4'
_cell_volume   217.72741566
_cell_formula_units_Z   4
loop_
 _symmetry_equiv_pos_site_id
 _symmetry_equiv_pos_as_xyz
  1  'x, y, z'
loop_
 _atom_site_type_symbol
 _atom_site_label
 _atom_site_symmetry_multiplicity
 _atom_site_fract_x
 _atom_site_fract_y
 _atom_site_fract_z
 _atom_site_occupancy
  Lu  Lu0  1  0.25000000  0.49465326  0.30896284  1
  Lu  Lu1  1  0.75000000  0.00534674  0.80896284  1
  Lu  Lu2  1  0.75000000  0.50534674  0.69103716  1
  Lu  Lu3  1  0.25000000  0.99465326  0.19103716  1
  Ge  Ge4  1  0.75000000  0.70653095  0.11141329  1
  Ge  Ge5  1  0.25000000  0.79346905  0.61141329  1
  Ge  Ge6  1  0.25000000  0.29346905  0.88858671  1
  Ge  Ge7  1  0.75000000  0.20653095  0.38858671  1
  Ru  Ru8  1  0.75000000  0.84222527  0.43848527  1
  Ru  Ru9  1  0.75000000  0.34222527  0.06151473  1
  Ru  Ru10  1  0.25000000  0.65777473  0.93848527  1
  Ru  Ru11  1  0.25000000  0.15777473  0.56151473  1
