# generated using pymatgen
data_Ca2Sn5Pt3
_symmetry_space_group_name_H-M   'P 1'
_cell_length_a   4.50985490
_cell_length_b   7.49949945
_cell_length_c   26.79513401
_cell_angle_alpha   90.00000000
_cell_angle_beta   90.00000000
_cell_angle_gamma   90.00000000
_symmetry_Int_Tables_number   1
_chemical_formula_structural   Ca2Sn5Pt3
_chemical_formula_sum   'Ca8 Sn20 Pt12'
_cell_volume   906.25576054
_cell_formula_units_Z   4
loop_
 _symmetry_equiv_pos_site_id
 _symmetry_equiv_pos_as_xyz
  1  'x, y, z'
loop_
 _atom_site_type_symbol
 _atom_site_label
 _atom_site_symmetry_multiplicity
 _atom_site_fract_x
 _atom_site_fract_y
 _atom_site_fract_z
 _atom_site_occupancy
  Ca  Ca0  1  0.75000000  0.75305991  0.42338437  1
  Ca  Ca1  1  0.25000000  0.24694009  0.57661563  1
  Ca  Ca2  1  0.75000000  0.25305991  0.07661563  1
  Ca  Ca3  1  0.25000000  0.74694009  0.92338437  1
  Ca  Ca4  1  0.75000000  0.78542446  0.72662748  1
  Ca  Ca5  1  0.25000000  0.21457554  0.27337252  1
  Ca  Ca6  1  0.75000000  0.28542446  0.77337252  1
  Ca  Ca7  1  0.25000000  0.71457554  0.22662748  1
  Sn  Sn8  1  0.25000000  0.96422155  0.04338535  1
  Sn  Sn9  1  0.25000000  0.53990538  0.04354602  1
  Sn  Sn10  1  0.75000000  0.46009462  0.95645398  1
  Sn  Sn11  1  0.25000000  0.03990538  0.45645398  1
  Sn  Sn12  1  0.75000000  0.96009462  0.54354602  1
  Sn  Sn13  1  0.75000000  0.87803669  0.29823573  1
  Sn  Sn14  1  0.75000000  0.03577845  0.95661465  1
  Sn  Sn15  1  0.25000000  0.46422155  0.45661465  1
  Sn  Sn16  1  0.75000000  0.53577845  0.54338535  1
  Sn  Sn17  1  0.25000000  0.28789270  0.86898001  1
  Sn  Sn18  1  0.75000000  0.71210730  0.13101999  1
  Sn  Sn19  1  0.25000000  0.78789270  0.63101999  1
  Sn  Sn20  1  0.75000000  0.40750539  0.65305901  1
  Sn  Sn21  1  0.25000000  0.12196331  0.70176427  1
  Sn  Sn22  1  0.75000000  0.37803669  0.20176427  1
  Sn  Sn23  1  0.25000000  0.62196331  0.79823573  1
  Sn  Sn24  1  0.25000000  0.09249461  0.15305901  1
  Sn  Sn25  1  0.25000000  0.59249461  0.34694099  1
  Sn  Sn26  1  0.75000000  0.90750539  0.84694099  1
  Sn  Sn27  1  0.75000000  0.21210730  0.36898001  1
  Pt  Pt28  1  0.75000000  0.50043636  0.29957613  1
  Pt  Pt29  1  0.25000000  0.24394092  0.97259996  1
  Pt  Pt30  1  0.75000000  0.75605908  0.02740004  1
  Pt  Pt31  1  0.25000000  0.74394092  0.52740004  1
  Pt  Pt32  1  0.75000000  0.25605908  0.47259996  1
  Pt  Pt33  1  0.25000000  0.45960460  0.14280676  1
  Pt  Pt34  1  0.75000000  0.54039540  0.85719324  1
  Pt  Pt35  1  0.25000000  0.95960460  0.35719324  1
  Pt  Pt36  1  0.75000000  0.04039540  0.64280676  1
  Pt  Pt37  1  0.25000000  0.99956364  0.79957613  1
  Pt  Pt38  1  0.75000000  0.00043636  0.20042387  1
  Pt  Pt39  1  0.25000000  0.49956364  0.70042387  1
