# generated using pymatgen
data_Ge2SbO6
_symmetry_space_group_name_H-M   'P 1'
_cell_length_a   5.74505376
_cell_length_b   7.00139282
_cell_length_c   7.00139348
_cell_angle_alpha   84.66354200
_cell_angle_beta   76.13483382
_cell_angle_gamma   76.13482921
_symmetry_Int_Tables_number   1
_chemical_formula_structural   Ge2SbO6
_chemical_formula_sum   'Ge4 Sb2 O12'
_cell_volume   265.25815582
_cell_formula_units_Z   2
loop_
 _symmetry_equiv_pos_site_id
 _symmetry_equiv_pos_as_xyz
  1  'x, y, z'
loop_
 _atom_site_type_symbol
 _atom_site_label
 _atom_site_symmetry_multiplicity
 _atom_site_fract_x
 _atom_site_fract_y
 _atom_site_fract_z
 _atom_site_occupancy
  Ge  Ge0  1  0.75731712  0.38093725  0.21699868  1
  Ge  Ge1  1  0.74268288  0.78300132  0.61906275  1
  Ge  Ge2  1  0.24268288  0.61906275  0.78300132  1
  Ge  Ge3  1  0.25731712  0.21699868  0.38093725  1
  Sb  Sb4  1  0.75000000  0.88511707  0.11488293  1
  Sb  Sb5  1  0.25000000  0.11488293  0.88511707  1
  O  O6  1  0.49398380  0.33605672  0.38712313  1
  O  O7  1  0.00601620  0.61287687  0.66394328  1
  O  O8  1  0.50601620  0.66394328  0.61287687  1
  O  O9  1  0.99398380  0.38712313  0.33605672  1
  O  O10  1  0.19045319  0.09819612  0.61348174  1
  O  O11  1  0.30954681  0.38651926  0.90180388  1
  O  O12  1  0.80954681  0.90180388  0.38651926  1
  O  O13  1  0.69045319  0.61348174  0.09819612  1
  O  O14  1  0.87305639  0.17815700  0.04830978  1
  O  O15  1  0.62694361  0.95169022  0.82184300  1
  O  O16  1  0.12694361  0.82184300  0.95169022  1
  O  O17  1  0.37305639  0.04830978  0.17815700  1
