# generated using pymatgen
data_CeGe3Pd5
_symmetry_space_group_name_H-M   'P 1'
_cell_length_a   4.15027954
_cell_length_b   7.34402556
_cell_length_c   20.35038950
_cell_angle_alpha   90.00000000
_cell_angle_beta   90.00000000
_cell_angle_gamma   90.00000000
_symmetry_Int_Tables_number   1
_chemical_formula_structural   CeGe3Pd5
_chemical_formula_sum   'Ce4 Ge12 Pd20'
_cell_volume   620.27496798
_cell_formula_units_Z   4
loop_
 _symmetry_equiv_pos_site_id
 _symmetry_equiv_pos_as_xyz
  1  'x, y, z'
loop_
 _atom_site_type_symbol
 _atom_site_label
 _atom_site_symmetry_multiplicity
 _atom_site_fract_x
 _atom_site_fract_y
 _atom_site_fract_z
 _atom_site_occupancy
  Ce  Ce0  1  0.75000000  0.37684513  0.35548641  1
  Ce  Ce1  1  0.75000000  0.12315487  0.85548641  1
  Ce  Ce2  1  0.25000000  0.62315487  0.64451359  1
  Ce  Ce3  1  0.25000000  0.87684513  0.14451359  1
  Ge  Ge4  1  0.25000000  0.37745490  0.23827867  1
  Ge  Ge5  1  0.75000000  0.14915526  0.07599346  1
  Ge  Ge6  1  0.75000000  0.90567729  0.58596353  1
  Ge  Ge7  1  0.75000000  0.87745490  0.26172133  1
  Ge  Ge8  1  0.75000000  0.59432271  0.08596353  1
  Ge  Ge9  1  0.25000000  0.85084474  0.92400654  1
  Ge  Ge10  1  0.25000000  0.12254510  0.73827867  1
  Ge  Ge11  1  0.25000000  0.40567729  0.91403647  1
  Ge  Ge12  1  0.25000000  0.09432271  0.41403647  1
  Ge  Ge13  1  0.75000000  0.35084474  0.57599346  1
  Ge  Ge14  1  0.75000000  0.62254510  0.76172133  1
  Ge  Ge15  1  0.25000000  0.64915526  0.42400654  1
  Pd  Pd16  1  0.75000000  0.12082933  0.48560176  1
  Pd  Pd17  1  0.25000000  0.82289983  0.80043179  1
  Pd  Pd18  1  0.25000000  0.67710017  0.30043179  1
  Pd  Pd19  1  0.75000000  0.64568592  0.88405795  1
  Pd  Pd20  1  0.25000000  0.14568592  0.61594205  1
  Pd  Pd21  1  0.25000000  0.12850189  0.99446985  1
  Pd  Pd22  1  0.75000000  0.17710017  0.19956821  1
  Pd  Pd23  1  0.25000000  0.35431408  0.11594205  1
  Pd  Pd24  1  0.75000000  0.85431408  0.38405795  1
  Pd  Pd25  1  0.25000000  0.42669047  0.79394241  1
  Pd  Pd26  1  0.25000000  0.87917067  0.51439824  1
  Pd  Pd27  1  0.75000000  0.62850189  0.50553015  1
  Pd  Pd28  1  0.75000000  0.37917067  0.98560176  1
  Pd  Pd29  1  0.25000000  0.37149811  0.49446985  1
  Pd  Pd30  1  0.25000000  0.07330953  0.29394241  1
  Pd  Pd31  1  0.75000000  0.57330953  0.20605759  1
  Pd  Pd32  1  0.75000000  0.92669047  0.70605759  1
  Pd  Pd33  1  0.75000000  0.32289983  0.69956821  1
  Pd  Pd34  1  0.75000000  0.87149811  0.00553015  1
  Pd  Pd35  1  0.25000000  0.62082933  0.01439824  1
