# generated using pymatgen
data_La2TeO6
_symmetry_space_group_name_H-M   'P 1'
_cell_length_a   5.65435766
_cell_length_b   5.65435770
_cell_length_c   5.65435817
_cell_angle_alpha   63.01638951
_cell_angle_beta   63.01638937
_cell_angle_gamma   63.01639334
_symmetry_Int_Tables_number   1
_chemical_formula_structural   La2TeO6
_chemical_formula_sum   'La2 Te1 O6'
_cell_volume   136.38976130
_cell_formula_units_Z   1
loop_
 _symmetry_equiv_pos_site_id
 _symmetry_equiv_pos_as_xyz
  1  'x, y, z'
loop_
 _atom_site_type_symbol
 _atom_site_label
 _atom_site_symmetry_multiplicity
 _atom_site_fract_x
 _atom_site_fract_y
 _atom_site_fract_z
 _atom_site_occupancy
  La  La0  1  0.75159704  0.75159704  0.75159704  1
  La  La1  1  0.24840296  0.24840296  0.24840296  1
  Te  Te2  1  -0.00000000  0.00000000  0.00000000  1
  O  O3  1  0.32677031  0.79247134  0.12725616  1
  O  O4  1  0.79247134  0.12725616  0.32677031  1
  O  O5  1  0.12725616  0.32677031  0.79247135  1
  O  O6  1  0.67322969  0.20752866  0.87274384  1
  O  O7  1  0.87274384  0.67322969  0.20752865  1
  O  O8  1  0.20752866  0.87274384  0.67322969  1
