# generated using pymatgen
data_HoSiRu
_symmetry_space_group_name_H-M   'P 1'
_cell_length_a   4.31842029
_cell_length_b   6.95403222
_cell_length_c   7.14811605
_cell_angle_alpha   90.00000000
_cell_angle_beta   90.00000000
_cell_angle_gamma   90.00000000
_symmetry_Int_Tables_number   1
_chemical_formula_structural   HoSiRu
_chemical_formula_sum   'Ho4 Si4 Ru4'
_cell_volume   214.66102609
_cell_formula_units_Z   4
loop_
 _symmetry_equiv_pos_site_id
 _symmetry_equiv_pos_as_xyz
  1  'x, y, z'
loop_
 _atom_site_type_symbol
 _atom_site_label
 _atom_site_symmetry_multiplicity
 _atom_site_fract_x
 _atom_site_fract_y
 _atom_site_fract_z
 _atom_site_occupancy
  Ho  Ho0  1  0.75000000  0.01163647  0.81227591  1
  Ho  Ho1  1  0.75000000  0.51163647  0.68772409  1
  Ho  Ho2  1  0.25000000  0.98836353  0.18772409  1
  Ho  Ho3  1  0.25000000  0.48836353  0.31227591  1
  Si  Si4  1  0.25000000  0.30312143  0.89333353  1
  Si  Si5  1  0.75000000  0.19687857  0.39333353  1
  Si  Si6  1  0.25000000  0.80312143  0.60666647  1
  Si  Si7  1  0.75000000  0.69687857  0.10666647  1
  Ru  Ru8  1  0.25000000  0.15446472  0.56588382  1
  Ru  Ru9  1  0.25000000  0.65446472  0.93411618  1
  Ru  Ru10  1  0.75000000  0.34553528  0.06588382  1
  Ru  Ru11  1  0.75000000  0.84553528  0.43411618  1
