# generated using pymatgen
data_Tb2Fe3Si5
_symmetry_space_group_name_H-M   'P 1'
_cell_length_a   5.50191777
_cell_length_b   10.39662241
_cell_length_c   10.39662241
_cell_angle_alpha   90.00000000
_cell_angle_beta   90.00000000
_cell_angle_gamma   90.00000000
_symmetry_Int_Tables_number   1
_chemical_formula_structural   Tb2Fe3Si5
_chemical_formula_sum   'Tb8 Fe12 Si20'
_cell_volume   594.70095774
_cell_formula_units_Z   4
loop_
 _symmetry_equiv_pos_site_id
 _symmetry_equiv_pos_as_xyz
  1  'x, y, z'
loop_
 _atom_site_type_symbol
 _atom_site_label
 _atom_site_symmetry_multiplicity
 _atom_site_fract_x
 _atom_site_fract_y
 _atom_site_fract_z
 _atom_site_occupancy
  Tb  Tb0  1  0.50000000  0.73611184  0.56968192  1
  Tb  Tb1  1  0.50000000  0.26388816  0.43031808  1
  Tb  Tb2  1  0.00000000  0.76388816  0.06968192  1
  Tb  Tb3  1  -0.00000000  0.23611184  0.93031808  1
  Tb  Tb4  1  0.50000000  0.56968192  0.26388816  1
  Tb  Tb5  1  0.50000000  0.43031808  0.73611184  1
  Tb  Tb6  1  -0.00000000  0.06968192  0.23611184  1
  Tb  Tb7  1  0.00000000  0.93031808  0.76388816  1
  Fe  Fe8  1  0.50000000  0.85473104  0.87725321  1
  Fe  Fe9  1  0.50000000  0.14526896  0.12274679  1
  Fe  Fe10  1  -0.00000000  0.64526896  0.37725321  1
  Fe  Fe11  1  0.00000000  0.35473104  0.62274679  1
  Fe  Fe12  1  0.50000000  0.87725321  0.14526896  1
  Fe  Fe13  1  0.50000000  0.12274679  0.85473104  1
  Fe  Fe14  1  -0.00000000  0.37725321  0.35473104  1
  Fe  Fe15  1  0.00000000  0.62274679  0.64526896  1
  Fe  Fe16  1  0.25000000  -0.00000000  0.50000000  1
  Fe  Fe17  1  0.75000000  0.50000000  -0.00000000  1
  Fe  Fe18  1  0.25000000  0.50000000  -0.00000000  1
  Fe  Fe19  1  0.75000000  0.00000000  0.50000000  1
  Si  Si20  1  0.25000000  0.17711885  0.67711885  1
  Si  Si21  1  0.25000000  0.82288115  0.32288115  1
  Si  Si22  1  0.75000000  0.32288115  0.17711885  1
  Si  Si23  1  0.75000000  0.67711885  0.82288115  1
  Si  Si24  1  0.25000000  0.67711885  0.82288115  1
  Si  Si25  1  0.25000000  0.32288115  0.17711885  1
  Si  Si26  1  0.75000000  0.17711885  0.67711885  1
  Si  Si27  1  0.75000000  0.82288115  0.32288115  1
  Si  Si28  1  0.22973228  0.50000000  0.50000000  1
  Si  Si29  1  0.72973228  -0.00000000  -0.00000000  1
  Si  Si30  1  0.77026772  0.50000000  0.50000000  1
  Si  Si31  1  0.27026772  0.00000000  -0.00000000  1
  Si  Si32  1  0.50000000  0.97848461  0.67998624  1
  Si  Si33  1  0.50000000  0.02151539  0.32001376  1
  Si  Si34  1  0.00000000  0.52151539  0.17998624  1
  Si  Si35  1  -0.00000000  0.47848461  0.82001376  1
  Si  Si36  1  0.50000000  0.67998624  0.02151539  1
  Si  Si37  1  0.50000000  0.32001376  0.97848461  1
  Si  Si38  1  -0.00000000  0.17998624  0.47848461  1
  Si  Si39  1  0.00000000  0.82001376  0.52151539  1
