# generated using pymatgen
data_FeBr3
_symmetry_space_group_name_H-M   'P 1'
_cell_length_a   7.38330559
_cell_length_b   7.38330573
_cell_length_c   7.38330566
_cell_angle_alpha   50.64565608
_cell_angle_beta   50.64566411
_cell_angle_gamma   50.64566059
_symmetry_Int_Tables_number   1
_chemical_formula_structural   FeBr3
_chemical_formula_sum   'Fe2 Br6'
_cell_volume   221.78960580
_cell_formula_units_Z   2
loop_
 _symmetry_equiv_pos_site_id
 _symmetry_equiv_pos_as_xyz
  1  'x, y, z'
loop_
 _atom_site_type_symbol
 _atom_site_label
 _atom_site_symmetry_multiplicity
 _atom_site_fract_x
 _atom_site_fract_y
 _atom_site_fract_z
 _atom_site_occupancy
  Fe  Fe0  1  0.33342613  0.33342613  0.33342613  1
  Fe  Fe1  1  0.66657387  0.66657387  0.66657387  1
  Br  Br2  1  0.70167674  0.44140501  0.07134424  1
  Br  Br3  1  0.07134424  0.70167674  0.44140501  1
  Br  Br4  1  0.44140500  0.07134424  0.70167674  1
  Br  Br5  1  0.29832326  0.55859499  0.92865576  1
  Br  Br6  1  0.92865576  0.29832326  0.55859499  1
  Br  Br7  1  0.55859500  0.92865576  0.29832326  1
