# generated using pymatgen
data_CaZnAsHO5
_symmetry_space_group_name_H-M   'P 1'
_cell_length_a   6.02418589
_cell_length_b   7.60378958
_cell_length_c   9.16605877
_cell_angle_alpha   90.00000000
_cell_angle_beta   90.00000000
_cell_angle_gamma   90.00000000
_symmetry_Int_Tables_number   1
_chemical_formula_structural   CaZnAsHO5
_chemical_formula_sum   'Ca4 Zn4 As4 H4 O20'
_cell_volume   419.86637170
_cell_formula_units_Z   4
loop_
 _symmetry_equiv_pos_site_id
 _symmetry_equiv_pos_as_xyz
  1  'x, y, z'
loop_
 _atom_site_type_symbol
 _atom_site_label
 _atom_site_symmetry_multiplicity
 _atom_site_fract_x
 _atom_site_fract_y
 _atom_site_fract_z
 _atom_site_occupancy
  H  H0  1  0.97854241  0.00588434  0.97949059  1
  H  H1  1  0.47854241  0.49411566  0.02050941  1
  H  H2  1  0.02145759  0.50588434  0.52050941  1
  H  H3  1  0.52145759  0.99411566  0.47949059  1
  O  O4  1  0.99163651  0.89173101  0.92717583  1
  O  O5  1  0.49163651  0.60826899  0.07282417  1
  O  O6  1  0.00836349  0.39173101  0.57282417  1
  O  O7  1  0.50836349  0.10826899  0.42717583  1
  O  O8  1  0.74521835  0.60531074  0.78913879  1
  O  O9  1  0.24521835  0.89468926  0.21086121  1
  O  O10  1  0.25478165  0.10531074  0.71086121  1
  O  O11  1  0.75478165  0.39468926  0.28913879  1
  O  O12  1  0.48942142  0.44954333  0.55453109  1
  O  O13  1  0.98942142  0.05045667  0.44546891  1
  O  O14  1  0.51057858  0.94954333  0.94546891  1
  O  O15  1  0.01057858  0.55045667  0.05453109  1
  O  O16  1  0.59120411  0.79495017  0.56010275  1
  O  O17  1  0.09120411  0.70504983  0.43989725  1
  O  O18  1  0.40879589  0.29495017  0.93989725  1
  O  O19  1  0.90879589  0.20504983  0.06010275  1
  O  O20  1  0.23128370  0.34792812  0.26708737  1
  O  O21  1  0.73128370  0.15207188  0.73291263  1
  O  O22  1  0.76871630  0.84792812  0.23291263  1
  O  O23  1  0.26871630  0.65207188  0.76708737  1
  Ca  Ca24  1  0.02349542  0.36912170  0.82736688  1
  Ca  Ca25  1  0.52349542  0.13087830  0.17263312  1
  Ca  Ca26  1  0.97650458  0.86912170  0.67263312  1
  Ca  Ca27  1  0.47650458  0.63087830  0.32736688  1
  Zn  Zn28  1  0.25846725  0.76517542  0.99337833  1
  Zn  Zn29  1  0.75846725  0.73482458  0.00662167  1
  Zn  Zn30  1  0.74153275  0.26517542  0.50662167  1
  Zn  Zn31  1  0.24153275  0.23482458  0.49337833  1
  As  As32  1  0.98264177  0.37452531  0.17523014  1
  As  As33  1  0.48264177  0.12547469  0.82476986  1
  As  As34  1  0.01735823  0.87452531  0.32476986  1
  As  As35  1  0.51735823  0.62547469  0.67523014  1
