# generated using pymatgen
data_Er(IO3)3
_symmetry_space_group_name_H-M   'P 1'
_cell_length_a   6.15793796
_cell_length_b   8.76959295
_cell_length_c   15.27464047
_cell_angle_alpha   96.64965611
_cell_angle_beta   90.00000000
_cell_angle_gamma   90.00000000
_symmetry_Int_Tables_number   1
_chemical_formula_structural   Er(IO3)3
_chemical_formula_sum   'Er4 I12 O36'
_cell_volume   819.32135750
_cell_formula_units_Z   4
loop_
 _symmetry_equiv_pos_site_id
 _symmetry_equiv_pos_as_xyz
  1  'x, y, z'
loop_
 _atom_site_type_symbol
 _atom_site_label
 _atom_site_symmetry_multiplicity
 _atom_site_fract_x
 _atom_site_fract_y
 _atom_site_fract_z
 _atom_site_occupancy
  O  O0  1  0.89466880  0.07380989  0.66910561  1
  O  O1  1  0.39466880  0.42619011  0.83089439  1
  O  O2  1  0.10533120  0.92619011  0.33089439  1
  O  O3  1  0.60533120  0.57380989  0.16910561  1
  O  O4  1  0.63600411  0.14474328  0.52465222  1
  O  O5  1  0.13600411  0.35525672  0.97534778  1
  O  O6  1  0.36399589  0.85525672  0.47534778  1
  O  O7  1  0.86399589  0.64474328  0.02465222  1
  O  O8  1  0.44678637  0.12449310  0.68304485  1
  O  O9  1  0.94678637  0.37550690  0.81695515  1
  O  O10  1  0.55321363  0.87550690  0.31695515  1
  O  O11  1  0.05321363  0.62449310  0.18304485  1
  O  O12  1  0.98590957  0.72586315  0.86434627  1
  O  O13  1  0.48590957  0.77413685  0.63565373  1
  O  O14  1  0.01409043  0.27413685  0.13565373  1
  O  O15  1  0.51409043  0.22586315  0.36434627  1
  O  O16  1  0.47330517  0.22863040  0.11578432  1
  O  O17  1  0.97330517  0.27136960  0.38421568  1
  O  O18  1  0.52669483  0.77136960  0.88421568  1
  O  O19  1  0.02669483  0.72863040  0.61578432  1
  O  O20  1  0.36915046  0.63978756  0.01654881  1
  O  O21  1  0.86915046  0.86021244  0.48345119  1
  O  O22  1  0.63084954  0.36021244  0.98345119  1
  O  O23  1  0.13084954  0.13978756  0.51654881  1
  O  O24  1  0.43188416  0.08755535  0.94014817  1
  O  O25  1  0.93188416  0.41244465  0.55985183  1
  O  O26  1  0.56811584  0.91244465  0.05985183  1
  O  O27  1  0.06811584  0.58755535  0.44014817  1
  O  O28  1  0.32487569  0.41224833  0.25559205  1
  O  O29  1  0.82487569  0.08775167  0.24440795  1
  O  O30  1  0.67512431  0.58775167  0.74440795  1
  O  O31  1  0.17512431  0.91224833  0.75559205  1
  O  O32  1  0.58276296  0.54717090  0.38913183  1
  O  O33  1  0.08276296  0.95282910  0.11086817  1
  O  O34  1  0.41723704  0.45282910  0.61086817  1
  O  O35  1  0.91723704  0.04717090  0.88913183  1
  I  I36  1  0.68875627  0.21369797  0.63953132  1
  I  I37  1  0.18875627  0.28630203  0.86046868  1
  I  I38  1  0.31124373  0.78630203  0.36046868  1
  I  I39  1  0.81124373  0.71369797  0.13953132  1
  I  I40  1  0.90449271  0.88420667  0.80204253  1
  I  I41  1  0.40449271  0.61579333  0.69795747  1
  I  I42  1  0.09550729  0.11579333  0.19795747  1
  I  I43  1  0.59550729  0.38420667  0.30204253  1
  I  I44  1  0.85441139  0.66608557  0.51932455  1
  I  I45  1  0.35441139  0.83391443  0.98067545  1
  I  I46  1  0.14558861  0.33391443  0.48067545  1
  I  I47  1  0.64558861  0.16608557  0.01932455  1
  Er  Er48  1  0.21130909  0.95751978  0.60621316  1
  Er  Er49  1  0.71130909  0.54248022  0.89378684  1
  Er  Er50  1  0.78869091  0.04248022  0.39378684  1
  Er  Er51  1  0.28869091  0.45751978  0.10621316  1
