# generated using pymatgen
data_Zn(IO3)2
_symmetry_space_group_name_H-M   'P 1'
_cell_length_a   5.33909033
_cell_length_b   5.55175166
_cell_length_c   9.46923815
_cell_angle_alpha   90.42580121
_cell_angle_beta   90.00000000
_cell_angle_gamma   90.00000000
_symmetry_Int_Tables_number   1
_chemical_formula_structural   Zn(IO3)2
_chemical_formula_sum   'Zn2 I4 O12'
_cell_volume   280.67281223
_cell_formula_units_Z   2
loop_
 _symmetry_equiv_pos_site_id
 _symmetry_equiv_pos_as_xyz
  1  'x, y, z'
loop_
 _atom_site_type_symbol
 _atom_site_label
 _atom_site_symmetry_multiplicity
 _atom_site_fract_x
 _atom_site_fract_y
 _atom_site_fract_z
 _atom_site_occupancy
  O  O0  1  0.69768187  0.55307043  0.40072506  1
  O  O1  1  0.19768187  0.44692957  0.59927494  1
  O  O2  1  0.62992343  0.14365357  0.56670978  1
  O  O3  1  0.12992343  0.85634643  0.43329022  1
  O  O4  1  0.70249983  0.09269004  0.27234560  1
  O  O5  1  0.20249983  0.90730996  0.72765440  1
  O  O6  1  0.19898508  0.34884892  0.91922052  1
  O  O7  1  0.69898508  0.65115108  0.08077948  1
  O  O8  1  0.13514450  0.46433499  0.19909562  1
  O  O9  1  0.63514450  0.53566501  0.80090438  1
  O  O10  1  0.14701642  0.98196007  0.11954048  1
  O  O11  1  0.64701642  0.01803993  0.88045952  1
  Zn  Zn12  1  0.92019170  0.76758209  0.25396870  1
  Zn  Zn13  1  0.42019170  0.23241791  0.74603130  1
  I  I14  1  0.49003454  0.73647876  0.93398653  1
  I  I15  1  0.99003454  0.26352124  0.06601347  1
  I  I16  1  0.01552262  0.72911553  0.60023718  1
  I  I17  1  0.51552262  0.27088447  0.39976282  1
