# generated using pymatgen
data_ZnFe4(CuO4)3
_symmetry_space_group_name_H-M   'P 1'
_cell_length_a   6.41551493
_cell_length_b   6.41553949
_cell_length_c   6.41557416
_cell_angle_alpha   109.46481431
_cell_angle_beta   109.46392437
_cell_angle_gamma   109.48299848
_symmetry_Int_Tables_number   1
_chemical_formula_structural   ZnFe4(CuO4)3
_chemical_formula_sum   'Zn1 Fe4 Cu3 O12'
_cell_volume   203.27718879
_cell_formula_units_Z   1
loop_
 _symmetry_equiv_pos_site_id
 _symmetry_equiv_pos_as_xyz
  1  'x, y, z'
loop_
 _atom_site_type_symbol
 _atom_site_label
 _atom_site_symmetry_multiplicity
 _atom_site_fract_x
 _atom_site_fract_y
 _atom_site_fract_z
 _atom_site_occupancy
  Zn  Zn0  1  0.99999544  0.99998650  0.99998729  1
  Fe  Fe1  1  -0.00000722  -0.00000096  0.49999047  1
  Fe  Fe2  1  -0.00000228  0.49999679  0.00000023  1
  Fe  Fe3  1  0.50000503  0.50000236  0.49999935  1
  Fe  Fe4  1  0.50000872  0.99999344  0.00000453  1
  Cu  Cu5  1  0.50000027  0.49999126  -0.00000470  1
  Cu  Cu6  1  -0.00001138  0.50001351  0.50000739  1
  Cu  Cu7  1  0.50000836  0.00001060  0.50001542  1
  O  O8  1  0.83193777  0.31187832  0.14381417  1
  O  O9  1  0.16806430  0.68812948  0.85619744  1
  O  O10  1  0.83190422  0.68810859  0.52004028  1
  O  O11  1  0.31180804  0.47984980  0.16807454  1
  O  O12  1  0.47990913  0.16808599  0.31185470  1
  O  O13  1  0.14377598  0.83192486  0.31184317  1
  O  O14  1  0.68821631  0.85626511  0.16805949  1
  O  O15  1  0.52008782  0.83191233  0.68813773  1
  O  O16  1  0.16809505  0.31190293  0.47996509  1
  O  O17  1  0.68819615  0.52015019  0.83192249  1
  O  O18  1  0.85622314  0.16807370  0.68815604  1
  O  O19  1  0.31178414  0.14372621  0.83193485  1
