# generated using pymatgen
data_NaAlH24(SO10)2
_symmetry_space_group_name_H-M   'P 1'
_cell_length_a   12.27965978
_cell_length_b   12.27965978
_cell_length_c   12.27965978
_cell_angle_alpha   90.00000000
_cell_angle_beta   90.00000000
_cell_angle_gamma   90.00000000
_symmetry_Int_Tables_number   1
_chemical_formula_structural   NaAlH24(SO10)2
_chemical_formula_sum   'Na4 Al4 H96 S8 O80'
_cell_volume   1851.65044237
_cell_formula_units_Z   4
loop_
 _symmetry_equiv_pos_site_id
 _symmetry_equiv_pos_as_xyz
  1  'x, y, z'
loop_
 _atom_site_type_symbol
 _atom_site_label
 _atom_site_symmetry_multiplicity
 _atom_site_fract_x
 _atom_site_fract_y
 _atom_site_fract_z
 _atom_site_occupancy
  H  H0  1  0.09042917  0.34304142  0.38822124  1
  H  H1  1  0.59042917  0.15695858  0.61177876  1
  H  H2  1  0.90957083  0.84304142  0.11177876  1
  H  H3  1  0.15695858  0.61177876  0.59042917  1
  H  H4  1  0.11177876  0.90957083  0.84304142  1
  H  H5  1  0.61177876  0.59042917  0.15695858  1
  H  H6  1  0.34304142  0.38822124  0.09042917  1
  H  H7  1  0.38822124  0.09042917  0.34304142  1
  H  H8  1  0.84304142  0.11177876  0.90957083  1
  H  H9  1  0.65695858  0.88822124  0.40957083  1
  H  H10  1  0.88822124  0.40957083  0.65695858  1
  H  H11  1  0.40957083  0.65695858  0.88822124  1
  H  H12  1  0.90957083  0.65695858  0.61177876  1
  H  H13  1  0.40957083  0.84304142  0.38822124  1
  H  H14  1  0.09042917  0.15695858  0.88822124  1
  H  H15  1  0.84304142  0.38822124  0.40957083  1
  H  H16  1  0.88822124  0.09042917  0.15695858  1
  H  H17  1  0.38822124  0.40957083  0.84304142  1
  H  H18  1  0.65695858  0.61177876  0.90957083  1
  H  H19  1  0.61177876  0.90957083  0.65695858  1
  H  H20  1  0.15695858  0.88822124  0.09042917  1
  H  H21  1  0.34304142  0.11177876  0.59042917  1
  H  H22  1  0.11177876  0.59042917  0.34304142  1
  H  H23  1  0.59042917  0.34304142  0.11177876  1
  H  H24  1  0.05136360  0.20711786  0.00699443  1
  H  H25  1  0.55136360  0.29288214  0.99300557  1
  H  H26  1  0.94863640  0.70711786  0.49300557  1
  H  H27  1  0.29288214  0.99300557  0.55136360  1
  H  H28  1  0.49300557  0.94863640  0.70711786  1
  H  H29  1  0.99300557  0.55136360  0.29288214  1
  H  H30  1  0.20711786  0.00699443  0.05136360  1
  H  H31  1  0.00699443  0.05136360  0.20711786  1
  H  H32  1  0.70711786  0.49300557  0.94863640  1
  H  H33  1  0.79288214  0.50699443  0.44863640  1
  H  H34  1  0.50699443  0.44863640  0.79288214  1
  H  H35  1  0.44863640  0.79288214  0.50699443  1
  H  H36  1  0.94863640  0.79288214  0.99300557  1
  H  H37  1  0.44863640  0.70711786  0.00699443  1
  H  H38  1  0.05136360  0.29288214  0.50699443  1
  H  H39  1  0.70711786  0.00699443  0.44863640  1
  H  H40  1  0.50699443  0.05136360  0.29288214  1
  H  H41  1  0.00699443  0.44863640  0.70711786  1
  H  H42  1  0.79288214  0.99300557  0.94863640  1
  H  H43  1  0.99300557  0.94863640  0.79288214  1
  H  H44  1  0.29288214  0.50699443  0.05136360  1
  H  H45  1  0.20711786  0.49300557  0.55136360  1
  H  H46  1  0.49300557  0.55136360  0.20711786  1
  H  H47  1  0.58835498  0.31388453  0.35749685  1
  H  H48  1  0.96512415  0.30825684  0.11293172  1
  H  H49  1  0.46512415  0.19174316  0.88706828  1
  H  H50  1  0.03487585  0.80825684  0.38706828  1
  H  H51  1  0.19174316  0.88706828  0.46512415  1
  H  H52  1  0.38706828  0.03487585  0.80825684  1
  H  H53  1  0.88706828  0.46512415  0.19174316  1
  H  H54  1  0.30825684  0.11293172  0.96512415  1
  H  H55  1  0.11293172  0.96512415  0.30825684  1
  H  H56  1  0.80825684  0.38706828  0.03487585  1
  H  H57  1  0.69174316  0.61293172  0.53487585  1
  H  H58  1  0.61293172  0.53487585  0.69174316  1
  H  H59  1  0.53487585  0.69174316  0.61293172  1
  H  H60  1  0.03487585  0.69174316  0.88706828  1
  H  H61  1  0.53487585  0.80825684  0.11293172  1
  H  H62  1  0.96512415  0.19174316  0.61293172  1
  H  H63  1  0.80825684  0.11293172  0.53487585  1
  H  H64  1  0.61293172  0.96512415  0.19174316  1
  H  H65  1  0.11293172  0.53487585  0.80825684  1
  H  H66  1  0.69174316  0.88706828  0.03487585  1
  H  H67  1  0.88706828  0.03487585  0.69174316  1
  H  H68  1  0.19174316  0.61293172  0.96512415  1
  H  H69  1  0.30825684  0.38706828  0.46512415  1
  H  H70  1  0.38706828  0.46512415  0.30825684  1
  H  H71  1  0.46512415  0.30825684  0.38706828  1
  H  H72  1  0.08835498  0.31388453  0.14250315  1
  H  H73  1  0.58835498  0.18611547  0.85749685  1
  H  H74  1  0.91164502  0.81388453  0.35749685  1
  H  H75  1  0.18611547  0.85749685  0.58835498  1
  H  H76  1  0.35749685  0.91164502  0.81388453  1
  H  H77  1  0.85749685  0.58835498  0.18611547  1
  H  H78  1  0.31388453  0.14250315  0.08835498  1
  H  H79  1  0.14250315  0.08835498  0.31388453  1
  H  H80  1  0.81388453  0.35749685  0.91164502  1
  H  H81  1  0.68611547  0.64250315  0.41164502  1
  H  H82  1  0.64250315  0.41164502  0.68611547  1
  H  H83  1  0.41164502  0.68611547  0.64250315  1
  H  H84  1  0.91164502  0.68611547  0.85749685  1
  H  H85  1  0.41164502  0.81388453  0.14250315  1
  H  H86  1  0.08835498  0.18611547  0.64250315  1
  H  H87  1  0.81388453  0.14250315  0.41164502  1
  H  H88  1  0.64250315  0.08835498  0.18611547  1
  H  H89  1  0.14250315  0.41164502  0.81388453  1
  H  H90  1  0.68611547  0.85749685  0.91164502  1
  H  H91  1  0.85749685  0.91164502  0.68611547  1
  H  H92  1  0.18611547  0.64250315  0.08835498  1
  H  H93  1  0.31388453  0.35749685  0.58835498  1
  H  H94  1  0.35749685  0.58835498  0.31388453  1
  H  H95  1  0.55136360  0.20711786  0.49300557  1
  O  O96  1  0.63889453  0.96012853  0.44307615  1
  O  O97  1  0.13889453  0.53987147  0.55692385  1
  O  O98  1  0.36110547  0.46012853  0.05692385  1
  O  O99  1  0.53987147  0.55692385  0.13889453  1
  O  O100  1  0.05692385  0.36110547  0.46012853  1
  O  O101  1  0.55692385  0.13889453  0.53987147  1
  O  O102  1  0.96012853  0.44307615  0.63889453  1
  O  O103  1  0.44307615  0.63889453  0.96012853  1
  O  O104  1  0.46012853  0.05692385  0.36110547  1
  O  O105  1  0.03987147  0.94307615  0.86110547  1
  O  O106  1  0.94307615  0.86110547  0.03987147  1
  O  O107  1  0.86110547  0.03987147  0.94307615  1
  O  O108  1  0.36110547  0.03987147  0.55692385  1
  O  O109  1  0.86110547  0.46012853  0.44307615  1
  O  O110  1  0.63889453  0.53987147  0.94307615  1
  O  O111  1  0.46012853  0.44307615  0.86110547  1
  O  O112  1  0.94307615  0.63889453  0.53987147  1
  O  O113  1  0.44307615  0.86110547  0.46012853  1
  O  O114  1  0.03987147  0.55692385  0.36110547  1
  O  O115  1  0.55692385  0.36110547  0.03987147  1
  O  O116  1  0.53987147  0.94307615  0.63889453  1
  O  O117  1  0.96012853  0.05692385  0.13889453  1
  O  O118  1  0.05692385  0.13889453  0.96012853  1
  O  O119  1  0.13889453  0.96012853  0.05692385  1
  O  O120  1  0.57877105  0.03812927  0.18474386  1
  O  O121  1  0.07877105  0.46187073  0.81525614  1
  O  O122  1  0.42122895  0.53812927  0.31525614  1
  O  O123  1  0.46187073  0.81525614  0.07877105  1
  O  O124  1  0.31525614  0.42122895  0.53812927  1
  O  O125  1  0.81525614  0.07877105  0.46187073  1
  O  O126  1  0.03812927  0.18474386  0.57877105  1
  O  O127  1  0.18474386  0.57877105  0.03812927  1
  O  O128  1  0.53812927  0.31525614  0.42122895  1
  O  O129  1  0.96187073  0.68474386  0.92122895  1
  O  O130  1  0.68474386  0.92122895  0.96187073  1
  O  O131  1  0.92122895  0.96187073  0.68474386  1
  O  O132  1  0.42122895  0.96187073  0.81525614  1
  O  O133  1  0.92122895  0.53812927  0.18474386  1
  O  O134  1  0.57877105  0.46187073  0.68474386  1
  O  O135  1  0.53812927  0.18474386  0.92122895  1
  O  O136  1  0.68474386  0.57877105  0.46187073  1
  O  O137  1  0.18474386  0.92122895  0.53812927  1
  O  O138  1  0.96187073  0.81525614  0.42122895  1
  O  O139  1  0.81525614  0.42122895  0.96187073  1
  O  O140  1  0.46187073  0.68474386  0.57877105  1
  O  O141  1  0.03812927  0.31525614  0.07877105  1
  O  O142  1  0.31525614  0.07877105  0.03812927  1
  O  O143  1  0.07877105  0.03812927  0.31525614  1
  O  O144  1  0.80777151  0.26927795  0.34800415  1
  O  O145  1  0.30777151  0.23072205  0.65199585  1
  O  O146  1  0.19222849  0.76927795  0.15199585  1
  O  O147  1  0.23072205  0.65199585  0.30777151  1
  O  O148  1  0.15199585  0.19222849  0.76927795  1
  O  O149  1  0.65199585  0.30777151  0.23072205  1
  O  O150  1  0.26927795  0.34800415  0.80777151  1
  O  O151  1  0.34800415  0.80777151  0.26927795  1
  O  O152  1  0.76927795  0.15199585  0.19222849  1
  O  O153  1  0.73072205  0.84800415  0.69222849  1
  O  O154  1  0.84800415  0.69222849  0.73072205  1
  O  O155  1  0.69222849  0.73072205  0.84800415  1
  O  O156  1  0.19222849  0.73072205  0.65199585  1
  O  O157  1  0.69222849  0.76927795  0.34800415  1
  O  O158  1  0.80777151  0.23072205  0.84800415  1
  O  O159  1  0.76927795  0.34800415  0.69222849  1
  O  O160  1  0.84800415  0.80777151  0.23072205  1
  O  O161  1  0.34800415  0.69222849  0.76927795  1
  O  O162  1  0.73072205  0.65199585  0.19222849  1
  O  O163  1  0.65199585  0.19222849  0.73072205  1
  O  O164  1  0.23072205  0.84800415  0.80777151  1
  O  O165  1  0.26927795  0.15199585  0.30777151  1
  O  O166  1  0.15199585  0.30777151  0.26927795  1
  O  O167  1  0.30777151  0.26927795  0.15199585  1
  O  O168  1  0.33651360  0.33651360  0.33651360  1
  O  O169  1  0.16348640  0.83651360  0.33651360  1
  O  O170  1  0.83651360  0.33651360  0.16348640  1
  O  O171  1  0.66348640  0.66348640  0.66348640  1
  O  O172  1  0.66348640  0.83651360  0.16348640  1
  O  O173  1  0.83651360  0.16348640  0.66348640  1
  O  O174  1  0.16348640  0.66348640  0.83651360  1
  O  O175  1  0.33651360  0.16348640  0.83651360  1
  Na  Na176  1  0.50000000  0.50000000  0.50000000  1
  Na  Na177  1  0.00000000  0.50000000  0.00000000  1
  Na  Na178  1  0.00000000  0.00000000  0.50000000  1
  Na  Na179  1  0.50000000  0.00000000  0.00000000  1
  Al  Al180  1  0.00000000  0.00000000  0.00000000  1
  Al  Al181  1  0.50000000  0.00000000  0.50000000  1
  Al  Al182  1  0.50000000  0.50000000  0.00000000  1
  Al  Al183  1  0.00000000  0.50000000  0.50000000  1
  S  S184  1  0.26578862  0.26578862  0.26578862  1
  S  S185  1  0.23421138  0.73421138  0.76578862  1
  S  S186  1  0.76578862  0.23421138  0.73421138  1
  S  S187  1  0.73421138  0.76578862  0.23421138  1
  S  S188  1  0.73421138  0.73421138  0.73421138  1
  S  S189  1  0.76578862  0.26578862  0.23421138  1
  S  S190  1  0.23421138  0.76578862  0.26578862  1
  S  S191  1  0.26578862  0.23421138  0.76578862  1
