# generated using pymatgen
data_RbGdH2S2O9
_symmetry_space_group_name_H-M   'P 1'
_cell_length_a   8.41444734
_cell_length_b   10.36662482
_cell_length_c   10.93402105
_cell_angle_alpha   119.26408592
_cell_angle_beta   90.00000000
_cell_angle_gamma   90.00000000
_symmetry_Int_Tables_number   1
_chemical_formula_structural   RbGdH2S2O9
_chemical_formula_sum   'Rb4 Gd4 H8 S8 O36'
_cell_volume   832.04443602
_cell_formula_units_Z   4
loop_
 _symmetry_equiv_pos_site_id
 _symmetry_equiv_pos_as_xyz
  1  'x, y, z'
loop_
 _atom_site_type_symbol
 _atom_site_label
 _atom_site_symmetry_multiplicity
 _atom_site_fract_x
 _atom_site_fract_y
 _atom_site_fract_z
 _atom_site_occupancy
  H  H0  1  0.03009429  0.22608740  0.42343554  1
  H  H1  1  0.53009429  0.27391260  0.07656446  1
  H  H2  1  0.96990571  0.77391260  0.57656446  1
  H  H3  1  0.46990571  0.72608740  0.92343554  1
  H  H4  1  0.99399363  0.16782047  0.52668689  1
  H  H5  1  0.49399363  0.33217953  0.97331311  1
  H  H6  1  0.00600637  0.83217953  0.47331311  1
  H  H7  1  0.50600637  0.66782047  0.02668689  1
  O  O8  1  0.05829330  0.24306568  0.51683432  1
  O  O9  1  0.55829330  0.25693432  0.98316568  1
  O  O10  1  0.94170670  0.75693432  0.48316568  1
  O  O11  1  0.44170670  0.74306568  0.01683432  1
  O  O12  1  0.32004256  0.43382064  0.99031774  1
  O  O13  1  0.82004256  0.06617936  0.50968226  1
  O  O14  1  0.12156125  0.51485734  0.88084948  1
  O  O15  1  0.67995744  0.56617936  0.00968226  1
  O  O16  1  0.03521470  0.02532807  0.19570956  1
  O  O17  1  0.53521470  0.47467193  0.30429044  1
  O  O18  1  0.96478530  0.97467193  0.80429044  1
  O  O19  1  0.46478530  0.52532807  0.69570956  1
  O  O20  1  0.06319706  0.20064923  0.10591753  1
  O  O21  1  0.56319706  0.29935077  0.39408247  1
  O  O22  1  0.93680294  0.79935077  0.89408247  1
  O  O23  1  0.43680294  0.70064923  0.60591753  1
  O  O24  1  0.23268303  0.22547203  0.29218491  1
  O  O25  1  0.73268303  0.27452797  0.20781509  1
  O  O26  1  0.76731697  0.77452797  0.70781509  1
  O  O27  1  0.26731697  0.72547203  0.79218491  1
  O  O28  1  0.26123805  0.00833443  0.05688700  1
  O  O29  1  0.76123805  0.49166557  0.44311300  1
  O  O30  1  0.73876195  0.99166557  0.94311300  1
  O  O31  1  0.23876195  0.50833443  0.55688700  1
  O  O32  1  0.41887686  0.78679762  0.39180206  1
  O  O33  1  0.91887686  0.71320238  0.10819794  1
  O  O34  1  0.58112314  0.21320238  0.60819794  1
  O  O35  1  0.08112314  0.28679762  0.89180206  1
  O  O36  1  0.22214044  0.79339418  0.23726407  1
  O  O37  1  0.72214044  0.70660582  0.26273593  1
  O  O38  1  0.77785956  0.20660582  0.76273593  1
  O  O39  1  0.27785956  0.29339418  0.73726407  1
  O  O40  1  0.37843875  0.01485734  0.38084948  1
  O  O41  1  0.87843875  0.48514266  0.11915052  1
  O  O42  1  0.62156125  0.98514266  0.61915052  1
  O  O43  1  0.17995744  0.93382064  0.49031774  1
  S  S44  1  0.20113331  0.38358566  0.87712985  1
  S  S45  1  0.70113331  0.11641434  0.62287015  1
  S  S46  1  0.79886669  0.61641434  0.12287015  1
  S  S47  1  0.29886669  0.88358566  0.37712985  1
  S  S48  1  0.35175287  0.61640850  0.66387449  1
  S  S49  1  0.85175287  0.88359150  0.83612551  1
  S  S50  1  0.64824713  0.38359150  0.33612551  1
  S  S51  1  0.14824713  0.11640850  0.16387449  1
  Rb  Rb52  1  0.81200642  0.48473888  0.71725546  1
  Rb  Rb53  1  0.31200642  0.01526112  0.78274454  1
  Rb  Rb54  1  0.18799358  0.51526112  0.28274454  1
  Rb  Rb55  1  0.68799358  0.98473888  0.21725546  1
  Gd  Gd56  1  0.35031331  0.27384713  0.52418152  1
  Gd  Gd57  1  0.85031331  0.22615287  0.97581848  1
  Gd  Gd58  1  0.64968669  0.72615287  0.47581848  1
  Gd  Gd59  1  0.14968669  0.77384713  0.02418152  1
