# generated using pymatgen
data_RbZn2P2HO8
_symmetry_space_group_name_H-M   'P 1'
_cell_length_a   5.32866732
_cell_length_b   8.98167832
_cell_length_c   9.88787009
_cell_angle_alpha   75.27853095
_cell_angle_beta   77.57475718
_cell_angle_gamma   73.55920588
_symmetry_Int_Tables_number   1
_chemical_formula_structural   RbZn2P2HO8
_chemical_formula_sum   'Rb2 Zn4 P4 H2 O16'
_cell_volume   433.72237302
_cell_formula_units_Z   2
loop_
 _symmetry_equiv_pos_site_id
 _symmetry_equiv_pos_as_xyz
  1  'x, y, z'
loop_
 _atom_site_type_symbol
 _atom_site_label
 _atom_site_symmetry_multiplicity
 _atom_site_fract_x
 _atom_site_fract_y
 _atom_site_fract_z
 _atom_site_occupancy
  H  H0  1  0.05958853  0.92450553  0.90239295  1
  H  H1  1  0.94041147  0.07549447  0.09760705  1
  O  O2  1  0.96765784  0.89826274  0.18395927  1
  O  O3  1  0.03234216  0.10173726  0.81604073  1
  O  O4  1  0.06680662  0.80880559  0.94981933  1
  O  O5  1  0.93319338  0.19119441  0.05018067  1
  O  O6  1  0.64394346  0.11115719  0.38360490  1
  O  O7  1  0.35605654  0.88884281  0.61639510  1
  O  O8  1  0.95222004  0.22496076  0.47605776  1
  O  O9  1  0.04777996  0.77503924  0.52394224  1
  O  O10  1  0.59493670  0.29852820  0.88538603  1
  O  O11  1  0.40506330  0.70147180  0.11461397  1
  O  O12  1  0.42596398  0.59745115  0.65009803  1
  O  O13  1  0.57403602  0.40254885  0.34990197  1
  O  O14  1  0.46986272  0.23421269  0.59561705  1
  O  O15  1  0.53013728  0.76578731  0.40438295  1
  O  O16  1  0.02459801  0.38597698  0.82493762  1
  O  O17  1  0.97540199  0.61402302  0.17506238  1
  P  P18  1  0.10527535  0.75384539  0.11250679  1
  P  P19  1  0.89472465  0.24615461  0.88749321  1
  P  P20  1  0.66927814  0.24376552  0.44991613  1
  P  P21  1  0.33072186  0.75623448  0.55008387  1
  Zn  Zn22  1  0.80905658  0.88794269  0.38857319  1
  Zn  Zn23  1  0.19094342  0.11205731  0.61142681  1
  Zn  Zn24  1  0.61071888  0.61694231  0.27294498  1
  Zn  Zn25  1  0.38928112  0.38305769  0.72705502  1
  Rb  Rb26  1  0.70851336  0.70486758  0.82288851  1
  Rb  Rb27  1  0.29148664  0.29513242  0.17711149  1
