# generated using pymatgen
data_Mg(H2N)2
_symmetry_space_group_name_H-M   'P 1'
_cell_length_a   10.50319348
_cell_length_b   10.50319348
_cell_length_c   12.74655007
_cell_angle_alpha   114.33062309
_cell_angle_beta   114.33062307
_cell_angle_gamma   89.99999999
_symmetry_Int_Tables_number   1
_chemical_formula_structural   Mg(H2N)2
_chemical_formula_sum   'Mg16 H64 N32'
_cell_volume   1142.81247874
_cell_formula_units_Z   16
loop_
 _symmetry_equiv_pos_site_id
 _symmetry_equiv_pos_as_xyz
  1  'x, y, z'
loop_
 _atom_site_type_symbol
 _atom_site_label
 _atom_site_symmetry_multiplicity
 _atom_site_fract_x
 _atom_site_fract_y
 _atom_site_fract_z
 _atom_site_occupancy
  H  H0  1  0.05441674  0.63062539  0.69579723  1
  H  H1  1  0.93482816  0.85861951  0.80420277  1
  H  H2  1  0.86937461  0.44558326  0.80420277  1
  H  H3  1  0.85861951  0.86937461  0.30420277  1
  H  H4  1  0.44558326  0.93482816  0.30420277  1
  H  H5  1  0.56517184  0.05441674  0.19579723  1
  H  H6  1  0.63062539  0.64138049  0.19579723  1
  H  H7  1  0.64138049  0.56517184  0.69579723  1
  H  H8  1  0.94558326  0.36937461  0.30420277  1
  H  H9  1  0.06517184  0.14138049  0.19579723  1
  H  H10  1  0.13062539  0.55441674  0.19579723  1
  H  H11  1  0.14138049  0.13062539  0.69579723  1
  H  H12  1  0.55441674  0.06517184  0.69579723  1
  H  H13  1  0.43482816  0.94558326  0.80420277  1
  H  H14  1  0.36937461  0.35861951  0.80420277  1
  H  H15  1  0.35861951  0.43482816  0.30420277  1
  H  H16  1  0.11900471  0.57560951  0.80371283  1
  H  H17  1  0.77189669  0.81529188  0.69628717  1
  H  H18  1  0.92439049  0.38099529  0.69628717  1
  H  H19  1  0.81529188  0.92439049  0.19628717  1
  H  H20  1  0.38099529  0.77189669  0.19628717  1
  H  H21  1  0.72810331  0.11900471  0.30371283  1
  H  H22  1  0.57560951  0.68470812  0.30371283  1
  H  H23  1  0.68470812  0.72810331  0.80371283  1
  H  H24  1  0.88099529  0.42439049  0.19628717  1
  H  H25  1  0.22810331  0.18470812  0.30371283  1
  H  H26  1  0.07560951  0.61900471  0.30371283  1
  H  H27  1  0.95506136  0.28162611  0.44862278  1
  H  H28  1  0.18470812  0.07560951  0.80371283  1
  H  H29  1  0.27189669  0.88099529  0.69628717  1
  H  H30  1  0.42439049  0.31529188  0.69628717  1
  H  H31  1  0.31529188  0.27189669  0.19628717  1
  H  H32  1  0.82880641  0.47100020  0.54189266  1
  H  H33  1  0.92910754  0.78691375  0.95810734  1
  H  H34  1  0.02899980  0.67119359  0.95810734  1
  H  H35  1  0.78691375  0.02899980  0.45810734  1
  H  H36  1  0.67119359  0.92910754  0.45810734  1
  H  H37  1  0.57089246  0.82880641  0.04189266  1
  H  H38  1  0.47100020  0.71308625  0.04189266  1
  H  H39  1  0.71308625  0.57089246  0.54189266  1
  H  H40  1  0.17119359  0.52899980  0.45810734  1
  H  H41  1  0.07089246  0.21308625  0.04189266  1
  H  H42  1  0.97100020  0.32880641  0.04189266  1
  H  H43  1  0.21308625  0.97100020  0.54189266  1
  H  H44  1  0.32880641  0.07089246  0.54189266  1
  H  H45  1  0.42910754  0.17119359  0.95810734  1
  H  H46  1  0.52899980  0.28691375  0.95810734  1
  H  H47  1  0.28691375  0.42910754  0.45810734  1
  H  H48  1  0.50643859  0.33300334  0.55137722  1
  H  H49  1  0.71837389  0.50643859  0.05137722  1
  H  H50  1  0.33300334  0.04493864  0.05137722  1
  H  H51  1  0.45506136  0.16699666  0.44862278  1
  H  H52  1  0.99356141  0.78162611  0.44862278  1
  H  H53  1  0.78162611  0.45506136  0.94862278  1
  H  H54  1  0.16699666  0.99356141  0.94862278  1
  H  H55  1  0.04493864  0.71837389  0.55137722  1
  H  H56  1  0.49356141  0.66699666  0.44862278  1
  H  H57  1  0.28162611  0.49356141  0.94862278  1
  H  H58  1  0.66699666  0.95506136  0.94862278  1
  H  H59  1  0.54493864  0.83300334  0.55137722  1
  H  H60  1  0.00643859  0.21837389  0.55137722  1
  H  H61  1  0.21837389  0.54493864  0.05137722  1
  H  H62  1  0.83300334  0.00643859  0.05137722  1
  H  H63  1  0.61900471  0.22810331  0.80371283  1
  N  N64  1  0.64129476  0.14697204  0.24851774  1
  N  N65  1  0.89845430  0.89277701  0.25148226  1
  N  N66  1  0.35302796  0.85870524  0.25148226  1
  N  N67  1  0.89277701  0.35302796  0.75148226  1
  N  N68  1  0.85870524  0.89845430  0.75148226  1
  N  N69  1  0.60154570  0.64129476  0.74851774  1
  N  N70  1  0.14697204  0.60722299  0.74851774  1
  N  N71  1  0.60722299  0.60154570  0.24851774  1
  N  N72  1  0.35870524  0.85302796  0.75148226  1
  N  N73  1  0.10154570  0.10722299  0.74851774  1
  N  N74  1  0.64697204  0.14129476  0.74851774  1
  N  N75  1  0.10722299  0.64697204  0.24851774  1
  N  N76  1  0.14129476  0.10154570  0.24851774  1
  N  N77  1  0.39845430  0.35870524  0.25148226  1
  N  N78  1  0.85302796  0.39277701  0.25148226  1
  N  N79  1  0.39277701  0.39845430  0.75148226  1
  N  N80  1  0.00990623  0.75990623  0.01981246  1
  N  N81  1  0.75990623  0.00990623  0.51981246  1
  N  N82  1  0.49009377  0.74009377  0.98018754  1
  N  N83  1  0.74009377  0.49009377  0.48018754  1
  N  N84  1  0.99009377  0.24009377  0.98018754  1
  N  N85  1  0.24009377  0.99009377  0.48018754  1
  N  N86  1  0.50990623  0.25990623  0.01981246  1
  N  N87  1  0.25990623  0.50990623  0.51981246  1
  N  N88  1  0.04167114  0.25000000  0.50000000  1
  N  N89  1  0.75000000  0.04167114  1.00000000  1
  N  N90  1  0.25000000  0.45832886  0.00000000  1
  N  N91  1  0.45832886  0.75000000  0.50000000  1
  N  N92  1  0.95832886  0.75000000  0.50000000  1
  N  N93  1  0.25000000  0.95832886  0.00000000  1
  N  N94  1  0.75000000  0.54167114  1.00000000  1
  N  N95  1  0.54167114  0.25000000  0.50000000  1
  Mg  Mg96  1  0.30741249  0.79422831  0.87147928  1
  Mg  Mg97  1  0.92274903  0.93593321  0.62852072  1
  Mg  Mg98  1  0.70577169  0.19258751  0.62852072  1
  Mg  Mg99  1  0.93593321  0.70577169  0.12852072  1
  Mg  Mg100  1  0.19258751  0.92274903  0.12852072  1
  Mg  Mg101  1  0.57725097  0.30741249  0.37147928  1
  Mg  Mg102  1  0.79422831  0.56406679  0.37147928  1
  Mg  Mg103  1  0.56406679  0.57725097  0.87147928  1
  Mg  Mg104  1  0.69258751  0.20577169  0.12852072  1
  Mg  Mg105  1  0.07725097  0.06406679  0.37147928  1
  Mg  Mg106  1  0.29422831  0.80741249  0.37147928  1
  Mg  Mg107  1  0.06406679  0.29422831  0.87147928  1
  Mg  Mg108  1  0.80741249  0.07725097  0.87147928  1
  Mg  Mg109  1  0.42274903  0.69258751  0.62852072  1
  Mg  Mg110  1  0.20577169  0.43593321  0.62852072  1
  Mg  Mg111  1  0.43593321  0.42274903  0.12852072  1
