# generated using pymatgen
data_CaGe2WO6
_symmetry_space_group_name_H-M   'P 1'
_cell_length_a   5.37490675
_cell_length_b   8.34771412
_cell_length_c   8.34771444
_cell_angle_alpha   62.64910273
_cell_angle_beta   81.88371718
_cell_angle_gamma   81.88371400
_symmetry_Int_Tables_number   1
_chemical_formula_structural   CaGe2WO6
_chemical_formula_sum   'Ca2 Ge4 W2 O12'
_cell_volume   328.10096778
_cell_formula_units_Z   2
loop_
 _symmetry_equiv_pos_site_id
 _symmetry_equiv_pos_as_xyz
  1  'x, y, z'
loop_
 _atom_site_type_symbol
 _atom_site_label
 _atom_site_symmetry_multiplicity
 _atom_site_fract_x
 _atom_site_fract_y
 _atom_site_fract_z
 _atom_site_occupancy
  Ca  Ca0  1  0.75000000  0.34721452  0.65278548  1
  Ca  Ca1  1  0.25000000  0.65278548  0.34721452  1
  Ge  Ge2  1  0.78542245  0.42138298  0.21171162  1
  Ge  Ge3  1  0.71457755  0.78828838  0.57861702  1
  Ge  Ge4  1  0.21457755  0.57861702  0.78828838  1
  Ge  Ge5  1  0.28542245  0.21171162  0.42138298  1
  W  W6  1  0.75000000  0.90853402  0.09146598  1
  W  W7  1  0.25000000  0.09146598  0.90853402  1
  O  O8  1  0.52633923  0.36258306  0.41473158  1
  O  O9  1  0.97366077  0.58526842  0.63741694  1
  O  O10  1  0.47366077  0.63741694  0.58526842  1
  O  O11  1  0.02633923  0.41473158  0.36258306  1
  O  O12  1  0.16622568  0.14657428  0.67830158  1
  O  O13  1  0.33377432  0.32169842  0.85342572  1
  O  O14  1  0.83377432  0.85342572  0.32169842  1
  O  O15  1  0.66622568  0.67830158  0.14657428  1
  O  O16  1  0.89801934  0.15219153  0.98056216  1
  O  O17  1  0.60198066  0.01943784  0.84780847  1
  O  O18  1  0.10198066  0.84780847  0.01943784  1
  O  O19  1  0.39801934  0.98056216  0.15219153  1
