# generated using pymatgen
data_FeH10N2OF5
_symmetry_space_group_name_H-M   'P 1'
_cell_length_a   7.87680728
_cell_length_b   8.20644022
_cell_length_c   10.74921970
_cell_angle_alpha   90.00000000
_cell_angle_beta   90.00000000
_cell_angle_gamma   90.00000000
_symmetry_Int_Tables_number   1
_chemical_formula_structural   FeH10N2OF5
_chemical_formula_sum   'Fe4 H40 N8 O4 F20'
_cell_volume   694.83545271
_cell_formula_units_Z   4
loop_
 _symmetry_equiv_pos_site_id
 _symmetry_equiv_pos_as_xyz
  1  'x, y, z'
loop_
 _atom_site_type_symbol
 _atom_site_label
 _atom_site_symmetry_multiplicity
 _atom_site_fract_x
 _atom_site_fract_y
 _atom_site_fract_z
 _atom_site_occupancy
  H  H0  1  0.64744557  0.61709877  0.52091819  1
  H  H1  1  0.14744527  0.88290114  0.97908230  1
  H  H2  1  0.85255405  0.61709877  0.47908214  1
  H  H3  1  0.35255375  0.88290114  0.02091803  1
  H  H4  1  0.35255375  0.38290158  0.47908214  1
  H  H5  1  0.85255405  0.11709921  0.02091803  1
  H  H6  1  0.14744527  0.38290158  0.52091819  1
  H  H7  1  0.64744557  0.11709921  0.97908230  1
  H  H8  1  0.90099344  0.50428409  0.88169295  1
  H  H9  1  0.40099441  0.99571583  0.61830755  1
  H  H10  1  0.59900618  0.50428409  0.11830738  1
  H  H11  1  0.09900588  0.99571583  0.38169278  1
  H  H12  1  0.09900588  0.49571626  0.11830738  1
  H  H13  1  0.59900618  0.00428452  0.38169278  1
  H  H14  1  0.40099441  0.49571626  0.88169295  1
  H  H15  1  0.90099344  0.00428452  0.61830755  1
  H  H16  1  0.04212642  0.36949754  0.81693509  1
  H  H17  1  0.54212672  0.13050202  0.68306448  1
  H  H18  1  0.97606844  0.44111986  0.24267759  1
  H  H19  1  0.95787417  0.13050202  0.31693492  1
  H  H20  1  0.95787417  0.63050159  0.18306524  1
  H  H21  1  0.45787387  0.86949833  0.31693492  1
  H  H22  1  0.54212672  0.63050159  0.81693509  1
  H  H23  1  0.04212642  0.86949833  0.68306448  1
  H  H24  1  0.86480898  0.42019725  0.74072978  1
  H  H25  1  0.36480869  0.07980231  0.75926978  1
  H  H26  1  0.63519190  0.42019725  0.25927055  1
  H  H27  1  0.13519161  0.07980231  0.24072962  1
  H  H28  1  0.13519161  0.57980310  0.25927055  1
  H  H29  1  0.63519190  0.92019682  0.24072962  1
  H  H30  1  0.36480869  0.57980310  0.74072978  1
  H  H31  1  0.86480898  0.92019682  0.75926978  1
  H  H32  1  0.02393215  0.55888049  0.75732274  1
  H  H33  1  0.52393244  0.94111943  0.74267776  1
  H  H34  1  0.47606815  0.55888049  0.24267759  1
  H  H35  1  0.97606844  0.94111943  0.25732257  1
  H  H36  1  0.02393215  0.05887971  0.74267776  1
  H  H37  1  0.52393244  0.44111986  0.75732274  1
  H  H38  1  0.47606815  0.05887971  0.25732257  1
  H  H39  1  0.45787387  0.36949754  0.18306524  1
  N  N40  1  0.95776798  0.96454277  0.70027560  1
  N  N41  1  0.95776798  0.46454199  0.79972396  1
  N  N42  1  0.45776768  0.03545758  0.70027560  1
  N  N43  1  0.54223291  0.46454199  0.20027544  1
  N  N44  1  0.45776768  0.53545836  0.79972396  1
  N  N45  1  0.04223261  0.03545758  0.29972473  1
  N  N46  1  0.04223261  0.53545836  0.20027544  1
  N  N47  1  0.54223291  0.96454277  0.29972473  1
  O  O48  1  0.74999981  0.04925719  0.00000000  1
  O  O49  1  0.24999951  0.45074360  0.50000017  1
  O  O50  1  0.24999951  0.95074316  0.00000000  1
  O  O51  1  0.74999981  0.54925675  0.50000017  1
  F  F52  1  0.98308951  0.29590106  0.55711650  1
  F  F53  1  0.48308921  0.20409972  0.94288400  1
  F  F54  1  0.51691010  0.29590106  0.44288383  1
  F  F55  1  0.01690981  0.20409972  0.05711634  1
  F  F56  1  0.01690981  0.70409929  0.44288383  1
  F  F57  1  0.51691010  0.79590062  0.05711634  1
  F  F58  1  0.67268998  0.80588897  0.82378180  1
  F  F59  1  0.98308951  0.79590062  0.94288400  1
  F  F60  1  0.74999981  0.06319609  0.50000017  1
  F  F61  1  0.24999951  0.43680348  0.00000000  1
  F  F62  1  0.24999951  0.93680304  0.50000017  1
  F  F63  1  0.74999981  0.56319687  0.00000000  1
  F  F64  1  0.32731061  0.19411138  0.17621853  1
  F  F65  1  0.67268998  0.30588819  0.67621870  1
  F  F66  1  0.17268969  0.19411138  0.82378180  1
  F  F67  1  0.82731090  0.30588819  0.32378163  1
  F  F68  1  0.17268969  0.69411095  0.67621870  1
  F  F69  1  0.82731090  0.80588897  0.17621853  1
  F  F70  1  0.32731061  0.69411095  0.32378163  1
  F  F71  1  0.48308921  0.70409929  0.55711650  1
  Fe  Fe72  1  0.74999981  0.80149023  0.00000000  1
  Fe  Fe73  1  0.24999951  0.69850969  0.50000017  1
  Fe  Fe74  1  0.24999951  0.19851012  0.00000000  1
  Fe  Fe75  1  0.74999981  0.30149066  0.50000017  1
