# generated using pymatgen
data_YFeO3
_symmetry_space_group_name_H-M   'P 1'
_cell_length_a   5.34797075
_cell_length_b   5.66136510
_cell_length_c   7.72971035
_cell_angle_alpha   90.00000000
_cell_angle_beta   90.00000000
_cell_angle_gamma   90.00000000
_symmetry_Int_Tables_number   1
_chemical_formula_structural   YFeO3
_chemical_formula_sum   'Y4 Fe4 O12'
_cell_volume   234.03100996
_cell_formula_units_Z   4
loop_
 _symmetry_equiv_pos_site_id
 _symmetry_equiv_pos_as_xyz
  1  'x, y, z'
loop_
 _atom_site_type_symbol
 _atom_site_label
 _atom_site_symmetry_multiplicity
 _atom_site_fract_x
 _atom_site_fract_y
 _atom_site_fract_z
 _atom_site_occupancy
  O  O0  1  0.69175795  0.30554549  0.44068344  1
  O  O1  1  0.19175794  0.19445440  0.55931650  1
  O  O2  1  0.80824208  0.80554539  0.05931653  1
  O  O3  1  0.30824207  0.69445430  0.94068341  1
  O  O4  1  0.30824207  0.69445430  0.55931650  1
  O  O5  1  0.80824208  0.80554539  0.44068344  1
  O  O6  1  0.19175794  0.19445440  0.94068341  1
  O  O7  1  0.69175795  0.30554549  0.05931653  1
  O  O8  1  0.11564205  0.45640403  0.25000065  1
  O  O9  1  0.61564206  0.04359586  0.75000061  1
  O  O10  1  0.88435796  0.54359576  0.75000061  1
  O  O11  1  0.38435795  0.95640392  0.25000065  1
  Fe  Fe12  1  0.00000000  0.49999989  0.49999997  1
  Fe  Fe13  1  0.50000001  0.00000000  0.49999997  1
  Fe  Fe14  1  0.50000001  0.00000000  0.00000000  1
  Fe  Fe15  1  0.00000000  0.49999989  0.00000000  1
  Y  Y16  1  0.01877577  0.93158443  0.75000061  1
  Y  Y17  1  0.51877578  0.56841525  0.25000065  1
  Y  Y18  1  0.48122424  0.43158454  0.75000061  1
  Y  Y19  1  0.98122425  0.06841536  0.25000065  1
