# generated using pymatgen
data_V2WO6
_symmetry_space_group_name_H-M   'P 1'
_cell_length_a   4.69122644
_cell_length_b   4.69122644
_cell_length_c   9.21137095
_cell_angle_alpha   90.00000000
_cell_angle_beta   90.00000000
_cell_angle_gamma   90.00000000
_symmetry_Int_Tables_number   1
_chemical_formula_structural   V2WO6
_chemical_formula_sum   'V4 W2 O12'
_cell_volume   202.72021809
_cell_formula_units_Z   2
loop_
 _symmetry_equiv_pos_site_id
 _symmetry_equiv_pos_as_xyz
  1  'x, y, z'
loop_
 _atom_site_type_symbol
 _atom_site_label
 _atom_site_symmetry_multiplicity
 _atom_site_fract_x
 _atom_site_fract_y
 _atom_site_fract_z
 _atom_site_occupancy
  O  O0  1  0.69606807  0.69606807  0.65886280  1
  O  O1  1  0.30392994  0.30392994  0.65886280  1
  O  O2  1  0.69606807  0.69606807  0.34113724  1
  O  O3  1  0.19606906  0.80393108  0.15886221  1
  O  O4  1  0.80393108  0.19606906  0.15886221  1
  O  O5  1  0.80393108  0.19606906  0.84113783  1
  O  O6  1  0.29427747  0.29427747  0.00000000  1
  O  O7  1  0.20572366  0.79427648  0.49999945  1
  O  O8  1  0.79427648  0.20572366  0.49999945  1
  O  O9  1  0.19606906  0.80393108  0.84113783  1
  O  O10  1  0.30392994  0.30392994  0.34113724  1
  O  O11  1  0.70572267  0.70572267  0.00000000  1
  V  V12  1  0.00000000  0.00000000  0.66618926  1
  V  V13  1  0.49999900  0.49999900  0.16618981  1
  V  V14  1  0.49999900  0.49999900  0.83381023  1
  V  V15  1  0.00000000  0.00000000  0.33381078  1
  W  W16  1  0.49999900  0.49999900  0.49999945  1
  W  W17  1  0.00000000  0.00000000  0.00000000  1
