# generated using pymatgen
data_Sn2BF7
_symmetry_space_group_name_H-M   'P 1'
_cell_length_a   5.45837017
_cell_length_b   9.01523059
_cell_length_c   14.31778337
_cell_angle_alpha   90.00000000
_cell_angle_beta   90.07641643
_cell_angle_gamma   90.00000000
_symmetry_Int_Tables_number   1
_chemical_formula_structural   Sn2BF7
_chemical_formula_sum   'Sn8 B4 F28'
_cell_volume   704.55552557
_cell_formula_units_Z   4
loop_
 _symmetry_equiv_pos_site_id
 _symmetry_equiv_pos_as_xyz
  1  'x, y, z'
loop_
 _atom_site_type_symbol
 _atom_site_label
 _atom_site_symmetry_multiplicity
 _atom_site_fract_x
 _atom_site_fract_y
 _atom_site_fract_z
 _atom_site_occupancy
  B  B0  1  0.75075861  0.81536335  0.37163925  1
  B  B1  1  0.74924139  0.31536335  0.12836075  1
  B  B2  1  0.24924139  0.18463665  0.62836075  1
  B  B3  1  0.25075861  0.68463665  0.87163925  1
  F  F4  1  0.75177808  0.79015139  0.47019189  1
  F  F5  1  0.74822192  0.29015139  0.02980811  1
  F  F6  1  0.24822192  0.20984861  0.52980811  1
  F  F7  1  0.25177808  0.70984861  0.97019189  1
  F  F8  1  0.00098778  0.35257425  0.36118238  1
  F  F9  1  0.49901222  0.85257425  0.13881762  1
  F  F10  1  0.99901222  0.64742575  0.63881762  1
  F  F11  1  0.50098778  0.14742575  0.86118238  1
  F  F12  1  0.75141863  0.39829145  0.54633758  1
  F  F13  1  0.74858137  0.89829145  0.95366242  1
  F  F14  1  0.24858137  0.60170855  0.45366242  1
  F  F15  1  0.25141863  0.10170855  0.04633758  1
  F  F16  1  0.50067176  0.64627705  0.63790274  1
  F  F17  1  0.99932824  0.14627705  0.86209726  1
  F  F18  1  0.49932824  0.35372295  0.36209726  1
  F  F19  1  0.00067176  0.85372295  0.13790274  1
  F  F20  1  0.96336999  0.39654018  0.15142389  1
  F  F21  1  0.53663001  0.89654018  0.34857611  1
  F  F22  1  0.03663001  0.60345982  0.84857611  1
  F  F23  1  0.46336999  0.10345982  0.65142389  1
  F  F24  1  0.75102180  0.67723413  0.32390238  1
  F  F25  1  0.74897820  0.17723413  0.17609762  1
  F  F26  1  0.24897820  0.32276587  0.67609762  1
  F  F27  1  0.25102180  0.82276587  0.82390238  1
  F  F28  1  0.46364110  0.60265147  0.84820366  1
  F  F29  1  0.03635890  0.10265147  0.65179634  1
  F  F30  1  0.53635890  0.39734853  0.15179634  1
  F  F31  1  0.96364110  0.89734853  0.34820366  1
  Sn  Sn32  1  0.24922860  0.77452125  0.55524806  1
  Sn  Sn33  1  0.25077140  0.27452125  0.94475194  1
  Sn  Sn34  1  0.75077140  0.22547875  0.44475194  1
  Sn  Sn35  1  0.74922860  0.72547875  0.05524806  1
  Sn  Sn36  1  0.75032102  0.48154143  0.68927551  1
  Sn  Sn37  1  0.74967898  0.98154143  0.81072449  1
  Sn  Sn38  1  0.24967898  0.51845857  0.31072449  1
  Sn  Sn39  1  0.25032102  0.01845857  0.18927551  1
