# generated using pymatgen
data_Li2MoO4
_symmetry_space_group_name_H-M   'P 1'
_cell_length_a   9.03401924
_cell_length_b   9.03401924
_cell_length_c   9.03401924
_cell_angle_alpha   107.82409656
_cell_angle_beta   107.82409650
_cell_angle_gamma   107.82409655
_symmetry_Int_Tables_number   1
_chemical_formula_structural   Li2MoO4
_chemical_formula_sum   'Li12 Mo6 O24'
_cell_volume   599.68991355
_cell_formula_units_Z   6
loop_
 _symmetry_equiv_pos_site_id
 _symmetry_equiv_pos_as_xyz
  1  'x, y, z'
loop_
 _atom_site_type_symbol
 _atom_site_label
 _atom_site_symmetry_multiplicity
 _atom_site_fract_x
 _atom_site_fract_y
 _atom_site_fract_z
 _atom_site_occupancy
  Li  Li0  1  0.39207182  0.56697668  0.79621115  1
  Li  Li1  1  0.79621080  0.39207135  0.56697574  1
  Li  Li2  1  0.56697621  0.79621145  0.39207208  1
  Li  Li3  1  0.60792869  0.43302417  0.20378997  1
  Li  Li4  1  0.20378914  0.60792821  0.43302369  1
  Li  Li5  1  0.43302314  0.20378940  0.60792757  1
  Li  Li6  1  0.89489686  0.12805808  0.72357732  1
  Li  Li7  1  0.72357787  0.89489660  0.12805839  1
  Li  Li8  1  0.12805800  0.72357803  0.89489616  1
  Li  Li9  1  0.10510308  0.87194147  0.27642212  1
  Li  Li10  1  0.27642208  0.10510295  0.87194105  1
  Li  Li11  1  0.87194135  0.27642282  0.10510350  1
  O  O12  1  0.57812845  0.92558605  0.24991426  1
  O  O13  1  0.97146110  0.01112546  0.30925234  1
  O  O14  1  0.01112573  0.30925219  0.97146028  1
  O  O15  1  0.30925160  0.97145994  0.01112518  1
  O  O16  1  0.02853884  0.98887409  0.69074710  1
  O  O17  1  0.98887421  0.69074736  0.02853916  1
  O  O18  1  0.42187206  0.07441480  0.75008575  1
  O  O19  1  0.75008582  0.42187097  0.07441452  1
  O  O20  1  0.07441429  0.75008576  0.42187113  1
  O  O21  1  0.69074834  0.02853961  0.98887426  1
  O  O22  1  0.24991412  0.57812858  0.92558602  1
  O  O23  1  0.92558565  0.24991379  0.57812831  1
  O  O24  1  0.65276122  0.96007647  0.63759579  1
  O  O25  1  0.63759575  0.65276025  0.96007661  1
  O  O26  1  0.96007658  0.63759542  0.65276046  1
  O  O27  1  0.27758628  0.31832376  0.61457557  1
  O  O28  1  0.36240420  0.34723931  0.03992283  1
  O  O29  1  0.03992336  0.36240413  0.34723898  1
  O  O30  1  0.38542428  0.72241351  0.68167598  1
  O  O31  1  0.68167544  0.38542389  0.72241294  1
  O  O32  1  0.72241366  0.68167579  0.38542386  1
  O  O33  1  0.61457623  0.27758734  0.31832403  1
  O  O34  1  0.31832334  0.61457566  0.27758614  1
  O  O35  1  0.34723873  0.03992309  0.36240475  1
  Mo  Mo36  1  0.53698783  0.94525029  0.76676932  1
  Mo  Mo37  1  0.05474972  0.23323066  0.46301218  1
  Mo  Mo38  1  0.23323035  0.46301219  0.05474958  1
  Mo  Mo39  1  0.46301211  0.05474927  0.23323011  1
  Mo  Mo40  1  0.94525079  0.76677019  0.53698783  1
  Mo  Mo41  1  0.76677016  0.53698866  0.94525043  1
