# generated using pymatgen
data_Sr(Ag3O2)2
_symmetry_space_group_name_H-M   'P 1'
_cell_length_a   6.61201815
_cell_length_b   9.09086231
_cell_length_c   12.61627707
_cell_angle_alpha   90.00000000
_cell_angle_beta   90.00000000
_cell_angle_gamma   90.00000000
_symmetry_Int_Tables_number   1
_chemical_formula_structural   Sr(Ag3O2)2
_chemical_formula_sum   'Sr4 Ag24 O16'
_cell_volume   758.35112460
_cell_formula_units_Z   4
loop_
 _symmetry_equiv_pos_site_id
 _symmetry_equiv_pos_as_xyz
  1  'x, y, z'
loop_
 _atom_site_type_symbol
 _atom_site_label
 _atom_site_symmetry_multiplicity
 _atom_site_fract_x
 _atom_site_fract_y
 _atom_site_fract_z
 _atom_site_occupancy
  O  O0  1  0.59043763  0.32663345  0.60297108  1
  O  O1  1  0.54571302  0.58310238  0.88090328  1
  O  O2  1  0.54571302  0.91689762  0.61909672  1
  O  O3  1  0.95428698  0.58310238  0.11909672  1
  O  O4  1  0.59043763  0.17336655  0.89702892  1
  O  O5  1  0.90956237  0.32663345  0.39702892  1
  O  O6  1  0.90956237  0.17336655  0.10297108  1
  O  O7  1  0.40956237  0.67336655  0.39702892  1
  O  O8  1  0.40956237  0.82663345  0.10297108  1
  O  O9  1  0.95428698  0.91689762  0.38090328  1
  O  O10  1  0.09043763  0.67336655  0.60297108  1
  O  O11  1  0.04571302  0.08310238  0.61909672  1
  O  O12  1  0.04571302  0.41689762  0.88090328  1
  O  O13  1  0.45428698  0.08310238  0.38090328  1
  O  O14  1  0.45428698  0.41689762  0.11909672  1
  O  O15  1  0.09043763  0.82663345  0.89702892  1
  Sr  Sr16  1  0.25000000  0.88053385  0.50000000  1
  Sr  Sr17  1  0.25000000  0.61946615  0.00000000  1
  Sr  Sr18  1  0.75000000  0.11946615  0.50000000  1
  Sr  Sr19  1  0.75000000  0.38053385  0.00000000  1
  Ag  Ag20  1  0.42258332  0.53949393  0.26081541  1
  Ag  Ag21  1  0.92258332  0.46050607  0.26081541  1
  Ag  Ag22  1  0.92258332  0.03949393  0.23918459  1
  Ag  Ag23  1  0.57741668  0.46050607  0.73918459  1
  Ag  Ag24  1  0.40965348  0.75000000  0.75000000  1
  Ag  Ag25  1  0.09034652  0.75000000  0.25000000  1
  Ag  Ag26  1  0.59034652  0.25000000  0.25000000  1
  Ag  Ag27  1  0.90965348  0.25000000  0.75000000  1
  Ag  Ag28  1  0.42258332  0.96050607  0.23918459  1
  Ag  Ag29  1  0.07741668  0.53949393  0.73918459  1
  Ag  Ag30  1  0.07741668  0.96050607  0.76081541  1
  Ag  Ag31  1  0.29141017  0.23593969  0.62202823  1
  Ag  Ag32  1  0.29141017  0.26406031  0.87797177  1
  Ag  Ag33  1  0.20858983  0.23593969  0.37797177  1
  Ag  Ag34  1  0.20858983  0.26406031  0.12202823  1
  Ag  Ag35  1  0.70858983  0.76406031  0.37797177  1
  Ag  Ag36  1  0.70858983  0.73593969  0.12202823  1
  Ag  Ag37  1  0.79141017  0.76406031  0.62202823  1
  Ag  Ag38  1  0.79141017  0.73593969  0.87797177  1
  Ag  Ag39  1  0.50000000  0.50000000  0.50000000  1
  Ag  Ag40  1  0.50000000  0.00000000  0.00000000  1
  Ag  Ag41  1  0.00000000  0.50000000  0.50000000  1
  Ag  Ag42  1  0.00000000  0.00000000  0.00000000  1
  Ag  Ag43  1  0.57741668  0.03949393  0.76081541  1
