# generated using pymatgen
data_K2PtI6
_symmetry_space_group_name_H-M   'P 1'
_cell_length_a   7.75894562
_cell_length_b   7.75894562
_cell_length_c   12.04298069
_cell_angle_alpha   90.00000000
_cell_angle_beta   90.00000000
_cell_angle_gamma   90.00000000
_symmetry_Int_Tables_number   1
_chemical_formula_structural   K2PtI6
_chemical_formula_sum   'K4 Pt2 I12'
_cell_volume   725.00233632
_cell_formula_units_Z   2
loop_
 _symmetry_equiv_pos_site_id
 _symmetry_equiv_pos_as_xyz
  1  'x, y, z'
loop_
 _atom_site_type_symbol
 _atom_site_label
 _atom_site_symmetry_multiplicity
 _atom_site_fract_x
 _atom_site_fract_y
 _atom_site_fract_z
 _atom_site_occupancy
  K  K0  1  0.50000000  0.00000000  0.75000000  1
  K  K1  1  0.00000000  0.50000000  0.75000000  1
  K  K2  1  0.50000000  0.00000000  0.25000000  1
  K  K3  1  0.00000000  0.50000000  0.25000000  1
  I  I4  1  0.70844096  0.19420597  0.00000000  1
  I  I5  1  0.69420597  0.20844096  0.50000000  1
  I  I6  1  0.30579403  0.79155904  0.50000000  1
  I  I7  1  0.29155904  0.80579403  0.00000000  1
  I  I8  1  0.79155904  0.69420597  0.50000000  1
  I  I9  1  0.20844096  0.30579403  0.50000000  1
  I  I10  1  0.00000000  0.00000000  0.22510708  1
  I  I11  1  0.50000000  0.50000000  0.27489292  1
  I  I12  1  0.00000000  0.00000000  0.77489292  1
  I  I13  1  0.50000000  0.50000000  0.72510708  1
  I  I14  1  0.80579403  0.70844096  0.00000000  1
  I  I15  1  0.19420597  0.29155904  0.00000000  1
  Pt  Pt16  1  0.50000000  0.50000000  0.50000000  1
  Pt  Pt17  1  0.00000000  0.00000000  0.00000000  1
