# generated using pymatgen
data_Na3BiO3
_symmetry_space_group_name_H-M   'P 1'
_cell_length_a   8.46866398
_cell_length_b   8.46866398
_cell_length_c   8.46866398
_cell_angle_alpha   109.47122062
_cell_angle_beta   109.47122061
_cell_angle_gamma   109.47122069
_symmetry_Int_Tables_number   1
_chemical_formula_structural   Na3BiO3
_chemical_formula_sum   'Na12 Bi4 O12'
_cell_volume   467.54434948
_cell_formula_units_Z   4
loop_
 _symmetry_equiv_pos_site_id
 _symmetry_equiv_pos_as_xyz
  1  'x, y, z'
loop_
 _atom_site_type_symbol
 _atom_site_label
 _atom_site_symmetry_multiplicity
 _atom_site_fract_x
 _atom_site_fract_y
 _atom_site_fract_z
 _atom_site_occupancy
  O  O0  1  0.48433673  0.48433673  0.25596736  1
  O  O1  1  0.48433673  0.25596736  0.48433673  1
  O  O2  1  0.25596736  0.48433673  0.48433673  1
  O  O3  1  0.00000000  0.51566327  0.77163063  1
  O  O4  1  0.51566327  0.77163063  0.00000000  1
  O  O5  1  0.77163063  0.51566327  0.00000000  1
  O  O6  1  0.22836937  0.22836937  0.74403264  1
  O  O7  1  0.00000000  0.77163063  0.51566327  1
  O  O8  1  0.77163063  0.00000000  0.51566327  1
  O  O9  1  0.74403264  0.22836937  0.22836937  1
  O  O10  1  0.22836937  0.74403264  0.22836937  1
  O  O11  1  0.51566327  0.00000000  0.77163063  1
  Na  Na12  1  0.72161831  0.24634715  0.72161831  1
  Na  Na13  1  0.24634715  0.72161831  0.72161831  1
  Na  Na14  1  0.72161831  0.72161831  0.24634715  1
  Na  Na15  1  0.27838169  0.00000000  0.52472884  1
  Na  Na16  1  0.52472884  0.00000000  0.27838169  1
  Na  Na17  1  0.47527116  0.75365285  0.47527116  1
  Na  Na18  1  0.75365285  0.47527116  0.47527116  1
  Na  Na19  1  0.00000000  0.52472884  0.27838169  1
  Na  Na20  1  0.52472884  0.27838169  0.00000000  1
  Na  Na21  1  0.27838169  0.52472884  0.00000000  1
  Na  Na22  1  0.47527116  0.47527116  0.75365285  1
  Na  Na23  1  0.00000000  0.27838169  0.52472884  1
  Bi  Bi24  1  0.00000000  0.00000000  0.71468298  1
  Bi  Bi25  1  0.71468298  0.00000000  0.00000000  1
  Bi  Bi26  1  0.28531702  0.28531702  0.28531702  1
  Bi  Bi27  1  0.00000000  0.71468298  0.00000000  1
