# generated using pymatgen
data_NaNp2F9
_symmetry_space_group_name_H-M   'P 1'
_cell_length_a   6.95439854
_cell_length_b   8.68530742
_cell_length_c   11.10494050
_cell_angle_alpha   90.00000000
_cell_angle_beta   90.00000000
_cell_angle_gamma   90.00000000
_symmetry_Int_Tables_number   1
_chemical_formula_structural   NaNp2F9
_chemical_formula_sum   'Na4 Np8 F36'
_cell_volume   670.75050216
_cell_formula_units_Z   4
loop_
 _symmetry_equiv_pos_site_id
 _symmetry_equiv_pos_as_xyz
  1  'x, y, z'
loop_
 _atom_site_type_symbol
 _atom_site_label
 _atom_site_symmetry_multiplicity
 _atom_site_fract_x
 _atom_site_fract_y
 _atom_site_fract_z
 _atom_site_occupancy
  Na  Na0  1  0.34964504  0.03535978  0.75000000  1
  Na  Na1  1  0.84964504  0.46464022  0.25000000  1
  Na  Na2  1  0.65035496  0.96464022  0.25000000  1
  Na  Na3  1  0.15035496  0.53535978  0.75000000  1
  Np  Np4  1  0.66102578  0.67184815  0.95191096  1
  Np  Np5  1  0.83897422  0.17184815  0.95191096  1
  Np  Np6  1  0.33897422  0.32815185  0.45191096  1
  Np  Np7  1  0.16102578  0.82815185  0.45191096  1
  Np  Np8  1  0.16102578  0.82815185  0.04808904  1
  Np  Np9  1  0.83897422  0.17184815  0.54808904  1
  Np  Np10  1  0.33897422  0.32815185  0.04808904  1
  Np  Np11  1  0.66102578  0.67184815  0.54808904  1
  F  F12  1  0.57988135  0.50132191  0.10460042  1
  F  F13  1  0.47910261  0.79829801  0.10319970  1
  F  F14  1  0.14174872  0.29145201  0.61201420  1
  F  F15  1  0.52089739  0.20170199  0.89680030  1
  F  F16  1  0.80117760  0.43157537  0.91908324  1
  F  F17  1  0.07988135  0.99867809  0.60460042  1
  F  F18  1  0.42011865  0.49867809  0.60460042  1
  F  F19  1  0.85825128  0.70854799  0.38798580  1
  F  F20  1  0.97910261  0.70170199  0.60319970  1
  F  F21  1  0.19882240  0.56842463  0.08091676  1
  F  F22  1  0.64174872  0.20854799  0.38798580  1
  F  F23  1  0.02089739  0.29829801  0.39680030  1
  F  F24  1  0.69882240  0.93157537  0.58091676  1
  F  F25  1  0.16116463  0.82800721  0.25000000  1
  F  F26  1  0.57988135  0.50132191  0.39539958  1
  F  F27  1  0.33883537  0.32800721  0.25000000  1
  F  F28  1  0.85825128  0.70854799  0.11201420  1
  F  F29  1  0.02089739  0.29829801  0.10319970  1
  F  F30  1  0.66116463  0.67199279  0.75000000  1
  F  F31  1  0.35825128  0.79145201  0.61201420  1
  F  F32  1  0.92011865  0.00132191  0.10460042  1
  F  F33  1  0.47910261  0.79829801  0.39680030  1
  F  F34  1  0.30117760  0.06842463  0.41908324  1
  F  F35  1  0.30117760  0.06842463  0.08091676  1
  F  F36  1  0.69882240  0.93157537  0.91908324  1
  F  F37  1  0.97910261  0.70170199  0.89680030  1
  F  F38  1  0.19882240  0.56842463  0.41908324  1
  F  F39  1  0.35825128  0.79145201  0.88798580  1
  F  F40  1  0.83883537  0.17199279  0.75000000  1
  F  F41  1  0.64174872  0.20854799  0.11201420  1
  F  F42  1  0.42011865  0.49867809  0.89539958  1
  F  F43  1  0.07988135  0.99867809  0.89539958  1
  F  F44  1  0.80117760  0.43157537  0.58091676  1
  F  F45  1  0.52089739  0.20170199  0.60319970  1
  F  F46  1  0.14174872  0.29145201  0.88798580  1
  F  F47  1  0.92011865  0.00132191  0.39539958  1
