# generated using pymatgen
data_K2S5O16
_symmetry_space_group_name_H-M   'P 1'
_cell_length_a   9.45309498
_cell_length_b   11.14156860
_cell_length_c   14.86214402
_cell_angle_alpha   90.00000000
_cell_angle_beta   90.00000000
_cell_angle_gamma   90.00000000
_symmetry_Int_Tables_number   1
_chemical_formula_structural   K2S5O16
_chemical_formula_sum   'K8 S20 O64'
_cell_volume   1565.31528329
_cell_formula_units_Z   4
loop_
 _symmetry_equiv_pos_site_id
 _symmetry_equiv_pos_as_xyz
  1  'x, y, z'
loop_
 _atom_site_type_symbol
 _atom_site_label
 _atom_site_symmetry_multiplicity
 _atom_site_fract_x
 _atom_site_fract_y
 _atom_site_fract_z
 _atom_site_occupancy
  O  O0  1  0.60241960  0.60672763  0.30284082  1
  O  O1  1  0.10241960  0.89327237  0.69715918  1
  O  O2  1  0.39758040  0.60672763  0.19715918  1
  O  O3  1  0.89758040  0.89327237  0.80284082  1
  O  O4  1  0.39758040  0.39327237  0.69715918  1
  O  O5  1  0.89758040  0.10672763  0.30284082  1
  O  O6  1  0.60241960  0.39327237  0.80284082  1
  O  O7  1  0.10241960  0.10672763  0.19715918  1
  O  O8  1  0.70818543  0.87379585  0.29869149  1
  O  O9  1  0.20818543  0.62620415  0.70130851  1
  O  O10  1  0.29181457  0.87379585  0.20130851  1
  O  O11  1  0.79181457  0.62620415  0.79869149  1
  O  O12  1  0.29181457  0.12620415  0.70130851  1
  O  O13  1  0.79181457  0.37379585  0.29869149  1
  O  O14  1  0.70818543  0.12620415  0.79869149  1
  O  O15  1  0.20818543  0.37379585  0.20130851  1
  O  O16  1  0.70170724  0.93973802  0.13823048  1
  O  O17  1  0.20170724  0.56026198  0.86176952  1
  O  O18  1  0.29829276  0.93973802  0.36176952  1
  O  O19  1  0.79829276  0.56026198  0.63823048  1
  O  O20  1  0.29829276  0.06026198  0.86176952  1
  O  O21  1  0.79829276  0.43973802  0.13823048  1
  O  O22  1  0.97245653  0.34422680  0.90542920  1
  O  O23  1  0.70170724  0.06026198  0.63823048  1
  O  O24  1  0.02754347  0.65577320  0.09457080  1
  O  O25  1  0.52754347  0.84422680  0.90542920  1
  O  O26  1  0.97245653  0.65577320  0.40542920  1
  O  O27  1  0.47245653  0.84422680  0.59457080  1
  O  O28  1  0.07573558  0.25757983  0.32040518  1
  O  O29  1  0.57573558  0.24242017  0.67959482  1
  O  O30  1  0.92426442  0.25757983  0.17959482  1
  O  O31  1  0.42426442  0.24242017  0.82040518  1
  O  O32  1  0.92426442  0.74242017  0.67959482  1
  O  O33  1  0.42426442  0.75757983  0.32040518  1
  O  O34  1  0.07573558  0.74242017  0.82040518  1
  O  O35  1  0.57573558  0.75757983  0.17959482  1
  O  O36  1  0.34375249  0.26479750  0.31248152  1
  O  O37  1  0.84375249  0.23520250  0.68751848  1
  O  O38  1  0.65624751  0.26479750  0.18751848  1
  O  O39  1  0.15624751  0.23520250  0.81248152  1
  O  O40  1  0.65624751  0.73520250  0.68751848  1
  O  O41  1  0.15624751  0.76479750  0.31248152  1
  O  O42  1  0.34375249  0.73520250  0.81248152  1
  O  O43  1  0.84375249  0.76479750  0.18751848  1
  O  O44  1  0.48824425  0.37061740  0.43978210  1
  O  O45  1  0.98824425  0.12938260  0.56021790  1
  O  O46  1  0.51175575  0.37061740  0.06021790  1
  O  O47  1  0.01175575  0.12938260  0.93978210  1
  O  O48  1  0.51175575  0.62938260  0.56021790  1
  O  O49  1  0.01175575  0.87061740  0.43978210  1
  O  O50  1  0.48824425  0.62938260  0.93978210  1
  O  O51  1  0.98824425  0.87061740  0.06021790  1
  O  O52  1  0.31101612  0.22140765  0.48449336  1
  O  O53  1  0.81101612  0.27859235  0.51550664  1
  O  O54  1  0.68898388  0.22140765  0.01550664  1
  O  O55  1  0.18898388  0.27859235  0.98449336  1
  O  O56  1  0.68898388  0.77859235  0.51550664  1
  O  O57  1  0.18898388  0.72140765  0.48449336  1
  O  O58  1  0.31101612  0.77859235  0.98449336  1
  O  O59  1  0.81101612  0.72140765  0.01550664  1
  O  O60  1  0.52754347  0.15577320  0.40542920  1
  O  O61  1  0.02754347  0.34422680  0.59457080  1
  O  O62  1  0.47245653  0.15577320  0.09457080  1
  O  O63  1  0.20170724  0.43973802  0.36176952  1
  S  S64  1  0.00000000  0.16896414  0.25000000  1
  S  S65  1  0.50000000  0.33103586  0.75000000  1
  S  S66  1  0.00000000  0.83103586  0.75000000  1
  S  S67  1  0.50000000  0.66896414  0.25000000  1
  S  S68  1  0.21843466  0.34805649  0.29525888  1
  S  S69  1  0.71843466  0.15194351  0.70474112  1
  S  S70  1  0.78156534  0.34805649  0.20474112  1
  S  S71  1  0.28156534  0.15194351  0.79525888  1
  S  S72  1  0.93178683  0.75086303  0.07120926  1
  S  S73  1  0.43178683  0.74913697  0.92879074  1
  S  S74  1  0.06821317  0.75086303  0.42879074  1
  S  S75  1  0.56821317  0.74913697  0.57120926  1
  S  S76  1  0.06821317  0.24913697  0.92879074  1
  S  S77  1  0.56821317  0.25086303  0.07120926  1
  S  S78  1  0.93178683  0.24913697  0.57120926  1
  S  S79  1  0.43178683  0.25086303  0.42879074  1
  S  S80  1  0.71843466  0.84805649  0.20474112  1
  S  S81  1  0.21843466  0.65194351  0.79525888  1
  S  S82  1  0.28156534  0.84805649  0.29525888  1
  S  S83  1  0.78156534  0.65194351  0.70474112  1
  K  K84  1  0.24006233  0.01062388  0.04826881  1
  K  K85  1  0.74006233  0.48937612  0.95173119  1
  K  K86  1  0.75993767  0.01062388  0.45173119  1
  K  K87  1  0.25993767  0.48937612  0.54826881  1
  K  K88  1  0.75993767  0.98937612  0.95173119  1
  K  K89  1  0.25993767  0.51062388  0.04826881  1
  K  K90  1  0.24006233  0.98937612  0.54826881  1
  K  K91  1  0.74006233  0.51062388  0.45173119  1
