# generated using pymatgen
data_TiBrN
_symmetry_space_group_name_H-M   'P 1'
_cell_length_a   3.37770363
_cell_length_b   3.96139096
_cell_length_c   8.93237237
_cell_angle_alpha   90.00000000
_cell_angle_beta   90.00000000
_cell_angle_gamma   90.00000000
_symmetry_Int_Tables_number   1
_chemical_formula_structural   TiBrN
_chemical_formula_sum   'Ti2 Br2 N2'
_cell_volume   119.51875658
_cell_formula_units_Z   2
loop_
 _symmetry_equiv_pos_site_id
 _symmetry_equiv_pos_as_xyz
  1  'x, y, z'
loop_
 _atom_site_type_symbol
 _atom_site_label
 _atom_site_symmetry_multiplicity
 _atom_site_fract_x
 _atom_site_fract_y
 _atom_site_fract_z
 _atom_site_occupancy
  N  N0  1  0.25000000  0.25000000  0.96089622  1
  N  N1  1  0.75000000  0.75000000  0.03910378  1
  Ti  Ti2  1  0.25000000  0.75000000  0.91637490  1
  Ti  Ti3  1  0.75000000  0.25000000  0.08362510  1
  Br  Br4  1  0.75000000  0.75000000  0.69229727  1
  Br  Br5  1  0.25000000  0.25000000  0.30770273  1
