# generated using pymatgen
data_CaNiP2WO9
_symmetry_space_group_name_H-M   'P 1'
_cell_length_a   6.62314839
_cell_length_b   7.65522509
_cell_length_c   14.42704475
_cell_angle_alpha   89.94549665
_cell_angle_beta   90.11486327
_cell_angle_gamma   90.12159369
_symmetry_Int_Tables_number   1
_chemical_formula_structural   CaNiP2WO9
_chemical_formula_sum   'Ca4 Ni4 P8 W4 O36'
_cell_volume   731.47213014
_cell_formula_units_Z   4
loop_
 _symmetry_equiv_pos_site_id
 _symmetry_equiv_pos_as_xyz
  1  'x, y, z'
loop_
 _atom_site_type_symbol
 _atom_site_label
 _atom_site_symmetry_multiplicity
 _atom_site_fract_x
 _atom_site_fract_y
 _atom_site_fract_z
 _atom_site_occupancy
  Ca  Ca0  1  0.74978306  0.90462914  0.78462871  1
  Ca  Ca1  1  0.74989015  0.59475737  0.28487568  1
  Ca  Ca2  1  0.25020077  0.09595472  0.21545705  1
  Ca  Ca3  1  0.24989716  0.40363879  0.71553866  1
  Ni  Ni4  1  0.49994170  0.00000932  0.99990447  1
  Ni  Ni5  1  0.49970512  0.50002069  0.50004010  1
  Ni  Ni6  1  0.00034536  0.50016016  0.49974512  1
  Ni  Ni7  1  0.00003337  0.99982364  0.99991456  1
  P  P8  1  0.24966030  0.34554442  0.93317040  1
  P  P9  1  0.75031375  0.65438914  0.06691994  1
  P  P10  1  0.74934834  0.84538909  0.56685014  1
  P  P11  1  0.25061942  0.15444614  0.43332574  1
  P  P12  1  0.74983137  0.38508211  0.68836320  1
  P  P13  1  0.25016013  0.61535560  0.31168557  1
  P  P14  1  0.24990923  0.88525831  0.81157742  1
  P  P15  1  0.75012621  0.11467055  0.18829132  1
  W  W16  1  0.74983559  0.35085158  0.88246611  1
  W  W17  1  0.25019121  0.64948824  0.11759842  1
  W  W18  1  0.24945596  0.85008858  0.61775091  1
  W  W19  1  0.75064391  0.14940272  0.38228670  1
  O  O20  1  0.05438689  0.60781514  0.36822218  1
  O  O21  1  0.55397072  0.39222376  0.63136186  1
  O  O22  1  0.94599754  0.10737426  0.13175300  1
  O  O23  1  0.44584513  0.89289178  0.86841119  1
  O  O24  1  0.94551813  0.39209007  0.63166431  1
  O  O25  1  0.44582922  0.60764458  0.36865662  1
  O  O26  1  0.05396287  0.89230170  0.86811320  1
  O  O27  1  0.55412360  0.10710576  0.13152535  1
  O  O28  1  0.25105622  0.33367332  0.48027782  1
  O  O29  1  0.74856245  0.66636657  0.51970042  1
  O  O30  1  0.75057457  0.83287500  0.01923217  1
  O  O31  1  0.24926999  0.16684332  0.98060624  1
  O  O32  1  0.75001857  0.12697555  0.94125137  1
  O  O33  1  0.25019423  0.87307139  0.05855722  1
  O  O34  1  0.24822263  0.62602347  0.55947882  1
  O  O35  1  0.75205494  0.37482647  0.43923314  1
  O  O36  1  0.74944123  0.21501409  0.75095857  1
  O  O37  1  0.25045878  0.78558229  0.24917666  1
  O  O38  1  0.24999457  0.71464994  0.74934119  1
  O  O39  1  0.75048174  0.28502171  0.25050108  1
  O  O40  1  0.43197932  0.13314022  0.36623200  1
  O  O41  1  0.93120126  0.86660093  0.63406682  1
  O  O42  1  0.56872055  0.63338729  0.13407189  1
  O  O43  1  0.06820878  0.36671123  0.86571275  1
  O  O44  1  0.56797643  0.86695818  0.63395981  1
  O  O45  1  0.06901993  0.13277518  0.36604956  1
  O  O46  1  0.43127716  0.36646968  0.86608425  1
  O  O47  1  0.93184436  0.63326753  0.13438567  1
  O  O48  1  0.74990882  0.96909499  0.26678269  1
  O  O49  1  0.24993705  0.03120971  0.73343196  1
  O  O50  1  0.25014538  0.46950152  0.23351579  1
  O  O51  1  0.74988480  0.53106817  0.76644841  1
  O  O52  1  0.74975709  0.98756822  0.49211766  1
  O  O53  1  0.25028366  0.01311240  0.50845168  1
  O  O54  1  0.24999848  0.48806367  0.00770077  1
  O  O55  1  0.74999982  0.51174359  0.99257567  1
