# generated using pymatgen
data_CsTbF5
_symmetry_space_group_name_H-M   'P 1'
_cell_length_a   8.42834800
_cell_length_b   8.42834813
_cell_length_c   8.55335420
_cell_angle_alpha   90.00000000
_cell_angle_beta   90.00000000
_cell_angle_gamma   118.92574836
_symmetry_Int_Tables_number   1
_chemical_formula_structural   CsTbF5
_chemical_formula_sum   'Cs4 Tb4 F20'
_cell_volume   531.80466019
_cell_formula_units_Z   4
loop_
 _symmetry_equiv_pos_site_id
 _symmetry_equiv_pos_as_xyz
  1  'x, y, z'
loop_
 _atom_site_type_symbol
 _atom_site_label
 _atom_site_symmetry_multiplicity
 _atom_site_fract_x
 _atom_site_fract_y
 _atom_site_fract_z
 _atom_site_occupancy
  Cs  Cs0  1  0.70538785  0.29461215  0.50000000  1
  Cs  Cs1  1  0.20538785  0.79461215  0.00000000  1
  Cs  Cs2  1  0.29461215  0.70538785  0.50000000  1
  Cs  Cs3  1  0.79461215  0.20538785  0.00000000  1
  Tb  Tb4  1  0.16345189  0.16345189  0.33735297  1
  Tb  Tb5  1  0.66345189  0.66345189  0.16264703  1
  Tb  Tb6  1  0.33654811  0.33654811  0.83735297  1
  Tb  Tb7  1  0.83654811  0.83654811  0.66264703  1
  F  F8  1  0.56058200  0.85562059  0.20526871  1
  F  F9  1  0.56942236  0.56942236  0.70749135  1
  F  F10  1  0.43057764  0.43057764  0.29250865  1
  F  F11  1  0.64437941  0.93941800  0.70526871  1
  F  F12  1  0.41568605  0.58431395  0.00000000  1
  F  F13  1  0.29283939  0.29283939  0.57008015  1
  F  F14  1  0.91568605  0.08431395  0.50000000  1
  F  F15  1  0.14437941  0.43941800  0.79473129  1
  F  F16  1  0.93057764  0.93057764  0.20749135  1
  F  F17  1  0.85562059  0.56058200  0.20526871  1
  F  F18  1  0.58431395  0.41568605  -0.00000000  1
  F  F19  1  0.06942236  0.06942236  0.79250865  1
  F  F20  1  0.43941800  0.14437941  0.79473129  1
  F  F21  1  0.20716061  0.20716061  0.07008015  1
  F  F22  1  0.93941800  0.64437941  0.70526871  1
  F  F23  1  0.35562059  0.06058200  0.29473129  1
  F  F24  1  0.79283939  0.79283939  0.92991985  1
  F  F25  1  0.06058200  0.35562059  0.29473129  1
  F  F26  1  0.08431395  0.91568605  0.50000000  1
  F  F27  1  0.70716061  0.70716061  0.42991985  1
