# generated using pymatgen
data_La2Br5
_symmetry_space_group_name_H-M   'P 1'
_cell_length_a   4.30073596
_cell_length_b   8.04794428
_cell_length_c   13.60598918
_cell_angle_alpha   91.06062138
_cell_angle_beta   90.00000000
_cell_angle_gamma   90.00000000
_symmetry_Int_Tables_number   1
_chemical_formula_structural   La2Br5
_chemical_formula_sum   'La4 Br10'
_cell_volume   470.85094677
_cell_formula_units_Z   2
loop_
 _symmetry_equiv_pos_site_id
 _symmetry_equiv_pos_as_xyz
  1  'x, y, z'
loop_
 _atom_site_type_symbol
 _atom_site_label
 _atom_site_symmetry_multiplicity
 _atom_site_fract_x
 _atom_site_fract_y
 _atom_site_fract_z
 _atom_site_occupancy
  La  La0  1  0.25000000  0.92767725  0.16158852  1
  La  La1  1  0.75000000  0.07232275  0.83841148  1
  La  La2  1  0.75000000  0.57258955  0.34057884  1
  La  La3  1  0.25000000  0.42741045  0.65942116  1
  Br  Br4  1  0.75000000  0.95102011  0.32288517  1
  Br  Br5  1  0.75000000  0.31321915  0.51261695  1
  Br  Br6  1  0.25000000  0.85428894  0.93009228  1
  Br  Br7  1  0.25000000  0.34147375  0.87877097  1
  Br  Br8  1  0.25000000  0.33260289  0.27080810  1
  Br  Br9  1  0.75000000  0.66739711  0.72919190  1
  Br  Br10  1  0.25000000  0.04897989  0.67711483  1
  Br  Br11  1  0.25000000  0.68678085  0.48738305  1
  Br  Br12  1  0.75000000  0.65852625  0.12122903  1
  Br  Br13  1  0.75000000  0.14571106  0.06990772  1
