# generated using pymatgen
data_Tl2GeTe3
_symmetry_space_group_name_H-M   'P 1'
_cell_length_a   8.55729218
_cell_length_b   8.77385207
_cell_length_c   22.00823541
_cell_angle_alpha   90.00000000
_cell_angle_beta   90.00000000
_cell_angle_gamma   90.00000000
_symmetry_Int_Tables_number   1
_chemical_formula_structural   Tl2GeTe3
_chemical_formula_sum   'Tl16 Ge8 Te24'
_cell_volume   1652.38746356
_cell_formula_units_Z   8
loop_
 _symmetry_equiv_pos_site_id
 _symmetry_equiv_pos_as_xyz
  1  'x, y, z'
loop_
 _atom_site_type_symbol
 _atom_site_label
 _atom_site_symmetry_multiplicity
 _atom_site_fract_x
 _atom_site_fract_y
 _atom_site_fract_z
 _atom_site_occupancy
  Ge  Ge0  1  0.82638543  0.98522543  0.83127204  1
  Ge  Ge1  1  0.82638543  0.98522543  0.66872796  1
  Ge  Ge2  1  0.32638543  0.51477457  0.83127204  1
  Ge  Ge3  1  0.67361457  0.48522543  0.33127204  1
  Ge  Ge4  1  0.17361457  0.01477457  0.16872796  1
  Ge  Ge5  1  0.17361457  0.01477457  0.33127204  1
  Ge  Ge6  1  0.67361457  0.48522543  0.16872796  1
  Ge  Ge7  1  0.32638543  0.51477457  0.66872796  1
  Te  Te8  1  0.48518997  0.33849120  0.59325038  1
  Te  Te9  1  0.98518997  0.16150880  0.90674962  1
  Te  Te10  1  0.01481003  0.83849120  0.40674962  1
  Te  Te11  1  0.51481003  0.66150880  0.09325038  1
  Te  Te12  1  0.51481003  0.66150880  0.40674962  1
  Te  Te13  1  0.01481003  0.83849120  0.09325038  1
  Te  Te14  1  0.98518997  0.16150880  0.59325038  1
  Te  Te15  1  0.48518997  0.33849120  0.90674962  1
  Te  Te16  1  0.62577413  0.81251291  0.61000419  1
  Te  Te17  1  0.62577413  0.81251291  0.88999581  1
  Te  Te18  1  0.12577413  0.68748709  0.61000419  1
  Te  Te19  1  0.87422587  0.31251291  0.11000419  1
  Te  Te20  1  0.37422587  0.18748709  0.38999581  1
  Te  Te21  1  0.37422587  0.18748709  0.11000419  1
  Te  Te22  1  0.87422587  0.31251291  0.38999581  1
  Te  Te23  1  0.12577413  0.68748709  0.88999581  1
  Te  Te24  1  0.99737050  0.82560378  0.75000000  1
  Te  Te25  1  0.49737050  0.67439622  0.75000000  1
  Te  Te26  1  0.50262950  0.32560378  0.25000000  1
  Te  Te27  1  0.00262950  0.17439622  0.25000000  1
  Te  Te28  1  0.66820500  0.15516881  0.75000000  1
  Te  Te29  1  0.16820500  0.34483119  0.75000000  1
  Te  Te30  1  0.83179500  0.65516881  0.25000000  1
  Te  Te31  1  0.33179500  0.84483119  0.25000000  1
  Tl  Tl32  1  0.77011897  0.54610026  0.50706533  1
  Tl  Tl33  1  0.27011897  0.95389974  0.99293467  1
  Tl  Tl34  1  0.72988103  0.04610026  0.49293467  1
  Tl  Tl35  1  0.22988103  0.45389974  0.00706533  1
  Tl  Tl36  1  0.22988103  0.45389974  0.49293467  1
  Tl  Tl37  1  0.72988103  0.04610026  0.00706533  1
  Tl  Tl38  1  0.27011897  0.95389974  0.50706533  1
  Tl  Tl39  1  0.77011897  0.54610026  0.99293467  1
  Tl  Tl40  1  0.82209081  0.47906295  0.66822123  1
  Tl  Tl41  1  0.32209081  0.02093705  0.83177877  1
  Tl  Tl42  1  0.67790919  0.97906295  0.33177877  1
  Tl  Tl43  1  0.17790919  0.52093705  0.16822123  1
  Tl  Tl44  1  0.17790919  0.52093705  0.33177877  1
  Tl  Tl45  1  0.67790919  0.97906295  0.16822123  1
  Tl  Tl46  1  0.32209081  0.02093705  0.66822123  1
  Tl  Tl47  1  0.82209081  0.47906295  0.83177877  1
