# generated using pymatgen
data_Si3PH9
_symmetry_space_group_name_H-M   'P 1'
_cell_length_a   6.36030547
_cell_length_b   10.15415579
_cell_length_c   13.15729183
_cell_angle_alpha   90.00000000
_cell_angle_beta   90.00000000
_cell_angle_gamma   95.12295264
_symmetry_Int_Tables_number   1
_chemical_formula_structural   Si3PH9
_chemical_formula_sum   'Si12 P4 H36'
_cell_volume   846.34997511
_cell_formula_units_Z   4
loop_
 _symmetry_equiv_pos_site_id
 _symmetry_equiv_pos_as_xyz
  1  'x, y, z'
loop_
 _atom_site_type_symbol
 _atom_site_label
 _atom_site_symmetry_multiplicity
 _atom_site_fract_x
 _atom_site_fract_y
 _atom_site_fract_z
 _atom_site_occupancy
  H  H0  1  0.17036541  0.41773588  0.97543946  1
  H  H1  1  0.82963459  0.08226412  0.47543946  1
  H  H2  1  0.82963459  0.58226412  0.02456054  1
  H  H3  1  0.17036541  0.91773588  0.52456054  1
  H  H4  1  0.17087543  0.39982534  0.79084456  1
  H  H5  1  0.82912457  0.10017466  0.29084456  1
  H  H6  1  0.82912457  0.60017466  0.20915544  1
  H  H7  1  0.17087543  0.89982534  0.70915544  1
  H  H8  1  0.19682467  0.20392851  0.89513894  1
  H  H9  1  0.80317533  0.29607149  0.39513894  1
  H  H10  1  0.80317533  0.79607149  0.10486106  1
  H  H11  1  0.19682467  0.70392851  0.60486106  1
  H  H12  1  0.79537574  0.16575706  0.68269530  1
  H  H13  1  0.20462426  0.33424294  0.18269530  1
  H  H14  1  0.20462426  0.83424294  0.31730470  1
  H  H15  1  0.79537574  0.66575706  0.81730470  1
  H  H16  1  0.84905434  0.59143456  0.45093230  1
  H  H17  1  0.15094566  0.90856544  0.95093230  1
  H  H18  1  0.15094566  0.40856544  0.54906770  1
  H  H19  1  0.84905434  0.09143456  0.04906770  1
  H  H20  1  0.75565291  0.79996155  0.38035619  1
  H  H21  1  0.24434709  0.70003845  0.88035619  1
  H  H22  1  0.24434709  0.20003845  0.61964381  1
  H  H23  1  0.75565291  0.29996155  0.11964381  1
  H  H24  1  0.48316185  0.64391237  0.45132612  1
  H  H25  1  0.51683815  0.85608763  0.95132612  1
  H  H26  1  0.51683815  0.35608763  0.54867388  1
  H  H27  1  0.48316185  0.14391237  0.04867388  1
  H  H28  1  0.83820493  0.51614305  0.67552023  1
  H  H29  1  0.16179507  0.98385695  0.17552023  1
  H  H30  1  0.16179507  0.48385695  0.32447977  1
  H  H31  1  0.83820493  0.01614305  0.82447977  1
  H  H32  1  0.48737820  0.57470918  0.72238265  1
  H  H33  1  0.51262180  0.92529082  0.22238265  1
  H  H34  1  0.51262180  0.42529082  0.27761735  1
  H  H35  1  0.48737820  0.07470918  0.77761735  1
  Si  Si36  1  0.09972854  0.33229475  0.88723994  1
  Si  Si37  1  0.90027146  0.16770525  0.38723994  1
  Si  Si38  1  0.90027146  0.66770525  0.11276006  1
  Si  Si39  1  0.09972854  0.83229475  0.61276006  1
  Si  Si40  1  0.71490688  0.12407374  0.78543539  1
  Si  Si41  1  0.28509312  0.37592626  0.28543539  1
  Si  Si42  1  0.28509312  0.87592626  0.21456461  1
  Si  Si43  1  0.71490688  0.62407374  0.71456461  1
  Si  Si44  1  0.70708375  0.20020176  0.03762787  1
  Si  Si45  1  0.29291625  0.29979824  0.53762787  1
  Si  Si46  1  0.29291625  0.79979824  0.96237213  1
  Si  Si47  1  0.70708375  0.70020176  0.46237213  1
  P  P48  1  0.74263399  0.30541708  0.88643213  1
  P  P49  1  0.25736601  0.19458292  0.38643213  1
  P  P50  1  0.25736601  0.69458292  0.11356787  1
  P  P51  1  0.74263399  0.80541708  0.61356787  1
