# generated using pymatgen
data_NaSbF4
_symmetry_space_group_name_H-M   'P 1'
_cell_length_a   5.70780842
_cell_length_b   8.16203666
_cell_length_c   8.63544452
_cell_angle_alpha   90.57707322
_cell_angle_beta   90.00000000
_cell_angle_gamma   90.00000000
_symmetry_Int_Tables_number   1
_chemical_formula_structural   NaSbF4
_chemical_formula_sum   'Na4 Sb4 F16'
_cell_volume   402.28199879
_cell_formula_units_Z   4
loop_
 _symmetry_equiv_pos_site_id
 _symmetry_equiv_pos_as_xyz
  1  'x, y, z'
loop_
 _atom_site_type_symbol
 _atom_site_label
 _atom_site_symmetry_multiplicity
 _atom_site_fract_x
 _atom_site_fract_y
 _atom_site_fract_z
 _atom_site_occupancy
  Na  Na0  1  0.79014345  0.14439674  0.33473794  1
  Na  Na1  1  0.29014345  0.85560326  0.16526206  1
  Na  Na2  1  0.70985655  0.14439674  0.83473794  1
  Na  Na3  1  0.20985655  0.85560326  0.66526206  1
  Sb  Sb4  1  0.28995646  0.32978571  0.14982127  1
  Sb  Sb5  1  0.78995646  0.67021429  0.35017873  1
  Sb  Sb6  1  0.71004354  0.67021429  0.85017873  1
  Sb  Sb7  1  0.21004354  0.32978571  0.64982127  1
  F  F8  1  0.57275782  0.18140518  0.08724369  1
  F  F9  1  0.62413323  0.88728451  0.32592650  1
  F  F10  1  0.00444861  0.59875363  0.70490863  1
  F  F11  1  0.92724218  0.18140518  0.58724369  1
  F  F12  1  0.87586677  0.88728451  0.82592650  1
  F  F13  1  0.99555139  0.40124637  0.29509137  1
  F  F14  1  0.42724218  0.81859482  0.91275631  1
  F  F15  1  0.43526985  0.29147848  0.35754589  1
  F  F16  1  0.06473015  0.29147848  0.85754589  1
  F  F17  1  0.50444861  0.40124637  0.79509137  1
  F  F18  1  0.12413323  0.11271549  0.17407350  1
  F  F19  1  0.93526985  0.70852152  0.14245411  1
  F  F20  1  0.49555139  0.59875363  0.20490863  1
  F  F21  1  0.07275782  0.81859482  0.41275631  1
  F  F22  1  0.37586677  0.11271549  0.67407350  1
  F  F23  1  0.56473015  0.70852152  0.64245411  1
