# generated using pymatgen
data_CaTiBi(PO4)3
_symmetry_space_group_name_H-M   'P 1'
_cell_length_a   9.08497431
_cell_length_b   9.08497452
_cell_length_c   9.08497413
_cell_angle_alpha   59.87919828
_cell_angle_beta   59.87919842
_cell_angle_gamma   59.87920177
_symmetry_Int_Tables_number   1
_chemical_formula_structural   CaTiBi(PO4)3
_chemical_formula_sum   'Ca2 Ti2 Bi2 P6 O24'
_cell_volume   528.76671761
_cell_formula_units_Z   2
loop_
 _symmetry_equiv_pos_site_id
 _symmetry_equiv_pos_as_xyz
  1  'x, y, z'
loop_
 _atom_site_type_symbol
 _atom_site_label
 _atom_site_symmetry_multiplicity
 _atom_site_fract_x
 _atom_site_fract_y
 _atom_site_fract_z
 _atom_site_occupancy
  Ca  Ca0  1  0.99769556  0.99769556  0.99769556  1
  Ca  Ca1  1  0.49769556  0.49769556  0.49769556  1
  Ti  Ti2  1  0.15228540  0.15228540  0.15228540  1
  Ti  Ti3  1  0.65228540  0.65228540  0.65228540  1
  Bi  Bi4  1  0.34821792  0.34821792  0.34821792  1
  Bi  Bi5  1  0.84821792  0.84821792  0.84821792  1
  P  P6  1  0.04097296  0.43961909  0.76860340  1
  P  P7  1  0.43961909  0.76860340  0.04097296  1
  P  P8  1  0.76860340  0.04097296  0.43961909  1
  P  P9  1  0.26860340  0.93961909  0.54097296  1
  P  P10  1  0.54097296  0.26860340  0.93961909  1
  P  P11  1  0.93961909  0.54097296  0.26860340  1
  O  O12  1  0.07399319  0.52033637  0.33533232  1
  O  O13  1  0.33533232  0.07399319  0.52033637  1
  O  O14  1  0.04687758  0.25742188  0.92710604  1
  O  O15  1  0.52033637  0.33533232  0.07399319  1
  O  O16  1  0.02033637  0.57399319  0.83533232  1
  O  O17  1  0.22062462  0.42380298  0.60968737  1
  O  O18  1  0.25742188  0.92710604  0.04687758  1
  O  O19  1  0.42380299  0.60968736  0.22062462  1
  O  O20  1  0.21196733  0.00613924  0.36931575  1
  O  O21  1  0.60968736  0.22062462  0.42380299  1
  O  O22  1  0.10968736  0.92380299  0.72062462  1
  O  O23  1  0.36931575  0.21196733  0.00613924  1
  O  O24  1  0.57399319  0.83533232  0.02033637  1
  O  O25  1  0.92710604  0.04687758  0.25742188  1
  O  O26  1  0.42710604  0.75742188  0.54687758  1
  O  O27  1  0.83533232  0.02033637  0.57399319  1
  O  O28  1  0.54687758  0.42710604  0.75742188  1
  O  O29  1  0.72062462  0.10968736  0.92380299  1
  O  O30  1  0.75742188  0.54687758  0.42710604  1
  O  O31  1  0.00613924  0.36931575  0.21196733  1
  O  O32  1  0.50613924  0.71196733  0.86931575  1
  O  O33  1  0.92380298  0.72062462  0.10968737  1
  O  O34  1  0.71196733  0.86931575  0.50613924  1
  O  O35  1  0.86931575  0.50613924  0.71196733  1
