# generated using pymatgen
data_Ca2Sb2S5
_symmetry_space_group_name_H-M   'P 1'
_cell_length_a   5.73777745
_cell_length_b   11.43811861
_cell_length_c   15.20776132
_cell_angle_alpha   110.85472359
_cell_angle_beta   90.00000000
_cell_angle_gamma   90.00000000
_symmetry_Int_Tables_number   1
_chemical_formula_structural   Ca2Sb2S5
_chemical_formula_sum   'Ca8 Sb8 S20'
_cell_volume   932.68807061
_cell_formula_units_Z   4
loop_
 _symmetry_equiv_pos_site_id
 _symmetry_equiv_pos_as_xyz
  1  'x, y, z'
loop_
 _atom_site_type_symbol
 _atom_site_label
 _atom_site_symmetry_multiplicity
 _atom_site_fract_x
 _atom_site_fract_y
 _atom_site_fract_z
 _atom_site_occupancy
  S  S0  1  0.26576592  0.65938426  0.29908456  1
  S  S1  1  0.76576592  0.84061574  0.70091544  1
  S  S2  1  0.73423408  0.34061574  0.70091544  1
  S  S3  1  0.23423408  0.15938426  0.29908456  1
  S  S4  1  0.30308017  0.93626447  0.87879522  1
  S  S5  1  0.80308017  0.56373553  0.12120478  1
  S  S6  1  0.69691983  0.06373553  0.12120478  1
  S  S7  1  0.19691983  0.43626447  0.87879522  1
  S  S8  1  0.27458138  0.59569031  0.69536926  1
  S  S9  1  0.77458138  0.90430969  0.30463074  1
  S  S10  1  0.72541862  0.40430969  0.30463074  1
  S  S11  1  0.22541862  0.09569031  0.69536926  1
  S  S12  1  0.01044067  0.84699218  0.50036287  1
  S  S13  1  0.51044067  0.65300782  0.49963713  1
  S  S14  1  0.98955933  0.15300782  0.49963713  1
  S  S15  1  0.48955933  0.34699218  0.50036287  1
  S  S16  1  0.77315304  0.72373855  0.90405715  1
  S  S17  1  0.27315304  0.77626145  0.09594285  1
  S  S18  1  0.22684696  0.27626145  0.09594285  1
  S  S19  1  0.72684696  0.22373855  0.90405715  1
  Ca  Ca20  1  0.26687008  0.83199004  0.66618723  1
  Ca  Ca21  1  0.76687008  0.66800996  0.33381277  1
  Ca  Ca22  1  0.73312992  0.16800996  0.33381277  1
  Ca  Ca23  1  0.23312992  0.33199004  0.66618723  1
  Ca  Ca24  1  0.72442711  0.30676607  0.10651533  1
  Ca  Ca25  1  0.22442711  0.19323393  0.89348467  1
  Ca  Ca26  1  0.27557289  0.69323393  0.89348467  1
  Ca  Ca27  1  0.77557289  0.80676607  0.10651533  1
  Sb  Sb28  1  0.15537726  0.94685448  0.38420014  1
  Sb  Sb29  1  0.65537726  0.55314552  0.61579986  1
  Sb  Sb30  1  0.84462274  0.05314552  0.61579986  1
  Sb  Sb31  1  0.34462274  0.44685448  0.38420014  1
  Sb  Sb32  1  0.23941656  0.57414045  0.12515157  1
  Sb  Sb33  1  0.73941656  0.92585955  0.87484843  1
  Sb  Sb34  1  0.76058344  0.42585955  0.87484843  1
  Sb  Sb35  1  0.26058344  0.07414045  0.12515157  1
