# generated using pymatgen
data_Sr5(AlSb3)2
_symmetry_space_group_name_H-M   'P 1'
_cell_length_a   10.41128927
_cell_length_b   12.19525472
_cell_length_c   13.65521310
_cell_angle_alpha   90.00000000
_cell_angle_beta   90.00000000
_cell_angle_gamma   90.00000000
_symmetry_Int_Tables_number   1
_chemical_formula_structural   Sr5(AlSb3)2
_chemical_formula_sum   'Sr20 Al8 Sb24'
_cell_volume   1733.77952952
_cell_formula_units_Z   4
loop_
 _symmetry_equiv_pos_site_id
 _symmetry_equiv_pos_as_xyz
  1  'x, y, z'
loop_
 _atom_site_type_symbol
 _atom_site_label
 _atom_site_symmetry_multiplicity
 _atom_site_fract_x
 _atom_site_fract_y
 _atom_site_fract_z
 _atom_site_occupancy
  Sr  Sr0  1  0.98004638  0.83157048  0.53443602  1
  Sr  Sr1  1  0.25000000  0.16083389  0.18671111  1
  Sr  Sr2  1  0.48004638  0.66842952  0.03443602  1
  Sr  Sr3  1  0.51995362  0.33157048  0.96556398  1
  Sr  Sr4  1  0.47425503  0.58103912  0.73750823  1
  Sr  Sr5  1  0.52574497  0.91896088  0.23750823  1
  Sr  Sr6  1  0.75000000  0.33916611  0.68671111  1
  Sr  Sr7  1  0.48004638  0.16842952  0.46556398  1
  Sr  Sr8  1  0.02574497  0.08103912  0.76249177  1
  Sr  Sr9  1  0.02574497  0.58103912  0.73750823  1
  Sr  Sr10  1  0.52574497  0.41896088  0.26249177  1
  Sr  Sr11  1  0.75000000  0.83916611  0.81328889  1
  Sr  Sr12  1  0.98004638  0.33157048  0.96556398  1
  Sr  Sr13  1  0.51995362  0.83157048  0.53443602  1
  Sr  Sr14  1  0.01995362  0.66842952  0.03443602  1
  Sr  Sr15  1  0.47425503  0.08103912  0.76249177  1
  Sr  Sr16  1  0.97425503  0.41896088  0.26249177  1
  Sr  Sr17  1  0.97425503  0.91896088  0.23750823  1
  Sr  Sr18  1  0.25000000  0.66083389  0.31328889  1
  Sr  Sr19  1  0.01995362  0.16842952  0.46556398  1
  Al  Al20  1  0.75000000  0.57978852  0.43418824  1
  Al  Al21  1  0.25000000  0.42021148  0.56581176  1
  Al  Al22  1  0.25000000  0.81050460  0.70093015  1
  Al  Al23  1  0.75000000  0.18949540  0.29906985  1
  Al  Al24  1  0.25000000  0.92021148  0.93418824  1
  Al  Al25  1  0.75000000  0.68949540  0.20093015  1
  Al  Al26  1  0.75000000  0.07978852  0.06581176  1
  Al  Al27  1  0.25000000  0.31050460  0.79906985  1
  Sb  Sb28  1  0.75000000  0.64354699  0.62250049  1
  Sb  Sb29  1  0.05676580  0.82692226  0.83081112  1
  Sb  Sb30  1  0.94323420  0.67307774  0.33081112  1
  Sb  Sb31  1  0.25000000  0.95400218  0.37618648  1
  Sb  Sb32  1  0.05676580  0.32692226  0.66918888  1
  Sb  Sb33  1  0.25000000  0.64957109  0.56278844  1
  Sb  Sb34  1  0.44323420  0.32692226  0.66918888  1
  Sb  Sb35  1  0.55676580  0.17307774  0.16918888  1
  Sb  Sb36  1  0.25000000  0.49872078  0.91148910  1
  Sb  Sb37  1  0.75000000  0.35042891  0.43721156  1
  Sb  Sb38  1  0.25000000  0.14957109  0.93721156  1
  Sb  Sb39  1  0.25000000  0.45400218  0.12381352  1
  Sb  Sb40  1  0.55676580  0.67307774  0.33081112  1
  Sb  Sb41  1  0.25000000  0.35645301  0.37749951  1
  Sb  Sb42  1  0.75000000  0.14354699  0.87749951  1
  Sb  Sb43  1  0.94323420  0.17307774  0.16918888  1
  Sb  Sb44  1  0.75000000  0.00127922  0.41148910  1
  Sb  Sb45  1  0.75000000  0.04599782  0.62381352  1
  Sb  Sb46  1  0.75000000  0.54599782  0.87618648  1
  Sb  Sb47  1  0.75000000  0.50127922  0.08851090  1
  Sb  Sb48  1  0.25000000  -0.00127922  0.58851090  1
  Sb  Sb49  1  0.75000000  0.85042891  0.06278844  1
  Sb  Sb50  1  0.44323420  0.82692226  0.83081112  1
  Sb  Sb51  1  0.25000000  0.85645301  0.12250049  1
