# generated using pymatgen
data_KNaSe
_symmetry_space_group_name_H-M   'P 1'
_cell_length_a   4.85415511
_cell_length_b   8.14135479
_cell_length_c   8.77920740
_cell_angle_alpha   90.00000000
_cell_angle_beta   90.00000000
_cell_angle_gamma   90.00000000
_symmetry_Int_Tables_number   1
_chemical_formula_structural   KNaSe
_chemical_formula_sum   'K4 Na4 Se4'
_cell_volume   346.94899976
_cell_formula_units_Z   4
loop_
 _symmetry_equiv_pos_site_id
 _symmetry_equiv_pos_as_xyz
  1  'x, y, z'
loop_
 _atom_site_type_symbol
 _atom_site_label
 _atom_site_symmetry_multiplicity
 _atom_site_fract_x
 _atom_site_fract_y
 _atom_site_fract_z
 _atom_site_occupancy
  Na  Na0  1  0.75000000  0.14637134  0.57508746  1
  Na  Na1  1  0.25000000  0.85362866  0.42491254  1
  Na  Na2  1  0.25000000  0.35362866  0.07508746  1
  Na  Na3  1  0.75000000  0.64637134  0.92491254  1
  K  K4  1  0.75000000  0.51362800  0.31522108  1
  K  K5  1  0.75000000  0.01362800  0.18477892  1
  K  K6  1  0.25000000  0.48637200  0.68477892  1
  K  K7  1  0.25000000  0.98637200  0.81522108  1
  Se  Se8  1  0.75000000  0.77925822  0.60497125  1
  Se  Se9  1  0.25000000  0.22074178  0.39502875  1
  Se  Se10  1  0.75000000  0.27925822  0.89502875  1
  Se  Se11  1  0.25000000  0.72074178  0.10497125  1
