# generated using pymatgen
data_K2PuCl5
_symmetry_space_group_name_H-M   'P 1'
_cell_length_a   8.03115856
_cell_length_b   8.57491972
_cell_length_c   13.06594712
_cell_angle_alpha   90.00000000
_cell_angle_beta   90.00000000
_cell_angle_gamma   90.00000000
_symmetry_Int_Tables_number   1
_chemical_formula_structural   K2PuCl5
_chemical_formula_sum   'K8 Pu4 Cl20'
_cell_volume   899.80656881
_cell_formula_units_Z   4
loop_
 _symmetry_equiv_pos_site_id
 _symmetry_equiv_pos_as_xyz
  1  'x, y, z'
loop_
 _atom_site_type_symbol
 _atom_site_label
 _atom_site_symmetry_multiplicity
 _atom_site_fract_x
 _atom_site_fract_y
 _atom_site_fract_z
 _atom_site_occupancy
  K  K0  1  0.53796328  0.49230986  0.67740227  1
  K  K1  1  0.96203672  0.49230986  0.17740227  1
  K  K2  1  0.03796328  0.50769014  0.82259773  1
  K  K3  1  0.53796328  0.00769014  0.67740227  1
  K  K4  1  0.46203672  0.50769014  0.32259773  1
  K  K5  1  0.46203672  0.99230986  0.32259773  1
  K  K6  1  0.96203672  0.00769014  0.17740227  1
  K  K7  1  0.03796328  0.99230986  0.82259773  1
  Pu  Pu8  1  0.06603759  0.25000000  0.50586644  1
  Pu  Pu9  1  0.43396241  0.25000000  0.00586644  1
  Pu  Pu10  1  0.56603759  0.75000000  0.99413356  1
  Pu  Pu11  1  0.93396241  0.75000000  0.49413356  1
  Cl  Cl12  1  0.82466228  0.75000000  0.69380912  1
  Cl  Cl13  1  0.15941614  0.95791848  0.57981816  1
  Cl  Cl14  1  0.65941614  0.45791848  0.92018184  1
  Cl  Cl15  1  0.12892785  0.75000000  0.32276191  1
  Cl  Cl16  1  0.08256109  0.25000000  0.01764166  1
  Cl  Cl17  1  0.37107215  0.75000000  0.82276191  1
  Cl  Cl18  1  0.17533772  0.25000000  0.30619088  1
  Cl  Cl19  1  0.41743891  0.25000000  0.51764166  1
  Cl  Cl20  1  0.34058386  0.54208152  0.07981816  1
  Cl  Cl21  1  0.34058386  0.95791848  0.07981816  1
  Cl  Cl22  1  0.67533772  0.75000000  0.19380912  1
  Cl  Cl23  1  0.62892785  0.25000000  0.17723809  1
  Cl  Cl24  1  0.65941614  0.04208152  0.92018184  1
  Cl  Cl25  1  0.87107215  0.25000000  0.67723809  1
  Cl  Cl26  1  0.84058386  0.45791848  0.42018184  1
  Cl  Cl27  1  0.32466228  0.25000000  0.80619088  1
  Cl  Cl28  1  0.15941614  0.54208152  0.57981816  1
  Cl  Cl29  1  0.58256109  0.75000000  0.48235834  1
  Cl  Cl30  1  0.84058386  0.04208152  0.42018184  1
  Cl  Cl31  1  0.91743891  0.75000000  0.98235834  1
