# generated using pymatgen
data_B9H11
_symmetry_space_group_name_H-M   'P 1'
_cell_length_a   10.90446935
_cell_length_b   11.15666465
_cell_length_c   12.47187976
_cell_angle_alpha   90.00000000
_cell_angle_beta   90.00000000
_cell_angle_gamma   90.00000000
_symmetry_Int_Tables_number   1
_chemical_formula_structural   B9H11
_chemical_formula_sum   'B72 H88'
_cell_volume   1517.29780824
_cell_formula_units_Z   8
loop_
 _symmetry_equiv_pos_site_id
 _symmetry_equiv_pos_as_xyz
  1  'x, y, z'
loop_
 _atom_site_type_symbol
 _atom_site_label
 _atom_site_symmetry_multiplicity
 _atom_site_fract_x
 _atom_site_fract_y
 _atom_site_fract_z
 _atom_site_occupancy
  H  H0  1  0.76728890  0.93738544  0.48826468  1
  H  H1  1  0.76728890  0.56261456  0.01173532  1
  H  H2  1  0.73271110  0.43738544  0.51173532  1
  H  H3  1  0.73271110  0.06261456  0.98826468  1
  H  H4  1  0.23271110  0.06261456  0.51173532  1
  H  H5  1  0.23271110  0.43738544  0.98826468  1
  H  H6  1  0.26728890  0.56261456  0.48826468  1
  H  H7  1  0.26728890  0.93738544  0.01173532  1
  H  H8  1  0.70426388  0.03561077  0.60312256  1
  H  H9  1  0.70426388  0.46438923  0.89687744  1
  H  H10  1  0.79573612  0.53561077  0.39687744  1
  H  H11  1  0.79573612  0.96438923  0.10312256  1
  H  H12  1  0.29573612  0.96438923  0.39687744  1
  H  H13  1  0.29573612  0.53561077  0.10312256  1
  H  H14  1  0.20426388  0.46438923  0.60312256  1
  H  H15  1  0.20426388  0.03561077  0.89687744  1
  H  H16  1  0.59948655  0.86811879  0.44544278  1
  H  H17  1  0.59948655  0.63188121  0.05455722  1
  H  H18  1  0.90051345  0.36811879  0.55455722  1
  H  H19  1  0.90051345  0.13188121  0.94544278  1
  H  H20  1  0.40051345  0.13188121  0.55455722  1
  H  H21  1  0.40051345  0.36811879  0.94544278  1
  H  H22  1  0.09948655  0.63188121  0.44544278  1
  H  H23  1  0.09948655  0.86811879  0.05455722  1
  H  H24  1  0.59291050  0.86926951  0.28485437  1
  H  H25  1  0.59291050  0.63073049  0.21514563  1
  H  H26  1  0.90708950  0.36926951  0.71514563  1
  H  H27  1  0.90708950  0.13073049  0.78485437  1
  H  H28  1  0.40708950  0.13073049  0.71514563  1
  H  H29  1  0.40708950  0.36926951  0.78485437  1
  H  H30  1  0.09291050  0.63073049  0.28485437  1
  H  H31  1  0.09291050  0.86926951  0.21514563  1
  H  H32  1  0.84914036  0.95952844  0.34556952  1
  H  H33  1  0.84914036  0.54047156  0.15443048  1
  H  H34  1  0.65085964  0.45952844  0.65443048  1
  H  H35  1  0.65085964  0.04047156  0.84556952  1
  H  H36  1  0.15085964  0.04047156  0.65443048  1
  H  H37  1  0.15085964  0.45952844  0.84556952  1
  H  H38  1  0.34914036  0.54047156  0.34556952  1
  H  H39  1  0.81212718  0.23043857  0.41168098  1
  H  H40  1  0.34914036  0.95952844  0.15443048  1
  H  H41  1  0.88795966  0.46433106  0.92205800  1
  H  H42  1  0.61204034  0.53566894  0.42205800  1
  H  H43  1  0.61204034  0.96433106  0.07794200  1
  H  H44  1  0.11204034  0.96433106  0.42205800  1
  H  H45  1  0.11204034  0.53566894  0.07794200  1
  H  H46  1  0.38795966  0.46433106  0.57794200  1
  H  H47  1  0.38795966  0.03566894  0.92205800  1
  H  H48  1  0.67534441  0.20822156  0.63768427  1
  H  H49  1  0.67534441  0.29177844  0.86231573  1
  H  H50  1  0.82465559  0.70822156  0.36231573  1
  H  H51  1  0.82465559  0.79177844  0.13768427  1
  H  H52  1  0.32465559  0.79177844  0.36231573  1
  H  H53  1  0.32465559  0.70822156  0.13768427  1
  H  H54  1  0.17534441  0.29177844  0.63768427  1
  H  H55  1  0.17534441  0.20822156  0.86231573  1
  H  H56  1  0.41441717  0.08348219  0.33169938  1
  H  H57  1  0.41441717  0.41651781  0.16830062  1
  H  H58  1  0.08558283  0.58348219  0.66830062  1
  H  H59  1  0.08558283  0.91651781  0.83169938  1
  H  H60  1  0.58558283  0.91651781  0.66830062  1
  H  H61  1  0.58558283  0.58348219  0.83169938  1
  H  H62  1  0.91441717  0.41651781  0.33169938  1
  H  H63  1  0.91441717  0.08348219  0.16830062  1
  H  H64  1  0.65998130  0.11492886  0.25021009  1
  H  H65  1  0.65998130  0.38507114  0.24978991  1
  H  H66  1  0.84001870  0.61492886  0.74978991  1
  H  H67  1  0.84001870  0.88507114  0.75021009  1
  H  H68  1  0.34001870  0.88507114  0.74978991  1
  H  H69  1  0.34001870  0.61492886  0.75021009  1
  H  H70  1  0.15998130  0.38507114  0.25021009  1
  H  H71  1  0.15998130  0.11492886  0.24978991  1
  H  H72  1  0.04523454  0.27318668  0.05794277  1
  H  H73  1  0.04523454  0.22681332  0.44205723  1
  H  H74  1  0.45476546  0.77318668  0.94205723  1
  H  H75  1  0.45476546  0.72681332  0.55794277  1
  H  H76  1  0.95476546  0.72681332  0.94205723  1
  H  H77  1  0.95476546  0.77318668  0.55794277  1
  H  H78  1  0.54523454  0.22681332  0.05794277  1
  H  H79  1  0.54523454  0.27318668  0.44205723  1
  H  H80  1  0.31212718  0.23043857  0.08831902  1
  H  H81  1  0.31212718  0.26956143  0.41168098  1
  H  H82  1  0.18787282  0.73043857  0.91168098  1
  H  H83  1  0.18787282  0.76956143  0.58831902  1
  H  H84  1  0.68787282  0.76956143  0.91168098  1
  H  H85  1  0.68787282  0.73043857  0.58831902  1
  H  H86  1  0.81212718  0.26956143  0.08831902  1
  H  H87  1  0.88795966  0.03566894  0.57794200  1
  B  B88  1  0.49367300  0.92714026  0.46884004  1
  B  B89  1  0.49367300  0.57285974  0.03115996  1
  B  B90  1  0.00632700  0.42714026  0.53115996  1
  B  B91  1  0.00632700  0.07285974  0.96884004  1
  B  B92  1  0.50632700  0.07285974  0.53115996  1
  B  B93  1  0.50632700  0.42714026  0.96884004  1
  B  B94  1  0.99367300  0.57285974  0.46884004  1
  B  B95  1  0.99367300  0.92714026  0.03115996  1
  B  B96  1  0.60246279  0.93590124  0.35912361  1
  B  B97  1  0.60246279  0.56409876  0.14087639  1
  B  B98  1  0.89753721  0.43590124  0.64087639  1
  B  B99  1  0.89753721  0.06409876  0.85912361  1
  B  B100  1  0.39753721  0.06409876  0.64087639  1
  B  B101  1  0.39753721  0.43590124  0.85912361  1
  B  B102  1  0.10246279  0.56409876  0.35912361  1
  B  B103  1  0.10246279  0.93590124  0.14087639  1
  B  B104  1  0.76487292  0.99718331  0.39633112  1
  B  B105  1  0.76487292  0.50281669  0.10366888  1
  B  B106  1  0.73512708  0.49718331  0.60366888  1
  B  B107  1  0.73512708  0.00281669  0.89633112  1
  B  B108  1  0.23512708  0.00281669  0.60366888  1
  B  B109  1  0.23512708  0.49718331  0.89633112  1
  B  B110  1  0.26487292  0.50281669  0.39633112  1
  B  B111  1  0.26487292  0.99718331  0.10366888  1
  B  B112  1  0.79349691  0.04521774  0.53087051  1
  B  B113  1  0.79349691  0.45478226  0.96912949  1
  B  B114  1  0.70650309  0.54521774  0.46912949  1
  B  B115  1  0.70650309  0.95478226  0.03087051  1
  B  B116  1  0.20650309  0.95478226  0.46912949  1
  B  B117  1  0.20650309  0.54521774  0.03087051  1
  B  B118  1  0.29349691  0.45478226  0.53087051  1
  B  B119  1  0.29349691  0.04521774  0.96912949  1
  B  B120  1  0.66914572  0.14074660  0.56371173  1
  B  B121  1  0.66914572  0.35925340  0.93628827  1
  B  B122  1  0.83085428  0.64074660  0.43628827  1
  B  B123  1  0.83085428  0.85925340  0.06371173  1
  B  B124  1  0.33085428  0.85925340  0.43628827  1
  B  B125  1  0.33085428  0.64074660  0.06371173  1
  B  B126  1  0.16914572  0.35925340  0.56371173  1
  B  B127  1  0.16914572  0.14074660  0.93628827  1
  B  B128  1  0.49870670  0.05607580  0.38728362  1
  B  B129  1  0.49870670  0.44392420  0.11271638  1
  B  B130  1  1.00129330  0.55607580  0.61271638  1
  B  B131  1  1.00129330  0.94392420  0.88728362  1
  B  B132  1  0.50129330  0.94392420  0.61271638  1
  B  B133  1  0.50129330  0.55607580  0.88728362  1
  B  B134  1  -0.00129330  0.44392420  0.38728362  1
  B  B135  1  -0.00129330  0.05607580  0.11271638  1
  B  B136  1  0.64788471  0.08560564  0.34168207  1
  B  B137  1  0.64788471  0.41439436  0.15831793  1
  B  B138  1  0.85211529  0.58560564  0.65831793  1
  B  B139  1  0.85211529  0.91439436  0.84168207  1
  B  B140  1  0.35211529  0.91439436  0.65831793  1
  B  B141  1  0.35211529  0.58560564  0.84168207  1
  B  B142  1  0.14788471  0.41439436  0.34168207  1
  B  B143  1  0.14788471  0.08560564  0.15831793  1
  B  B144  1  0.74679889  0.15020751  0.43877501  1
  B  B145  1  0.74679889  0.34979249  0.06122499  1
  B  B146  1  0.75320111  0.65020751  0.56122499  1
  B  B147  1  0.75320111  0.84979249  0.93877501  1
  B  B148  1  0.25320111  0.84979249  0.56122499  1
  B  B149  1  0.25320111  0.65020751  0.93877501  1
  B  B150  1  0.24679889  0.34979249  0.43877501  1
  B  B151  1  0.24679889  0.15020751  0.06122499  1
  B  B152  1  0.58501939  0.17371918  0.44802458  1
  B  B153  1  0.58501939  0.32628082  0.05197542  1
  B  B154  1  0.91498061  0.67371918  0.55197542  1
  B  B155  1  0.91498061  0.82628082  0.94802458  1
  B  B156  1  0.41498061  0.82628082  0.55197542  1
  B  B157  1  0.41498061  0.67371918  0.94802458  1
  B  B158  1  0.08501939  0.32628082  0.44802458  1
  B  B159  1  0.08501939  0.17371918  0.05197542  1
