# generated using pymatgen
data_K2Te2As
_symmetry_space_group_name_H-M   'P 1'
_cell_length_a   8.36750758
_cell_length_b   9.22282252
_cell_length_c   20.49369578
_cell_angle_alpha   90.00000000
_cell_angle_beta   90.00000000
_cell_angle_gamma   90.00000000
_symmetry_Int_Tables_number   1
_chemical_formula_structural   K2Te2As
_chemical_formula_sum   'K16 Te16 As8'
_cell_volume   1581.54025607
_cell_formula_units_Z   8
loop_
 _symmetry_equiv_pos_site_id
 _symmetry_equiv_pos_as_xyz
  1  'x, y, z'
loop_
 _atom_site_type_symbol
 _atom_site_label
 _atom_site_symmetry_multiplicity
 _atom_site_fract_x
 _atom_site_fract_y
 _atom_site_fract_z
 _atom_site_occupancy
  K  K0  1  0.25000000  0.41959618  0.54342090  1
  K  K1  1  0.75000000  0.58040382  0.45657910  1
  K  K2  1  0.75000000  0.91959618  0.95657910  1
  K  K3  1  0.25000000  0.08040382  0.04342090  1
  K  K4  1  0.25000000  0.49846192  0.18820361  1
  K  K5  1  0.75000000  0.50153808  0.81179639  1
  K  K6  1  0.75000000  0.99846192  0.31179639  1
  K  K7  1  0.25000000  0.00153808  0.68820361  1
  K  K8  1  0.25000000  0.60375857  0.71643609  1
  K  K9  1  0.75000000  0.39624143  0.28356391  1
  K  K10  1  0.75000000  0.10375857  0.78356391  1
  K  K11  1  0.25000000  0.89624143  0.21643609  1
  K  K12  1  0.25000000  0.92524682  0.44256189  1
  K  K13  1  0.75000000  0.07475318  0.55743811  1
  K  K14  1  0.75000000  0.42524682  0.05743811  1
  K  K15  1  0.25000000  0.57475318  0.94256189  1
  As  As16  1  0.25000000  0.31252293  0.34896745  1
  As  As17  1  0.75000000  0.68747707  0.65103255  1
  As  As18  1  0.75000000  0.81252293  0.15103255  1
  As  As19  1  0.25000000  0.18747707  0.84896745  1
  As  As20  1  0.25000000  0.57302843  0.38678572  1
  As  As21  1  0.75000000  0.42697157  0.61321428  1
  As  As22  1  0.75000000  0.07302843  0.11321428  1
  As  As23  1  0.25000000  0.92697157  0.88678572  1
  Te  Te24  1  0.99671302  0.23895908  0.41798174  1
  Te  Te25  1  0.49671302  0.76104092  0.58201826  1
  Te  Te26  1  0.00328698  0.73895908  0.08201826  1
  Te  Te27  1  0.50328698  0.26104092  0.91798174  1
  Te  Te28  1  0.00328698  0.76104092  0.58201826  1
  Te  Te29  1  0.50328698  0.23895908  0.41798174  1
  Te  Te30  1  0.99671302  0.26104092  0.91798174  1
  Te  Te31  1  0.49671302  0.73895908  0.08201826  1
  Te  Te32  1  0.99196980  0.18086863  0.17914620  1
  Te  Te33  1  0.49196980  0.81913137  0.82085380  1
  Te  Te34  1  0.00803020  0.68086863  0.32085380  1
  Te  Te35  1  0.50803020  0.31913137  0.67914620  1
  Te  Te36  1  0.00803020  0.81913137  0.82085380  1
  Te  Te37  1  0.50803020  0.18086863  0.17914620  1
  Te  Te38  1  0.99196980  0.31913137  0.67914620  1
  Te  Te39  1  0.49196980  0.68086863  0.32085380  1
