# generated using pymatgen
data_Cs3Sb5O14
_symmetry_space_group_name_H-M   'P 1'
_cell_length_a   7.46196685
_cell_length_b   7.47213029
_cell_length_c   25.90694408
_cell_angle_alpha   90.00000000
_cell_angle_beta   90.00000000
_cell_angle_gamma   90.00000000
_symmetry_Int_Tables_number   1
_chemical_formula_structural   Cs3Sb5O14
_chemical_formula_sum   'Cs12 Sb20 O56'
_cell_volume   1444.48800234
_cell_formula_units_Z   4
loop_
 _symmetry_equiv_pos_site_id
 _symmetry_equiv_pos_as_xyz
  1  'x, y, z'
loop_
 _atom_site_type_symbol
 _atom_site_label
 _atom_site_symmetry_multiplicity
 _atom_site_fract_x
 _atom_site_fract_y
 _atom_site_fract_z
 _atom_site_occupancy
  O  O0  1  0.00000000  0.08867941  0.66385631  1
  O  O1  1  0.00000000  0.91132059  0.33614369  1
  O  O2  1  0.00000000  0.58867941  0.83614369  1
  O  O3  1  0.00000000  0.41132059  0.16385631  1
  O  O4  1  0.23352679  0.53457299  0.08469129  1
  O  O5  1  0.23352679  0.46542701  0.91530871  1
  O  O6  1  0.76647321  0.03457299  0.41530871  1
  O  O7  1  0.76647321  0.96542701  0.58469129  1
  O  O8  1  0.76647321  0.46542701  0.91530871  1
  O  O9  1  0.76647321  0.53457299  0.08469129  1
  O  O10  1  0.23352679  0.96542701  0.58469129  1
  O  O11  1  0.23352679  0.03457299  0.41530871  1
  O  O12  1  0.00000000  0.16213584  0.91157695  1
  O  O13  1  0.00000000  0.83786416  0.08842305  1
  O  O14  1  0.00000000  0.66213584  0.58842305  1
  O  O15  1  0.00000000  0.33786416  0.41157695  1
  O  O16  1  0.50000000  0.16133580  0.62061530  1
  O  O17  1  0.50000000  0.83866420  0.37938470  1
  O  O18  1  0.50000000  0.66133580  0.87938470  1
  O  O19  1  0.50000000  0.33866420  0.12061530  1
  O  O20  1  0.30890946  0.57151933  0.19375391  1
  O  O21  1  0.29404850  0.67123544  0.29743382  1
  O  O22  1  0.30890946  0.42848067  0.80624609  1
  O  O23  1  0.69109054  0.92848067  0.69375391  1
  O  O24  1  0.69109054  0.42848067  0.80624609  1
  O  O25  1  0.69109054  0.57151933  0.19375391  1
  O  O26  1  0.30890946  0.92848067  0.69375391  1
  O  O27  1  0.30890946  0.07151933  0.30624609  1
  O  O28  1  0.17584657  0.50000000  0.50000000  1
  O  O29  1  0.82415343  0.00000000  0.00000000  1
  O  O30  1  0.82415343  0.50000000  0.50000000  1
  O  O31  1  0.17584657  0.00000000  0.00000000  1
  O  O32  1  0.50000000  0.37265453  0.27558464  1
  O  O33  1  0.50000000  0.62734547  0.72441536  1
  O  O34  1  0.50000000  0.87265453  0.22441536  1
  O  O35  1  0.50000000  0.12734547  0.77558464  1
  O  O36  1  0.00000000  0.34164244  0.01573095  1
  O  O37  1  0.00000000  0.65835756  0.98426905  1
  O  O38  1  0.00000000  0.84164244  0.48426905  1
  O  O39  1  0.00000000  0.15835756  0.51573095  1
  O  O40  1  0.20076406  0.16074245  0.09787549  1
  O  O41  1  0.20076406  0.83925755  0.90212451  1
  O  O42  1  0.79923594  0.66074245  0.40212451  1
  O  O43  1  0.79923594  0.33925755  0.59787549  1
  O  O44  1  0.79923594  0.83925755  0.90212451  1
  O  O45  1  0.79923594  0.16074245  0.09787549  1
  O  O46  1  0.20076406  0.33925755  0.59787549  1
  O  O47  1  0.20076406  0.66074245  0.40212451  1
  O  O48  1  0.29404850  0.17123544  0.20256618  1
  O  O49  1  0.29404850  0.82876456  0.79743382  1
  O  O50  1  0.70595150  0.67123544  0.29743382  1
  O  O51  1  0.70595150  0.32876456  0.70256618  1
  O  O52  1  0.70595150  0.82876456  0.79743382  1
  O  O53  1  0.70595150  0.17123544  0.20256618  1
  O  O54  1  0.29404850  0.32876456  0.70256618  1
  O  O55  1  0.69109054  0.07151933  0.30624609  1
  Sb  Sb56  1  0.25718989  0.85953174  0.35012894  1
  Sb  Sb57  1  0.25718989  0.14046826  0.64987106  1
  Sb  Sb58  1  0.74281011  0.35953174  0.14987106  1
  Sb  Sb59  1  0.74281011  0.64046826  0.85012894  1
  Sb  Sb60  1  0.74281011  0.14046826  0.64987106  1
  Sb  Sb61  1  0.74281011  0.85953174  0.35012894  1
  Sb  Sb62  1  0.25718989  0.64046826  0.85012894  1
  Sb  Sb63  1  0.25718989  0.35953174  0.14987106  1
  Sb  Sb64  1  0.50000000  0.38035641  0.75222147  1
  Sb  Sb65  1  0.50000000  0.61964359  0.24777853  1
  Sb  Sb66  1  0.50000000  0.88035641  0.74777853  1
  Sb  Sb67  1  0.50000000  0.11964359  0.25222147  1
  Sb  Sb68  1  0.00000000  0.40351712  0.94051111  1
  Sb  Sb69  1  0.00000000  0.59648288  0.05948889  1
  Sb  Sb70  1  0.00000000  0.90351712  0.55948889  1
  Sb  Sb71  1  0.00000000  0.09648288  0.44051111  1
  Sb  Sb72  1  0.00000000  0.42015224  0.55528555  1
  Sb  Sb73  1  0.00000000  0.57984776  0.44471445  1
  Sb  Sb74  1  0.00000000  0.92015224  0.94471445  1
  Sb  Sb75  1  0.00000000  0.07984776  0.05528555  1
  Cs  Cs76  1  0.50000000  0.13344020  0.88112607  1
  Cs  Cs77  1  0.50000000  0.86655980  0.11887393  1
  Cs  Cs78  1  0.50000000  0.63344020  0.61887393  1
  Cs  Cs79  1  0.50000000  0.36655980  0.38112607  1
  Cs  Cs80  1  0.00000000  0.14072519  0.78882043  1
  Cs  Cs81  1  0.00000000  0.85927481  0.21117957  1
  Cs  Cs82  1  0.00000000  0.64072519  0.71117957  1
  Cs  Cs83  1  0.00000000  0.35927481  0.28882043  1
  Cs  Cs84  1  0.50000000  0.23724329  0.51693650  1
  Cs  Cs85  1  0.50000000  0.76275671  0.48306350  1
  Cs  Cs86  1  0.50000000  0.73724329  0.98306350  1
  Cs  Cs87  1  0.50000000  0.26275671  0.01693650  1
