# generated using pymatgen
data_La3RuI3
_symmetry_space_group_name_H-M   'P 1'
_cell_length_a   4.41482761
_cell_length_b   9.63695287
_cell_length_c   12.47135735
_cell_angle_alpha   93.44336036
_cell_angle_beta   90.00000000
_cell_angle_gamma   90.00000000
_symmetry_Int_Tables_number   1
_chemical_formula_structural   La3RuI3
_chemical_formula_sum   'La6 Ru2 I6'
_cell_volume   529.64204172
_cell_formula_units_Z   2
loop_
 _symmetry_equiv_pos_site_id
 _symmetry_equiv_pos_as_xyz
  1  'x, y, z'
loop_
 _atom_site_type_symbol
 _atom_site_label
 _atom_site_symmetry_multiplicity
 _atom_site_fract_x
 _atom_site_fract_y
 _atom_site_fract_z
 _atom_site_occupancy
  La  La0  1  0.25000000  0.09913790  0.89624980  1
  La  La1  1  0.75000000  0.31597103  0.12054098  1
  La  La2  1  0.75000000  0.88036880  0.66890783  1
  La  La3  1  0.75000000  0.90086210  0.10375020  1
  La  La4  1  0.25000000  0.68402897  0.87945902  1
  La  La5  1  0.25000000  0.11963120  0.33109217  1
  Ru  Ru6  1  0.25000000  0.11458374  0.12862141  1
  Ru  Ru7  1  0.75000000  0.88541626  0.87137859  1
  I  I8  1  0.25000000  0.13118929  0.62038609  1
  I  I9  1  0.75000000  0.39223886  0.86341444  1
  I  I10  1  0.25000000  0.62951861  0.61780806  1
  I  I11  1  0.75000000  0.37048139  0.38219194  1
  I  I12  1  0.25000000  0.60776114  0.13658556  1
  I  I13  1  0.75000000  0.86881071  0.37961391  1
