# generated using pymatgen
data_La3(TaN3)2
_symmetry_space_group_name_H-M   'P 1'
_cell_length_a   4.08892004
_cell_length_b   4.08892004
_cell_length_c   10.49780875
_cell_angle_alpha   101.23018511
_cell_angle_beta   101.23018511
_cell_angle_gamma   90.00000007
_symmetry_Int_Tables_number   1
_chemical_formula_structural   La3(TaN3)2
_chemical_formula_sum   'La3 Ta2 N6'
_cell_volume   168.72743941
_cell_formula_units_Z   1
loop_
 _symmetry_equiv_pos_site_id
 _symmetry_equiv_pos_as_xyz
  1  'x, y, z'
loop_
 _atom_site_type_symbol
 _atom_site_label
 _atom_site_symmetry_multiplicity
 _atom_site_fract_x
 _atom_site_fract_y
 _atom_site_fract_z
 _atom_site_occupancy
  N  N0  1  0.58553582  0.08553582  0.17107164  1
  N  N1  1  0.08553582  0.58553582  0.17107164  1
  N  N2  1  0.41446418  0.91446418  0.82892836  1
  N  N3  1  0.91446418  0.41446418  0.82892836  1
  N  N4  1  0.69803805  0.69803805  0.39607610  1
  N  N5  1  0.30196195  0.30196195  0.60392390  1
  La  La6  1  0.18054525  0.18054525  0.36109050  1
  La  La7  1  0.81945475  0.81945475  0.63890950  1
  La  La8  1  0.00000000  0.00000000  0.00000000  1
  Ta  Ta9  1  0.60106954  0.60106954  0.20213909  1
  Ta  Ta10  1  0.39893046  0.39893046  0.79786091  1
