# generated using pymatgen
data_K2U2O7
_symmetry_space_group_name_H-M   'P 1'
_cell_length_a   6.98756095
_cell_length_b   7.18532419
_cell_length_c   8.06279749
_cell_angle_alpha   90.00000000
_cell_angle_beta   90.00000000
_cell_angle_gamma   109.18833534
_symmetry_Int_Tables_number   1
_chemical_formula_structural   K2U2O7
_chemical_formula_sum   'K4 U4 O14'
_cell_volume   382.32581295
_cell_formula_units_Z   2
loop_
 _symmetry_equiv_pos_site_id
 _symmetry_equiv_pos_as_xyz
  1  'x, y, z'
loop_
 _atom_site_type_symbol
 _atom_site_label
 _atom_site_symmetry_multiplicity
 _atom_site_fract_x
 _atom_site_fract_y
 _atom_site_fract_z
 _atom_site_occupancy
  O  O0  1  0.73229436  -0.00147134  0.39940065  1
  O  O1  1  0.26770564  1.00147134  0.89940065  1
  O  O2  1  0.11258937  0.28259196  0.49963631  1
  O  O3  1  0.88741063  0.71740804  -0.00036369  1
  O  O4  1  0.56169771  0.27221336  0.24628023  1
  O  O5  1  0.43830229  0.72778664  0.74628023  1
  O  O6  1  0.62276397  0.28235683  0.75777498  1
  O  O7  1  0.37723603  0.71764317  0.25777498  1
  O  O8  1  0.86506137  0.01281284  0.74480211  1
  O  O9  1  0.13493863  0.98718716  0.24480211  1
  O  O10  1  0.65102438  0.98831815  0.02380368  1
  O  O11  1  0.34897562  0.01168185  0.52380368  1
  O  O12  1  0.92821540  0.72545247  0.51355863  1
  O  O13  1  0.07178460  0.27454753  0.01355863  1
  K  K14  1  0.97955748  0.49396009  0.25749278  1
  K  K15  1  0.02044252  0.50603991  0.75749278  1
  K  K16  1  0.51361953  0.50344021  0.50048654  1
  K  K17  1  0.48638047  0.49655979  0.00048654  1
  U  U18  1  0.46916899  0.99487377  0.25928857  1
  U  U19  1  0.53083101  0.00512623  0.75928857  1
  U  U20  1  0.02054162  0.00397831  0.50117554  1
  U  U21  1  0.97945838  0.99602169  1.00117554  1
