# generated using pymatgen
data_MgTiBi(PO4)3
_symmetry_space_group_name_H-M   'P 1'
_cell_length_a   8.40025356
_cell_length_b   8.40025348
_cell_length_c   8.40025386
_cell_angle_alpha   64.63108402
_cell_angle_beta   64.63108819
_cell_angle_gamma   64.63109141
_symmetry_Int_Tables_number   1
_chemical_formula_structural   MgTiBi(PO4)3
_chemical_formula_sum   'Mg2 Ti2 Bi2 P6 O24'
_cell_volume   461.66648654
_cell_formula_units_Z   2
loop_
 _symmetry_equiv_pos_site_id
 _symmetry_equiv_pos_as_xyz
  1  'x, y, z'
loop_
 _atom_site_type_symbol
 _atom_site_label
 _atom_site_symmetry_multiplicity
 _atom_site_fract_x
 _atom_site_fract_y
 _atom_site_fract_z
 _atom_site_occupancy
  Mg  Mg0  1  0.99319083  0.99319083  0.99319083  1
  Mg  Mg1  1  0.49319083  0.49319083  0.49319083  1
  Ti  Ti2  1  0.14900060  0.14900060  0.14900060  1
  Ti  Ti3  1  0.64900060  0.64900060  0.64900060  1
  Bi  Bi4  1  0.33220499  0.33220499  0.33220499  1
  Bi  Bi5  1  0.83220499  0.83220499  0.83220499  1
  P  P6  1  0.06529668  0.42887840  0.76007318  1
  P  P7  1  0.42887840  0.76007318  0.06529668  1
  P  P8  1  0.76007318  0.06529668  0.42887840  1
  P  P9  1  0.26007318  0.92887840  0.56529668  1
  P  P10  1  0.56529668  0.26007318  0.92887840  1
  P  P11  1  0.92887840  0.56529668  0.26007318  1
  O  O12  1  0.05819729  0.56333807  0.34323299  1
  O  O13  1  0.34323299  0.05819729  0.56333807  1
  O  O14  1  0.06913615  0.23525786  0.90621874  1
  O  O15  1  0.56333807  0.34323299  0.05819729  1
  O  O16  1  0.06333807  0.55819729  0.84323299  1
  O  O17  1  0.24318065  0.41751379  0.59330955  1
  O  O18  1  0.23525786  0.90621874  0.06913615  1
  O  O19  1  0.41751379  0.59330955  0.24318065  1
  O  O20  1  0.20667874  0.00678840  0.37850211  1
  O  O21  1  0.59330955  0.24318065  0.41751379  1
  O  O22  1  0.09330955  0.91751379  0.74318065  1
  O  O23  1  0.37850211  0.20667874  0.00678840  1
  O  O24  1  0.55819729  0.84323299  0.06333807  1
  O  O25  1  0.90621874  0.06913615  0.23525786  1
  O  O26  1  0.40621874  0.73525786  0.56913615  1
  O  O27  1  0.84323299  0.06333807  0.55819729  1
  O  O28  1  0.56913615  0.40621874  0.73525786  1
  O  O29  1  0.74318065  0.09330955  0.91751379  1
  O  O30  1  0.73525786  0.56913615  0.40621874  1
  O  O31  1  0.00678840  0.37850211  0.20667874  1
  O  O32  1  0.50678840  0.70667874  0.87850211  1
  O  O33  1  0.91751379  0.74318065  0.09330955  1
  O  O34  1  0.70667874  0.87850211  0.50678840  1
  O  O35  1  0.87850211  0.50678840  0.70667874  1
