# generated using pymatgen
data_SrAg2
_symmetry_space_group_name_H-M   'P 1'
_cell_length_a   4.89748925
_cell_length_b   6.20861059
_cell_length_c   6.20861059
_cell_angle_alpha   77.73994350
_cell_angle_beta   66.77075219
_cell_angle_gamma   66.77075218
_symmetry_Int_Tables_number   1
_chemical_formula_structural   SrAg2
_chemical_formula_sum   'Sr2 Ag4'
_cell_volume   159.05480150
_cell_formula_units_Z   2
loop_
 _symmetry_equiv_pos_site_id
 _symmetry_equiv_pos_as_xyz
  1  'x, y, z'
loop_
 _atom_site_type_symbol
 _atom_site_label
 _atom_site_symmetry_multiplicity
 _atom_site_fract_x
 _atom_site_fract_y
 _atom_site_fract_z
 _atom_site_occupancy
  Sr  Sr0  1  0.04249578  0.20750422  0.70750422  1
  Sr  Sr1  1  0.95750422  0.79249578  0.29249578  1
  Ag  Ag2  1  0.33640710  0.61005002  0.71713579  1
  Ag  Ag3  1  0.66359290  0.38994998  0.28286421  1
  Ag  Ag4  1  0.33640710  0.21713579  0.11005002  1
  Ag  Ag5  1  0.66359290  0.78286421  0.88994998  1
