# generated using pymatgen
data_Nd2Sn3
_symmetry_space_group_name_H-M   'P 1'
_cell_length_a   6.45564076
_cell_length_b   8.59053059
_cell_length_c   11.22653481
_cell_angle_alpha   107.38024829
_cell_angle_beta   96.95638392
_cell_angle_gamma   100.55636127
_symmetry_Int_Tables_number   1
_chemical_formula_structural   Nd2Sn3
_chemical_formula_sum   'Nd8 Sn12'
_cell_volume   573.76156526
_cell_formula_units_Z   4
loop_
 _symmetry_equiv_pos_site_id
 _symmetry_equiv_pos_as_xyz
  1  'x, y, z'
loop_
 _atom_site_type_symbol
 _atom_site_label
 _atom_site_symmetry_multiplicity
 _atom_site_fract_x
 _atom_site_fract_y
 _atom_site_fract_z
 _atom_site_occupancy
  Nd  Nd0  1  0.33235208  0.03193555  0.74462795  1
  Nd  Nd1  1  0.44218518  0.57012753  0.66402769  1
  Nd  Nd2  1  0.87315636  0.24652704  0.61508632  1
  Nd  Nd3  1  0.66764792  0.96806445  0.25537205  1
  Nd  Nd4  1  0.95848291  0.25150101  0.05698554  1
  Nd  Nd5  1  0.55781482  0.42987247  0.33597231  1
  Nd  Nd6  1  0.12684364  0.75347296  0.38491368  1
  Nd  Nd7  1  0.04151709  0.74849899  0.94301446  1
  Sn  Sn8  1  0.35647549  0.16623316  0.49960808  1
  Sn  Sn9  1  0.64352451  0.83376684  0.50039192  1
  Sn  Sn10  1  0.56233009  0.83137390  0.94948240  1
  Sn  Sn11  1  0.77889408  0.59395542  0.13623625  1
  Sn  Sn12  1  0.95146995  0.64614319  0.62104066  1
  Sn  Sn13  1  0.43766991  0.16862610  0.05051760  1
  Sn  Sn14  1  0.82292345  0.96371529  0.77744832  1
  Sn  Sn15  1  0.04853005  0.35385681  0.37895934  1
  Sn  Sn16  1  0.32314607  0.60292458  0.13982237  1
  Sn  Sn17  1  0.22110592  0.40604458  0.86376375  1
  Sn  Sn18  1  0.67685393  0.39707542  0.86017763  1
  Sn  Sn19  1  0.17707655  0.03628471  0.22255168  1
