# generated using pymatgen
data_CaSnBiO5
_symmetry_space_group_name_H-M   'P 1'
_cell_length_a   5.92564619
_cell_length_b   9.07839805
_cell_length_c   11.14990191
_cell_angle_alpha   90.00000000
_cell_angle_beta   90.00000000
_cell_angle_gamma   110.15579838
_symmetry_Int_Tables_number   1
_chemical_formula_structural   CaSnBiO5
_chemical_formula_sum   'Ca4 Sn4 Bi4 O20'
_cell_volume   563.08007237
_cell_formula_units_Z   4
loop_
 _symmetry_equiv_pos_site_id
 _symmetry_equiv_pos_as_xyz
  1  'x, y, z'
loop_
 _atom_site_type_symbol
 _atom_site_label
 _atom_site_symmetry_multiplicity
 _atom_site_fract_x
 _atom_site_fract_y
 _atom_site_fract_z
 _atom_site_occupancy
  Ca  Ca0  1  0.63622624  0.16855765  0.90380150  1
  Ca  Ca1  1  0.36377376  0.83144235  0.09619850  1
  Ca  Ca2  1  0.86377376  0.33144235  0.40380150  1
  Ca  Ca3  1  0.13622624  0.66855765  0.59619850  1
  Sn  Sn4  1  0.81969732  0.93928323  0.61479124  1
  Sn  Sn5  1  0.18030268  0.06071677  0.38520876  1
  Sn  Sn6  1  0.68030268  0.56071677  0.11479124  1
  Sn  Sn7  1  0.31969732  0.43928323  0.88520876  1
  Bi  Bi8  1  0.11903501  0.14909598  0.10162498  1
  Bi  Bi9  1  0.88096499  0.85090402  0.89837502  1
  Bi  Bi10  1  0.61903501  0.64909598  0.39837502  1
  Bi  Bi11  1  0.38096499  0.35090402  0.60162498  1
  O  O12  1  0.48856618  0.35139893  0.03857745  1
  O  O13  1  0.01930447  0.31305686  0.97094641  1
  O  O14  1  0.49953649  0.67516080  0.21263859  1
  O  O15  1  0.73189070  0.51271384  0.53729756  1
  O  O16  1  0.78443197  0.50759442  0.27723268  1
  O  O17  1  0.28443197  0.00759442  0.22276732  1
  O  O18  1  0.51930447  0.81305686  0.52905359  1
  O  O19  1  0.48069553  0.18694314  0.47094641  1
  O  O20  1  0.26810930  0.48728616  0.46270244  1
  O  O21  1  0.01143382  0.14860107  0.53857745  1
  O  O22  1  0.21556803  0.49240558  0.72276732  1
  O  O23  1  0.51143382  0.64860107  0.96142255  1
  O  O24  1  0.98856618  0.85139893  0.46142255  1
  O  O25  1  0.71556803  0.99240558  0.77723268  1
  O  O26  1  0.76810930  0.98728616  0.03729756  1
  O  O27  1  0.23189070  0.01271384  0.96270244  1
  O  O28  1  0.50046351  0.32483920  0.78736141  1
  O  O29  1  0.98069553  0.68694314  0.02905359  1
  O  O30  1  0.00046351  0.82483920  0.71263859  1
  O  O31  1  0.99953649  0.17516080  0.28736141  1
