# generated using pymatgen
data_GaAu
_symmetry_space_group_name_H-M   'P 1'
_cell_length_a   3.59269373
_cell_length_b   6.38795317
_cell_length_c   6.45392340
_cell_angle_alpha   90.00000000
_cell_angle_beta   90.00000000
_cell_angle_gamma   90.00000000
_symmetry_Int_Tables_number   1
_chemical_formula_structural   GaAu
_chemical_formula_sum   'Ga4 Au4'
_cell_volume   148.11727936
_cell_formula_units_Z   4
loop_
 _symmetry_equiv_pos_site_id
 _symmetry_equiv_pos_as_xyz
  1  'x, y, z'
loop_
 _atom_site_type_symbol
 _atom_site_label
 _atom_site_symmetry_multiplicity
 _atom_site_fract_x
 _atom_site_fract_y
 _atom_site_fract_z
 _atom_site_occupancy
  Ga  Ga0  1  0.75000000  0.31665226  0.07024091  1
  Ga  Ga1  1  0.75000000  0.81665226  0.42975909  1
  Ga  Ga2  1  0.25000000  0.18334774  0.57024091  1
  Ga  Ga3  1  0.25000000  0.68334774  0.92975909  1
  Au  Au4  1  0.25000000  0.00640875  0.19081308  1
  Au  Au5  1  0.75000000  0.49359125  0.69081308  1
  Au  Au6  1  0.75000000  0.99359125  0.80918692  1
  Au  Au7  1  0.25000000  0.50640875  0.30918692  1
