# generated using pymatgen
data_AuF5
_symmetry_space_group_name_H-M   'P 1'
_cell_length_a   5.02493917
_cell_length_b   9.71638292
_cell_length_c   15.39060752
_cell_angle_alpha   90.00000000
_cell_angle_beta   90.00000000
_cell_angle_gamma   90.00000000
_symmetry_Int_Tables_number   1
_chemical_formula_structural   AuF5
_chemical_formula_sum   'Au8 F40'
_cell_volume   751.43460950
_cell_formula_units_Z   8
loop_
 _symmetry_equiv_pos_site_id
 _symmetry_equiv_pos_as_xyz
  1  'x, y, z'
loop_
 _atom_site_type_symbol
 _atom_site_label
 _atom_site_symmetry_multiplicity
 _atom_site_fract_x
 _atom_site_fract_y
 _atom_site_fract_z
 _atom_site_occupancy
  F  F0  1  0.24619326  0.02664238  0.05624225  1
  F  F1  1  0.74619326  0.47335762  0.94375775  1
  F  F2  1  0.25380674  0.52664238  0.44375775  1
  F  F3  1  0.75380674  0.97335762  0.55624225  1
  F  F4  1  0.75380674  0.97335762  0.94375775  1
  F  F5  1  0.25380674  0.52664238  0.05624225  1
  F  F6  1  0.74619326  0.47335762  0.55624225  1
  F  F7  1  0.24619326  0.02664238  0.44375775  1
  F  F8  1  0.36746610  0.25696943  0.35001794  1
  F  F9  1  0.86746610  0.24303057  0.64998206  1
  F  F10  1  0.13253390  0.75696943  0.14998206  1
  F  F11  1  0.63253390  0.74303057  0.85001794  1
  F  F12  1  0.63253390  0.74303057  0.64998206  1
  F  F13  1  0.13253390  0.75696943  0.35001794  1
  F  F14  1  0.86746610  0.24303057  0.85001794  1
  F  F15  1  0.36746610  0.25696943  0.14998206  1
  F  F16  1  0.90014962  0.23035771  0.25000000  1
  F  F17  1  0.40014962  0.26964229  0.75000000  1
  F  F18  1  0.59985038  0.73035771  0.25000000  1
  F  F19  1  0.09985038  0.76964229  0.75000000  1
  F  F20  1  0.23483542  0.02311858  0.25000000  1
  F  F21  1  0.73483542  0.47688142  0.75000000  1
  F  F22  1  0.26516458  0.52311858  0.25000000  1
  F  F23  1  0.76516458  0.97688142  0.75000000  1
  F  F24  1  0.77429006  1.00053028  0.35411407  1
  F  F25  1  0.27429006  0.49946972  0.64588593  1
  F  F26  1  0.72570994  0.50053028  0.14588593  1
  F  F27  1  0.22570994  -0.00053028  0.85411407  1
  F  F28  1  0.22570994  -0.00053028  0.64588593  1
  F  F29  1  0.72570994  0.50053028  0.35411407  1
  F  F30  1  0.27429006  0.49946972  0.85411407  1
  F  F31  1  0.77429006  1.00053028  0.14588593  1
  F  F32  1  0.90657380  0.23636756  0.44294173  1
  F  F33  1  0.40657380  0.26363244  0.55705827  1
  F  F34  1  0.59342620  0.73636756  0.05705827  1
  F  F35  1  0.09342620  0.76363244  0.94294173  1
  F  F36  1  0.09342620  0.76363244  0.55705827  1
  F  F37  1  0.59342620  0.73636756  0.44294173  1
  F  F38  1  0.40657380  0.26363244  0.94294173  1
  F  F39  1  0.90657380  0.23636756  0.05705827  1
  Au  Au40  1  0.07140323  0.12851005  0.14559237  1
  Au  Au41  1  0.57140323  0.37148995  0.85440763  1
  Au  Au42  1  0.42859677  0.62851005  0.35440763  1
  Au  Au43  1  0.92859677  0.87148995  0.64559237  1
  Au  Au44  1  0.92859677  0.87148995  0.85440763  1
  Au  Au45  1  0.42859677  0.62851005  0.14559237  1
  Au  Au46  1  0.57140323  0.37148995  0.64559237  1
  Au  Au47  1  0.07140323  0.12851005  0.35440763  1
