# generated using pymatgen
data_LiClO4
_symmetry_space_group_name_H-M   'P 1'
_cell_length_a   4.92801763
_cell_length_b   6.99402017
_cell_length_c   8.77017924
_cell_angle_alpha   90.00000000
_cell_angle_beta   90.00000000
_cell_angle_gamma   90.00000000
_symmetry_Int_Tables_number   1
_chemical_formula_structural   LiClO4
_chemical_formula_sum   'Li4 Cl4 O16'
_cell_volume   302.27873954
_cell_formula_units_Z   4
loop_
 _symmetry_equiv_pos_site_id
 _symmetry_equiv_pos_as_xyz
  1  'x, y, z'
loop_
 _atom_site_type_symbol
 _atom_site_label
 _atom_site_symmetry_multiplicity
 _atom_site_fract_x
 _atom_site_fract_y
 _atom_site_fract_z
 _atom_site_occupancy
  Li  Li0  1  0.00000000  0.00000000  0.50000000  1
  Li  Li1  1  0.50000000  0.00000000  0.00000000  1
  Li  Li2  1  0.00000000  0.50000000  0.50000000  1
  Li  Li3  1  0.50000000  0.50000000  0.00000000  1
  O  O4  1  0.95482772  0.25000000  0.35036170  1
  O  O5  1  0.45482772  0.75000000  0.14963830  1
  O  O6  1  0.04517228  0.75000000  0.64963830  1
  O  O7  1  0.54517228  0.25000000  0.85036170  1
  O  O8  1  0.82325892  0.42152044  0.12943323  1
  O  O9  1  0.32325892  0.57847956  0.37056677  1
  O  O10  1  0.17674108  0.92152044  0.87056677  1
  O  O11  1  0.67674108  0.07847956  0.62943323  1
  O  O12  1  0.17674108  0.57847956  0.87056677  1
  O  O13  1  0.67674108  0.42152044  0.62943323  1
  O  O14  1  0.82325892  0.07847956  0.12943323  1
  O  O15  1  0.32325892  0.92152044  0.37056677  1
  O  O16  1  0.23957197  0.25000000  0.12844505  1
  O  O17  1  0.73957197  0.75000000  0.37155495  1
  O  O18  1  0.76042803  0.75000000  0.87155495  1
  O  O19  1  0.26042803  0.25000000  0.62844505  1
  Cl  Cl20  1  0.54009915  0.25000000  0.68234937  1
  Cl  Cl21  1  0.04009915  0.75000000  0.81765063  1
  Cl  Cl22  1  0.45990085  0.75000000  0.31765063  1
  Cl  Cl23  1  0.95990085  0.25000000  0.18234937  1
