# generated using pymatgen
data_Tl6Si2O7
_symmetry_space_group_name_H-M   'P 1'
_cell_length_a   4.88120796
_cell_length_b   9.44185742
_cell_length_c   9.44883007
_cell_angle_alpha   60.00009021
_cell_angle_beta   89.99576243
_cell_angle_gamma   89.99986085
_symmetry_Int_Tables_number   1
_chemical_formula_structural   Tl6Si2O7
_chemical_formula_sum   'Tl6 Si2 O7'
_cell_volume   377.13237214
_cell_formula_units_Z   1
loop_
 _symmetry_equiv_pos_site_id
 _symmetry_equiv_pos_as_xyz
  1  'x, y, z'
loop_
 _atom_site_type_symbol
 _atom_site_label
 _atom_site_symmetry_multiplicity
 _atom_site_fract_x
 _atom_site_fract_y
 _atom_site_fract_z
 _atom_site_occupancy
  Tl  Tl0  1  0.74257349  0.69137793  0.35008410  1
  Tl  Tl1  1  0.74260756  0.95871926  0.69111969  1
  Tl  Tl2  1  0.74256849  0.35009787  0.95873375  1
  Tl  Tl3  1  0.20569010  0.30158233  0.60643505  1
  Tl  Tl4  1  0.20564315  0.09189415  0.30162196  1
  Tl  Tl5  1  0.20571968  0.60660770  0.09186022  1
  Si  Si6  1  0.23341092  0.66654958  0.66669973  1
  Si  Si7  1  0.67041523  0.33332587  0.33333156  1
  O  O8  1  0.23218231  0.85569188  0.61374074  1
  O  O9  1  0.23229811  0.53051765  0.85550837  1
  O  O10  1  0.23229605  0.61362390  0.53081452  1
  O  O11  1  0.77027655  0.14154144  0.40585657  1
  O  O12  1  0.77016975  0.45257241  0.14174094  1
  O  O13  1  0.77019191  0.40585459  0.45243625  1
  O  O14  1  0.32995670  0.33344342  0.33331655  1
