# generated using pymatgen
data_Ca4As7Ir8
_symmetry_space_group_name_H-M   'P 1'
_cell_length_a   4.12424183
_cell_length_b   13.07853799
_cell_length_c   13.63517533
_cell_angle_alpha   98.14363073
_cell_angle_beta   90.00000000
_cell_angle_gamma   90.00000000
_symmetry_Int_Tables_number   1
_chemical_formula_structural   Ca4As7Ir8
_chemical_formula_sum   'Ca8 As14 Ir16'
_cell_volume   728.05204155
_cell_formula_units_Z   2
loop_
 _symmetry_equiv_pos_site_id
 _symmetry_equiv_pos_as_xyz
  1  'x, y, z'
loop_
 _atom_site_type_symbol
 _atom_site_label
 _atom_site_symmetry_multiplicity
 _atom_site_fract_x
 _atom_site_fract_y
 _atom_site_fract_z
 _atom_site_occupancy
  Ca  Ca0  1  0.25000000  0.89885184  0.79825138  1
  Ca  Ca1  1  0.75000000  0.10114816  0.20174862  1
  Ca  Ca2  1  0.25000000  0.71122052  0.10480998  1
  Ca  Ca3  1  0.75000000  0.28877948  0.89519002  1
  Ca  Ca4  1  0.25000000  0.48535152  0.29044339  1
  Ca  Ca5  1  0.75000000  0.51464848  0.70955661  1
  Ca  Ca6  1  0.25000000  0.78587927  0.43269817  1
  Ca  Ca7  1  0.75000000  0.21412073  0.56730183  1
  As  As8  1  0.25000000  0.93990299  0.10143723  1
  As  As9  1  0.75000000  0.06009701  0.89856277  1
  As  As10  1  0.25000000  0.69132052  0.68919727  1
  As  As11  1  0.75000000  0.30867948  0.31080273  1
  As  As12  1  0.25000000  0.39131065  0.56585389  1
  As  As13  1  0.75000000  0.60868935  0.43414611  1
  As  As14  1  0.25000000  0.15114382  0.72102827  1
  As  As15  1  0.75000000  0.84885618  0.27897173  1
  As  As16  1  0.75000000  0.74404505  0.91952849  1
  As  As17  1  0.25000000  0.25595495  0.08047151  1
  As  As18  1  0.75000000  0.90324377  0.58457688  1
  As  As19  1  0.25000000  0.09675623  0.41542312  1
  As  As20  1  0.75000000  0.53101893  0.12825686  1
  As  As21  1  0.25000000  0.46898107  0.87174314  1
  Ir  Ir22  1  0.25000000  0.01415615  0.57266887  1
  Ir  Ir23  1  0.75000000  0.98584385  0.42733113  1
  Ir  Ir24  1  0.25000000  0.33457665  0.72953006  1
  Ir  Ir25  1  0.75000000  0.66542335  0.27046994  1
  Ir  Ir26  1  0.25000000  0.44494529  0.04800941  1
  Ir  Ir27  1  0.75000000  0.55505471  0.95199059  1
  Ir  Ir28  1  0.25000000  0.94668204  0.28099957  1
  Ir  Ir29  1  0.75000000  0.05331796  0.71900043  1
  Ir  Ir30  1  0.25000000  0.57510767  0.52765497  1
  Ir  Ir31  1  0.75000000  0.42489233  0.47234503  1
  Ir  Ir32  1  0.25000000  0.07914265  0.99813252  1
  Ir  Ir33  1  0.75000000  0.92085735  0.00186748  1
  Ir  Ir34  1  0.25000000  0.27961820  0.40080721  1
  Ir  Ir35  1  0.75000000  0.72038180  0.59919279  1
  Ir  Ir36  1  0.25000000  0.65759346  0.86076995  1
  Ir  Ir37  1  0.75000000  0.34240654  0.13923005  1
