# generated using pymatgen
data_Pr(PO3)3
_symmetry_space_group_name_H-M   'P 1'
_cell_length_a   7.14768967
_cell_length_b   7.14768967
_cell_length_c   7.43230589
_cell_angle_alpha   90.00000000
_cell_angle_beta   90.00000000
_cell_angle_gamma   105.30706693
_symmetry_Int_Tables_number   1
_chemical_formula_structural   Pr(PO3)3
_chemical_formula_sum   'Pr2 P6 O18'
_cell_volume   366.24219740
_cell_formula_units_Z   2
loop_
 _symmetry_equiv_pos_site_id
 _symmetry_equiv_pos_as_xyz
  1  'x, y, z'
loop_
 _atom_site_type_symbol
 _atom_site_label
 _atom_site_symmetry_multiplicity
 _atom_site_fract_x
 _atom_site_fract_y
 _atom_site_fract_z
 _atom_site_occupancy
  O  O0  1  0.24811033  0.03038500  0.29093467  1
  O  O1  1  0.75188967  0.96961500  0.79093467  1
  O  O2  1  0.03038500  0.24811033  0.20906533  1
  O  O3  1  0.96961500  0.75188967  0.70906533  1
  O  O4  1  0.32796438  0.36454616  0.41713853  1
  O  O5  1  0.67203562  0.63545384  0.91713853  1
  O  O6  1  0.36454616  0.32796438  0.08286147  1
  O  O7  1  0.63545384  0.67203562  0.58286147  1
  O  O8  1  0.28129584  0.67297768  0.78722279  1
  O  O9  1  0.71870416  0.32702232  0.28722279  1
  O  O10  1  0.67297768  0.28129584  0.71277721  1
  O  O11  1  0.32702232  0.71870416  0.21277721  1
  O  O12  1  0.27950067  0.02495359  0.71438977  1
  O  O13  1  0.72049933  0.97504641  0.21438977  1
  O  O14  1  0.02495359  0.27950067  0.78561023  1
  O  O15  1  0.97504641  0.72049933  0.28561023  1
  O  O16  1  0.12672119  0.87327881  0.00000000  1
  O  O17  1  0.87327881  0.12672119  0.50000000  1
  P  P18  1  0.16699734  0.81618829  0.20303925  1
  P  P19  1  0.83300266  0.18381171  0.70303925  1
  P  P20  1  0.81618829  0.16699734  0.29696075  1
  P  P21  1  0.18381171  0.83300266  0.79696075  1
  P  P22  1  0.24875107  0.24875107  0.25000000  1
  P  P23  1  0.75124893  0.75124893  0.75000000  1
  Pr  Pr24  1  0.62661367  0.62661367  0.25000000  1
  Pr  Pr25  1  0.37338633  0.37338633  0.75000000  1
