# generated using pymatgen
data_LaZnFeBiO6
_symmetry_space_group_name_H-M   'P 1'
_cell_length_a   6.22224729
_cell_length_b   5.56269614
_cell_length_c   8.00976303
_cell_angle_alpha   90.87073379
_cell_angle_beta   90.00000000
_cell_angle_gamma   90.00000000
_symmetry_Int_Tables_number   1
_chemical_formula_structural   LaZnFeBiO6
_chemical_formula_sum   'La2 Zn2 Fe2 Bi2 O12'
_cell_volume   277.20567641
_cell_formula_units_Z   2
loop_
 _symmetry_equiv_pos_site_id
 _symmetry_equiv_pos_as_xyz
  1  'x, y, z'
loop_
 _atom_site_type_symbol
 _atom_site_label
 _atom_site_symmetry_multiplicity
 _atom_site_fract_x
 _atom_site_fract_y
 _atom_site_fract_z
 _atom_site_occupancy
  La  La0  1  0.08290847  0.97197017  0.24985702  1
  La  La1  1  0.41709153  0.47197017  0.74985702  1
  Zn  Zn2  1  0.37904554  0.47648459  0.23631501  1
  Zn  Zn3  1  0.12095446  0.97648459  0.73631501  1
  Fe  Fe4  1  0.52310154  0.98702249  0.00660122  1
  Fe  Fe5  1  0.97689846  0.48702249  0.50660122  1
  Bi  Bi6  1  0.55526799  0.98979980  0.49230391  1
  Bi  Bi7  1  0.94473201  0.48979980  0.99230391  1
  O  O8  1  0.04267024  0.63588716  0.73699038  1
  O  O9  1  0.17641046  0.18404506  0.93813063  1
  O  O10  1  0.18934321  0.20917426  0.55705119  1
  O  O11  1  0.31065679  0.70917426  0.05705119  1
  O  O12  1  0.32358954  0.68404506  0.43813063  1
  O  O13  1  0.45732976  0.13588716  0.23698938  1
  O  O14  1  0.48156992  0.90248702  0.76186098  1
  O  O15  1  0.71073080  0.33519555  0.56582137  1
  O  O16  1  0.64332762  0.30793291  0.95506829  1
  O  O17  1  0.85667238  0.80793291  0.45506829  1
  O  O18  1  0.78926920  0.83519555  0.06582137  1
  O  O19  1  0.01843008  0.40248702  0.26186098  1
