# generated using pymatgen
data_Tb12Co7
_symmetry_space_group_name_H-M   'P 1'
_cell_length_a   8.31890715
_cell_length_b   9.21880017
_cell_length_c   11.30359756
_cell_angle_alpha   90.00000000
_cell_angle_beta   90.00000000
_cell_angle_gamma   101.81768601
_symmetry_Int_Tables_number   1
_chemical_formula_structural   Tb12Co7
_chemical_formula_sum   'Tb24 Co14'
_cell_volume   848.50263866
_cell_formula_units_Z   2
loop_
 _symmetry_equiv_pos_site_id
 _symmetry_equiv_pos_as_xyz
  1  'x, y, z'
loop_
 _atom_site_type_symbol
 _atom_site_label
 _atom_site_symmetry_multiplicity
 _atom_site_fract_x
 _atom_site_fract_y
 _atom_site_fract_z
 _atom_site_occupancy
  Co  Co0  1  0.00000000  0.50000000  0.50000000  1
  Co  Co1  1  0.50000000  0.00000000  0.00000000  1
  Co  Co2  1  0.06631484  0.97233824  0.32160988  1
  Co  Co3  1  0.43368516  0.52766176  0.82160988  1
  Co  Co4  1  0.93368516  0.02766176  0.67839012  1
  Co  Co5  1  0.56631484  0.47233824  0.17839012  1
  Co  Co6  1  0.40468010  0.90026976  0.59966863  1
  Co  Co7  1  0.09531990  0.59973024  0.09966863  1
  Co  Co8  1  0.59531990  0.09973024  0.40033137  1
  Co  Co9  1  0.90468010  0.40026976  0.90033137  1
  Co  Co10  1  0.06002893  0.15891390  0.18920152  1
  Co  Co11  1  0.43997107  0.34108610  0.68920152  1
  Co  Co12  1  0.93997107  0.84108610  0.81079848  1
  Co  Co13  1  0.56002893  0.65891390  0.31079848  1
  Tb  Tb14  1  0.22692354  0.46078731  0.29439979  1
  Tb  Tb15  1  0.27307646  0.03921269  0.79439979  1
  Tb  Tb16  1  0.83954219  0.34156329  0.15957470  1
  Tb  Tb17  1  0.66045781  0.15843671  0.65957470  1
  Tb  Tb18  1  0.16045781  0.65843671  0.84042530  1
  Tb  Tb19  1  0.33954219  0.84156329  0.34042530  1
  Tb  Tb20  1  0.80458402  0.64647240  0.99644531  1
  Tb  Tb21  1  0.69541598  0.85352760  0.49644531  1
  Tb  Tb22  1  0.19541598  0.35352760  0.00355469  1
  Tb  Tb23  1  0.30458402  0.14647240  0.50355469  1
  Tb  Tb24  1  0.72692354  0.96078731  0.20560021  1
  Tb  Tb25  1  0.77307646  0.53921269  0.70560021  1
  Tb  Tb26  1  0.14652453  0.91437745  0.07148604  1
  Tb  Tb27  1  0.35347547  0.58562255  0.57148604  1
  Tb  Tb28  1  0.85347547  0.08562255  0.92851396  1
  Tb  Tb29  1  0.64652453  0.41437745  0.42851396  1
  Tb  Tb30  1  0.07500125  0.32361529  0.69916881  1
  Tb  Tb31  1  0.42499875  0.17638471  0.19916881  1
  Tb  Tb32  1  0.92499875  0.67638471  0.30083119  1
  Tb  Tb33  1  0.57500125  0.82361529  0.80083119  1
  Tb  Tb34  1  0.42914408  0.69126649  0.06966586  1
  Tb  Tb35  1  0.07085592  0.80873351  0.56966586  1
  Tb  Tb36  1  0.57085592  0.30873351  0.93033414  1
  Tb  Tb37  1  0.92914408  0.19126649  0.43033414  1
