# generated using pymatgen
data_Rb3Au7
_symmetry_space_group_name_H-M   'P 1'
_cell_length_a   5.53520303
_cell_length_b   7.57193615
_cell_length_c   7.39453541
_cell_angle_alpha   90.00000000
_cell_angle_beta   90.00000000
_cell_angle_gamma   111.43883439
_symmetry_Int_Tables_number   1
_chemical_formula_structural   Rb3Au7
_chemical_formula_sum   'Rb3 Au7'
_cell_volume   288.47729398
_cell_formula_units_Z   1
loop_
 _symmetry_equiv_pos_site_id
 _symmetry_equiv_pos_as_xyz
  1  'x, y, z'
loop_
 _atom_site_type_symbol
 _atom_site_label
 _atom_site_symmetry_multiplicity
 _atom_site_fract_x
 _atom_site_fract_y
 _atom_site_fract_z
 _atom_site_occupancy
  Rb  Rb0  1  0.50000000  -0.00000000  0.00000000  1
  Rb  Rb1  1  0.34148317  0.68296634  0.50000000  1
  Rb  Rb2  1  0.65851683  0.31703366  0.50000000  1
  Au  Au3  1  -0.00000000  -0.00000000  0.50000000  1
  Au  Au4  1  -0.00000000  0.50000000  0.00000000  1
  Au  Au5  1  0.50000000  0.50000000  0.00000000  1
  Au  Au6  1  0.89500387  0.79000775  0.19411329  1
  Au  Au7  1  0.10499613  0.20999225  0.19411329  1
  Au  Au8  1  0.10499613  0.20999225  0.80588671  1
  Au  Au9  1  0.89500387  0.79000775  0.80588671  1
