# generated using pymatgen
data_In2PO5
_symmetry_space_group_name_H-M   'P 1'
_cell_length_a   5.32605439
_cell_length_b   6.45233916
_cell_length_c   6.93848282
_cell_angle_alpha   107.80858805
_cell_angle_beta   109.27903665
_cell_angle_gamma   95.63482842
_symmetry_Int_Tables_number   1
_chemical_formula_structural   In2PO5
_chemical_formula_sum   'In4 P2 O10'
_cell_volume   208.95969840
_cell_formula_units_Z   2
loop_
 _symmetry_equiv_pos_site_id
 _symmetry_equiv_pos_as_xyz
  1  'x, y, z'
loop_
 _atom_site_type_symbol
 _atom_site_label
 _atom_site_symmetry_multiplicity
 _atom_site_fract_x
 _atom_site_fract_y
 _atom_site_fract_z
 _atom_site_occupancy
  In  In0  1  0.56905208  0.78701913  0.01165550  1
  In  In1  1  0.43094792  0.21298087  0.98834450  1
  In  In2  1  0.16664009  0.63195375  0.27106065  1
  In  In3  1  0.83335991  0.36804625  0.72893935  1
  P  P4  1  0.16600271  0.18078261  0.39567416  1
  P  P5  1  0.83399729  0.81921739  0.60432584  1
  O  O6  1  0.39855661  0.19401836  0.60858215  1
  O  O7  1  0.60144339  0.80598164  0.39141785  1
  O  O8  1  0.92184089  0.26656147  0.43677603  1
  O  O9  1  0.07815911  0.73343853  0.56322397  1
  O  O10  1  0.28958705  0.32461344  0.28900481  1
  O  O11  1  0.71041295  0.67538656  0.71099519  1
  O  O12  1  0.05793644  0.93727123  0.22508773  1
  O  O13  1  0.94206356  0.06272877  0.77491227  1
  O  O14  1  0.24407892  0.51339951  0.96524543  1
  O  O15  1  0.75592108  0.48660049  0.03475457  1
