# generated using pymatgen
data_ErAl4Ni
_symmetry_space_group_name_H-M   'P 1'
_cell_length_a   4.08736055
_cell_length_b   6.51524926
_cell_length_c   7.94166070
_cell_angle_alpha   90.00000000
_cell_angle_beta   104.91209168
_cell_angle_gamma   90.00000000
_symmetry_Int_Tables_number   1
_chemical_formula_structural   ErAl4Ni
_chemical_formula_sum   'Er2 Al8 Ni2'
_cell_volume   204.36526720
_cell_formula_units_Z   2
loop_
 _symmetry_equiv_pos_site_id
 _symmetry_equiv_pos_as_xyz
  1  'x, y, z'
loop_
 _atom_site_type_symbol
 _atom_site_label
 _atom_site_symmetry_multiplicity
 _atom_site_fract_x
 _atom_site_fract_y
 _atom_site_fract_z
 _atom_site_occupancy
  Er  Er0  1  0.11839916  0.75000000  0.23679831  1
  Er  Er1  1  0.88160084  0.25000000  0.76320169  1
  Al  Al2  1  0.92530832  0.75000000  0.85061663  1
  Al  Al3  1  0.68830346  0.44880655  0.37660692  1
  Al  Al4  1  0.07469168  0.25000000  0.14938337  1
  Al  Al5  1  0.31169654  0.94880655  0.62339308  1
  Al  Al6  1  0.50000000  0.00000000  -0.00000000  1
  Al  Al7  1  0.68830346  0.05119345  0.37660692  1
  Al  Al8  1  0.50000000  0.50000000  -0.00000000  1
  Al  Al9  1  0.31169654  0.55119345  0.62339308  1
  Ni  Ni10  1  0.22448827  0.25000000  0.44897654  1
  Ni  Ni11  1  0.77551173  0.75000000  0.55102346  1
