# generated using pymatgen
data_SrSnAu
_symmetry_space_group_name_H-M   'P 1'
_cell_length_a   4.89710038
_cell_length_b   8.39972732
_cell_length_c   23.74859681
_cell_angle_alpha   90.00000000
_cell_angle_beta   90.00000000
_cell_angle_gamma   90.00000000
_symmetry_Int_Tables_number   1
_chemical_formula_structural   SrSnAu
_chemical_formula_sum   'Sr12 Sn12 Au12'
_cell_volume   976.88209220
_cell_formula_units_Z   12
loop_
 _symmetry_equiv_pos_site_id
 _symmetry_equiv_pos_as_xyz
  1  'x, y, z'
loop_
 _atom_site_type_symbol
 _atom_site_label
 _atom_site_symmetry_multiplicity
 _atom_site_fract_x
 _atom_site_fract_y
 _atom_site_fract_z
 _atom_site_occupancy
  Sr  Sr0  1  0.75000000  0.21189222  0.49785612  1
  Sr  Sr1  1  0.25000000  0.79119495  0.16607563  1
  Sr  Sr2  1  0.25000000  0.78810778  0.50214388  1
  Sr  Sr3  1  0.25000000  0.79281851  0.83320984  1
  Sr  Sr4  1  0.25000000  0.70718149  0.33320984  1
  Sr  Sr5  1  0.75000000  0.20880505  0.83392437  1
  Sr  Sr6  1  0.75000000  0.28810778  0.99785612  1
  Sr  Sr7  1  0.75000000  0.29281851  0.66679016  1
  Sr  Sr8  1  0.75000000  0.29119495  0.33392437  1
  Sr  Sr9  1  0.25000000  0.70880505  0.66607563  1
  Sr  Sr10  1  0.25000000  0.71189222  0.00214388  1
  Sr  Sr11  1  0.75000000  0.20718149  0.16679016  1
  Sn  Sn12  1  0.25000000  0.41411009  0.56595041  1
  Sn  Sn13  1  0.25000000  0.08369010  0.39819202  1
  Sn  Sn14  1  0.25000000  0.08588991  0.06595041  1
  Sn  Sn15  1  0.25000000  0.41630990  0.89819202  1
  Sn  Sn16  1  0.75000000  0.58369010  0.10180798  1
  Sn  Sn17  1  0.25000000  0.41778774  0.76898035  1
  Sn  Sn18  1  0.75000000  0.58221226  0.23101965  1
  Sn  Sn19  1  0.75000000  0.58588991  0.43404959  1
  Sn  Sn20  1  0.75000000  0.91411009  0.93404959  1
  Sn  Sn21  1  0.25000000  0.08221226  0.26898035  1
  Sn  Sn22  1  0.75000000  0.91630990  0.60180798  1
  Sn  Sn23  1  0.75000000  0.91778774  0.73101965  1
  Au  Au24  1  0.25000000  0.08687779  0.59378542  1
  Au  Au25  1  0.25000000  0.08690375  0.73879816  1
  Au  Au26  1  0.75000000  0.58687779  0.90621458  1
  Au  Au27  1  0.75000000  0.91312221  0.40621458  1
  Au  Au28  1  0.75000000  0.58409397  0.56698311  1
  Au  Au29  1  0.75000000  0.58690375  0.76120184  1
  Au  Au30  1  0.25000000  0.41590603  0.43301689  1
  Au  Au31  1  0.25000000  0.41309625  0.23879816  1
  Au  Au32  1  0.75000000  0.91590603  0.06698311  1
  Au  Au33  1  0.25000000  0.41312221  0.09378542  1
  Au  Au34  1  0.25000000  0.08409397  0.93301689  1
  Au  Au35  1  0.75000000  0.91309625  0.26120184  1
