# generated using pymatgen
data_LiCoP2O7
_symmetry_space_group_name_H-M   'P 1'
_cell_length_a   4.86869706
_cell_length_b   6.99665710
_cell_length_c   8.12349190
_cell_angle_alpha   90.00000000
_cell_angle_beta   90.00000000
_cell_angle_gamma   108.50683894
_symmetry_Int_Tables_number   1
_chemical_formula_structural   LiCoP2O7
_chemical_formula_sum   'Li2 Co2 P4 O14'
_cell_volume   262.41299065
_cell_formula_units_Z   2
loop_
 _symmetry_equiv_pos_site_id
 _symmetry_equiv_pos_as_xyz
  1  'x, y, z'
loop_
 _atom_site_type_symbol
 _atom_site_label
 _atom_site_symmetry_multiplicity
 _atom_site_fract_x
 _atom_site_fract_y
 _atom_site_fract_z
 _atom_site_occupancy
  Li  Li0  1  0.82240813  0.33082358  0.36218683  1
  Li  Li1  1  0.17759187  0.66917642  0.86218683  1
  Co  Co2  1  0.78325690  0.26786467  0.99922507  1
  Co  Co3  1  0.21674310  0.73213533  0.49922507  1
  P  P4  1  0.21384126  0.08508514  0.78752443  1
  P  P5  1  0.60066953  0.47972492  0.68142456  1
  P  P6  1  0.78615874  0.91491486  0.28752543  1
  P  P7  1  0.39933047  0.52027508  0.18142456  1
  O  O8  1  0.60039525  0.75221349  0.15405438  1
  O  O9  1  0.75111291  0.49230876  0.84882567  1
  O  O10  1  0.59940302  0.38962443  0.17898460  1
  O  O11  1  0.86971578  0.11663153  0.19804217  1
  O  O12  1  0.18503631  0.48164740  0.03853003  1
  O  O13  1  0.05600070  0.85664851  0.33098601  1
  O  O14  1  0.81496369  0.51835260  0.53853003  1
  O  O15  1  0.94399930  0.14335149  0.83098601  1
  O  O16  1  0.39960475  0.24778651  0.65405338  1
  O  O17  1  0.40059698  0.61037557  0.67898460  1
  O  O18  1  0.13028422  0.88336847  0.69804217  1
  O  O19  1  0.60342607  0.91773145  0.44037625  1
  O  O20  1  0.24888709  0.50769124  0.34882567  1
  O  O21  1  0.39657393  0.08226855  0.94037625  1
