# generated using pymatgen
data_La6OsI10
_symmetry_space_group_name_H-M   'P 1'
_cell_length_a   8.16935036
_cell_length_b   10.04408103
_cell_length_c   10.29164654
_cell_angle_alpha   108.45398053
_cell_angle_beta   97.63826640
_cell_angle_gamma   105.68756856
_symmetry_Int_Tables_number   1
_chemical_formula_structural   La6OsI10
_chemical_formula_sum   'La6 Os1 I10'
_cell_volume   748.80383945
_cell_formula_units_Z   1
loop_
 _symmetry_equiv_pos_site_id
 _symmetry_equiv_pos_as_xyz
  1  'x, y, z'
loop_
 _atom_site_type_symbol
 _atom_site_label
 _atom_site_symmetry_multiplicity
 _atom_site_fract_x
 _atom_site_fract_y
 _atom_site_fract_z
 _atom_site_occupancy
  La  La0  1  0.47194988  0.27500008  0.58145421  1
  La  La1  1  0.52805012  0.72499992  0.41854579  1
  La  La2  1  0.86758859  0.14088882  0.67920653  1
  La  La3  1  0.13241141  0.85911118  0.32079347  1
  La  La4  1  0.38111784  0.95790011  0.74835721  1
  La  La5  1  0.61888216  0.04209989  0.25164279  1
  Os  Os6  1  0.50000000  -0.00000000  0.50000000  1
  I  I7  1  0.58664428  0.36976494  0.32109424  1
  I  I8  1  0.23227444  0.91258683  0.03877332  1
  I  I9  1  0.30235669  0.26929500  0.85457894  1
  I  I10  1  0.41335572  0.63023506  0.67890576  1
  I  I11  1  0.13681340  0.53206850  0.22470097  1
  I  I12  1  0.76772556  0.08741317  0.96122668  1
  I  I13  1  0.86318660  0.46793150  0.77529903  1
  I  I14  1  0.95106456  0.81896942  0.58752915  1
  I  I15  1  0.04893544  0.18103058  0.41247085  1
  I  I16  1  0.69764331  0.73070500  0.14542106  1
