# generated using pymatgen
data_LaZnFeAgO6
_symmetry_space_group_name_H-M   'P 1'
_cell_length_a   5.51103926
_cell_length_b   5.18625446
_cell_length_c   8.89958163
_cell_angle_alpha   92.03410635
_cell_angle_beta   90.00000000
_cell_angle_gamma   90.00000000
_symmetry_Int_Tables_number   1
_chemical_formula_structural   LaZnFeAgO6
_chemical_formula_sum   'La2 Zn2 Fe2 Ag2 O12'
_cell_volume   254.20446294
_cell_formula_units_Z   2
loop_
 _symmetry_equiv_pos_site_id
 _symmetry_equiv_pos_as_xyz
  1  'x, y, z'
loop_
 _atom_site_type_symbol
 _atom_site_label
 _atom_site_symmetry_multiplicity
 _atom_site_fract_x
 _atom_site_fract_y
 _atom_site_fract_z
 _atom_site_occupancy
  La  La0  1  0.06453185  0.97044608  0.25604531  1
  La  La1  1  0.43546815  0.47044608  0.75604531  1
  Zn  Zn2  1  0.56226330  0.53646975  0.24469057  1
  Zn  Zn3  1  0.93773670  0.03646975  0.74469057  1
  Fe  Fe4  1  0.50746244  0.00412568  0.00300445  1
  Fe  Fe5  1  0.99253756  0.50412568  0.50300445  1
  Ag  Ag6  1  0.50519618  0.99380782  0.50372590  1
  Ag  Ag7  1  0.99480382  0.49380782  0.00372590  1
  O  O8  1  0.03845085  0.67237757  0.69022611  1
  O  O9  1  0.19383250  0.19067240  0.90715841  1
  O  O10  1  0.19887023  0.20644065  0.56192948  1
  O  O11  1  0.30112977  0.70644065  0.06192948  1
  O  O12  1  0.30616750  0.69067240  0.40715841  1
  O  O13  1  0.46154915  0.17237757  0.19022511  1
  O  O14  1  0.56579424  0.88775354  0.80637610  1
  O  O15  1  0.73430392  0.26879894  0.59834040  1
  O  O16  1  0.72232771  0.26910657  0.92850225  1
  O  O17  1  0.77767229  0.76910657  0.42850225  1
  O  O18  1  0.76569608  0.76879894  0.09834040  1
  O  O19  1  0.93420576  0.38775354  0.30637610  1
