# generated using pymatgen
data_LiFe2P3O10
_symmetry_space_group_name_H-M   'P 1'
_cell_length_a   4.70366680
_cell_length_b   8.70129947
_cell_length_c   9.09817558
_cell_angle_alpha   90.00000000
_cell_angle_beta   96.45214212
_cell_angle_gamma   90.00000000
_symmetry_Int_Tables_number   1
_chemical_formula_structural   LiFe2P3O10
_chemical_formula_sum   'Li2 Fe4 P6 O20'
_cell_volume   370.01168326
_cell_formula_units_Z   2
loop_
 _symmetry_equiv_pos_site_id
 _symmetry_equiv_pos_as_xyz
  1  'x, y, z'
loop_
 _atom_site_type_symbol
 _atom_site_label
 _atom_site_symmetry_multiplicity
 _atom_site_fract_x
 _atom_site_fract_y
 _atom_site_fract_z
 _atom_site_occupancy
  Li  Li0  1  -0.00000000  -0.00000000  -0.00000000  1
  Li  Li1  1  0.00000000  0.50000000  0.00000000  1
  Fe  Fe2  1  0.96646581  0.93142394  0.66621747  1
  Fe  Fe3  1  0.96646581  0.56857606  0.66621747  1
  Fe  Fe4  1  0.03353419  0.06857606  0.33378253  1
  Fe  Fe5  1  0.03353419  0.43142394  0.33378253  1
  P  P6  1  0.66805393  0.75000000  0.17671888  1
  P  P7  1  0.60158613  0.25000000  0.53471507  1
  P  P8  1  0.39841387  0.75000000  0.46528493  1
  P  P9  1  0.54121264  0.75000000  0.85764030  1
  P  P10  1  0.33194607  0.25000000  0.82328112  1
  P  P11  1  0.45878736  0.25000000  0.14235970  1
  O  O12  1  0.28375860  0.39701870  0.15708263  1
  O  O13  1  0.71624140  0.60298130  0.84291737  1
  O  O14  1  0.83646174  0.60168471  0.18368950  1
  O  O15  1  0.43558624  0.75000000  0.29011327  1
  O  O16  1  0.44989883  0.75000000  0.02666327  1
  O  O17  1  0.55010117  0.25000000  0.97333673  1
  O  O18  1  0.75168925  0.25000000  0.23447647  1
  O  O19  1  0.30343259  0.25000000  0.44855665  1
  O  O20  1  0.56441376  0.25000000  0.70988673  1
  O  O21  1  0.69656741  0.75000000  0.55144335  1
  O  O22  1  0.24831075  0.75000000  0.76552353  1
  O  O23  1  0.28375860  0.10298130  0.15708263  1
  O  O24  1  0.16353826  0.10168471  0.81631050  1
  O  O25  1  0.77160629  0.39793144  0.51270138  1
  O  O26  1  0.83646174  0.89831529  0.18368950  1
  O  O27  1  0.71624140  0.89701870  0.84291737  1
  O  O28  1  0.77160629  0.10206856  0.51270138  1
  O  O29  1  0.22839371  0.60206856  0.48729862  1
  O  O30  1  0.16353826  0.39831529  0.81631050  1
  O  O31  1  0.22839371  0.89793144  0.48729862  1
