# generated using pymatgen
data_LiV(PO3)4
_symmetry_space_group_name_H-M   'P 1'
_cell_length_a   12.87040661
_cell_length_b   8.38693046
_cell_length_c   9.41893515
_cell_angle_alpha   90.00000000
_cell_angle_beta   90.00000000
_cell_angle_gamma   90.00000000
_symmetry_Int_Tables_number   1
_chemical_formula_structural   LiV(PO3)4
_chemical_formula_sum   'Li4 V4 P16 O48'
_cell_volume   1016.71004994
_cell_formula_units_Z   4
loop_
 _symmetry_equiv_pos_site_id
 _symmetry_equiv_pos_as_xyz
  1  'x, y, z'
loop_
 _atom_site_type_symbol
 _atom_site_label
 _atom_site_symmetry_multiplicity
 _atom_site_fract_x
 _atom_site_fract_y
 _atom_site_fract_z
 _atom_site_occupancy
  Li  Li0  1  0.50000000  0.50061045  0.75000000  1
  Li  Li1  1  -0.00000000  0.99938955  0.25000000  1
  Li  Li2  1  0.50000000  0.49938955  0.25000000  1
  Li  Li3  1  -0.00000000  0.00061045  0.75000000  1
  V  V4  1  0.50000000  0.86911715  0.75000000  1
  V  V5  1  -0.00000000  0.63088285  0.25000000  1
  V  V6  1  0.50000000  0.13088285  0.25000000  1
  V  V7  1  -0.00000000  0.36911715  0.75000000  1
  P  P8  1  0.63898917  0.31972748  0.49539076  1
  P  P9  1  0.86101083  0.81972748  0.49539076  1
  P  P10  1  0.84930683  0.46429738  0.48933822  1
  P  P11  1  0.36101083  0.68027252  0.50460924  1
  P  P12  1  0.15069317  0.53570262  0.51066178  1
  P  P13  1  0.63898917  0.68027252  0.99539076  1
  P  P14  1  0.34930683  0.96429738  0.01066178  1
  P  P15  1  0.34930683  0.03570262  0.51066178  1
  P  P16  1  0.13898917  0.81972748  0.00460924  1
  P  P17  1  0.13898917  0.18027252  0.50460924  1
  P  P18  1  0.65069317  0.96429738  0.48933822  1
  P  P19  1  0.15069317  0.46429738  0.01066178  1
  P  P20  1  0.84930683  0.53570262  0.98933822  1
  P  P21  1  0.86101083  0.18027252  0.99539076  1
  P  P22  1  0.36101083  0.31972748  0.00460924  1
  P  P23  1  0.65069317  0.03570262  0.98933822  1
  O  O24  1  0.24300828  0.89708831  0.07346302  1
  O  O25  1  0.32026504  0.85723202  0.46457057  1
  O  O26  1  0.39473243  0.59559613  0.37528342  1
  O  O27  1  0.06589496  0.19065397  0.63149907  1
  O  O28  1  0.60526757  0.59559613  0.12471658  1
  O  O29  1  0.62335906  0.86803804  0.61893265  1
  O  O30  1  0.07244948  0.46491435  0.12929329  1
  O  O31  1  0.42755052  0.96491435  0.12929329  1
  O  O32  1  0.93410504  0.19065397  0.86850093  1
  O  O33  1  0.74300828  0.39708831  0.42653698  1
  O  O34  1  0.74300828  0.60291169  0.92653698  1
  O  O35  1  0.06589496  0.80934603  0.13149907  1
  O  O36  1  0.25699172  0.39708831  0.07346302  1
  O  O37  1  0.10526757  0.09559613  0.37528342  1
  O  O38  1  0.89473243  0.09559613  0.12471658  1
  O  O39  1  0.82026504  0.64276798  0.53542943  1
  O  O40  1  0.67973496  0.14276798  0.53542943  1
  O  O41  1  0.37664094  0.13196196  0.38106735  1
  O  O42  1  0.56589496  0.30934603  0.36850093  1
  O  O43  1  0.92755052  0.46491435  0.37070671  1
  O  O44  1  0.32026504  0.14276798  0.96457057  1
  O  O45  1  0.82026504  0.35723202  0.03542943  1
  O  O46  1  0.67973496  0.85723202  0.03542943  1
  O  O47  1  0.57244948  0.03508565  0.87070671  1
  O  O48  1  0.17973496  0.35723202  0.46457057  1
  O  O49  1  0.87664094  0.63196196  0.11893265  1
  O  O50  1  0.25699172  0.60291169  0.57346302  1
  O  O51  1  0.42755052  0.03508565  0.62929329  1
  O  O52  1  0.39473243  0.40440387  0.87528342  1
  O  O53  1  0.17973496  0.64276798  0.96457057  1
  O  O54  1  0.75699172  0.10291169  0.92653698  1
  O  O55  1  0.12335906  0.36803804  0.88106735  1
  O  O56  1  0.92755052  0.53508565  0.87070671  1
  O  O57  1  0.12335906  0.63196196  0.38106735  1
  O  O58  1  0.07244948  0.53508565  0.62929329  1
  O  O59  1  0.10526757  0.90440387  0.87528342  1
  O  O60  1  0.75699172  0.89708831  0.42653698  1
  O  O61  1  0.89473243  0.90440387  0.62471658  1
  O  O62  1  0.56589496  0.69065397  0.86850093  1
  O  O63  1  0.87664094  0.36803804  0.61893265  1
  O  O64  1  0.57244948  0.96491435  0.37070671  1
  O  O65  1  0.37664094  0.86803804  0.88106735  1
  O  O66  1  0.24300828  0.10291169  0.57346302  1
  O  O67  1  0.62335906  0.13196196  0.11893265  1
  O  O68  1  0.43410504  0.69065397  0.63149907  1
  O  O69  1  0.43410504  0.30934603  0.13149907  1
  O  O70  1  0.60526757  0.40440387  0.62471658  1
  O  O71  1  0.93410504  0.80934603  0.36850093  1
