# generated using pymatgen
data_Li2Fe3(P2O7)2
_symmetry_space_group_name_H-M   'P 1'
_cell_length_a   7.40709153
_cell_length_b   7.93307859
_cell_length_c   9.68414241
_cell_angle_alpha   90.00000000
_cell_angle_beta   110.21270603
_cell_angle_gamma   90.00000000
_symmetry_Int_Tables_number   1
_chemical_formula_structural   Li2Fe3(P2O7)2
_chemical_formula_sum   'Li4 Fe6 P8 O28'
_cell_volume   534.00612247
_cell_formula_units_Z   2
loop_
 _symmetry_equiv_pos_site_id
 _symmetry_equiv_pos_as_xyz
  1  'x, y, z'
loop_
 _atom_site_type_symbol
 _atom_site_label
 _atom_site_symmetry_multiplicity
 _atom_site_fract_x
 _atom_site_fract_y
 _atom_site_fract_z
 _atom_site_occupancy
  Li  Li0  1  0.70437925  0.08201967  0.63909049  1
  Li  Li1  1  0.29562075  0.91798033  0.36090951  1
  Li  Li2  1  0.70437925  0.41798033  0.13909049  1
  Li  Li3  1  0.29562075  0.58201967  0.86090951  1
  Fe  Fe4  1  0.80667849  0.12309107  0.97837066  1
  Fe  Fe5  1  0.19332151  0.87690893  0.02162934  1
  Fe  Fe6  1  0.80667849  0.37690893  0.47837066  1
  Fe  Fe7  1  0.19332151  0.62309107  0.52162934  1
  Fe  Fe8  1  0.00000000  0.00000000  0.50000000  1
  Fe  Fe9  1  0.00000000  0.50000000  0.00000000  1
  P  P10  1  0.40307390  0.55014068  0.28219470  1
  P  P11  1  0.88073621  0.79408574  0.19407256  1
  P  P12  1  0.59692610  0.44985932  0.71780530  1
  P  P13  1  0.88073621  0.70591426  0.69407256  1
  P  P14  1  0.11926379  0.20591426  0.80592744  1
  P  P15  1  0.59692610  0.05014068  0.21780530  1
  P  P16  1  0.40307390  0.94985932  0.78219470  1
  P  P17  1  0.11926379  0.29408574  0.30592744  1
  O  O18  1  0.99173318  0.20980757  0.64104811  1
  O  O19  1  0.61159929  0.50463765  0.29975461  1
  O  O20  1  0.15680700  0.12316654  0.38141540  1
  O  O21  1  0.38840071  0.00463765  0.20024539  1
  O  O22  1  0.84319300  0.62316654  0.11858460  1
  O  O23  1  0.28259375  0.60841072  0.12481576  1
  O  O24  1  0.71740625  0.39158928  0.87518424  1
  O  O25  1  0.84319300  0.87683346  0.61858460  1
  O  O26  1  0.32204593  0.13375928  0.80891755  1
  O  O27  1  0.67795407  0.86624072  0.19108245  1
  O  O28  1  0.71740625  0.10841072  0.37518424  1
  O  O29  1  0.03556795  0.41854832  0.39003456  1
  O  O30  1  0.00826682  0.79019243  0.35895189  1
  O  O31  1  0.00826682  0.70980757  0.85895189  1
  O  O32  1  0.38840071  0.49536235  0.70024539  1
  O  O33  1  0.61829731  0.32846958  0.60195785  1
  O  O34  1  0.61829731  0.17153042  0.10195785  1
  O  O35  1  0.96443205  0.58145168  0.60996544  1
  O  O36  1  0.99173318  0.29019243  0.14104811  1
  O  O37  1  0.67795407  0.63375928  0.69108245  1
  O  O38  1  0.32204593  0.36624072  0.30891755  1
  O  O39  1  0.03556795  0.08145168  0.89003456  1
  O  O40  1  0.15680700  0.37683346  0.88141540  1
  O  O41  1  0.96443205  0.91854832  0.10996544  1
  O  O42  1  0.61159929  0.99536235  0.79975461  1
  O  O43  1  0.38170269  0.82846958  0.89804215  1
  O  O44  1  0.38170269  0.67153042  0.39804215  1
  O  O45  1  0.28259375  0.89158928  0.62481576  1
