# generated using pymatgen
data_LiMn(PO3)4
_symmetry_space_group_name_H-M   'P 1'
_cell_length_a   12.81822609
_cell_length_b   8.40922678
_cell_length_c   9.39196917
_cell_angle_alpha   90.00000000
_cell_angle_beta   90.00000000
_cell_angle_gamma   90.00000000
_symmetry_Int_Tables_number   1
_chemical_formula_structural   LiMn(PO3)4
_chemical_formula_sum   'Li4 Mn4 P16 O48'
_cell_volume   1012.37322485
_cell_formula_units_Z   4
loop_
 _symmetry_equiv_pos_site_id
 _symmetry_equiv_pos_as_xyz
  1  'x, y, z'
loop_
 _atom_site_type_symbol
 _atom_site_label
 _atom_site_symmetry_multiplicity
 _atom_site_fract_x
 _atom_site_fract_y
 _atom_site_fract_z
 _atom_site_occupancy
  Li  Li0  1  0.00000000  0.00220696  0.75000000  1
  Li  Li1  1  0.50000000  0.50220696  0.75000000  1
  Li  Li2  1  0.50000000  0.49779304  0.25000000  1
  Li  Li3  1  0.00000000  0.99779304  0.25000000  1
  Mn  Mn4  1  0.00000000  0.37379489  0.75000000  1
  Mn  Mn5  1  0.50000000  0.12620511  0.25000000  1
  Mn  Mn6  1  0.50000000  0.87379489  0.75000000  1
  Mn  Mn7  1  0.00000000  0.62620511  0.25000000  1
  P  P8  1  0.14841464  0.46440484  0.00663857  1
  P  P9  1  0.63823368  0.32013791  0.49791010  1
  P  P10  1  0.64841464  0.96440484  0.49336143  1
  P  P11  1  0.13823368  0.17986209  0.50208990  1
  P  P12  1  0.85158536  0.53559516  0.99336143  1
  P  P13  1  0.63823368  0.67986209  0.99791010  1
  P  P14  1  0.64841464  0.03559516  0.99336143  1
  P  P15  1  0.13823368  0.82013791  0.00208990  1
  P  P16  1  0.14841464  0.53559516  0.50663857  1
  P  P17  1  0.86176632  0.82013791  0.49791010  1
  P  P18  1  0.86176632  0.17986209  0.99791010  1
  P  P19  1  0.36176632  0.67986209  0.50208990  1
  P  P20  1  0.35158536  0.03559516  0.50663857  1
  P  P21  1  0.35158536  0.96440484  0.00663857  1
  P  P22  1  0.85158536  0.46440484  0.49336143  1
  P  P23  1  0.36176632  0.32013791  0.00208990  1
  O  O24  1  0.12125279  0.37080391  0.87299882  1
  O  O25  1  0.57038328  0.96056770  0.37464267  1
  O  O26  1  0.39465119  0.59673879  0.37128428  1
  O  O27  1  0.89465119  0.90326121  0.62871572  1
  O  O28  1  0.93363447  0.81244675  0.36978314  1
  O  O29  1  0.87874721  0.62919609  0.12700118  1
  O  O30  1  0.37874721  0.87080391  0.87299882  1
  O  O31  1  0.17811570  0.35795556  0.46307857  1
  O  O32  1  0.60534881  0.40326121  0.62871572  1
  O  O33  1  0.67811570  0.85795556  0.03692143  1
  O  O34  1  0.32188430  0.85795556  0.46307857  1
  O  O35  1  0.82188430  0.35795556  0.03692143  1
  O  O36  1  0.92961672  0.53943230  0.87464267  1
  O  O37  1  0.92961672  0.46056770  0.37464267  1
  O  O38  1  0.25457366  0.39408840  0.06658898  1
  O  O39  1  0.87874721  0.37080391  0.62700118  1
  O  O40  1  0.60534881  0.59673879  0.12871572  1
  O  O41  1  0.75457366  0.10591160  0.93341102  1
  O  O42  1  0.74542634  0.39408840  0.43341102  1
  O  O43  1  0.07038328  0.53943230  0.62535733  1
  O  O44  1  0.25457366  0.60591160  0.56658898  1
  O  O45  1  0.62125279  0.87080391  0.62700118  1
  O  O46  1  0.43363447  0.68755325  0.63021686  1
  O  O47  1  0.62125279  0.12919609  0.12700118  1
  O  O48  1  0.32188430  0.14204444  0.96307857  1
  O  O49  1  0.24542634  0.10591160  0.56658898  1
  O  O50  1  0.37874721  0.12919609  0.37299882  1
  O  O51  1  0.67811570  0.14204444  0.53692143  1
  O  O52  1  0.17811570  0.64204444  0.96307857  1
  O  O53  1  0.56636553  0.68755325  0.86978314  1
  O  O54  1  0.42961672  0.96056770  0.12535733  1
  O  O55  1  0.39465119  0.40326121  0.87128428  1
  O  O56  1  0.57038328  0.03943230  0.87464267  1
  O  O57  1  0.10534881  0.09673879  0.37128428  1
  O  O58  1  0.93363447  0.18755325  0.86978314  1
  O  O59  1  0.42961672  0.03943230  0.62535733  1
  O  O60  1  0.43363447  0.31244675  0.13021686  1
  O  O61  1  0.10534881  0.90326121  0.87128428  1
  O  O62  1  0.74542634  0.60591160  0.93341102  1
  O  O63  1  0.07038328  0.46056770  0.12535733  1
  O  O64  1  0.82188430  0.64204444  0.53692143  1
  O  O65  1  0.24542634  0.89408840  0.06658898  1
  O  O66  1  0.75457366  0.89408840  0.43341102  1
  O  O67  1  0.56636553  0.31244675  0.36978314  1
  O  O68  1  0.06636553  0.81244675  0.13021686  1
  O  O69  1  0.89465119  0.09673879  0.12871572  1
  O  O70  1  0.12125279  0.62919609  0.37299882  1
  O  O71  1  0.06636553  0.18755325  0.63021686  1
