# generated using pymatgen
data_Zn2Te3O8
_symmetry_space_group_name_H-M   'P 1'
_cell_length_a   5.30085892
_cell_length_b   6.94813554
_cell_length_c   12.05545871
_cell_angle_alpha   98.92629208
_cell_angle_beta   90.00000000
_cell_angle_gamma   112.42409137
_symmetry_Int_Tables_number   1
_chemical_formula_structural   Zn2Te3O8
_chemical_formula_sum   'Zn4 Te6 O16'
_cell_volume   404.61817265
_cell_formula_units_Z   2
loop_
 _symmetry_equiv_pos_site_id
 _symmetry_equiv_pos_as_xyz
  1  'x, y, z'
loop_
 _atom_site_type_symbol
 _atom_site_label
 _atom_site_symmetry_multiplicity
 _atom_site_fract_x
 _atom_site_fract_y
 _atom_site_fract_z
 _atom_site_occupancy
  O  O0  1  0.71358310  0.46688469  0.95997200  1
  O  O1  1  0.24669840  0.53311531  0.54002800  1
  O  O2  1  0.28641690  0.53311531  0.04002800  1
  O  O3  1  0.75330160  0.46688469  0.45997200  1
  O  O4  1  0.41364165  0.60907747  0.81493516  1
  O  O5  1  0.80456417  0.39092253  0.68506484  1
  O  O6  1  0.58635835  0.39092253  0.18506484  1
  O  O7  1  0.19543583  0.60907747  0.31493516  1
  O  O8  1  0.98714001  0.77138966  0.85779320  1
  O  O9  1  0.21575035  0.22861034  0.64220680  1
  O  O10  1  0.01175587  0.83721901  0.14432223  1
  O  O11  1  0.17453686  0.16278099  0.35567777  1
  O  O12  1  0.98824413  0.16278099  0.85567777  1
  O  O13  1  0.82546314  0.83721901  0.64432223  1
  O  O14  1  0.78424965  0.77138966  0.35779320  1
  O  O15  1  0.01285999  0.22861034  0.14220680  1
  Zn  Zn16  1  0.99400664  0.54555582  0.15945431  1
  Zn  Zn17  1  0.44845082  0.45444418  0.34054569  1
  Zn  Zn18  1  0.00599336  0.45444418  0.84054569  1
  Zn  Zn19  1  0.55154918  0.54555582  0.65945431  1
  Te  Te20  1  0.12641227  0.00000000  0.75000000  1
  Te  Te21  1  0.87358773  0.00000000  0.25000000  1
  Te  Te22  1  0.06320204  0.72393521  0.44631130  1
  Te  Te23  1  0.33926683  0.27606479  0.05368870  1
  Te  Te24  1  0.93679796  0.27606479  0.55368870  1
  Te  Te25  1  0.66073317  0.72393521  0.94631130  1
