# generated using pymatgen
data_Gd3GaO6
_symmetry_space_group_name_H-M   'P 1'
_cell_length_a   5.51864185
_cell_length_b   7.26250853
_cell_length_c   7.26250854
_cell_angle_alpha   102.86195178
_cell_angle_beta   90.00000000
_cell_angle_gamma   90.00000000
_symmetry_Int_Tables_number   1
_chemical_formula_structural   Gd3GaO6
_chemical_formula_sum   'Gd6 Ga2 O12'
_cell_volume   283.77210695
_cell_formula_units_Z   2
loop_
 _symmetry_equiv_pos_site_id
 _symmetry_equiv_pos_as_xyz
  1  'x, y, z'
loop_
 _atom_site_type_symbol
 _atom_site_label
 _atom_site_symmetry_multiplicity
 _atom_site_fract_x
 _atom_site_fract_y
 _atom_site_fract_z
 _atom_site_occupancy
  O  O0  1  0.83339171  0.78500964  0.21499036  1
  O  O1  1  0.33339171  0.21499036  0.78500964  1
  O  O2  1  0.36211119  0.95978425  0.04021575  1
  O  O3  1  0.86211119  0.04021575  0.95978425  1
  O  O4  1  0.30318688  0.32495545  0.35531871  1
  O  O5  1  0.80318688  0.67504455  0.64468129  1
  O  O6  1  0.30318688  0.64468129  0.67504455  1
  O  O7  1  0.80318688  0.35531871  0.32495545  1
  O  O8  1  0.82540758  0.41959980  0.89360965  1
  O  O9  1  0.32540758  0.58040020  0.10639035  1
  O  O10  1  0.82540758  0.10639035  0.58040020  1
  O  O11  1  0.32540758  0.89360965  0.41959980  1
  Ga  Ga12  1  0.49973819  0.80748090  0.19251910  1
  Ga  Ga13  1  0.99973819  0.19251910  0.80748090  1
  Gd  Gd14  1  0.07745079  0.60292155  0.39707845  1
  Gd  Gd15  1  0.57745079  0.39707845  0.60292155  1
  Gd  Gd16  1  0.03216460  0.08771987  0.29918905  1
  Gd  Gd17  1  0.53216460  0.91228013  0.70081095  1
  Gd  Gd18  1  0.03216460  0.70081095  0.91228013  1
  Gd  Gd19  1  0.53216460  0.29918905  0.08771987  1
