# generated using pymatgen
data_VRe2O9
_symmetry_space_group_name_H-M   'P 1'
_cell_length_a   5.79694995
_cell_length_b   8.15602940
_cell_length_c   9.11144033
_cell_angle_alpha   90.00000000
_cell_angle_beta   90.00000000
_cell_angle_gamma   110.81662457
_symmetry_Int_Tables_number   1
_chemical_formula_structural   VRe2O9
_chemical_formula_sum   'V2 Re4 O18'
_cell_volume   402.66892272
_cell_formula_units_Z   2
loop_
 _symmetry_equiv_pos_site_id
 _symmetry_equiv_pos_as_xyz
  1  'x, y, z'
loop_
 _atom_site_type_symbol
 _atom_site_label
 _atom_site_symmetry_multiplicity
 _atom_site_fract_x
 _atom_site_fract_y
 _atom_site_fract_z
 _atom_site_occupancy
  O  O0  1  0.06938080  0.13876160  0.06561163  1
  O  O1  1  0.93061871  0.86123830  0.56561218  1
  O  O2  1  0.42602726  0.85205452  0.14686918  1
  O  O3  1  0.57397225  0.14794538  0.64686973  1
  O  O4  1  0.40608433  0.81216867  0.45246729  1
  O  O5  1  0.59391518  0.18783124  0.95246784  1
  O  O6  1  0.03528029  0.57557801  0.67315394  1
  O  O7  1  0.96471922  0.42442190  0.17315338  1
  O  O8  1  0.54029772  0.57557801  0.67315394  1
  O  O9  1  0.45970179  0.42442190  0.17315338  1
  O  O10  1  0.19636406  0.39272813  0.44401339  1
  O  O11  1  0.80363545  0.60727178  0.94401394  1
  O  O12  1  0.29914666  0.09891225  0.32279328  1
  O  O13  1  0.86467307  0.72934702  0.23554628  1
  O  O14  1  0.20023306  0.90108765  0.82279384  1
  O  O15  1  0.79976645  0.09891225  0.32279328  1
  O  O16  1  0.70085460  0.90108765  0.82279384  1
  O  O17  1  0.13532644  0.27065288  0.73554684  1
  V  V18  1  0.11995506  0.23991013  0.22056903  1
  V  V19  1  0.88004445  0.76008978  0.72056959  1
  Re  Re20  1  0.51774291  0.03548670  0.81146804  1
  Re  Re21  1  0.48225660  0.96451321  0.31146858  1
  Re  Re22  1  0.77156918  0.54313924  0.12858970  1
  Re  Re23  1  0.22843033  0.45686067  0.62858916  1
