# generated using pymatgen
data_K7LiSi8
_symmetry_space_group_name_H-M   'P 1'
_cell_length_a   12.56130900
_cell_length_b   12.56130900
_cell_length_c   12.56130900
_cell_angle_alpha   90.00000000
_cell_angle_beta   90.00000000
_cell_angle_gamma   90.00000000
_symmetry_Int_Tables_number   1
_chemical_formula_structural   K7LiSi8
_chemical_formula_sum   'K28 Li4 Si32'
_cell_volume   1982.00477895
_cell_formula_units_Z   4
loop_
 _symmetry_equiv_pos_site_id
 _symmetry_equiv_pos_as_xyz
  1  'x, y, z'
loop_
 _atom_site_type_symbol
 _atom_site_label
 _atom_site_symmetry_multiplicity
 _atom_site_fract_x
 _atom_site_fract_y
 _atom_site_fract_z
 _atom_site_occupancy
  Li  Li0  1  0.50000000  0.50000000  0.50000000  1
  Li  Li1  1  0.00000000  0.00000000  0.50000000  1
  Li  Li2  1  0.50000000  0.00000000  0.00000000  1
  Li  Li3  1  0.00000000  0.50000000  0.00000000  1
  Si  Si4  1  0.19794404  0.56767392  0.94754578  1
  Si  Si5  1  0.94754578  0.19794404  0.56767392  1
  Si  Si6  1  0.80205596  0.06767392  0.55245422  1
  Si  Si7  1  0.30205596  0.43232608  0.44754578  1
  Si  Si8  1  0.55245422  0.80205596  0.06767392  1
  Si  Si9  1  0.43232608  0.44754578  0.30205596  1
  Si  Si10  1  0.06767392  0.55245422  0.80205596  1
  Si  Si11  1  0.56767392  0.94754578  0.19794404  1
  Si  Si12  1  0.06767392  0.94754578  0.30205596  1
  Si  Si13  1  0.30205596  0.06767392  0.94754578  1
  Si  Si14  1  0.94754578  0.30205596  0.06767392  1
  Si  Si15  1  0.55245422  0.69794404  0.56767392  1
  Si  Si16  1  0.80205596  0.43232608  0.05245422  1
  Si  Si17  1  0.44754578  0.30205596  0.43232608  1
  Si  Si18  1  0.19794404  0.93232608  0.44754578  1
  Si  Si19  1  0.69794404  0.56767392  0.55245422  1
  Si  Si20  1  0.44754578  0.19794404  0.93232608  1
  Si  Si21  1  0.56767392  0.55245422  0.69794404  1
  Si  Si22  1  0.93232608  0.44754578  0.19794404  1
  Si  Si23  1  0.43232608  0.05245422  0.80205596  1
  Si  Si24  1  0.30461196  0.30461196  0.30461196  1
  Si  Si25  1  0.19538804  0.69538804  0.80461196  1
  Si  Si26  1  0.80461196  0.19538804  0.69538804  1
  Si  Si27  1  0.69538804  0.80461196  0.19538804  1
  Si  Si28  1  0.69538804  0.69538804  0.69538804  1
  Si  Si29  1  0.80461196  0.30461196  0.19538804  1
  Si  Si30  1  0.19538804  0.80461196  0.30461196  1
  Si  Si31  1  0.30461196  0.19538804  0.80461196  1
  Si  Si32  1  0.05245422  0.69794404  0.93232608  1
  Si  Si33  1  0.69794404  0.93232608  0.05245422  1
  Si  Si34  1  0.05245422  0.80205596  0.43232608  1
  Si  Si35  1  0.93232608  0.05245422  0.69794404  1
  K  K36  1  0.27308769  0.81039428  0.04346591  1
  K  K37  1  0.04346591  0.27308769  0.81039428  1
  K  K38  1  0.72691231  0.31039428  0.45653409  1
  K  K39  1  0.22691231  0.18960572  0.54346591  1
  K  K40  1  0.45653409  0.72691231  0.31039428  1
  K  K41  1  0.18960572  0.54346591  0.22691231  1
  K  K42  1  0.31039428  0.45653409  0.72691231  1
  K  K43  1  0.81039428  0.04346591  0.27308769  1
  K  K44  1  0.31039428  0.04346591  0.22691231  1
  K  K45  1  0.22691231  0.31039428  0.04346591  1
  K  K46  1  0.04346591  0.22691231  0.31039428  1
  K  K47  1  0.45653409  0.77308769  0.81039428  1
  K  K48  1  0.54346591  0.22691231  0.18960572  1
  K  K49  1  0.95653409  0.72691231  0.18960572  1
  K  K50  1  0.27308769  0.68960572  0.54346591  1
  K  K51  1  0.77308769  0.81039428  0.45653409  1
  K  K52  1  0.54346591  0.27308769  0.68960572  1
  K  K53  1  0.81039428  0.45653409  0.77308769  1
  K  K54  1  0.68960572  0.54346591  0.27308769  1
  K  K55  1  0.18960572  0.95653409  0.72691231  1
  K  K56  1  0.00000000  0.00000000  0.00000000  1
  K  K57  1  0.50000000  0.00000000  0.50000000  1
  K  K58  1  0.50000000  0.50000000  0.00000000  1
  K  K59  1  0.00000000  0.50000000  0.50000000  1
  K  K60  1  0.95653409  0.77308769  0.68960572  1
  K  K61  1  0.77308769  0.68960572  0.95653409  1
  K  K62  1  0.68960572  0.95653409  0.77308769  1
  K  K63  1  0.72691231  0.18960572  0.95653409  1
