# generated using pymatgen
data_CaTiFe(PO4)3
_symmetry_space_group_name_H-M   'P 1'
_cell_length_a   8.86004642
_cell_length_b   8.86004659
_cell_length_c   8.86004694
_cell_angle_alpha   58.45759866
_cell_angle_beta   58.45760099
_cell_angle_gamma   58.45759956
_symmetry_Int_Tables_number   1
_chemical_formula_structural   CaTiFe(PO4)3
_chemical_formula_sum   'Ca2 Ti2 Fe2 P6 O24'
_cell_volume   474.44825875
_cell_formula_units_Z   2
loop_
 _symmetry_equiv_pos_site_id
 _symmetry_equiv_pos_as_xyz
  1  'x, y, z'
loop_
 _atom_site_type_symbol
 _atom_site_label
 _atom_site_symmetry_multiplicity
 _atom_site_fract_x
 _atom_site_fract_y
 _atom_site_fract_z
 _atom_site_occupancy
  Ca  Ca0  1  0.99825321  0.99825321  0.99825321  1
  Ca  Ca1  1  0.49825321  0.49825321  0.49825321  1
  Fe  Fe2  1  0.35272568  0.35272568  0.35272568  1
  Fe  Fe3  1  0.85272568  0.85272568  0.85272568  1
  O  O4  1  0.12031646  0.50844167  0.29628499  1
  O  O5  1  0.29628499  0.12031646  0.50844167  1
  O  O6  1  0.05752594  0.27145306  0.92181905  1
  O  O7  1  0.50844167  0.29628499  0.12031646  1
  O  O8  1  0.00844167  0.62031646  0.79628499  1
  O  O9  1  0.22729216  0.43617032  0.58290539  1
  O  O10  1  0.27145306  0.92181905  0.05752594  1
  O  O11  1  0.43617032  0.58290539  0.22729216  1
  O  O12  1  0.20623338  0.99841160  0.37245222  1
  O  O13  1  0.58290539  0.22729216  0.43617032  1
  O  O14  1  0.08290539  0.93617032  0.72729216  1
  O  O15  1  0.37245222  0.20623338  0.99841160  1
  O  O16  1  0.62031646  0.79628499  0.00844167  1
  O  O17  1  0.92181905  0.05752594  0.27145306  1
  O  O18  1  0.42181905  0.77145306  0.55752594  1
  O  O19  1  0.79628499  0.00844167  0.62031646  1
  O  O20  1  0.55752594  0.42181905  0.77145306  1
  O  O21  1  0.72729216  0.08290539  0.93617032  1
  O  O22  1  0.77145306  0.55752594  0.42181905  1
  O  O23  1  0.99841160  0.37245222  0.20623338  1
  O  O24  1  0.49841160  0.70623338  0.87245222  1
  O  O25  1  0.93617032  0.72729216  0.08290539  1
  O  O26  1  0.70623338  0.87245222  0.49841160  1
  O  O27  1  0.87245222  0.49841160  0.70623338  1
  P  P28  1  0.04151034  0.45996836  0.75080383  1
  P  P29  1  0.45996836  0.75080383  0.04151034  1
  P  P30  1  0.75080383  0.04151034  0.45996836  1
  P  P31  1  0.25080383  0.95996836  0.54151034  1
  P  P32  1  0.54151034  0.25080383  0.95996836  1
  P  P33  1  0.95996836  0.54151034  0.25080383  1
  Ti  Ti34  1  0.14743234  0.14743234  0.14743234  1
  Ti  Ti35  1  0.64743234  0.64743234  0.64743234  1
