# generated using pymatgen
data_MgNiBiO5
_symmetry_space_group_name_H-M   'P 1'
_cell_length_a   5.36159844
_cell_length_b   8.23208555
_cell_length_c   10.46188215
_cell_angle_alpha   90.00000000
_cell_angle_beta   90.00000000
_cell_angle_gamma   108.17702601
_symmetry_Int_Tables_number   1
_chemical_formula_structural   MgNiBiO5
_chemical_formula_sum   'Mg4 Ni4 Bi4 O20'
_cell_volume   438.71453888
_cell_formula_units_Z   4
loop_
 _symmetry_equiv_pos_site_id
 _symmetry_equiv_pos_as_xyz
  1  'x, y, z'
loop_
 _atom_site_type_symbol
 _atom_site_label
 _atom_site_symmetry_multiplicity
 _atom_site_fract_x
 _atom_site_fract_y
 _atom_site_fract_z
 _atom_site_occupancy
  Mg  Mg0  1  0.63601163  0.16807893  0.90935365  1
  Mg  Mg1  1  0.36398837  0.83192107  0.09064635  1
  Mg  Mg2  1  0.86398837  0.33192107  0.40935365  1
  Mg  Mg3  1  0.13601163  0.66807893  0.59064635  1
  Ni  Ni4  1  0.81943862  0.93945402  0.61586497  1
  Ni  Ni5  1  0.18056138  0.06054598  0.38413503  1
  Ni  Ni6  1  0.68056138  0.56054598  0.11586497  1
  Ni  Ni7  1  0.31943862  0.43945402  0.88413503  1
  Bi  Bi8  1  0.13081369  0.15766177  0.10478837  1
  Bi  Bi9  1  0.86918631  0.84233823  0.89521163  1
  Bi  Bi10  1  0.63081369  0.65766177  0.39521163  1
  Bi  Bi11  1  0.36918631  0.34233823  0.60478837  1
  O  O12  1  0.49785893  0.34277447  0.04374588  1
  O  O13  1  0.01346519  0.31528050  0.96689343  1
  O  O14  1  0.50642204  0.69208763  0.20920739  1
  O  O15  1  0.75404596  0.50625033  0.54194900  1
  O  O16  1  0.78049322  0.49547299  0.28018673  1
  O  O17  1  0.28049322  0.99547299  0.21981327  1
  O  O18  1  0.51346519  0.81528050  0.53310657  1
  O  O19  1  0.48653481  0.18471950  0.46689343  1
  O  O20  1  0.24595404  0.49374967  0.45805100  1
  O  O21  1  0.00214107  0.15722553  0.54374588  1
  O  O22  1  0.21950678  0.50452701  0.71981327  1
  O  O23  1  0.50214107  0.65722553  0.95625412  1
  O  O24  1  0.99785893  0.84277447  0.45625412  1
  O  O25  1  0.71950678  0.00452701  0.78018673  1
  O  O26  1  0.74595404  0.99374967  0.04194900  1
  O  O27  1  0.25404596  0.00625033  0.95805100  1
  O  O28  1  0.49357796  0.30791237  0.79079261  1
  O  O29  1  0.98653481  0.68471950  0.03310657  1
  O  O30  1  0.99357796  0.80791237  0.70920739  1
  O  O31  1  0.00642204  0.19208763  0.29079261  1
