# generated using pymatgen
data_CsTiCoOF5
_symmetry_space_group_name_H-M   'P 1'
_cell_length_a   7.48329703
_cell_length_b   7.48329646
_cell_length_c   7.43971709
_cell_angle_alpha   60.19245057
_cell_angle_beta   60.19245301
_cell_angle_gamma   58.36199252
_symmetry_Int_Tables_number   1
_chemical_formula_structural   CsTiCoOF5
_chemical_formula_sum   'Cs2 Ti2 Co2 O2 F10'
_cell_volume   291.60055255
_cell_formula_units_Z   2
loop_
 _symmetry_equiv_pos_site_id
 _symmetry_equiv_pos_as_xyz
  1  'x, y, z'
loop_
 _atom_site_type_symbol
 _atom_site_label
 _atom_site_symmetry_multiplicity
 _atom_site_fract_x
 _atom_site_fract_y
 _atom_site_fract_z
 _atom_site_occupancy
  Cs  Cs0  1  0.37776286  0.37776286  0.37223714  1
  Cs  Cs1  1  0.62223714  0.62223714  0.62776286  1
  Ti  Ti2  1  0.00000000  0.50000000  0.00000000  1
  Ti  Ti3  1  0.50000000  0.00000000  0.00000000  1
  Co  Co4  1  0.00000000  0.00000000  0.00000000  1
  Co  Co5  1  0.00000000  0.00000000  0.50000000  1
  O  O6  1  0.28989592  0.28989592  0.96010408  1
  O  O7  1  0.71010408  0.71010408  0.03989592  1
  F  F8  1  0.08391783  0.66639027  0.06253664  1
  F  F9  1  0.07142904  0.07142904  0.67857096  1
  F  F10  1  0.66639027  0.08391783  0.06253664  1
  F  F11  1  0.08391783  0.66639027  0.68715525  1
  F  F12  1  0.33360973  0.91608217  0.31284475  1
  F  F13  1  0.66639027  0.08391783  0.68715525  1
  F  F14  1  0.91608217  0.33360973  0.31284475  1
  F  F15  1  0.33360973  0.91608217  0.93746336  1
  F  F16  1  0.92857096  0.92857096  0.32142904  1
  F  F17  1  0.91608217  0.33360973  0.93746336  1
