# generated using pymatgen
data_Pr(P3Ru)4
_symmetry_space_group_name_H-M   'P 1'
_cell_length_a   8.10620859
_cell_length_b   8.10620859
_cell_length_c   8.10620859
_cell_angle_alpha   90.00000000
_cell_angle_beta   90.00000000
_cell_angle_gamma   90.00000000
_symmetry_Int_Tables_number   1
_chemical_formula_structural   Pr(P3Ru)4
_chemical_formula_sum   'Pr2 P24 Ru8'
_cell_volume   532.66397369
_cell_formula_units_Z   2
loop_
 _symmetry_equiv_pos_site_id
 _symmetry_equiv_pos_as_xyz
  1  'x, y, z'
loop_
 _atom_site_type_symbol
 _atom_site_label
 _atom_site_symmetry_multiplicity
 _atom_site_fract_x
 _atom_site_fract_y
 _atom_site_fract_z
 _atom_site_occupancy
  P  P0  1  0.50000000  0.14198068  0.64363982  1
  P  P1  1  0.50000000  0.85801932  0.35636018  1
  P  P2  1  0.50000000  0.14198068  0.35636018  1
  P  P3  1  0.85801932  0.35636018  0.50000000  1
  P  P4  1  0.35636018  0.50000000  0.14198068  1
  P  P5  1  0.35636018  0.50000000  0.85801932  1
  P  P6  1  0.14198068  0.64363982  0.50000000  1
  P  P7  1  0.64363982  0.50000000  0.14198068  1
  P  P8  1  0.14198068  0.35636018  0.50000000  1
  P  P9  1  0.85801932  0.64363982  0.50000000  1
  P  P10  1  0.00000000  0.35797051  0.14377792  1
  P  P11  1  0.14377792  0.00000000  0.35797051  1
  P  P12  1  0.35797051  0.14377792  0.00000000  1
  P  P13  1  0.64202949  0.85622208  0.00000000  1
  P  P14  1  0.14377792  0.00000000  0.64202949  1
  P  P15  1  0.64202949  0.14377792  0.00000000  1
  P  P16  1  0.85622208  0.00000000  0.35797051  1
  P  P17  1  0.85622208  0.00000000  0.64202949  1
  P  P18  1  0.35797051  0.85622208  0.00000000  1
  P  P19  1  0.00000000  0.64202949  0.85622208  1
  P  P20  1  0.00000000  0.35797051  0.85622208  1
  P  P21  1  0.00000000  0.64202949  0.14377792  1
  P  P22  1  0.50000000  0.85801932  0.64363982  1
  P  P23  1  0.64363982  0.50000000  0.85801932  1
  Ru  Ru24  1  0.25007328  0.74992672  0.25007328  1
  Ru  Ru25  1  0.74992672  0.25007328  0.25007328  1
  Ru  Ru26  1  0.25007328  0.25007328  0.74992672  1
  Ru  Ru27  1  0.74992672  0.74992672  0.74992672  1
  Ru  Ru28  1  0.74992672  0.25007328  0.74992672  1
  Ru  Ru29  1  0.25007328  0.74992672  0.74992672  1
  Ru  Ru30  1  0.74992672  0.74992672  0.25007328  1
  Ru  Ru31  1  0.25007328  0.25007328  0.25007328  1
  Pr  Pr32  1  0.50000000  0.50000000  0.50000000  1
  Pr  Pr33  1  0.00000000  0.00000000  0.00000000  1
