# generated using pymatgen
data_W3O7
_symmetry_space_group_name_H-M   'P 1'
_cell_length_a   6.36057694
_cell_length_b   11.64226434
_cell_length_c   7.71593977
_cell_angle_alpha   90.00000000
_cell_angle_beta   90.00000000
_cell_angle_gamma   90.00000000
_symmetry_Int_Tables_number   1
_chemical_formula_structural   W3O7
_chemical_formula_sum   'W12 O28'
_cell_volume   571.37705346
_cell_formula_units_Z   4
loop_
 _symmetry_equiv_pos_site_id
 _symmetry_equiv_pos_as_xyz
  1  'x, y, z'
loop_
 _atom_site_type_symbol
 _atom_site_label
 _atom_site_symmetry_multiplicity
 _atom_site_fract_x
 _atom_site_fract_y
 _atom_site_fract_z
 _atom_site_occupancy
  W  W0  1  0.24999776  0.02275781  0.25476996  1
  W  W1  1  0.74999776  0.97724219  0.24523004  1
  W  W2  1  0.75000224  0.52275781  0.74523004  1
  W  W3  1  0.25000224  0.47724219  0.75476996  1
  W  W4  1  0.25000886  0.75000000  0.24327745  1
  W  W5  1  0.75000886  0.25000000  0.25672255  1
  W  W6  1  0.74999114  0.25000000  0.75672255  1
  W  W7  1  0.24999114  0.75000000  0.74327745  1
  W  W8  1  0.74999776  0.52275781  0.24523004  1
  W  W9  1  0.24999776  0.47724219  0.25476996  1
  W  W10  1  0.25000224  0.02275781  0.75476996  1
  W  W11  1  0.75000224  0.97724219  0.74523004  1
  O  O12  1  0.95803825  0.11361102  0.75402567  1
  O  O13  1  0.45803825  0.88638898  0.74597433  1
  O  O14  1  0.04196175  0.61361102  0.24597433  1
  O  O15  1  0.54196175  0.38638898  0.25402567  1
  O  O16  1  0.04196175  0.88638898  0.24597433  1
  O  O17  1  0.54196175  0.11361102  0.25402567  1
  O  O18  1  0.95803825  0.38638898  0.75402567  1
  O  O19  1  0.45803825  0.61361102  0.74597433  1
  O  O20  1  0.54193917  0.11363363  0.75194767  1
  O  O21  1  0.04193917  0.88636637  0.74805233  1
  O  O22  1  0.45806083  0.61363363  0.24805233  1
  O  O23  1  0.95806083  0.38636637  0.25194767  1
  O  O24  1  0.45806083  0.88636637  0.24805233  1
  O  O25  1  0.95806083  0.11363363  0.25194767  1
  O  O26  1  0.54193917  0.38636637  0.75194767  1
  O  O27  1  0.04193917  0.61363363  0.74805233  1
  O  O28  1  0.24799931  0.75000000  0.49500041  1
  O  O29  1  0.74799931  0.25000000  0.00499959  1
  O  O30  1  0.75200069  0.25000000  0.50499959  1
  O  O31  1  0.25200069  0.75000000  0.99500041  1
  O  O32  1  0.25137344  0.46236932  0.00327643  1
  O  O33  1  0.75137344  0.53763068  0.49672357  1
  O  O34  1  0.74862656  0.96236932  0.99672357  1
  O  O35  1  0.24862656  0.03763068  0.50327643  1
  O  O36  1  0.74862656  0.53763068  0.99672357  1
  O  O37  1  0.24862656  0.46236932  0.50327643  1
  O  O38  1  0.25137344  0.03763068  0.00327643  1
  O  O39  1  0.75137344  0.96236932  0.49672357  1
