# generated using pymatgen
data_Th(Al2Fe)4
_symmetry_space_group_name_H-M   'P 1'
_cell_length_a   5.04109357
_cell_length_b   6.71440158
_cell_length_c   6.71440158
_cell_angle_alpha   81.89887126
_cell_angle_beta   67.95132684
_cell_angle_gamma   67.95132685
_symmetry_Int_Tables_number   1
_chemical_formula_structural   Th(Al2Fe)4
_chemical_formula_sum   'Th1 Al8 Fe4'
_cell_volume   195.24171752
_cell_formula_units_Z   1
loop_
 _symmetry_equiv_pos_site_id
 _symmetry_equiv_pos_as_xyz
  1  'x, y, z'
loop_
 _atom_site_type_symbol
 _atom_site_label
 _atom_site_symmetry_multiplicity
 _atom_site_fract_x
 _atom_site_fract_y
 _atom_site_fract_z
 _atom_site_occupancy
  Al  Al0  1  0.72399254  0.77600746  0.77600746  1
  Al  Al1  1  0.50000000  0.22399254  0.77600746  1
  Al  Al2  1  0.50000000  0.77600746  0.22399254  1
  Al  Al3  1  0.27600746  0.22399254  0.22399254  1
  Al  Al4  1  0.65444525  0.34555475  0.34555475  1
  Al  Al5  1  0.34555475  0.65444525  0.65444525  1
  Al  Al6  1  0.00000000  0.34555475  0.65444525  1
  Al  Al7  1  0.00000000  0.65444525  0.34555475  1
  Fe  Fe8  1  0.00000000  0.00000000  0.50000000  1
  Fe  Fe9  1  0.50000000  0.50000000  0.00000000  1
  Fe  Fe10  1  0.00000000  0.50000000  0.00000000  1
  Fe  Fe11  1  0.50000000  0.00000000  0.50000000  1
  Th  Th12  1  0.00000000  0.00000000  0.00000000  1
