# generated using pymatgen
data_Sr(GaO2)2
_symmetry_space_group_name_H-M   'P 1'
_cell_length_a   8.48728166
_cell_length_b   9.11135639
_cell_length_c   10.82817916
_cell_angle_alpha   90.00000000
_cell_angle_beta   94.04060456
_cell_angle_gamma   90.00000000
_symmetry_Int_Tables_number   1
_chemical_formula_structural   Sr(GaO2)2
_chemical_formula_sum   'Sr8 Ga16 O32'
_cell_volume   835.26876421
_cell_formula_units_Z   8
loop_
 _symmetry_equiv_pos_site_id
 _symmetry_equiv_pos_as_xyz
  1  'x, y, z'
loop_
 _atom_site_type_symbol
 _atom_site_label
 _atom_site_symmetry_multiplicity
 _atom_site_fract_x
 _atom_site_fract_y
 _atom_site_fract_z
 _atom_site_occupancy
  O  O0  1  0.34718419  0.25492069  0.42605086  1
  O  O1  1  0.65281581  0.75492069  0.07394914  1
  O  O2  1  0.65281581  0.74507931  0.57394914  1
  O  O3  1  0.34718419  0.24507931  0.92605086  1
  O  O4  1  0.21709376  0.42082609  0.20223402  1
  O  O5  1  0.78290624  0.92082609  0.29776598  1
  O  O6  1  0.78290624  0.57917391  0.79776598  1
  O  O7  1  0.21709376  0.07917391  0.70223402  1
  O  O8  1  0.28237197  0.93406669  0.45873851  1
  O  O9  1  0.71762803  0.43406669  0.04126149  1
  O  O10  1  0.71762803  0.06593331  0.54126149  1
  O  O11  1  0.28237197  0.56593331  0.95873851  1
  O  O12  1  0.72830430  0.25188965  0.29206032  1
  O  O13  1  0.27169570  0.75188965  0.20793968  1
  O  O14  1  0.27169570  0.74811035  0.70793968  1
  O  O15  1  0.72830430  0.24811035  0.79206032  1
  O  O16  1  0.15027465  0.06088984  0.21432444  1
  O  O17  1  0.84972535  0.56088984  0.28567556  1
  O  O18  1  0.84972535  0.93911016  0.78567556  1
  O  O19  1  0.15027465  0.43911016  0.71432444  1
  O  O20  1  0.52025744  0.51110632  0.32138703  1
  O  O21  1  0.47974256  0.01110632  0.17861297  1
  O  O22  1  0.47974256  0.48889368  0.67861297  1
  O  O23  1  0.52025744  0.98889368  0.82138703  1
  O  O24  1  0.00968088  0.33911523  0.93387070  1
  O  O25  1  0.99031912  0.83911523  0.56612930  1
  O  O26  1  0.99031912  0.66088477  0.06612930  1
  O  O27  1  0.00968088  0.16088477  0.43387070  1
  O  O28  1  0.23863572  0.58374953  0.46067283  1
  O  O29  1  0.76136428  0.08374953  0.03932717  1
  O  O30  1  0.76136428  0.41625047  0.53932717  1
  O  O31  1  0.23863572  0.91625047  0.96067283  1
  Ga  Ga32  1  0.32188208  0.44203838  0.36080710  1
  Ga  Ga33  1  0.67811792  0.94203838  0.13919290  1
  Ga  Ga34  1  0.67811792  0.55796162  0.63919290  1
  Ga  Ga35  1  0.32188208  0.05796162  0.86080710  1
  Ga  Ga36  1  0.80447707  0.09484530  0.38907125  1
  Ga  Ga37  1  0.19552293  0.59484530  0.11092875  1
  Ga  Ga38  1  0.19552293  0.90515470  0.61092875  1
  Ga  Ga39  1  0.80447707  0.40515470  0.88907125  1
  Ga  Ga40  1  0.20509999  0.10682779  0.38045866  1
  Ga  Ga41  1  0.79490001  0.60682779  0.11954134  1
  Ga  Ga42  1  0.79490001  0.89317221  0.61954134  1
  Ga  Ga43  1  0.20509999  0.39317221  0.88045866  1
  Ga  Ga44  1  0.27980328  0.93645220  0.13030772  1
  Ga  Ga45  1  0.72019672  0.43645220  0.36969228  1
  Ga  Ga46  1  0.72019672  0.06354780  0.86969228  1
  Ga  Ga47  1  0.27980328  0.56354780  0.63030772  1
  Sr  Sr48  1  0.49798560  0.28680978  0.13060153  1
  Sr  Sr49  1  0.50201440  0.78680978  0.36939847  1
  Sr  Sr50  1  0.50201440  0.71319022  0.86939847  1
  Sr  Sr51  1  0.49798560  0.21319022  0.63060153  1
  Sr  Sr52  1  0.96541853  0.26040255  0.14884873  1
  Sr  Sr53  1  0.03458147  0.76040255  0.35115127  1
  Sr  Sr54  1  0.03458147  0.73959745  0.85115127  1
  Sr  Sr55  1  0.96541853  0.23959745  0.64884873  1
