# generated using pymatgen
data_CaPrMn2O6
_symmetry_space_group_name_H-M   'P 1'
_cell_length_a   5.45382789
_cell_length_b   5.50013838
_cell_length_c   7.72145010
_cell_angle_alpha   90.00062906
_cell_angle_beta   89.99947594
_cell_angle_gamma   90.00009301
_symmetry_Int_Tables_number   1
_chemical_formula_structural   CaPrMn2O6
_chemical_formula_sum   'Ca2 Pr2 Mn4 O12'
_cell_volume   231.61885686
_cell_formula_units_Z   2
loop_
 _symmetry_equiv_pos_site_id
 _symmetry_equiv_pos_as_xyz
  1  'x, y, z'
loop_
 _atom_site_type_symbol
 _atom_site_label
 _atom_site_symmetry_multiplicity
 _atom_site_fract_x
 _atom_site_fract_y
 _atom_site_fract_z
 _atom_site_occupancy
  Ca  Ca0  1  0.49010702  0.45890043  0.75000509  1
  Ca  Ca1  1  0.99009996  0.04109972  0.25000084  1
  Pr  Pr2  1  0.00895662  0.96357852  0.75000439  1
  Pr  Pr3  1  0.50895664  0.53643097  0.24999735  1
  Mn  Mn4  1  0.00031662  0.49874348  0.99960111  1
  Mn  Mn5  1  0.00031869  0.49871133  0.50035479  1
  Mn  Mn6  1  0.50031766  0.00124637  0.49963082  1
  Mn  Mn7  1  0.50032303  0.00128197  0.00038469  1
  O  O8  1  0.07227318  0.48314839  0.24999506  1
  O  O9  1  0.21896917  0.21860954  0.96094804  1
  O  O10  1  0.21896263  0.21861770  0.53905465  1
  O  O11  1  0.28408565  0.71620813  0.54171161  1
  O  O12  1  0.28410591  0.71622969  0.95829290  1
  O  O13  1  0.42189906  0.98558634  0.24999529  1
  O  O14  1  0.57226876  0.01686120  0.75001497  1
  O  O15  1  0.71895881  0.28139029  0.03906298  1
  O  O16  1  0.71897279  0.28138964  0.46094993  1
  O  O17  1  0.78409412  0.78378558  0.04171402  1
  O  O18  1  0.78411047  0.78376550  0.45829511  1
  O  O19  1  0.92189922  0.51441520  0.74998638  1
