# generated using pymatgen
data_Na8Al6Si6CO27
_symmetry_space_group_name_H-M   'P 1'
_cell_length_a   9.10541929
_cell_length_b   9.10541929
_cell_length_c   9.10541929
_cell_angle_alpha   89.98012500
_cell_angle_beta   90.01987500
_cell_angle_gamma   89.98012500
_symmetry_Int_Tables_number   1
_chemical_formula_structural   Na8Al6Si6CO27
_chemical_formula_sum   'Na8 Al6 Si6 C1 O27'
_cell_volume   754.91798084
_cell_formula_units_Z   1
loop_
 _symmetry_equiv_pos_site_id
 _symmetry_equiv_pos_as_xyz
  1  'x, y, z'
loop_
 _atom_site_type_symbol
 _atom_site_label
 _atom_site_symmetry_multiplicity
 _atom_site_fract_x
 _atom_site_fract_y
 _atom_site_fract_z
 _atom_site_occupancy
  Al  Al0  1  0.00241538  0.24976657  0.49972002  1
  Al  Al1  1  0.00035328  0.74830596  0.49871647  1
  Al  Al2  1  0.25169404  0.50128353  0.00035328  1
  Al  Al3  1  0.49871647  0.99964672  0.25169404  1
  Al  Al4  1  0.49972002  0.99758462  0.75023343  1
  Al  Al5  1  0.75023343  0.50027998  0.00241538  1
  C  C6  1  0.99429401  0.00570599  0.99429401  1
  Na  Na7  1  0.17689117  0.18127145  0.17605582  1
  Na  Na8  1  0.17605582  0.82310883  0.81872855  1
  Na  Na9  1  0.22728850  0.22098518  0.77860859  1
  Na  Na10  1  0.29937152  0.70062848  0.29937152  1
  Na  Na11  1  0.77901482  0.22139141  0.22728850  1
  Na  Na12  1  0.77860859  0.77271150  0.77901482  1
  Na  Na13  1  0.80061104  0.19938896  0.80061104  1
  Na  Na14  1  0.81872855  0.82394418  0.17689117  1
  O  O15  1  0.05668892  0.64236679  0.34738026  1
  O  O16  1  0.04877310  0.35356787  0.65601124  1
  O  O17  1  0.11190581  0.06161829  0.93472230  1
  O  O18  1  0.15136469  0.13863239  0.44751299  1
  O  O19  1  0.15165810  0.85589991  0.55216594  1
  O  O20  1  0.14410009  0.44783406  0.15165810  1
  O  O21  1  0.14237543  0.55155604  0.84987402  1
  O  O22  1  0.34960379  0.04685646  0.64020591  1
  O  O23  1  0.34738026  0.94331108  0.35763321  1
  O  O24  1  0.36091334  0.34997903  0.95181188  1
  O  O25  1  0.35763321  0.65261974  0.05668892  1
  O  O26  1  0.44844396  0.15012598  0.14237543  1
  O  O27  1  0.44751299  0.84863531  0.86136761  1
  O  O28  1  0.55027914  0.14854932  0.86010627  1
  O  O29  1  0.55216594  0.84834190  0.14410009  1
  O  O30  1  0.64020591  0.65039621  0.95314354  1
  O  O31  1  0.64643213  0.34398876  0.04877310  1
  O  O32  1  0.65002097  0.04818812  0.36091334  1
  O  O33  1  0.65601124  0.95122690  0.64643213  1
  O  O34  1  0.86136761  0.55248701  0.15136469  1
  O  O35  1  0.86010627  0.44972086  0.85145068  1
  O  O36  1  0.85145068  0.13989373  0.55027914  1
  O  O37  1  0.84987402  0.85762457  0.44844396  1
  O  O38  1  0.93472230  0.88809419  0.93838171  1
  O  O39  1  0.93838171  0.06527770  0.11190581  1
  O  O40  1  0.95314354  0.35979409  0.34960379  1
  O  O41  1  0.95181188  0.63908666  0.65002097  1
  Si  Si42  1  0.00251583  0.50086660  0.24957838  1
  Si  Si43  1  0.00151348  0.49926558  0.75120079  1
  Si  Si44  1  0.24957838  0.99748417  0.49913340  1
  Si  Si45  1  0.50073442  0.24879921  0.00151348  1
  Si  Si46  1  0.49913340  0.75042162  0.00251583  1
  Si  Si47  1  0.75120079  0.99848652  0.50073442  1
