# generated using pymatgen
data_RbCeH2S2O9
_symmetry_space_group_name_H-M   'P 1'
_cell_length_a   8.90895942
_cell_length_b   10.28832153
_cell_length_c   10.62586469
_cell_angle_alpha   118.51128634
_cell_angle_beta   90.00000000
_cell_angle_gamma   90.00000000
_symmetry_Int_Tables_number   1
_chemical_formula_structural   RbCeH2S2O9
_chemical_formula_sum   'Rb4 Ce4 H8 S8 O36'
_cell_volume   855.83064925
_cell_formula_units_Z   4
loop_
 _symmetry_equiv_pos_site_id
 _symmetry_equiv_pos_as_xyz
  1  'x, y, z'
loop_
 _atom_site_type_symbol
 _atom_site_label
 _atom_site_symmetry_multiplicity
 _atom_site_fract_x
 _atom_site_fract_y
 _atom_site_fract_z
 _atom_site_occupancy
  Rb  Rb0  1  0.18651966  0.78145926  0.30683945  1
  Rb  Rb1  1  0.68651966  0.21854074  0.19316055  1
  Rb  Rb2  1  0.81348034  0.21854074  0.69316055  1
  Rb  Rb3  1  0.31348034  0.78145926  0.80683945  1
  Ce  Ce4  1  0.84701229  0.73648463  0.97052336  1
  Ce  Ce5  1  0.34701229  0.26351537  0.52947664  1
  Ce  Ce6  1  0.15298771  0.26351537  0.02947664  1
  Ce  Ce7  1  0.65298771  0.73648463  0.47052336  1
  H  H8  1  0.51931488  0.72867435  0.06497615  1
  H  H9  1  0.01931488  0.27132565  0.43502385  1
  H  H10  1  0.48068512  0.27132565  0.93502385  1
  H  H11  1  0.98068512  0.72867435  0.56497615  1
  H  H12  1  0.53425193  0.58175147  0.92056372  1
  H  H13  1  0.03425193  0.41824853  0.57943628  1
  H  H14  1  0.46574807  0.41824853  0.07943628  1
  H  H15  1  0.96574807  0.58175147  0.42056372  1
  S  S16  1  0.81757141  0.52259503  0.11455971  1
  S  S17  1  0.31757141  0.47740497  0.38544029  1
  S  S18  1  0.18242859  0.47740497  0.88544029  1
  S  S19  1  0.68242859  0.52259503  0.61455971  1
  S  S20  1  0.86907948  0.94648571  0.82375749  1
  S  S21  1  0.36907948  0.05351429  0.67624251  1
  S  S22  1  0.13092052  0.05351429  0.17624251  1
  S  S23  1  0.63092052  0.94648571  0.32375749  1
  O  O24  1  0.89523753  0.66807596  0.16347214  1
  O  O25  1  0.39523753  0.33192404  0.33652786  1
  O  O26  1  0.10476247  0.33192404  0.83652786  1
  O  O27  1  0.60476247  0.66807596  0.66347214  1
  O  O28  1  0.75468747  0.47964624  0.97037894  1
  O  O29  1  0.25468747  0.52035376  0.52962106  1
  O  O30  1  0.24531253  0.52035376  0.02962106  1
  O  O31  1  0.74531253  0.47964624  0.47037894  1
  O  O32  1  0.92389756  0.40849009  0.10945638  1
  O  O33  1  0.42389756  0.59150991  0.39054362  1
  O  O34  1  0.07610244  0.59150991  0.89054362  1
  O  O35  1  0.57610244  0.40849009  0.60945638  1
  O  O36  1  0.69661999  0.53852012  0.21813640  1
  O  O37  1  0.19661999  0.46147988  0.28186360  1
  O  O38  1  0.30338001  0.46147988  0.78186360  1
  O  O39  1  0.80338001  0.53852012  0.71813640  1
  O  O40  1  0.97477610  0.82030333  0.78778700  1
  O  O41  1  0.47477610  0.17969667  0.71221300  1
  O  O42  1  0.02522390  0.17969667  0.21221300  1
  O  O43  1  0.52522390  0.82030333  0.28778700  1
  O  O44  1  0.76000190  0.94487353  0.93092169  1
  O  O45  1  0.26000190  0.05512647  0.56907831  1
  O  O46  1  0.23999810  0.05512647  0.06907831  1
  O  O47  1  0.73999810  0.94487353  0.43092169  1
  O  O48  1  0.94910387  0.09097492  0.88766944  1
  O  O49  1  0.44910387  0.90902508  0.61233056  1
  O  O50  1  0.05089613  0.90902508  0.11233056  1
  O  O51  1  0.55089613  0.09097492  0.38766944  1
  O  O52  1  0.79000778  0.92857239  0.69335252  1
  O  O53  1  0.29000778  0.07142761  0.80664748  1
  O  O54  1  0.20999222  0.07142761  0.30664748  1
  O  O55  1  0.70999222  0.92857239  0.19335252  1
  O  O56  1  0.55232243  0.68856214  0.96476880  1
  O  O57  1  0.05232243  0.31143786  0.53523120  1
  O  O58  1  0.44767757  0.31143786  0.03523120  1
  O  O59  1  0.94767757  0.68856214  0.46476880  1
