# generated using pymatgen
data_Cs3MnCl5
_symmetry_space_group_name_H-M   'P 1'
_cell_length_a   9.42863327
_cell_length_b   9.42863378
_cell_length_c   10.02835895
_cell_angle_alpha   118.04069269
_cell_angle_beta   118.04069420
_cell_angle_gamma   89.99999821
_symmetry_Int_Tables_number   1
_chemical_formula_structural   Cs3MnCl5
_chemical_formula_sum   'Cs6 Mn2 Cl10'
_cell_volume   665.96317335
_cell_formula_units_Z   2
loop_
 _symmetry_equiv_pos_site_id
 _symmetry_equiv_pos_as_xyz
  1  'x, y, z'
loop_
 _atom_site_type_symbol
 _atom_site_label
 _atom_site_symmetry_multiplicity
 _atom_site_fract_x
 _atom_site_fract_y
 _atom_site_fract_z
 _atom_site_occupancy
  Cs  Cs0  1  0.66518197  0.83481803  1.00000000  1
  Cs  Cs1  1  0.16518197  0.66518197  0.00000000  1
  Cs  Cs2  1  0.33481803  0.16518197  0.00000000  1
  Cs  Cs3  1  0.25000000  0.25000000  0.50000000  1
  Cs  Cs4  1  0.83481803  0.33481803  0.00000000  1
  Cs  Cs5  1  0.75000000  0.75000000  0.50000000  1
  Mn  Mn6  1  0.75000000  0.25000000  0.50000000  1
  Mn  Mn7  1  0.25000000  0.75000000  0.50000000  1
  Cl  Cl8  1  0.50000000  0.50000000  0.00000000  1
  Cl  Cl9  1  0.01521299  0.79698475  0.31219774  1
  Cl  Cl10  1  0.79698475  0.29698475  0.31219774  1
  Cl  Cl11  1  0.20301525  0.70301525  0.68780226  1
  Cl  Cl12  1  0.48478701  0.98478701  0.68780226  1
  Cl  Cl13  1  0.29698475  0.51521299  0.31219774  1
  Cl  Cl14  1  0.70301525  0.48478701  0.68780226  1
  Cl  Cl15  1  0.98478701  0.20301525  0.68780226  1
  Cl  Cl16  1  0.51521299  0.01521299  0.31219774  1
  Cl  Cl17  1  0.00000000  0.00000000  0.00000000  1
