# generated using pymatgen
data_LiCa2Ge3
_symmetry_space_group_name_H-M   'P 1'
_cell_length_a   4.41984768
_cell_length_b   10.76122501
_cell_length_c   11.37892212
_cell_angle_alpha   90.00000000
_cell_angle_beta   90.00000000
_cell_angle_gamma   90.00000000
_symmetry_Int_Tables_number   1
_chemical_formula_structural   LiCa2Ge3
_chemical_formula_sum   'Li4 Ca8 Ge12'
_cell_volume   541.21539281
_cell_formula_units_Z   4
loop_
 _symmetry_equiv_pos_site_id
 _symmetry_equiv_pos_as_xyz
  1  'x, y, z'
loop_
 _atom_site_type_symbol
 _atom_site_label
 _atom_site_symmetry_multiplicity
 _atom_site_fract_x
 _atom_site_fract_y
 _atom_site_fract_z
 _atom_site_occupancy
  Li  Li0  1  0.50000000  0.14209127  0.71897962  1
  Li  Li1  1  0.50000000  0.85790873  0.28102038  1
  Li  Li2  1  0.00000000  0.35790873  0.21897962  1
  Li  Li3  1  0.00000000  0.64209127  0.78102038  1
  Ca  Ca4  1  -0.00000000  0.05249297  0.14722695  1
  Ca  Ca5  1  0.50000000  0.17865451  0.42644667  1
  Ca  Ca6  1  0.00000000  0.94750703  0.85277305  1
  Ca  Ca7  1  0.00000000  0.67865451  0.07355333  1
  Ca  Ca8  1  0.50000000  0.82134549  0.57355333  1
  Ca  Ca9  1  0.50000000  0.55249297  0.35277305  1
  Ca  Ca10  1  -0.00000000  0.32134549  0.92644667  1
  Ca  Ca11  1  0.50000000  0.44750703  0.64722695  1
  Ge  Ge12  1  0.00000000  0.25689922  0.64225808  1
  Ge  Ge13  1  0.50000000  0.47203562  0.10522981  1
  Ge  Ge14  1  0.50000000  0.24310078  0.14225808  1
  Ge  Ge15  1  0.50000000  0.52796438  0.89477019  1
  Ge  Ge16  1  0.50000000  0.11151260  0.95444740  1
  Ge  Ge17  1  0.50000000  0.75689922  0.85774192  1
  Ge  Ge18  1  -0.00000000  0.02796438  0.60522981  1
  Ge  Ge19  1  0.00000000  0.61151260  0.54555260  1
  Ge  Ge20  1  0.00000000  0.74310078  0.35774192  1
  Ge  Ge21  1  -0.00000000  0.38848740  0.45444740  1
  Ge  Ge22  1  0.50000000  0.88848740  0.04555260  1
  Ge  Ge23  1  -0.00000000  0.97203562  0.39477019  1
