# generated using pymatgen
data_Ba(GaPt)2
_symmetry_space_group_name_H-M   'P 1'
_cell_length_a   6.47047401
_cell_length_b   8.47081211
_cell_length_c   8.68634454
_cell_angle_alpha   97.83110126
_cell_angle_beta   90.00000000
_cell_angle_gamma   90.00000000
_symmetry_Int_Tables_number   1
_chemical_formula_structural   Ba(GaPt)2
_chemical_formula_sum   'Ba4 Ga8 Pt8'
_cell_volume   471.65992097
_cell_formula_units_Z   4
loop_
 _symmetry_equiv_pos_site_id
 _symmetry_equiv_pos_as_xyz
  1  'x, y, z'
loop_
 _atom_site_type_symbol
 _atom_site_label
 _atom_site_symmetry_multiplicity
 _atom_site_fract_x
 _atom_site_fract_y
 _atom_site_fract_z
 _atom_site_occupancy
  Ba  Ba0  1  0.10962830  0.49782924  0.76624465  1
  Ba  Ba1  1  0.60962830  0.00217076  0.23375535  1
  Ba  Ba2  1  0.39037170  0.99782924  0.76624465  1
  Ba  Ba3  1  0.89037170  0.50217076  0.23375535  1
  Ga  Ga4  1  0.15407402  0.19190830  0.44002279  1
  Ga  Ga5  1  0.92138663  0.12578863  0.92405305  1
  Ga  Ga6  1  0.34592598  0.69190830  0.44002279  1
  Ga  Ga7  1  0.84592598  0.80809170  0.55997721  1
  Ga  Ga8  1  0.42138663  0.37421137  0.07594695  1
  Ga  Ga9  1  0.07861337  0.87421137  0.07594695  1
  Ga  Ga10  1  0.65407402  0.30809170  0.55997721  1
  Ga  Ga11  1  0.57861337  0.62578863  0.92405305  1
  Pt  Pt12  1  0.09551389  0.89509948  0.37279983  1
  Pt  Pt13  1  0.90448611  0.10490052  0.62720017  1
  Pt  Pt14  1  0.83051591  0.82657279  0.85359930  1
  Pt  Pt15  1  0.59551389  0.60490052  0.62720017  1
  Pt  Pt16  1  0.66948409  0.32657279  0.85359930  1
  Pt  Pt17  1  0.16948409  0.17342721  0.14640070  1
  Pt  Pt18  1  0.33051591  0.67342721  0.14640070  1
  Pt  Pt19  1  0.40448611  0.39509948  0.37279983  1
