# generated using pymatgen
data_Re5(NiAs6)2
_symmetry_space_group_name_H-M   'P 1'
_cell_length_a   3.24905430
_cell_length_b   12.64861746
_cell_length_c   15.74293417
_cell_angle_alpha   90.00000000
_cell_angle_beta   90.00000000
_cell_angle_gamma   90.00000000
_symmetry_Int_Tables_number   1
_chemical_formula_structural   Re5(NiAs6)2
_chemical_formula_sum   'Re10 Ni4 As24'
_cell_volume   646.97233026
_cell_formula_units_Z   2
loop_
 _symmetry_equiv_pos_site_id
 _symmetry_equiv_pos_as_xyz
  1  'x, y, z'
loop_
 _atom_site_type_symbol
 _atom_site_label
 _atom_site_symmetry_multiplicity
 _atom_site_fract_x
 _atom_site_fract_y
 _atom_site_fract_z
 _atom_site_occupancy
  Re  Re0  1  0.00000000  0.18370669  0.60139908  1
  Re  Re1  1  0.00000000  0.81629331  0.39860092  1
  Re  Re2  1  0.50000000  0.68370669  0.89860092  1
  Re  Re3  1  0.50000000  0.31629331  0.10139908  1
  Re  Re4  1  0.00000000  0.57889472  0.76194332  1
  Re  Re5  1  0.00000000  0.42110528  0.23805668  1
  Re  Re6  1  0.50000000  0.07889472  0.73805668  1
  Re  Re7  1  0.50000000  0.92110528  0.26194332  1
  Ni  Ni8  1  0.00000000  0.37111725  0.84720405  1
  Ni  Ni9  1  0.00000000  0.62888275  0.15279595  1
  Ni  Ni10  1  0.50000000  0.87111725  0.65279595  1
  Ni  Ni11  1  0.50000000  0.12888275  0.34720405  1
  As  As12  1  0.00000000  0.59286155  0.59818439  1
  As  As13  1  0.00000000  0.40713845  0.40181561  1
  As  As14  1  0.50000000  0.09286155  0.90181561  1
  As  As15  1  0.50000000  0.90713845  0.09818439  1
  As  As16  1  0.00000000  0.93032892  0.76226266  1
  As  As17  1  0.00000000  0.06967108  0.23773734  1
  As  As18  1  0.50000000  0.43032892  0.73773734  1
  As  As19  1  0.50000000  0.56967108  0.26226266  1
  As  As20  1  0.00000000  0.77446356  0.24324939  1
  As  As21  1  0.00000000  0.22553644  0.75675061  1
  As  As22  1  0.50000000  0.27446356  0.25675061  1
  As  As23  1  0.50000000  0.72553644  0.74324939  1
  As  As24  1  0.00000000  0.84110427  0.90885272  1
  As  As25  1  0.00000000  0.15889573  0.09114728  1
  As  As26  1  0.50000000  0.34110427  0.59114728  1
  As  As27  1  0.50000000  0.65889573  0.40885272  1
  As  As28  1  0.00000000  0.53471889  0.92223530  1
  As  As29  1  0.00000000  0.46528111  0.07776470  1
  As  As30  1  0.50000000  0.03471889  0.57776470  1
  As  As31  1  0.50000000  0.96528111  0.42223530  1
  As  As32  1  0.00000000  0.79235407  0.55895097  1
  As  As33  1  0.00000000  0.20764593  0.44104903  1
  As  As34  1  0.50000000  0.29235407  0.94104903  1
  As  As35  1  0.50000000  0.70764593  0.05895097  1
  Re  Re36  1  0.00000000  0.00000000  0.00000000  1
  Re  Re37  1  0.50000000  0.50000000  0.50000000  1
