# generated using pymatgen
data_NpF4
_symmetry_space_group_name_H-M   'P 1'
_cell_length_a   8.38358932
_cell_length_b   8.38358929
_cell_length_c   8.37807953
_cell_angle_alpha   62.93527241
_cell_angle_beta   62.93527245
_cell_angle_gamma   80.71139770
_symmetry_Int_Tables_number   1
_chemical_formula_structural   NpF4
_chemical_formula_sum   'Np6 F24'
_cell_volume   466.17164390
_cell_formula_units_Z   6
loop_
 _symmetry_equiv_pos_site_id
 _symmetry_equiv_pos_as_xyz
  1  'x, y, z'
loop_
 _atom_site_type_symbol
 _atom_site_label
 _atom_site_symmetry_multiplicity
 _atom_site_fract_x
 _atom_site_fract_y
 _atom_site_fract_z
 _atom_site_occupancy
  Np  Np0  1  0.21324766  0.78675234  0.75000000  1
  Np  Np1  1  0.78675234  0.21324766  0.25000000  1
  Np  Np2  1  0.36712862  0.22264436  0.83058487  1
  Np  Np3  1  0.22264436  0.36712862  0.33058487  1
  Np  Np4  1  0.63287138  0.77735564  0.16941513  1
  Np  Np5  1  0.77735564  0.63287138  0.66941513  1
  F  F6  1  0.25823637  0.31847941  0.60463938  1
  F  F7  1  0.40215039  0.81546049  0.42746202  1
  F  F8  1  0.25956229  0.50275564  0.78240326  1
  F  F9  1  0.68152059  0.74176363  0.89536062  1
  F  F10  1  0.93498307  0.82610759  0.95585476  1
  F  F11  1  0.81546049  0.40215039  0.92746202  1
  F  F12  1  0.59784961  0.18453951  0.57253798  1
  F  F13  1  0.60363400  0.39636600  0.75000000  1
  F  F14  1  0.39636600  0.60363400  0.25000000  1
  F  F15  1  0.50275564  0.25956229  0.28240326  1
  F  F16  1  0.17389241  0.06501693  0.54414524  1
  F  F17  1  0.82610759  0.93498307  0.45585476  1
  F  F18  1  0.74043771  0.49724436  0.21759674  1
  F  F19  1  0.74176363  0.68152059  0.39536062  1
  F  F20  1  0.27371352  0.97164547  0.85013389  1
  F  F21  1  0.00000000  0.50000000  0.50000000  1
  F  F22  1  0.02835453  0.72628648  0.64986611  1
  F  F23  1  0.18453951  0.59784961  0.07253798  1
  F  F24  1  0.49724436  0.74043771  0.71759674  1
  F  F25  1  0.06501693  0.17389241  0.04414524  1
  F  F26  1  0.72628648  0.02835453  0.14986611  1
  F  F27  1  0.31847941  0.25823637  0.10463938  1
  F  F28  1  0.97164547  0.27371352  0.35013389  1
  F  F29  1  0.50000000  0.00000000  -0.00000000  1
