# generated using pymatgen
data_Ho2Mn3Si5
_symmetry_space_group_name_H-M   'P 1'
_cell_length_a   5.40579650
_cell_length_b   10.56462735
_cell_length_c   10.56462735
_cell_angle_alpha   90.00000000
_cell_angle_beta   90.00000000
_cell_angle_gamma   90.00000000
_symmetry_Int_Tables_number   1
_chemical_formula_structural   Ho2Mn3Si5
_chemical_formula_sum   'Ho8 Mn12 Si20'
_cell_volume   603.34825084
_cell_formula_units_Z   4
loop_
 _symmetry_equiv_pos_site_id
 _symmetry_equiv_pos_as_xyz
  1  'x, y, z'
loop_
 _atom_site_type_symbol
 _atom_site_label
 _atom_site_symmetry_multiplicity
 _atom_site_fract_x
 _atom_site_fract_y
 _atom_site_fract_z
 _atom_site_occupancy
  Ho  Ho0  1  0.00000000  0.07562152  0.23646965  1
  Ho  Ho1  1  0.00000000  0.76353035  0.07562152  1
  Ho  Ho2  1  0.00000000  0.23646965  0.92437848  1
  Ho  Ho3  1  0.00000000  0.92437848  0.76353035  1
  Ho  Ho4  1  0.50000000  0.57562152  0.26353035  1
  Ho  Ho5  1  0.50000000  0.42437848  0.73646965  1
  Ho  Ho6  1  0.50000000  0.73646965  0.57562152  1
  Ho  Ho7  1  0.50000000  0.26353035  0.42437848  1
  Mn  Mn8  1  0.25000000  0.00000000  0.50000000  1
  Mn  Mn9  1  0.25000000  0.50000000  0.00000000  1
  Mn  Mn10  1  0.75000000  0.00000000  0.50000000  1
  Mn  Mn11  1  0.75000000  0.50000000  0.00000000  1
  Mn  Mn12  1  0.00000000  0.37863620  0.35443925  1
  Mn  Mn13  1  0.00000000  0.64556075  0.37863620  1
  Mn  Mn14  1  0.00000000  0.35443925  0.62136380  1
  Mn  Mn15  1  0.00000000  0.62136380  0.64556075  1
  Mn  Mn16  1  0.50000000  0.87863620  0.14556075  1
  Mn  Mn17  1  0.50000000  0.12136380  0.85443925  1
  Mn  Mn18  1  0.50000000  0.85443925  0.87863620  1
  Mn  Mn19  1  0.50000000  0.14556075  0.12136380  1
  Si  Si20  1  0.25776267  0.00000000  0.00000000  1
  Si  Si21  1  0.24223733  0.50000000  0.50000000  1
  Si  Si22  1  0.74223733  0.00000000  0.00000000  1
  Si  Si23  1  0.75776267  0.50000000  0.50000000  1
  Si  Si24  1  0.25000000  0.17476877  0.67476877  1
  Si  Si25  1  0.25000000  0.32523123  0.17476877  1
  Si  Si26  1  0.25000000  0.67476877  0.82523123  1
  Si  Si27  1  0.25000000  0.82523123  0.32523123  1
  Si  Si28  1  0.75000000  0.82523123  0.32523123  1
  Si  Si29  1  0.75000000  0.67476877  0.82523123  1
  Si  Si30  1  0.75000000  0.32523123  0.17476877  1
  Si  Si31  1  0.75000000  0.17476877  0.67476877  1
  Si  Si32  1  0.00000000  0.18528412  0.47578264  1
  Si  Si33  1  0.00000000  0.52421736  0.18528412  1
  Si  Si34  1  0.00000000  0.47578264  0.81471588  1
  Si  Si35  1  0.00000000  0.81471588  0.52421736  1
  Si  Si36  1  0.50000000  0.68528412  0.02421736  1
  Si  Si37  1  0.50000000  0.31471588  0.97578264  1
  Si  Si38  1  0.50000000  0.97578264  0.68528412  1
  Si  Si39  1  0.50000000  0.02421736  0.31471588  1
