# generated using pymatgen
data_NaCuF3
_symmetry_space_group_name_H-M   'P 1'
_cell_length_a   5.43940617
_cell_length_b   5.62870814
_cell_length_c   7.81804518
_cell_angle_alpha   89.88426609
_cell_angle_beta   89.48834418
_cell_angle_gamma   89.56349717
_symmetry_Int_Tables_number   1
_chemical_formula_structural   NaCuF3
_chemical_formula_sum   'Na4 Cu4 F12'
_cell_volume   239.34681277
_cell_formula_units_Z   4
loop_
 _symmetry_equiv_pos_site_id
 _symmetry_equiv_pos_as_xyz
  1  'x, y, z'
loop_
 _atom_site_type_symbol
 _atom_site_label
 _atom_site_symmetry_multiplicity
 _atom_site_fract_x
 _atom_site_fract_y
 _atom_site_fract_z
 _atom_site_occupancy
  Na  Na0  1  0.48604528  0.44419772  0.24641231  1
  Na  Na1  1  0.51395472  0.55580228  0.75358769  1
  Na  Na2  1  0.01815508  0.94335595  0.25423821  1
  Na  Na3  1  0.98184492  0.05664405  0.74576179  1
  Cu  Cu4  1  0.50000000  0.00000000  0.00000000  1
  Cu  Cu5  1  0.00000000  0.50000000  0.00000000  1
  Cu  Cu6  1  0.50000000  0.00000000  0.50000000  1
  Cu  Cu7  1  0.00000000  0.50000000  0.50000000  1
  F  F8  1  0.30358141  0.70865302  0.05103127  1
  F  F9  1  0.69641859  0.29134698  0.94896873  1
  F  F10  1  0.79790383  0.79450991  0.94222178  1
  F  F11  1  0.20209617  0.20549009  0.05777822  1
  F  F12  1  0.29651901  0.69813099  0.44623657  1
  F  F13  1  0.70348099  0.30186901  0.55376343  1
  F  F14  1  0.80200318  0.79855902  0.54966057  1
  F  F15  1  0.19799682  0.20144098  0.45033943  1
  F  F16  1  0.60150798  0.03399390  0.25443187  1
  F  F17  1  0.39849202  0.96600610  0.74556813  1
  F  F18  1  0.89928176  0.53671370  0.24514025  1
  F  F19  1  0.10071824  0.46328630  0.75485975  1
