# generated using pymatgen
data_CeGeRh
_symmetry_space_group_name_H-M   'P 1'
_cell_length_a   4.41053554
_cell_length_b   7.62689726
_cell_length_c   7.05890334
_cell_angle_alpha   90.00000000
_cell_angle_beta   90.00000000
_cell_angle_gamma   90.00000000
_symmetry_Int_Tables_number   1
_chemical_formula_structural   CeGeRh
_chemical_formula_sum   'Ce4 Ge4 Rh4'
_cell_volume   237.45234184
_cell_formula_units_Z   4
loop_
 _symmetry_equiv_pos_site_id
 _symmetry_equiv_pos_as_xyz
  1  'x, y, z'
loop_
 _atom_site_type_symbol
 _atom_site_label
 _atom_site_symmetry_multiplicity
 _atom_site_fract_x
 _atom_site_fract_y
 _atom_site_fract_z
 _atom_site_occupancy
  Ce  Ce0  1  0.25000000  0.30163229  0.48381285  1
  Ce  Ce1  1  0.25000000  0.19836771  0.98381285  1
  Ce  Ce2  1  0.75000000  0.69836771  0.51618715  1
  Ce  Ce3  1  0.75000000  0.80163229  0.01618715  1
  Ge  Ge4  1  0.25000000  0.91938803  0.32074485  1
  Ge  Ge5  1  0.25000000  0.58061197  0.82074485  1
  Ge  Ge6  1  0.75000000  0.08061197  0.67925515  1
  Ge  Ge7  1  0.75000000  0.41938803  0.17925515  1
  Rh  Rh8  1  0.25000000  0.90633974  0.71121535  1
  Rh  Rh9  1  0.25000000  0.59366026  0.21121535  1
  Rh  Rh10  1  0.75000000  0.09366026  0.28878465  1
  Rh  Rh11  1  0.75000000  0.40633974  0.78878465  1
