# generated using pymatgen
data_Eu3Sb5O12
_symmetry_space_group_name_H-M   'P 1'
_cell_length_a   9.56791183
_cell_length_b   9.56791193
_cell_length_c   9.56791168
_cell_angle_alpha   109.47121800
_cell_angle_beta   109.47121820
_cell_angle_gamma   109.47122287
_symmetry_Int_Tables_number   1
_chemical_formula_structural   Eu3Sb5O12
_chemical_formula_sum   'Eu6 Sb10 O24'
_cell_volume   674.26344594
_cell_formula_units_Z   2
loop_
 _symmetry_equiv_pos_site_id
 _symmetry_equiv_pos_as_xyz
  1  'x, y, z'
loop_
 _atom_site_type_symbol
 _atom_site_label
 _atom_site_symmetry_multiplicity
 _atom_site_fract_x
 _atom_site_fract_y
 _atom_site_fract_z
 _atom_site_occupancy
  Eu  Eu0  1  0.50000000  0.25000000  0.75000000  1
  Eu  Eu1  1  0.75000000  0.50000000  0.25000000  1
  Eu  Eu2  1  0.25000000  0.50000000  0.75000000  1
  Eu  Eu3  1  0.75000000  0.25000000  0.50000000  1
  Eu  Eu4  1  0.25000000  0.75000000  0.50000000  1
  Eu  Eu5  1  0.50000000  0.75000000  0.25000000  1
  Sb  Sb6  1  0.27673714  0.27673714  1.00000000  1
  Sb  Sb7  1  0.72326286  0.72326286  0.00000000  1
  Sb  Sb8  1  0.00000000  0.72326286  0.72326286  1
  Sb  Sb9  1  1.00000000  0.27673714  0.27673714  1
  Sb  Sb10  1  0.27673714  1.00000000  0.27673714  1
  Sb  Sb11  1  0.72326286  0.00000000  0.72326286  1
  Sb  Sb12  1  0.50255389  0.50255389  0.50255389  1
  Sb  Sb13  1  0.49744611  0.00000000  1.00000000  1
  Sb  Sb14  1  0.00000000  0.49744611  1.00000000  1
  Sb  Sb15  1  1.00000000  1.00000000  0.49744611  1
  O  O16  1  0.79639169  0.51317375  0.51317375  1
  O  O17  1  0.48682625  1.00000000  0.28321793  1
  O  O18  1  0.71678207  0.20360831  0.71678207  1
  O  O19  1  0.71678207  0.71678207  0.20360831  1
  O  O20  1  0.48682625  0.28321793  0.00000000  1
  O  O21  1  1.00000000  0.48682625  0.28321793  1
  O  O22  1  0.00000000  0.28321793  0.48682625  1
  O  O23  1  0.28321793  0.48682625  0.00000000  1
  O  O24  1  0.28321793  0.00000000  0.48682625  1
  O  O25  1  0.51317375  0.79639169  0.51317375  1
  O  O26  1  0.51317375  0.51317375  0.79639169  1
  O  O27  1  0.20360831  0.71678207  0.71678207  1
  O  O28  1  0.47012939  0.47012939  0.27255355  1
  O  O29  1  0.52987061  0.80242415  1.00000000  1
  O  O30  1  0.80242415  0.52987061  1.00000000  1
  O  O31  1  1.00000000  0.80242415  0.52987061  1
  O  O32  1  0.72744645  0.19757585  0.19757585  1
  O  O33  1  0.19757585  0.72744645  0.19757585  1
  O  O34  1  0.80242415  1.00000000  0.52987061  1
  O  O35  1  0.52987061  1.00000000  0.80242415  1
  O  O36  1  1.00000000  0.52987061  0.80242415  1
  O  O37  1  0.27255355  0.47012939  0.47012939  1
  O  O38  1  0.47012939  0.27255355  0.47012939  1
  O  O39  1  0.19757585  0.19757585  0.72744645  1
