# generated using pymatgen
data_BiPO4
_symmetry_space_group_name_H-M   'P 1'
_cell_length_a   5.71478413
_cell_length_b   9.61395395
_cell_length_c   16.96105169
_cell_angle_alpha   92.93007212
_cell_angle_beta   80.30125043
_cell_angle_gamma   72.70971427
_symmetry_Int_Tables_number   1
_chemical_formula_structural   BiPO4
_chemical_formula_sum   'Bi8 P8 O32'
_cell_volume   871.95765463
_cell_formula_units_Z   8
loop_
 _symmetry_equiv_pos_site_id
 _symmetry_equiv_pos_as_xyz
  1  'x, y, z'
loop_
 _atom_site_type_symbol
 _atom_site_label
 _atom_site_symmetry_multiplicity
 _atom_site_fract_x
 _atom_site_fract_y
 _atom_site_fract_z
 _atom_site_occupancy
  Bi  Bi0  1  0.20514838  0.19342557  0.00183693  1
  Bi  Bi1  1  0.40041088  0.30657443  0.49816307  1
  Bi  Bi2  1  0.79485162  0.80657443  0.99816307  1
  Bi  Bi3  1  0.50000000  0.50000000  0.00000000  1
  Bi  Bi4  1  0.59958912  0.69342557  0.50183693  1
  Bi  Bi5  1  0.56861360  0.75000000  0.25000000  1
  Bi  Bi6  1  0.43138640  0.25000000  0.75000000  1
  Bi  Bi7  1  0.00000000  0.00000000  0.50000000  1
  P  P8  1  0.07345422  0.50895484  0.87676496  1
  P  P9  1  0.78375389  0.37967409  0.59898424  1
  P  P10  1  0.92654578  0.49104516  0.12323504  1
  P  P11  1  0.23758679  0.87967409  0.09898424  1
  P  P12  1  0.54082599  0.00895484  0.37676496  1
  P  P13  1  0.45917401  0.99104516  0.62323504  1
  P  P14  1  0.21624611  0.62032591  0.40101576  1
  P  P15  1  0.76241321  0.12032591  0.90101576  1
  O  O16  1  0.81911568  0.39002941  0.07231807  1
  O  O17  1  0.63684086  0.99838897  0.91702744  1
  O  O18  1  0.71853784  0.89002941  0.57231807  1
  O  O19  1  0.80852911  0.25170408  0.53213741  1
  O  O20  1  0.21450605  0.42218591  0.09226896  1
  O  O21  1  0.73424915  0.32701499  0.68301570  1
  O  O22  1  0.59236960  0.24829592  0.96786259  1
  O  O23  1  0.96740208  0.92427136  0.08491444  1
  O  O24  1  0.19147089  0.74829592  0.46786259  1
  O  O25  1  0.55225627  0.50161103  0.58297256  1
  O  O26  1  0.83027873  0.65328843  0.10216090  1
  O  O27  1  0.54758216  0.00132887  0.28633849  1
  O  O28  1  0.36315914  0.00161103  0.08297256  1
  O  O29  1  0.02341211  0.42427136  0.58491444  1
  O  O30  1  0.18088432  0.60997059  0.92768193  1
  O  O31  1  0.16972127  0.34671157  0.89783910  1
  O  O32  1  0.16474848  0.50132887  0.78633849  1
  O  O33  1  0.40763040  0.75170408  0.03213741  1
  O  O34  1  0.41427194  0.15328843  0.60216090  1
  O  O35  1  0.45241784  0.99867113  0.71366151  1
  O  O36  1  0.97658789  0.57572864  0.41508556  1
  O  O37  1  0.27104007  0.92218591  0.59226896  1
  O  O38  1  0.03259792  0.07572864  0.91508556  1
  O  O39  1  0.25572117  0.82701499  0.18301570  1
  O  O40  1  0.44774373  0.49838897  0.41702744  1
  O  O41  1  0.28146216  0.10997059  0.42768193  1
  O  O42  1  0.83525152  0.49867113  0.21366151  1
  O  O43  1  0.72895993  0.07781409  0.40773104  1
  O  O44  1  0.78549395  0.57781409  0.90773104  1
  O  O45  1  0.74427883  0.17298501  0.81698430  1
  O  O46  1  0.26575085  0.67298501  0.31698430  1
  O  O47  1  0.58572906  0.84671157  0.39783910  1
