# generated using pymatgen
data_TiSn6F16
_symmetry_space_group_name_H-M   'P 1'
_cell_length_a   7.81315848
_cell_length_b   10.20837500
_cell_length_c   11.10167196
_cell_angle_alpha   90.91140240
_cell_angle_beta   90.00000000
_cell_angle_gamma   112.50001978
_symmetry_Int_Tables_number   1
_chemical_formula_structural   TiSn6F16
_chemical_formula_sum   'Ti2 Sn12 F32'
_cell_volume   817.94207103
_cell_formula_units_Z   2
loop_
 _symmetry_equiv_pos_site_id
 _symmetry_equiv_pos_as_xyz
  1  'x, y, z'
loop_
 _atom_site_type_symbol
 _atom_site_label
 _atom_site_symmetry_multiplicity
 _atom_site_fract_x
 _atom_site_fract_y
 _atom_site_fract_z
 _atom_site_occupancy
  Ti  Ti0  1  0.33064419  0.00000000  0.75000000  1
  Ti  Ti1  1  0.66935581  0.00000000  0.25000000  1
  Sn  Sn2  1  0.24754134  0.14674456  0.39605484  1
  Sn  Sn3  1  0.24555207  0.70530130  0.47008278  1
  Sn  Sn4  1  0.75245866  0.85325544  0.60394516  1
  Sn  Sn5  1  0.75444793  0.29469870  0.52991722  1
  Sn  Sn6  1  0.12206098  0.41209661  0.18073396  1
  Sn  Sn7  1  0.89920321  0.14674456  0.89605484  1
  Sn  Sn8  1  0.10079679  0.85325544  0.10394516  1
  Sn  Sn9  1  0.70996437  0.58790339  0.31926604  1
  Sn  Sn10  1  0.87793902  0.58790339  0.81926604  1
  Sn  Sn11  1  0.29003563  0.41209661  0.68073396  1
  Sn  Sn12  1  0.45974923  0.70530130  0.97008278  1
  Sn  Sn13  1  0.54025077  0.29469870  0.02991722  1
  F  F14  1  0.86503615  0.47105117  0.40601830  1
  F  F15  1  0.50248847  0.31649215  0.45881070  1
  F  F16  1  0.39398497  0.52894883  0.09398170  1
  F  F17  1  0.29106371  0.30296843  0.25311265  1
  F  F18  1  0.60601503  0.47105117  0.90601830  1
  F  F19  1  0.18599632  0.68350785  0.04118930  1
  F  F20  1  0.57041954  0.13314355  0.79028856  1
  F  F21  1  0.98809528  0.69703157  0.24688735  1
  F  F22  1  0.29895093  0.93288650  0.91110805  1
  F  F23  1  0.70104907  0.06711350  0.08889195  1
  F  F24  1  0.63393557  0.93288650  0.41110805  1
  F  F25  1  0.72791285  0.43867330  0.65973496  1
  F  F26  1  0.49751153  0.68350785  0.54118930  1
  F  F27  1  0.01190472  0.30296843  0.75311265  1
  F  F28  1  0.22833966  0.13520607  0.79292340  1
  F  F29  1  0.70893629  0.69703157  0.74688735  1
  F  F30  1  0.27208715  0.56132670  0.34026504  1
  F  F31  1  0.90686641  0.13520607  0.29292340  1
  F  F32  1  0.09313359  0.86479393  0.70707660  1
  F  F33  1  0.81400368  0.31649215  0.95881070  1
  F  F34  1  0.28923955  0.56132670  0.84026504  1
  F  F35  1  0.87879117  0.74070863  0.98391861  1
  F  F36  1  0.36606443  0.06711350  0.58889195  1
  F  F37  1  0.86191746  0.74070863  0.48391861  1
  F  F38  1  0.13808254  0.25929137  0.51608139  1
  F  F39  1  0.43727600  0.86685645  0.70971144  1
  F  F40  1  0.77166034  0.86479393  0.20707660  1
  F  F41  1  0.56272400  0.13314355  0.29028856  1
  F  F42  1  0.42958046  0.86685645  0.20971144  1
  F  F43  1  0.71076045  0.43867330  0.15973496  1
  F  F44  1  0.13496385  0.52894883  0.59398170  1
  F  F45  1  0.12120883  0.25929137  0.01608139  1
