# generated using pymatgen
data_KInS2
_symmetry_space_group_name_H-M   'P 1'
_cell_length_a   7.92070414
_cell_length_b   7.92070481
_cell_length_c   15.24651817
_cell_angle_alpha   82.51745573
_cell_angle_beta   82.51745511
_cell_angle_gamma   89.98974022
_symmetry_Int_Tables_number   1
_chemical_formula_structural   KInS2
_chemical_formula_sum   'K8 In8 S16'
_cell_volume   940.17121773
_cell_formula_units_Z   8
loop_
 _symmetry_equiv_pos_site_id
 _symmetry_equiv_pos_as_xyz
  1  'x, y, z'
loop_
 _atom_site_type_symbol
 _atom_site_label
 _atom_site_symmetry_multiplicity
 _atom_site_fract_x
 _atom_site_fract_y
 _atom_site_fract_z
 _atom_site_occupancy
  K  K0  1  0.77800211  0.15373560  0.88381508  1
  K  K1  1  0.84626440  0.22199789  0.61618492  1
  K  K2  1  0.22199789  0.84626440  0.11618492  1
  K  K3  1  0.15373560  0.77800211  0.38381508  1
  K  K4  1  0.34484632  0.22147048  0.61762999  1
  K  K5  1  0.77852952  0.65515368  0.88237001  1
  K  K6  1  0.65515368  0.77852952  0.38237001  1
  K  K7  1  0.22147048  0.34484632  0.11762999  1
  In  In8  1  0.28882136  0.91181102  0.84421368  1
  In  In9  1  0.08818898  0.71117864  0.65578632  1
  In  In10  1  0.71117864  0.08818898  0.15578632  1
  In  In11  1  0.91181102  0.28882136  0.34421368  1
  In  In12  1  0.58424248  0.71106810  0.65534628  1
  In  In13  1  0.28893190  0.41575752  0.84465372  1
  In  In14  1  0.41575752  0.28893190  0.34465372  1
  In  In15  1  0.71106810  0.58424248  0.15534628  1
  S  S16  1  0.05324161  0.94675839  0.75000000  1
  S  S17  1  0.94675839  0.05324161  0.25000000  1
  S  S18  1  0.57139756  0.42860244  0.75000000  1
  S  S19  1  0.42860244  0.57139756  0.25000000  1
  S  S20  1  0.26569113  0.13859762  0.94402199  1
  S  S21  1  0.86140238  0.73430887  0.55597801  1
  S  S22  1  0.73430887  0.86140238  0.05597801  1
  S  S23  1  0.13859762  0.26569113  0.44402199  1
  S  S24  1  0.57126811  0.94695996  0.74942383  1
  S  S25  1  0.05304004  0.42873189  0.75057617  1
  S  S26  1  0.42873189  0.05304004  0.25057617  1
  S  S27  1  0.94695996  0.57126811  0.24942383  1
  S  S28  1  0.36131968  0.73576678  0.55400698  1
  S  S29  1  0.26423322  0.63868032  0.94599302  1
  S  S30  1  0.63868032  0.26423322  0.44599302  1
  S  S31  1  0.73576678  0.36131968  0.05400698  1
