# generated using pymatgen
data_Fe4As5O13
_symmetry_space_group_name_H-M   'P 1'
_cell_length_a   9.13094079
_cell_length_b   9.28883467
_cell_length_c   9.32033171
_cell_angle_alpha   94.15072716
_cell_angle_beta   115.98232010
_cell_angle_gamma   112.48111964
_symmetry_Int_Tables_number   1
_chemical_formula_structural   Fe4As5O13
_chemical_formula_sum   'Fe8 As10 O26'
_cell_volume   628.62863419
_cell_formula_units_Z   2
loop_
 _symmetry_equiv_pos_site_id
 _symmetry_equiv_pos_as_xyz
  1  'x, y, z'
loop_
 _atom_site_type_symbol
 _atom_site_label
 _atom_site_symmetry_multiplicity
 _atom_site_fract_x
 _atom_site_fract_y
 _atom_site_fract_z
 _atom_site_occupancy
  O  O0  1  0.09561013  0.70639935  0.68563529  1
  O  O1  1  0.90439348  0.29359711  0.31435361  1
  O  O2  1  0.62616807  0.08865380  0.96218485  1
  O  O3  1  0.37381109  0.91139559  0.03779790  1
  O  O4  1  0.00715439  0.64879270  0.35545437  1
  O  O5  1  0.99285523  0.35119695  0.64454571  1
  O  O6  1  0.48364374  0.76429780  0.36304165  1
  O  O7  1  0.51637648  0.23573827  0.63705527  1
  O  O8  1  0.26097970  0.56183557  0.54872570  1
  O  O9  1  0.73903862  0.43813888  0.45127417  1
  O  O10  1  0.86325925  0.26188602  0.85436692  1
  O  O11  1  0.13670701  0.73811861  0.14562527  1
  O  O12  1  0.29000114  0.06238492  0.73156482  1
  O  O13  1  0.70999614  0.93763375  0.26844177  1
  O  O14  1  0.13985356  0.46829776  0.22098499  1
  O  O15  1  0.86013700  0.53169756  0.77901154  1
  O  O16  1  0.78165641  0.47928361  0.02799107  1
  O  O17  1  0.21830749  0.52066962  0.97198408  1
  O  O18  1  0.62189544  0.10652479  0.41794160  1
  O  O19  1  0.37811100  0.89350132  0.58207654  1
  O  O20  1  0.36604382  0.41453591  0.80158064  1
  O  O21  1  0.63398759  0.58541969  0.19842807  1
  O  O22  1  0.98169895  0.12927259  0.11089179  1
  O  O23  1  0.52412699  0.25682440  0.12409169  1
  O  O24  1  0.01827546  0.87072058  0.88908646  1
  O  O25  1  0.47587202  0.74317164  0.87585011  1
  Fe  Fe26  1  1.00000475  0.49999781  1.00000748  1
  Fe  Fe27  1  1.00001642  0.49999613  0.49999712  1
  Fe  Fe28  1  0.73817183  0.30307754  0.62059982  1
  Fe  Fe29  1  0.26182564  0.69692458  0.37940599  1
  Fe  Fe30  1  0.35250848  0.88360856  0.80314699  1
  Fe  Fe31  1  0.64748109  0.11637781  0.19685113  1
  Fe  Fe32  1  0.46924505  0.72094774  0.10568805  1
  Fe  Fe33  1  0.53075775  0.27907212  0.89430866  1
  As  As34  1  0.90070670  0.70511176  0.69795373  1
  As  As35  1  0.09929942  0.29488651  0.30203397  1
  As  As36  1  0.15929185  0.33717199  0.83268270  1
  As  As37  1  0.84071865  0.66282392  0.16733765  1
  As  As38  1  0.21209517  0.93090800  0.09533990  1
  As  As39  1  0.78788223  0.06909749  0.90464650  1
  As  As40  1  0.53300285  0.40769511  0.26256563  1
  As  As41  1  0.46702333  0.59230574  0.73744191  1
  As  As42  1  0.69817787  0.94898671  0.45903589  1
  As  As43  1  0.30182972  0.05102367  0.54097098  1
