# generated using pymatgen
data_Dy3CuGeSe7
_symmetry_space_group_name_H-M   'P 1'
_cell_length_a   10.33287389
_cell_length_b   10.33287408
_cell_length_c   6.10775921
_cell_angle_alpha   90.00000000
_cell_angle_beta   90.00000000
_cell_angle_gamma   119.99999937
_symmetry_Int_Tables_number   1
_chemical_formula_structural   Dy3CuGeSe7
_chemical_formula_sum   'Dy6 Cu2 Ge2 Se14'
_cell_volume   564.74813797
_cell_formula_units_Z   2
loop_
 _symmetry_equiv_pos_site_id
 _symmetry_equiv_pos_as_xyz
  1  'x, y, z'
loop_
 _atom_site_type_symbol
 _atom_site_label
 _atom_site_symmetry_multiplicity
 _atom_site_fract_x
 _atom_site_fract_y
 _atom_site_fract_z
 _atom_site_occupancy
  Dy  Dy0  1  0.22006597  0.35589141  0.42007693  1
  Dy  Dy1  1  0.86417457  0.22006597  0.92007693  1
  Dy  Dy2  1  0.35589141  0.13582543  0.92007693  1
  Dy  Dy3  1  0.64410859  0.86417457  0.42007693  1
  Dy  Dy4  1  0.13582543  0.77993403  0.42007693  1
  Dy  Dy5  1  0.77993403  0.64410859  0.92007693  1
  Cu  Cu6  1  0.00000000  0.00000000  0.47300715  1
  Cu  Cu7  1  0.00000000  0.00000000  0.97300715  1
  Ge  Ge8  1  0.66666700  0.33333300  0.33719733  1
  Ge  Ge9  1  0.33333300  0.66666700  0.83719733  1
  Se  Se10  1  0.26264738  0.10287424  0.45494479  1
  Se  Se11  1  0.15977313  0.26264738  0.95494479  1
  Se  Se12  1  0.10287424  0.84022687  0.95494479  1
  Se  Se13  1  0.89712576  0.15977313  0.45494479  1
  Se  Se14  1  0.84022687  0.73735262  0.45494479  1
  Se  Se15  1  0.73735262  0.89712576  0.95494479  1
  Se  Se16  1  0.51792785  0.42544229  0.17061038  1
  Se  Se17  1  0.09248556  0.51792785  0.67061038  1
  Se  Se18  1  0.42544229  0.90751444  0.67061038  1
  Se  Se19  1  0.57455771  0.09248556  0.17061038  1
  Se  Se20  1  0.90751444  0.48207215  0.17061038  1
  Se  Se21  1  0.48207215  0.57455771  0.67061038  1
  Se  Se22  1  0.33333300  0.66666700  0.22421923  1
  Se  Se23  1  0.66666700  0.33333300  0.72421923  1
