# generated using pymatgen
data_AlFePO5
_symmetry_space_group_name_H-M   'P 1'
_cell_length_a   5.57570198
_cell_length_b   7.23877633
_cell_length_c   10.66242846
_cell_angle_alpha   90.01199682
_cell_angle_beta   89.97889663
_cell_angle_gamma   98.41146869
_symmetry_Int_Tables_number   1
_chemical_formula_structural   AlFePO5
_chemical_formula_sum   'Al4 Fe4 P4 O20'
_cell_volume   425.71977417
_cell_formula_units_Z   4
loop_
 _symmetry_equiv_pos_site_id
 _symmetry_equiv_pos_as_xyz
  1  'x, y, z'
loop_
 _atom_site_type_symbol
 _atom_site_label
 _atom_site_symmetry_multiplicity
 _atom_site_fract_x
 _atom_site_fract_y
 _atom_site_fract_z
 _atom_site_occupancy
  Al  Al0  1  0.45314962  0.64156221  0.82496578  1
  Al  Al1  1  0.04679469  0.35844292  0.32496228  1
  Al  Al2  1  0.95320531  0.64155708  0.67503672  1
  Al  Al3  1  0.54685238  0.35843779  0.17503422  1
  Fe  Fe4  1  0.60882856  0.01648827  0.35504501  1
  Fe  Fe5  1  0.89107671  0.98349475  0.85509520  1
  Fe  Fe6  1  0.39117144  0.98351173  0.64495499  1
  Fe  Fe7  1  0.10892329  0.01650625  0.14490480  1
  P  P8  1  0.06822681  0.77799955  0.40394928  1
  P  P9  1  0.93177319  0.22200045  0.59605072  1
  P  P10  1  0.56820458  0.77795527  0.09603975  1
  P  P11  1  0.43179442  0.22204473  0.90396025  1
  O  O12  1  0.68262525  0.11949416  0.54966718  1
  O  O13  1  0.81739728  0.88041793  0.04963028  1
  O  O14  1  0.31737475  0.88050584  0.45033282  1
  O  O15  1  0.18260172  0.11958207  0.95036972  1
  O  O16  1  0.93967332  0.90872349  0.32063233  1
  O  O17  1  0.56037612  0.09126447  0.82060242  1
  O  O18  1  0.06032768  0.09127651  0.67936767  1
  O  O19  1  0.43962388  0.90873553  0.17939758  1
  O  O20  1  0.59238970  0.28119157  0.01996818  1
  O  O21  1  0.90767839  0.71884024  0.52001429  1
  O  O22  1  0.40761030  0.71880843  0.98003182  1
  O  O23  1  0.09232161  0.28115976  0.47998571  1
  O  O24  1  0.24849827  0.27094557  0.22158937  1
  O  O25  1  0.25150855  0.72900302  0.72162626  1
  O  O26  1  0.75150373  0.72905443  0.77841063  1
  O  O27  1  0.74849045  0.27099698  0.27837374  1
  O  O28  1  0.10573976  0.60375380  0.32745446  1
  O  O29  1  0.89425924  0.39624620  0.67254554  1
  O  O30  1  0.39432060  0.39625581  0.82749790  1
  O  O31  1  0.60567840  0.60374419  0.17250210  1
