# generated using pymatgen
data_Hf5(In2Rh)2
_symmetry_space_group_name_H-M   'P 1'
_cell_length_a   3.39888168
_cell_length_b   7.72256203
_cell_length_c   17.64890083
_cell_angle_alpha   90.00000000
_cell_angle_beta   90.00000000
_cell_angle_gamma   90.00000000
_symmetry_Int_Tables_number   1
_chemical_formula_structural   Hf5(In2Rh)2
_chemical_formula_sum   'Hf10 In8 Rh4'
_cell_volume   463.24966571
_cell_formula_units_Z   2
loop_
 _symmetry_equiv_pos_site_id
 _symmetry_equiv_pos_as_xyz
  1  'x, y, z'
loop_
 _atom_site_type_symbol
 _atom_site_label
 _atom_site_symmetry_multiplicity
 _atom_site_fract_x
 _atom_site_fract_y
 _atom_site_fract_z
 _atom_site_occupancy
  Hf  Hf0  1  0.00000000  0.25901311  0.22182927  1
  Hf  Hf1  1  0.00000000  0.63600074  0.07999663  1
  Hf  Hf2  1  -0.00000000  0.75901311  0.27817073  1
  Hf  Hf3  1  -0.00000000  0.86399926  0.57999663  1
  Hf  Hf4  1  -0.00000000  0.24098689  0.72182927  1
  Hf  Hf5  1  -0.00000000  0.74098689  0.77817073  1
  Hf  Hf6  1  0.00000000  0.13600074  0.42000337  1
  Hf  Hf7  1  0.00000000  -0.00000000  0.00000000  1
  Hf  Hf8  1  0.00000000  0.36399926  0.92000337  1
  Hf  Hf9  1  0.00000000  0.50000000  0.50000000  1
  In  In10  1  0.50000000  0.79924275  0.43269381  1
  In  In11  1  0.50000000  0.70075725  0.93269381  1
  In  In12  1  0.50000000  0.06259032  0.85103179  1
  In  In13  1  0.50000000  0.56259032  0.64896821  1
  In  In14  1  0.50000000  0.20075725  0.56730619  1
  In  In15  1  0.50000000  0.93740968  0.14896821  1
  In  In16  1  0.50000000  0.43740968  0.35103179  1
  In  In17  1  0.50000000  0.29924275  0.06730619  1
  Rh  Rh18  1  0.50000000  0.45179914  0.80668196  1
  Rh  Rh19  1  0.50000000  0.54820086  0.19331804  1
  Rh  Rh20  1  0.50000000  0.95179914  0.69331804  1
  Rh  Rh21  1  0.50000000  0.04820086  0.30668196  1
