# generated using pymatgen
data_Ti5Re24
_symmetry_space_group_name_H-M   'P 1'
_cell_length_a   8.35951684
_cell_length_b   8.35951684
_cell_length_c   8.35951684
_cell_angle_alpha   109.47122063
_cell_angle_beta   109.47122063
_cell_angle_gamma   109.47122063
_symmetry_Int_Tables_number   1
_chemical_formula_structural   Ti5Re24
_chemical_formula_sum   'Ti5 Re24'
_cell_volume   449.69870899
_cell_formula_units_Z   1
loop_
 _symmetry_equiv_pos_site_id
 _symmetry_equiv_pos_as_xyz
  1  'x, y, z'
loop_
 _atom_site_type_symbol
 _atom_site_label
 _atom_site_symmetry_multiplicity
 _atom_site_fract_x
 _atom_site_fract_y
 _atom_site_fract_z
 _atom_site_occupancy
  Ti  Ti0  1  0.00000000  -0.00000000  -0.00000000  1
  Ti  Ti1  1  0.63230335  -0.00000000  -0.00000000  1
  Ti  Ti2  1  -0.00000000  0.63230335  -0.00000000  1
  Ti  Ti3  1  0.00000000  -0.00000000  0.63230335  1
  Ti  Ti4  1  0.36769665  0.36769665  0.36769665  1
  Re  Re5  1  0.39881102  0.68150307  0.00000000  1
  Re  Re6  1  0.71730795  0.31849693  0.31849693  1
  Re  Re7  1  0.39881102  -0.00000000  0.68150307  1
  Re  Re8  1  0.68150307  0.39881102  -0.00000000  1
  Re  Re9  1  -0.00000000  0.39881102  0.68150307  1
  Re  Re10  1  0.31849693  0.71730795  0.31849693  1
  Re  Re11  1  0.31849693  0.31849693  0.71730795  1
  Re  Re12  1  0.00000000  0.68150307  0.39881102  1
  Re  Re13  1  0.68150307  0.00000000  0.39881102  1
  Re  Re14  1  0.60118898  0.60118898  0.28269205  1
  Re  Re15  1  0.28269205  0.60118898  0.60118898  1
  Re  Re16  1  0.60118898  0.28269205  0.60118898  1
  Re  Re17  1  0.37488429  0.19318899  0.00000000  1
  Re  Re18  1  0.18169530  0.80681101  0.80681101  1
  Re  Re19  1  0.37488429  0.00000000  0.19318899  1
  Re  Re20  1  0.19318899  0.37488429  -0.00000000  1
  Re  Re21  1  -0.00000000  0.37488429  0.19318899  1
  Re  Re22  1  0.80681101  0.18169530  0.80681101  1
  Re  Re23  1  0.80681101  0.80681101  0.18169530  1
  Re  Re24  1  -0.00000000  0.19318899  0.37488429  1
  Re  Re25  1  0.19318899  0.00000000  0.37488429  1
  Re  Re26  1  0.62511571  0.62511571  0.81830470  1
  Re  Re27  1  0.81830470  0.62511571  0.62511571  1
  Re  Re28  1  0.62511571  0.81830470  0.62511571  1
