# generated using pymatgen
data_Pb3(ClO)2
_symmetry_space_group_name_H-M   'P 1'
_cell_length_a   5.94607380
_cell_length_b   9.81549018
_cell_length_c   12.12510350
_cell_angle_alpha   90.00000000
_cell_angle_beta   90.00000000
_cell_angle_gamma   90.00000000
_symmetry_Int_Tables_number   1
_chemical_formula_structural   Pb3(ClO)2
_chemical_formula_sum   'Pb12 Cl8 O8'
_cell_volume   707.66504218
_cell_formula_units_Z   4
loop_
 _symmetry_equiv_pos_site_id
 _symmetry_equiv_pos_as_xyz
  1  'x, y, z'
loop_
 _atom_site_type_symbol
 _atom_site_label
 _atom_site_symmetry_multiplicity
 _atom_site_fract_x
 _atom_site_fract_y
 _atom_site_fract_z
 _atom_site_occupancy
  Pb  Pb0  1  0.25000000  0.07861339  0.08118541  1
  Pb  Pb1  1  0.75000000  0.92138661  0.91881459  1
  Pb  Pb2  1  0.75000000  0.57861339  0.41881459  1
  Pb  Pb3  1  0.25000000  0.42138661  0.58118541  1
  Pb  Pb4  1  0.25000000  0.36404607  0.28502526  1
  Pb  Pb5  1  0.75000000  0.63595393  0.71497474  1
  Pb  Pb6  1  0.75000000  0.86404607  0.21497474  1
  Pb  Pb7  1  0.25000000  0.13595393  0.78502526  1
  Pb  Pb8  1  0.25000000  0.79311758  0.56264436  1
  Pb  Pb9  1  0.75000000  0.20688242  0.43735564  1
  Pb  Pb10  1  0.75000000  0.29311758  0.93735564  1
  Pb  Pb11  1  0.25000000  0.70688242  0.06264436  1
  O  O12  1  0.99478263  0.38671086  0.42119432  1
  O  O13  1  0.49478263  0.61328914  0.57880568  1
  O  O14  1  0.00521737  0.88671086  0.07880568  1
  O  O15  1  0.50521737  0.11328914  0.92119432  1
  O  O16  1  0.00521737  0.61328914  0.57880568  1
  O  O17  1  0.50521737  0.38671086  0.42119432  1
  O  O18  1  0.99478263  0.11328914  0.92119432  1
  O  O19  1  0.49478263  0.88671086  0.07880568  1
  Cl  Cl20  1  0.25000000  0.08596441  0.36402832  1
  Cl  Cl21  1  0.75000000  0.91403559  0.63597168  1
  Cl  Cl22  1  0.75000000  0.58596441  0.13597168  1
  Cl  Cl23  1  0.25000000  0.41403559  0.86402832  1
  Cl  Cl24  1  0.25000000  0.80863545  0.80845465  1
  Cl  Cl25  1  0.75000000  0.19136455  0.19154535  1
  Cl  Cl26  1  0.75000000  0.30863545  0.69154535  1
  Cl  Cl27  1  0.25000000  0.69136455  0.30845465  1
