# generated using pymatgen
data_YSn(WO4)2
_symmetry_space_group_name_H-M   'P 1'
_cell_length_a   5.22050098
_cell_length_b   6.16680606
_cell_length_c   7.11934414
_cell_angle_alpha   118.59625600
_cell_angle_beta   117.17960211
_cell_angle_gamma   87.69867305
_symmetry_Int_Tables_number   1
_chemical_formula_structural   YSn(WO4)2
_chemical_formula_sum   'Y1 Sn1 W2 O8'
_cell_volume   174.28245094
_cell_formula_units_Z   1
loop_
 _symmetry_equiv_pos_site_id
 _symmetry_equiv_pos_as_xyz
  1  'x, y, z'
loop_
 _atom_site_type_symbol
 _atom_site_label
 _atom_site_symmetry_multiplicity
 _atom_site_fract_x
 _atom_site_fract_y
 _atom_site_fract_z
 _atom_site_occupancy
  Y  Y0  1  0.66228691  0.80037623  0.08131831  1
  Sn  Sn1  1  0.14712301  0.31914139  0.14439267  1
  W  W2  1  0.38319988  0.03781645  0.59641429  1
  W  W3  1  0.88229398  0.38079479  0.61548546  1
  O  O4  1  0.15198802  0.68353006  0.84960173  1
  O  O5  1  0.63100480  0.46748533  0.39075361  1
  O  O6  1  0.17261463  0.22190655  0.79244516  1
  O  O7  1  0.57065303  0.01682887  0.39804277  1
  O  O8  1  0.59302626  0.94442467  0.82593141  1
  O  O9  1  0.09009220  0.71621773  0.31371398  1
  O  O10  1  0.04133053  0.18269811  0.39421137  1
  O  O11  1  0.67038675  0.40727383  0.79378425  1
