# generated using pymatgen
data_Ce5Pb3O
_symmetry_space_group_name_H-M   'P 1'
_cell_length_a   8.60008883
_cell_length_b   8.60008868
_cell_length_c   9.41045214
_cell_angle_alpha   117.19005165
_cell_angle_beta   117.19005111
_cell_angle_gamma   89.99999943
_symmetry_Int_Tables_number   1
_chemical_formula_structural   Ce5Pb3O
_chemical_formula_sum   'Ce10 Pb6 O2'
_cell_volume   531.16447213
_cell_formula_units_Z   2
loop_
 _symmetry_equiv_pos_site_id
 _symmetry_equiv_pos_as_xyz
  1  'x, y, z'
loop_
 _atom_site_type_symbol
 _atom_site_label
 _atom_site_symmetry_multiplicity
 _atom_site_fract_x
 _atom_site_fract_y
 _atom_site_fract_z
 _atom_site_occupancy
  Ce  Ce0  1  0.69316116  0.50221127  0.69537243  1
  Ce  Ce1  1  0.80683884  0.30683884  0.30462757  1
  Ce  Ce2  1  0.50221127  0.00221127  0.69537243  1
  Ce  Ce3  1  0.49778873  0.99778873  0.30462757  1
  Ce  Ce4  1  0.30683884  0.49778873  0.30462757  1
  Ce  Ce5  1  0.00000000  -0.00000000  0.00000000  1
  Ce  Ce6  1  0.19316116  0.69316116  0.69537243  1
  Ce  Ce7  1  0.00221127  0.19316116  0.69537243  1
  Ce  Ce8  1  0.99778873  0.80683884  0.30462757  1
  Ce  Ce9  1  0.50000000  0.50000000  0.00000000  1
  Pb  Pb10  1  0.85548895  0.35548895  1.00000000  1
  Pb  Pb11  1  0.14451105  0.64451105  0.00000000  1
  Pb  Pb12  1  0.64451105  0.85548895  1.00000000  1
  Pb  Pb13  1  0.25000000  0.25000000  0.50000000  1
  Pb  Pb14  1  0.35548895  0.14451105  0.00000000  1
  Pb  Pb15  1  0.75000000  0.75000000  0.50000000  1
  O  O16  1  0.75000000  0.25000000  0.50000000  1
  O  O17  1  0.25000000  0.75000000  0.50000000  1
