# generated using pymatgen
data_KCeH2S2O9
_symmetry_space_group_name_H-M   'P 1'
_cell_length_a   8.76965585
_cell_length_b   10.20701644
_cell_length_c   10.52291453
_cell_angle_alpha   118.65753941
_cell_angle_beta   90.00000000
_cell_angle_gamma   90.00000000
_symmetry_Int_Tables_number   1
_chemical_formula_structural   KCeH2S2O9
_chemical_formula_sum   'K4 Ce4 H8 S8 O36'
_cell_volume   826.54295043
_cell_formula_units_Z   4
loop_
 _symmetry_equiv_pos_site_id
 _symmetry_equiv_pos_as_xyz
  1  'x, y, z'
loop_
 _atom_site_type_symbol
 _atom_site_label
 _atom_site_symmetry_multiplicity
 _atom_site_fract_x
 _atom_site_fract_y
 _atom_site_fract_z
 _atom_site_occupancy
  K  K0  1  0.31312386  0.71576607  0.19580404  1
  K  K1  1  0.81312386  0.28423393  0.30419596  1
  K  K2  1  0.68687614  0.28423393  0.80419596  1
  K  K3  1  0.18687614  0.71576607  0.69580404  1
  Ce  Ce4  1  0.66071688  0.76451573  0.53294740  1
  Ce  Ce5  1  0.16071688  0.23548427  0.96705260  1
  Ce  Ce6  1  0.33928312  0.23548427  0.46705260  1
  Ce  Ce7  1  0.83928312  0.76451573  0.03294740  1
  H  H8  1  0.98447836  0.77666823  0.43108085  1
  H  H9  1  0.48447836  0.22333177  0.06891915  1
  H  H10  1  0.01552164  0.22333177  0.56891915  1
  H  H11  1  0.51552164  0.77666823  0.93108085  1
  H  H12  1  0.01585059  0.89854858  0.59178953  1
  H  H13  1  0.51585059  0.10145142  0.90821047  1
  H  H14  1  0.98414941  0.10145142  0.40821047  1
  H  H15  1  0.48414941  0.89854858  0.09178953  1
  S  S16  1  0.31621580  0.01811364  0.61035564  1
  S  S17  1  0.81621580  0.98188636  0.88964436  1
  S  S18  1  0.68378420  0.98188636  0.38964436  1
  S  S19  1  0.18378420  0.01811364  0.11035564  1
  S  S20  1  0.87008069  0.54811675  0.17585100  1
  S  S21  1  0.37008069  0.45188325  0.32414900  1
  S  S22  1  0.12991931  0.45188325  0.82414900  1
  S  S23  1  0.62991931  0.54811675  0.67585100  1
  O  O24  1  0.96136379  0.80385289  0.53236411  1
  O  O25  1  0.46136379  0.19614711  0.96763589  1
  O  O26  1  0.03863621  0.19614711  0.46763589  1
  O  O27  1  0.53863621  0.80385289  0.03236411  1
  O  O28  1  0.39070912  0.16782019  0.66710523  1
  O  O29  1  0.89070912  0.83217981  0.83289477  1
  O  O30  1  0.60929088  0.83217981  0.33289477  1
  O  O31  1  0.10929088  0.16782019  0.16710523  1
  O  O32  1  0.75923959  0.54672476  0.06681953  1
  O  O33  1  0.25923959  0.45327524  0.43318047  1
  O  O34  1  0.24076041  0.45327524  0.93318047  1
  O  O35  1  0.74076041  0.54672476  0.56681953  1
  O  O36  1  0.97553768  0.67685586  0.21125851  1
  O  O37  1  0.47553768  0.32314414  0.28874149  1
  O  O38  1  0.02446232  0.32314414  0.78874149  1
  O  O39  1  0.52446232  0.67685586  0.71125851  1
  O  O40  1  0.95293184  0.40376032  0.11439458  1
  O  O41  1  0.45293184  0.59623968  0.38560542  1
  O  O42  1  0.04706816  0.59623968  0.88560542  1
  O  O43  1  0.54706816  0.40376032  0.61439458  1
  O  O44  1  0.79003264  0.56799704  0.30826847  1
  O  O45  1  0.29003264  0.43200296  0.19173153  1
  O  O46  1  0.20996736  0.43200296  0.69173153  1
  O  O47  1  0.70996736  0.56799704  0.80826847  1
  O  O48  1  0.18533817  0.02930071  0.70687500  1
  O  O49  1  0.68533817  0.97069929  0.79312500  1
  O  O50  1  0.81466183  0.97069929  0.29312500  1
  O  O51  1  0.31466183  0.02930071  0.20687500  1
  O  O52  1  0.26047052  0.97588532  0.46245407  1
  O  O53  1  0.76047052  0.02411468  0.03754593  1
  O  O54  1  0.73952948  0.02411468  0.53754593  1
  O  O55  1  0.23952948  0.97588532  0.96245407  1
  O  O56  1  0.42330070  0.90576665  0.61019277  1
  O  O57  1  0.92330070  0.09423335  0.88980723  1
  O  O58  1  0.57669930  0.09423335  0.38980723  1
  O  O59  1  0.07669930  0.90576665  0.11019277  1
