# generated using pymatgen
data_LiCo(PO3)4
_symmetry_space_group_name_H-M   'P 1'
_cell_length_a   12.73813236
_cell_length_b   8.39892069
_cell_length_c   9.27823615
_cell_angle_alpha   90.00000000
_cell_angle_beta   90.00000000
_cell_angle_gamma   90.00000000
_symmetry_Int_Tables_number   1
_chemical_formula_structural   LiCo(PO3)4
_chemical_formula_sum   'Li4 Co4 P16 O48'
_cell_volume   992.64660038
_cell_formula_units_Z   4
loop_
 _symmetry_equiv_pos_site_id
 _symmetry_equiv_pos_as_xyz
  1  'x, y, z'
loop_
 _atom_site_type_symbol
 _atom_site_label
 _atom_site_symmetry_multiplicity
 _atom_site_fract_x
 _atom_site_fract_y
 _atom_site_fract_z
 _atom_site_occupancy
  Li  Li0  1  0.50000000  0.50318464  0.75000000  1
  Li  Li1  1  0.50000000  0.49681536  0.25000000  1
  Li  Li2  1  0.00000000  0.99681536  0.25000000  1
  Li  Li3  1  0.00000000  0.00318464  0.75000000  1
  Co  Co4  1  0.50000000  0.86758734  0.75000000  1
  Co  Co5  1  0.00000000  0.63241266  0.25000000  1
  Co  Co6  1  0.50000000  0.13241266  0.25000000  1
  Co  Co7  1  0.00000000  0.36758734  0.75000000  1
  P  P8  1  0.13896416  0.81870629  0.00484706  1
  P  P9  1  0.86103584  0.81870629  0.49515294  1
  P  P10  1  0.13896416  0.18129371  0.50484706  1
  P  P11  1  0.63896416  0.68129371  0.99515294  1
  P  P12  1  0.35109250  0.03499294  0.51067043  1
  P  P13  1  0.85109250  0.46500706  0.48932957  1
  P  P14  1  0.64890750  0.03499294  0.98932957  1
  P  P15  1  0.36103584  0.31870629  0.00484706  1
  P  P16  1  0.35109250  0.96500706  0.01067043  1
  P  P17  1  0.36103584  0.68129371  0.50484706  1
  P  P18  1  0.63896416  0.31870629  0.49515294  1
  P  P19  1  0.14890750  0.53499294  0.51067043  1
  P  P20  1  0.86103584  0.18129371  0.99515294  1
  P  P21  1  0.14890750  0.46500706  0.01067043  1
  P  P22  1  0.85109250  0.53499294  0.98932957  1
  P  P23  1  0.64890750  0.96500706  0.48932957  1
  O  O24  1  0.12157458  0.36958665  0.87750213  1
  O  O25  1  0.56516258  0.30899406  0.36628328  1
  O  O26  1  0.75556069  0.10486153  0.92582166  1
  O  O27  1  0.82003270  0.64213568  0.53647426  1
  O  O28  1  0.06968152  0.53508477  0.63082124  1
  O  O29  1  0.60471476  0.59571679  0.12595663  1
  O  O30  1  0.60471476  0.40428321  0.62595663  1
  O  O31  1  0.32003270  0.85786432  0.46352574  1
  O  O32  1  0.93483742  0.80899406  0.36628328  1
  O  O33  1  0.93031848  0.53508477  0.86917876  1
  O  O34  1  0.39528524  0.40428321  0.87404337  1
  O  O35  1  0.17996730  0.64213568  0.96352574  1
  O  O36  1  0.43031848  0.96491523  0.13082124  1
  O  O37  1  0.74443931  0.60486153  0.92582166  1
  O  O38  1  0.06968152  0.46491523  0.13082124  1
  O  O39  1  0.89528524  0.90428321  0.62595663  1
  O  O40  1  0.43031848  0.03508477  0.63082124  1
  O  O41  1  0.56968152  0.96491523  0.36917876  1
  O  O42  1  0.24443931  0.10486153  0.57417834  1
  O  O43  1  0.75556069  0.89513847  0.42582166  1
  O  O44  1  0.06516258  0.19100594  0.63371672  1
  O  O45  1  0.39528524  0.59571679  0.37404337  1
  O  O46  1  0.87842542  0.63041335  0.12249787  1
  O  O47  1  0.12157458  0.63041335  0.37750213  1
  O  O48  1  0.93031848  0.46491523  0.36917876  1
  O  O49  1  0.24443931  0.89513847  0.07417834  1
  O  O50  1  0.67996730  0.85786432  0.03647426  1
  O  O51  1  0.67996730  0.14213568  0.53647426  1
  O  O52  1  0.06516258  0.80899406  0.13371672  1
  O  O53  1  0.10471476  0.09571679  0.37404337  1
  O  O54  1  0.93483742  0.19100594  0.86628328  1
  O  O55  1  0.32003270  0.14213568  0.96352574  1
  O  O56  1  0.25556069  0.39513847  0.07417834  1
  O  O57  1  0.37842542  0.13041335  0.37750213  1
  O  O58  1  0.62157458  0.13041335  0.12249787  1
  O  O59  1  0.74443931  0.39513847  0.42582166  1
  O  O60  1  0.56516258  0.69100594  0.86628328  1
  O  O61  1  0.17996730  0.35786432  0.46352574  1
  O  O62  1  0.43483742  0.30899406  0.13371672  1
  O  O63  1  0.43483742  0.69100594  0.63371672  1
  O  O64  1  0.82003270  0.35786432  0.03647426  1
  O  O65  1  0.10471476  0.90428321  0.87404337  1
  O  O66  1  0.37842542  0.86958665  0.87750213  1
  O  O67  1  0.87842542  0.36958665  0.62249787  1
  O  O68  1  0.25556069  0.60486153  0.57417834  1
  O  O69  1  0.89528524  0.09571679  0.12595663  1
  O  O70  1  0.56968152  0.03508477  0.86917876  1
  O  O71  1  0.62157458  0.86958665  0.62249787  1
