# generated using pymatgen
data_MoPO5
_symmetry_space_group_name_H-M   'P 1'
_cell_length_a   7.65973059
_cell_length_b   6.46678907
_cell_length_c   7.57079565
_cell_angle_alpha   90.00000000
_cell_angle_beta   90.00000000
_cell_angle_gamma   90.00000000
_symmetry_Int_Tables_number   1
_chemical_formula_structural   MoPO5
_chemical_formula_sum   'Mo4 P4 O20'
_cell_volume   375.01074740
_cell_formula_units_Z   4
loop_
 _symmetry_equiv_pos_site_id
 _symmetry_equiv_pos_as_xyz
  1  'x, y, z'
loop_
 _atom_site_type_symbol
 _atom_site_label
 _atom_site_symmetry_multiplicity
 _atom_site_fract_x
 _atom_site_fract_y
 _atom_site_fract_z
 _atom_site_occupancy
  O  O0  1  0.54580681  0.24999900  0.00857535  1
  O  O1  1  0.88777711  0.24999900  0.82386535  1
  O  O2  1  0.86910162  0.43984567  0.25936282  1
  O  O3  1  0.86910162  0.06015433  0.25936282  1
  O  O4  1  0.04580581  0.24999900  0.49142565  1
  O  O5  1  0.11222289  0.74999900  0.17613465  1
  O  O6  1  0.13089938  0.56015533  0.74063718  1
  O  O7  1  0.13089938  0.93984567  0.74063718  1
  O  O8  1  0.21547578  0.24999900  0.99122184  1
  O  O9  1  0.28452522  0.74999900  0.49122084  1
  O  O10  1  0.36910162  0.06015433  0.24063618  1
  O  O11  1  0.78452422  0.74999900  0.00877816  1
  O  O12  1  0.38777711  0.24999900  0.67613465  1
  O  O13  1  0.45419419  0.74999900  0.99142565  1
  O  O14  1  0.95419419  0.74999900  0.50857435  1
  O  O15  1  0.61222389  0.74999900  0.32386635  1
  O  O16  1  0.63089838  0.56015533  0.75936282  1
  O  O17  1  0.63089838  0.93984567  0.75936282  1
  O  O18  1  0.71547478  0.24999900  0.50877916  1
  O  O19  1  0.36910162  0.43984567  0.24063618  1
  P  P20  1  0.12619508  0.74999900  0.61703218  1
  P  P21  1  0.37380492  0.24999900  0.11703218  1
  P  P22  1  0.62619508  0.74999900  0.88296882  1
  P  P23  1  0.87380492  0.24999900  0.38296782  1
  Mo  Mo24  1  0.83494947  0.74999900  0.27190412  1
  Mo  Mo25  1  0.66505053  0.24999900  0.77190312  1
  Mo  Mo26  1  0.33494947  0.74999900  0.22809688  1
  Mo  Mo27  1  0.16505153  0.24999900  0.72809588  1
