# generated using pymatgen
data_BaGa2(GeO4)2
_symmetry_space_group_name_H-M   'P 1'
_cell_length_a   8.91094938
_cell_length_b   9.48059180
_cell_length_c   10.07196562
_cell_angle_alpha   90.00000000
_cell_angle_beta   90.00000000
_cell_angle_gamma   90.38377996
_symmetry_Int_Tables_number   1
_chemical_formula_structural   BaGa2(GeO4)2
_chemical_formula_sum   'Ba4 Ga8 Ge8 O32'
_cell_volume   850.87138139
_cell_formula_units_Z   4
loop_
 _symmetry_equiv_pos_site_id
 _symmetry_equiv_pos_as_xyz
  1  'x, y, z'
loop_
 _atom_site_type_symbol
 _atom_site_label
 _atom_site_symmetry_multiplicity
 _atom_site_fract_x
 _atom_site_fract_y
 _atom_site_fract_z
 _atom_site_occupancy
  Ba  Ba0  1  0.25059640  0.89119675  0.41256977  1
  Ba  Ba1  1  0.74940360  0.60880325  0.91256977  1
  Ba  Ba2  1  0.74940360  0.10880325  0.58743023  1
  Ba  Ba3  1  0.25059640  0.39119675  0.08743023  1
  Ge  Ge4  1  0.93731266  0.06427355  0.19683847  1
  Ge  Ge5  1  0.06268734  0.43572645  0.69683847  1
  Ge  Ge6  1  0.06268734  0.93572645  0.80316153  1
  Ge  Ge7  1  0.93731266  0.56427355  0.30316153  1
  Ga  Ga8  1  0.57084895  0.06173977  0.19252732  1
  Ga  Ga9  1  0.42915105  0.43826023  0.69252732  1
  Ga  Ga10  1  0.42915105  0.93826023  0.80747268  1
  Ga  Ga11  1  0.57084895  0.56173977  0.30747268  1
  Ga  Ga12  1  0.93229740  0.22873373  0.92035860  1
  Ga  Ga13  1  0.06770260  0.27126627  0.42035860  1
  Ga  Ga14  1  0.06770260  0.77126627  0.07964140  1
  Ga  Ga15  1  0.93229740  0.72873373  0.57964140  1
  Ge  Ge16  1  0.56312420  0.23477164  0.91692394  1
  Ge  Ge17  1  0.43687580  0.26522836  0.41692394  1
  Ge  Ge18  1  0.43687580  0.76522836  0.08307606  1
  Ge  Ge19  1  0.56312420  0.73477164  0.58307606  1
  O  O20  1  0.00737000  0.19938670  0.08951626  1
  O  O21  1  0.99263000  0.30061330  0.58951626  1
  O  O22  1  0.99263000  0.80061330  0.91048374  1
  O  O23  1  0.00737000  0.69938670  0.41048374  1
  O  O24  1  0.49332384  0.19723492  0.07729268  1
  O  O25  1  0.50667616  0.30276508  0.57729268  1
  O  O26  1  0.50667616  0.80276508  0.92270732  1
  O  O27  1  0.49332384  0.69723492  0.42270732  1
  O  O28  1  0.94209785  0.12311817  0.36467104  1
  O  O29  1  0.05790215  0.37688183  0.86467104  1
  O  O30  1  0.05790215  0.87688183  0.63532896  1
  O  O31  1  0.94209785  0.62311817  0.13532896  1
  O  O32  1  0.55761847  0.12560614  0.36733857  1
  O  O33  1  0.44238153  0.37439386  0.86733857  1
  O  O34  1  0.44238153  0.87439386  0.63266143  1
  O  O35  1  0.55761847  0.62560614  0.13266143  1
  O  O36  1  0.06906041  0.92457114  0.19177272  1
  O  O37  1  0.93093959  0.57542886  0.69177272  1
  O  O38  1  0.93093959  0.07542886  0.80822728  1
  O  O39  1  0.06906041  0.42457114  0.30822728  1
  O  O40  1  0.43612867  0.91033659  0.19190403  1
  O  O41  1  0.56387133  0.58966341  0.69190403  1
  O  O42  1  0.56387133  0.08966341  0.80809597  1
  O  O43  1  0.43612867  0.41033659  0.30809597  1
  O  O44  1  0.75996776  0.00513683  0.14568890  1
  O  O45  1  0.24003224  0.49486317  0.64568890  1
  O  O46  1  0.24003224  0.99486317  0.85431110  1
  O  O47  1  0.75996776  0.50513683  0.35431110  1
  O  O48  1  0.74463614  0.31417006  0.91315827  1
  O  O49  1  0.25536386  0.18582994  0.41315827  1
  O  O50  1  0.25536386  0.68582994  0.08684173  1
  O  O51  1  0.74463614  0.81417006  0.58684173  1
