# generated using pymatgen
data_Zr6NCl15
_symmetry_space_group_name_H-M   'P 1'
_cell_length_a   18.71649387
_cell_length_b   18.71649410
_cell_length_c   18.71649426
_cell_angle_alpha   109.47122080
_cell_angle_beta   109.47122106
_cell_angle_gamma   109.47121996
_symmetry_Int_Tables_number   1
_chemical_formula_structural   Zr6NCl15
_chemical_formula_sum   'Zr48 N8 Cl120'
_cell_volume   5047.21277030
_cell_formula_units_Z   8
loop_
 _symmetry_equiv_pos_site_id
 _symmetry_equiv_pos_as_xyz
  1  'x, y, z'
loop_
 _atom_site_type_symbol
 _atom_site_label
 _atom_site_symmetry_multiplicity
 _atom_site_fract_x
 _atom_site_fract_y
 _atom_site_fract_z
 _atom_site_occupancy
  Cl  Cl0  1  0.05210643  0.44789357  0.75000000  1
  Cl  Cl1  1  0.73111064  0.08877638  0.10359504  1
  Cl  Cl2  1  0.41122362  0.76888936  0.39640496  1
  Cl  Cl3  1  0.73111064  0.14233426  0.62751560  1
  Cl  Cl4  1  0.55210643  0.25000000  0.94789357  1
  Cl  Cl5  1  0.23111064  0.60359504  0.58877638  1
  Cl  Cl6  1  0.91122362  0.89640496  0.26888936  1
  Cl  Cl7  1  0.23111064  0.12751560  0.64233426  1
  Cl  Cl8  1  0.30210643  0.75000000  0.19789357  1
  Cl  Cl9  1  0.62751560  0.39640496  0.48518134  1
  Cl  Cl10  1  0.01481866  0.10359504  0.87248440  1
  Cl  Cl11  1  0.39486376  0.02123613  0.81615903  1
  Cl  Cl12  1  0.10359504  0.87248440  0.01481866  1
  Cl  Cl13  1  0.80210643  0.69789357  0.25000000  1
  Cl  Cl14  1  0.87248440  0.35766574  0.76888936  1
  Cl  Cl15  1  0.10359504  0.73111064  0.08877638  1
  Cl  Cl16  1  0.01481866  0.41122362  0.14233426  1
  Cl  Cl17  1  0.12751560  0.98518134  0.89640496  1
  Cl  Cl18  1  0.51481866  0.37248440  0.60359504  1
  Cl  Cl19  1  0.47876387  0.10513624  0.68384097  1
  Cl  Cl20  1  0.39486376  0.87362763  0.57870473  1
  Cl  Cl21  1  0.05210643  0.10421286  0.30210643  1
  Cl  Cl22  1  0.47876387  0.87362763  0.79492290  1
  Cl  Cl23  1  0.89486376  0.31615903  0.52123613  1
  Cl  Cl24  1  0.62637237  0.10513624  0.92129527  1
  Cl  Cl25  1  0.60359504  0.51481866  0.37248440  1
  Cl  Cl26  1  0.10421286  0.30210643  0.05210643  1
  Cl  Cl27  1  0.37248440  0.26888936  0.85766574  1
  Cl  Cl28  1  0.51481866  0.64233426  0.91122362  1
  Cl  Cl29  1  0.60359504  0.58877638  0.23111064  1
  Cl  Cl30  1  0.14233426  0.01481866  0.41122362  1
  Cl  Cl31  1  0.14233426  0.62751560  0.73111064  1
  Cl  Cl32  1  0.97876387  0.18384097  0.60513624  1
  Cl  Cl33  1  0.62637237  0.02123613  0.70507710  1
  Cl  Cl34  1  0.89486376  0.07870473  0.37362763  1
  Cl  Cl35  1  0.55210643  0.80210643  0.60421286  1
  Cl  Cl36  1  0.97876387  0.29492290  0.37362763  1
  Cl  Cl37  1  0.57870473  0.68384097  0.70507710  1
  Cl  Cl38  1  0.12637237  0.42129527  0.60513624  1
  Cl  Cl39  1  0.08877638  0.48518134  0.35766574  1
  Cl  Cl40  1  0.60421286  0.55210643  0.80210643  1
  Cl  Cl41  1  0.57870473  0.39486376  0.87362763  1
  Cl  Cl42  1  0.70507710  0.62637237  0.02123613  1
  Cl  Cl43  1  0.68384097  0.47876387  0.10513624  1
  Cl  Cl44  1  0.64233426  0.91122362  0.51481866  1
  Cl  Cl45  1  0.64233426  0.23111064  0.12751560  1
  Cl  Cl46  1  0.79492290  0.81615903  0.92129527  1
  Cl  Cl47  1  0.12637237  0.20507710  0.52123613  1
  Cl  Cl48  1  0.81615903  0.92129527  0.79492290  1
  Cl  Cl49  1  0.19789357  0.39578714  0.44789357  1
  Cl  Cl50  1  0.75000000  0.05210643  0.44789357  1
  Cl  Cl51  1  0.75000000  0.19789357  0.30210643  1
  Cl  Cl52  1  0.30210643  0.05210643  0.10421286  1
  Cl  Cl53  1  0.68384097  0.70507710  0.57870473  1
  Cl  Cl54  1  0.07870473  0.20507710  0.18384097  1
  Cl  Cl55  1  0.70507710  0.57870473  0.68384097  1
  Cl  Cl56  1  0.58877638  0.85766574  0.98518134  1
  Cl  Cl57  1  0.07870473  0.37362763  0.89486376  1
  Cl  Cl58  1  0.18384097  0.60513624  0.97876387  1
  Cl  Cl59  1  0.20507710  0.52123613  0.12637237  1
  Cl  Cl60  1  0.79492290  0.47876387  0.87362763  1
  Cl  Cl61  1  0.81615903  0.39486376  0.02123613  1
  Cl  Cl62  1  0.92129527  0.62637237  0.10513624  1
  Cl  Cl63  1  0.41122362  0.14233426  0.01481866  1
  Cl  Cl64  1  0.29492290  0.42129527  0.31615903  1
  Cl  Cl65  1  0.92129527  0.79492290  0.81615903  1
  Cl  Cl66  1  0.31615903  0.29492290  0.42129527  1
  Cl  Cl67  1  0.69789357  0.94789357  0.89578714  1
  Cl  Cl68  1  0.25000000  0.80210643  0.69789357  1
  Cl  Cl69  1  0.25000000  0.94789357  0.55210643  1
  Cl  Cl70  1  0.80210643  0.60421286  0.55210643  1
  Cl  Cl71  1  0.18384097  0.07870473  0.20507710  1
  Cl  Cl72  1  0.87362763  0.79492290  0.47876387  1
  Cl  Cl73  1  0.20507710  0.18384097  0.07870473  1
  Cl  Cl74  1  0.35766574  0.76888936  0.87248440  1
  Cl  Cl75  1  0.35766574  0.08877638  0.48518134  1
  Cl  Cl76  1  0.31615903  0.52123613  0.89486376  1
  Cl  Cl77  1  0.29492290  0.37362763  0.97876387  1
  Cl  Cl78  1  0.42129527  0.60513624  0.12637237  1
  Cl  Cl79  1  0.39578714  0.44789357  0.19789357  1
  Cl  Cl80  1  0.91122362  0.51481866  0.64233426  1
  Cl  Cl81  1  0.87362763  0.57870473  0.39486376  1
  Cl  Cl82  1  0.42129527  0.31615903  0.29492290  1
  Cl  Cl83  1  0.02123613  0.70507710  0.62637237  1
  Cl  Cl84  1  0.44789357  0.19789357  0.39578714  1
  Cl  Cl85  1  0.10513624  0.92129527  0.62637237  1
  Cl  Cl86  1  0.37362763  0.97876387  0.29492290  1
  Cl  Cl87  1  0.02123613  0.81615903  0.39486376  1
  Cl  Cl88  1  0.85766574  0.37248440  0.26888936  1
  Cl  Cl89  1  0.85766574  0.98518134  0.58877638  1
  Cl  Cl90  1  0.39640496  0.41122362  0.76888936  1
  Cl  Cl91  1  0.48518134  0.35766574  0.08877638  1
  Cl  Cl92  1  0.62751560  0.73111064  0.14233426  1
  Cl  Cl93  1  0.89578714  0.69789357  0.94789357  1
  Cl  Cl94  1  0.39640496  0.48518134  0.62751560  1
  Cl  Cl95  1  0.37362763  0.89486376  0.07870473  1
  Cl  Cl96  1  0.10513624  0.68384097  0.47876387  1
  Cl  Cl97  1  0.52123613  0.12637237  0.20507710  1
  Cl  Cl98  1  0.94789357  0.89578714  0.69789357  1
  Cl  Cl99  1  0.60513624  0.12637237  0.42129527  1
  Cl  Cl100  1  0.52123613  0.89486376  0.31615903  1
  Cl  Cl101  1  0.48518134  0.62751560  0.39640496  1
  Cl  Cl102  1  0.87248440  0.01481866  0.10359504  1
  Cl  Cl103  1  0.98518134  0.58877638  0.85766574  1
  Cl  Cl104  1  0.89640496  0.26888936  0.91122362  1
  Cl  Cl105  1  0.12751560  0.64233426  0.23111064  1
  Cl  Cl106  1  0.19789357  0.30210643  0.75000000  1
  Cl  Cl107  1  0.89640496  0.12751560  0.98518134  1
  Cl  Cl108  1  0.60513624  0.97876387  0.18384097  1
  Cl  Cl109  1  0.98518134  0.89640496  0.12751560  1
  Cl  Cl110  1  0.37248440  0.60359504  0.51481866  1
  Cl  Cl111  1  0.69789357  0.25000000  0.80210643  1
  Cl  Cl112  1  0.76888936  0.87248440  0.35766574  1
  Cl  Cl113  1  0.08877638  0.10359504  0.73111064  1
  Cl  Cl114  1  0.76888936  0.39640496  0.41122362  1
  Cl  Cl115  1  0.44789357  0.75000000  0.05210643  1
  Cl  Cl116  1  0.26888936  0.85766574  0.37248440  1
  Cl  Cl117  1  0.58877638  0.23111064  0.60359504  1
  Cl  Cl118  1  0.26888936  0.91122362  0.89640496  1
  Cl  Cl119  1  0.94789357  0.55210643  0.25000000  1
  N  N120  1  0.00000000  0.50000000  0.50000000  1
  N  N121  1  0.00000000  0.00000000  0.50000000  1
  N  N122  1  0.00000000  0.50000000  0.00000000  1
  N  N123  1  0.00000000  0.00000000  0.00000000  1
  N  N124  1  0.50000000  0.50000000  0.50000000  1
  N  N125  1  0.50000000  0.00000000  0.50000000  1
  N  N126  1  0.50000000  0.50000000  0.00000000  1
  N  N127  1  0.50000000  0.00000000  0.00000000  1
  Zr  Zr128  1  0.59529898  0.98097167  0.95463499  1
  Zr  Zr129  1  0.59529898  0.11432732  0.64066399  1
  Zr  Zr130  1  0.51902833  0.90470102  0.54536501  1
  Zr  Zr131  1  0.09529898  0.45463499  0.48097167  1
  Zr  Zr132  1  0.09529898  0.14066399  0.61432732  1
  Zr  Zr133  1  0.01902833  0.04536501  0.40470102  1
  Zr  Zr134  1  0.64066399  0.54536501  0.52633667  1
  Zr  Zr135  1  0.95463499  0.85933601  0.97366333  1
  Zr  Zr136  1  0.97366333  0.95463499  0.85933601  1
  Zr  Zr137  1  0.85933601  0.38567268  0.90470102  1
  Zr  Zr138  1  0.95463499  0.59529898  0.98097167  1
  Zr  Zr139  1  0.97366333  0.51902833  0.11432732  1
  Zr  Zr140  1  0.14066399  0.02633667  0.04536501  1
  Zr  Zr141  1  0.45463499  0.47366333  0.35933601  1
  Zr  Zr142  1  0.47366333  0.35933601  0.45463499  1
  Zr  Zr143  1  0.35933601  0.40470102  0.88567268  1
  Zr  Zr144  1  0.45463499  0.48097167  0.09529898  1
  Zr  Zr145  1  0.47366333  0.61432732  0.01902833  1
  Zr  Zr146  1  0.11432732  0.97366333  0.51902833  1
  Zr  Zr147  1  0.98097167  0.52633667  0.38567268  1
  Zr  Zr148  1  0.11432732  0.64066399  0.59529898  1
  Zr  Zr149  1  0.61432732  0.01902833  0.47366333  1
  Zr  Zr150  1  0.48097167  0.88567268  0.02633667  1
  Zr  Zr151  1  0.61432732  0.09529898  0.14066399  1
  Zr  Zr152  1  0.38567268  0.90470102  0.85933601  1
  Zr  Zr153  1  0.51902833  0.11432732  0.97366333  1
  Zr  Zr154  1  0.38567268  0.98097167  0.52633667  1
  Zr  Zr155  1  0.88567268  0.35933601  0.40470102  1
  Zr  Zr156  1  0.01902833  0.47366333  0.61432732  1
  Zr  Zr157  1  0.88567268  0.02633667  0.48097167  1
  Zr  Zr158  1  0.52633667  0.38567268  0.98097167  1
  Zr  Zr159  1  0.54536501  0.51902833  0.90470102  1
  Zr  Zr160  1  0.64066399  0.59529898  0.11432732  1
  Zr  Zr161  1  0.52633667  0.64066399  0.54536501  1
  Zr  Zr162  1  0.54536501  0.52633667  0.64066399  1
  Zr  Zr163  1  0.85933601  0.97366333  0.95463499  1
  Zr  Zr164  1  0.02633667  0.48097167  0.88567268  1
  Zr  Zr165  1  0.04536501  0.40470102  0.01902833  1
  Zr  Zr166  1  0.14066399  0.61432732  0.09529898  1
  Zr  Zr167  1  0.02633667  0.04536501  0.14066399  1
  Zr  Zr168  1  0.04536501  0.14066399  0.02633667  1
  Zr  Zr169  1  0.35933601  0.45463499  0.47366333  1
  Zr  Zr170  1  0.98097167  0.95463499  0.59529898  1
  Zr  Zr171  1  0.90470102  0.85933601  0.38567268  1
  Zr  Zr172  1  0.90470102  0.54536501  0.51902833  1
  Zr  Zr173  1  0.48097167  0.09529898  0.45463499  1
  Zr  Zr174  1  0.40470102  0.88567268  0.35933601  1
  Zr  Zr175  1  0.40470102  0.01902833  0.04536501  1
