# generated using pymatgen
data_Ba3Ti20O40
_symmetry_space_group_name_H-M   'P 1'
_cell_length_a   10.13502697
_cell_length_b   10.34203717
_cell_length_c   10.34203698
_cell_angle_alpha   92.27124433
_cell_angle_beta   118.70659512
_cell_angle_gamma   118.70659635
_symmetry_Int_Tables_number   1
_chemical_formula_structural   Ba3Ti20O40
_chemical_formula_sum   'Ba3 Ti20 O40'
_cell_volume   780.73481384
_cell_formula_units_Z   1
loop_
 _symmetry_equiv_pos_site_id
 _symmetry_equiv_pos_as_xyz
  1  'x, y, z'
loop_
 _atom_site_type_symbol
 _atom_site_label
 _atom_site_symmetry_multiplicity
 _atom_site_fract_x
 _atom_site_fract_y
 _atom_site_fract_z
 _atom_site_occupancy
  Ba  Ba0  1  1.00000000  0.36604052  0.63395948  1
  Ba  Ba1  1  0.00000000  0.63395948  0.36604052  1
  Ba  Ba2  1  -0.00000000  -0.00000000  -0.00000000  1
  Ti  Ti3  1  0.18269507  0.93427358  0.73735433  1
  Ti  Ti4  1  0.18269507  0.73735433  0.93427358  1
  Ti  Ti5  1  0.50873578  0.84689248  0.84689248  1
  Ti  Ti6  1  0.46903042  0.94235209  0.34469945  1
  Ti  Ti7  1  0.46903042  0.34469945  0.94235209  1
  Ti  Ti8  1  0.18199189  0.34082289  0.34082289  1
  Ti  Ti9  1  0.48333161  0.74763902  0.55058001  1
  Ti  Ti10  1  0.48333161  0.55058001  0.74763902  1
  Ti  Ti11  1  0.18076424  0.52873440  0.12690373  1
  Ti  Ti12  1  0.18076424  0.12690373  0.52873440  1
  Ti  Ti13  1  0.81923576  0.87309627  0.47126560  1
  Ti  Ti14  1  0.81923576  0.47126560  0.87309627  1
  Ti  Ti15  1  0.51666839  0.44941999  0.25236098  1
  Ti  Ti16  1  0.51666839  0.25236098  0.44941999  1
  Ti  Ti17  1  0.81800811  0.65917711  0.65917711  1
  Ti  Ti18  1  0.53096958  0.65530055  0.05764791  1
  Ti  Ti19  1  0.53096958  0.05764791  0.65530055  1
  Ti  Ti20  1  0.49126422  0.15310752  0.15310752  1
  Ti  Ti21  1  0.81730493  0.26264567  0.06572642  1
  Ti  Ti22  1  0.81730493  0.06572642  0.26264567  1
  O  O23  1  0.28232840  0.96183753  0.96183753  1
  O  O24  1  0.05101548  0.50214454  0.90266327  1
  O  O25  1  0.05101548  0.90266327  0.50214454  1
  O  O26  1  0.05128143  0.69758105  0.69758105  1
  O  O27  1  0.38077283  0.73999547  0.94204730  1
  O  O28  1  0.38077283  0.94204730  0.73999547  1
  O  O29  1  0.34845608  0.65473510  0.65473510  1
  O  O30  1  0.35596683  0.85882930  0.45869581  1
  O  O31  1  0.35596683  0.45869581  0.85882930  1
  O  O32  1  0.64285320  0.74276632  0.93948817  1
  O  O33  1  0.64285320  0.93948817  0.74276632  1
  O  O34  1  0.27983384  0.35721056  0.56106080  1
  O  O35  1  0.27983384  0.56106080  0.35721056  1
  O  O36  1  0.28501031  0.75725007  0.15870661  1
  O  O37  1  0.28501031  0.15870661  0.75725007  1
  O  O38  1  0.05197135  0.30182403  0.10588330  1
  O  O39  1  0.05197135  0.10588330  0.30182403  1
  O  O40  1  0.61543166  0.45551447  0.85680457  1
  O  O41  1  0.61543166  0.85680457  0.45551447  1
  O  O42  1  0.62074044  0.65725039  0.65725039  1
  O  O43  1  0.37925956  0.34274961  0.34274961  1
  O  O44  1  0.38456834  0.14319543  0.54448553  1
  O  O45  1  0.38456834  0.54448553  0.14319543  1
  O  O46  1  0.94802865  0.89411670  0.69817597  1
  O  O47  1  0.94802865  0.69817597  0.89411670  1
  O  O48  1  0.71498969  0.84129339  0.24274993  1
  O  O49  1  0.71498969  0.24274993  0.84129339  1
  O  O50  1  0.72016616  0.64278944  0.43893920  1
  O  O51  1  0.72016616  0.43893920  0.64278944  1
  O  O52  1  0.35714680  0.06051183  0.25723368  1
  O  O53  1  0.35714680  0.25723368  0.06051183  1
  O  O54  1  0.64403317  0.54130419  0.14117070  1
  O  O55  1  0.64403317  0.14117070  0.54130419  1
  O  O56  1  0.65154392  0.34526490  0.34526490  1
  O  O57  1  0.61922717  0.05795270  0.26000453  1
  O  O58  1  0.61922717  0.26000453  0.05795270  1
  O  O59  1  0.94871857  0.30241895  0.30241895  1
  O  O60  1  0.94898452  0.09733673  0.49785546  1
  O  O61  1  0.94898452  0.49785546  0.09733673  1
  O  O62  1  0.71767160  0.03816247  0.03816247  1
