# generated using pymatgen
data_Al(CoO2)3
_symmetry_space_group_name_H-M   'P 1'
_cell_length_a   17.24396038
_cell_length_b   5.83266329
_cell_length_c   5.83266329
_cell_angle_alpha   59.99304935
_cell_angle_beta   89.26994004
_cell_angle_gamma   119.63793944
_symmetry_Int_Tables_number   1
_chemical_formula_structural   Al(CoO2)3
_chemical_formula_sum   'Al4 Co12 O24'
_cell_volume   414.35260208
_cell_formula_units_Z   4
loop_
 _symmetry_equiv_pos_site_id
 _symmetry_equiv_pos_as_xyz
  1  'x, y, z'
loop_
 _atom_site_type_symbol
 _atom_site_label
 _atom_site_symmetry_multiplicity
 _atom_site_fract_x
 _atom_site_fract_y
 _atom_site_fract_z
 _atom_site_occupancy
  Al  Al0  1  0.16665454  -0.00000756  0.50002881  1
  Al  Al1  1  0.83334546  0.00000756  0.49997119  1
  Al  Al2  1  0.33480975  0.50433896  0.49990871  1
  Al  Al3  1  0.66519025  0.49566104  0.50009129  1
  Co  Co4  1  0.16421053  0.99316570  0.00815697  1
  Co  Co5  1  0.50000000  0.00000000  0.00000000  1
  Co  Co6  1  0.83578947  0.00683430  0.99184303  1
  Co  Co7  1  0.04648206  0.25631076  0.11686359  1
  Co  Co8  1  0.38276975  0.25561524  0.10730599  1
  Co  Co9  1  0.70600515  0.24207585  0.12406141  1
  Co  Co10  1  0.16421053  0.50078857  0.50053310  1
  Co  Co11  1  0.50000000  0.50000000  0.50000000  1
  Co  Co12  1  0.83578947  0.49921143  0.49946690  1
  Co  Co13  1  0.29399485  0.75792415  0.87593859  1
  Co  Co14  1  0.61723025  0.74438476  0.89269401  1
  Co  Co15  1  0.95351794  0.74368924  0.88313641  1
  O  O16  1  0.24981293  0.03895900  0.72025656  1
  O  O17  1  0.58676045  0.03755537  0.75610160  1
  O  O18  1  0.90169406  0.97387646  0.75078116  1
  O  O19  1  0.24981293  0.46969634  0.28951822  1
  O  O20  1  0.58676045  0.51638496  0.27727102  1
  O  O21  1  0.90169406  0.45586334  0.26879328  1
  O  O22  1  0.25325472  0.48991521  0.73015106  1
  O  O23  1  0.57804317  0.47497883  0.74084833  1
  O  O24  1  0.90090861  0.46929546  0.76657062  1
  O  O25  1  0.08872820  0.00372920  0.73754559  1
  O  O26  1  0.43193843  0.04901814  0.75320184  1
  O  O27  1  0.75527243  0.00238389  0.73656959  1
  O  O28  1  0.24472757  0.99761611  0.26343041  1
  O  O29  1  0.56806157  0.95098186  0.24679816  1
  O  O30  1  0.91127180  0.99627080  0.26245441  1
  O  O31  1  0.09909139  0.53070454  0.23342938  1
  O  O32  1  0.42195683  0.52502117  0.25915167  1
  O  O33  1  0.74674528  0.51008479  0.26984894  1
  O  O34  1  0.09830594  0.02612354  0.24921884  1
  O  O35  1  0.41323955  0.96244463  0.24389840  1
  O  O36  1  0.75018707  0.96104100  0.27974344  1
  O  O37  1  0.09830594  0.54413666  0.73120672  1
  O  O38  1  0.41323955  0.48361404  0.72272898  1
  O  O39  1  0.75018707  0.53030366  0.71048178  1
