# generated using pymatgen
data_Ga6SnTe10
_symmetry_space_group_name_H-M   'P 1'
_cell_length_a   14.79711235
_cell_length_b   14.79711234
_cell_length_c   18.13149103
_cell_angle_alpha   90.00000000
_cell_angle_beta   90.00000000
_cell_angle_gamma   120.00000005
_symmetry_Int_Tables_number   1
_chemical_formula_structural   Ga6SnTe10
_chemical_formula_sum   'Ga36 Sn6 Te60'
_cell_volume   3438.09674449
_cell_formula_units_Z   6
loop_
 _symmetry_equiv_pos_site_id
 _symmetry_equiv_pos_as_xyz
  1  'x, y, z'
loop_
 _atom_site_type_symbol
 _atom_site_label
 _atom_site_symmetry_multiplicity
 _atom_site_fract_x
 _atom_site_fract_y
 _atom_site_fract_z
 _atom_site_occupancy
  Ga  Ga0  1  0.00800489  0.92501667  0.41413191  1
  Ga  Ga1  1  0.14170704  0.92196771  0.59733825  1
  Ga  Ga2  1  0.25718131  0.81163274  0.07357424  1
  Ga  Ga3  1  0.11539169  0.52300376  0.93430163  1
  Ga  Ga4  1  0.25313093  0.67611881  0.25072834  1
  Ga  Ga5  1  0.25280507  0.65972906  0.74859619  1
  Ga  Ga6  1  0.40761206  0.88460831  0.60096863  1
  Ga  Ga7  1  0.18836726  0.44554857  0.40690724  1
  Ga  Ga8  1  0.07803229  0.21973933  0.93067125  1
  Ga  Ga9  1  0.07498333  0.08298822  0.74746491  1
  Ga  Ga10  1  0.40692399  0.74719493  0.41526219  1
  Ga  Ga11  1  0.32388119  0.57701212  0.58406234  1
  Ga  Ga12  1  0.34027094  0.59307601  0.08192919  1
  Ga  Ga13  1  0.08298822  0.07498333  0.25253509  1
  Ga  Ga14  1  0.42298788  0.74686907  0.91739534  1
  Ga  Ga15  1  0.21973933  0.07803229  0.06932875  1
  Ga  Ga16  1  0.47699624  0.59238794  0.26763463  1
  Ga  Ga17  1  0.55445143  0.74281869  0.74024124  1
  Ga  Ga18  1  0.44554857  0.18836726  0.59309276  1
  Ga  Ga19  1  0.78026067  0.85829296  0.26400425  1
  Ga  Ga20  1  0.59238794  0.47699624  0.73236537  1
  Ga  Ga21  1  0.57701212  0.32388119  0.41593766  1
  Ga  Ga22  1  0.91701178  0.99199511  0.08079791  1
  Ga  Ga23  1  0.59307601  0.34027094  0.91807081  1
  Ga  Ga24  1  0.52300376  0.11539169  0.06569837  1
  Ga  Ga25  1  0.74281869  0.55445143  0.25975876  1
  Ga  Ga26  1  0.85829296  0.78026067  0.73599575  1
  Ga  Ga27  1  0.99199511  0.91701178  0.91920209  1
  Ga  Ga28  1  0.65972906  0.25280507  0.25140381  1
  Ga  Ga29  1  0.74686907  0.42298788  0.08260466  1
  Ga  Ga30  1  0.74719493  0.40692399  0.58473781  1
  Ga  Ga31  1  0.67611881  0.25313093  0.74927166  1
  Ga  Ga32  1  0.88460831  0.40761206  0.39903137  1
  Ga  Ga33  1  0.81163274  0.25718131  0.92642576  1
  Ga  Ga34  1  0.92196771  0.14170704  0.40266175  1
  Ga  Ga35  1  0.92501667  0.00800489  0.58586809  1
  Sn  Sn36  1  0.08603189  0.73998388  0.84454160  1
  Sn  Sn37  1  0.26001612  0.34604801  0.17787460  1
  Sn  Sn38  1  0.65395199  0.91396811  0.51120860  1
  Sn  Sn39  1  0.34604801  0.26001612  0.82212540  1
  Sn  Sn40  1  0.91396811  0.65395199  0.48879140  1
  Sn  Sn41  1  0.73998388  0.08603189  0.15545840  1
  Te  Te42  1  0.03429775  0.90074254  0.06245238  1
  Te  Te43  1  0.25047954  0.25047954  0.00000000  1
  Te  Te44  1  0.00000000  0.74952046  0.66666700  1
  Te  Te45  1  0.14109330  0.86579921  0.45763540  1
  Te  Te46  1  0.08344722  0.66181190  0.00666692  1
  Te  Te47  1  0.06015956  0.52614773  0.79431672  1
  Te  Te48  1  0.21719265  0.82445000  0.21210242  1
  Te  Te49  1  0.33071080  0.99901479  0.00358516  1
  Te  Te50  1  0.00098521  0.33169601  0.33691816  1
  Te  Te51  1  0.19894508  0.63193617  0.39456849  1
  Te  Te52  1  0.23471793  0.69902223  0.60544149  1
  Te  Te53  1  0.17105584  0.51021597  0.16397386  1
  Te  Te54  1  1.00000000  0.15870114  0.16666700  1
  Te  Te55  1  0.33916013  0.82894416  0.83064086  1
  Te  Te56  1  0.17555000  0.39274265  0.54543642  1
  Te  Te57  1  0.13420079  0.27529409  0.79096840  1
  Te  Te58  1  0.46598817  0.93984044  0.46098372  1
  Te  Te59  1  0.43299109  0.80105492  0.06123549  1
  Te  Te60  1  0.09925746  0.13355521  0.39578538  1
  Te  Te61  1  0.30097777  0.53569570  0.93877449  1
  Te  Te62  1  0.46430430  0.76528207  0.27210749  1
  Te  Te63  1  0.13355521  0.09925746  0.60421462  1
  Te  Te64  1  0.36806383  0.56700891  0.72790249  1
  Te  Te65  1  0.57836468  0.91655278  0.67333392  1
  Te  Te66  1  0.33818810  0.42163532  0.33999992  1
  Te  Te67  1  0.15870114  0.00000000  0.83333300  1
  Te  Te68  1  0.48978403  0.66083987  0.49730786  1
  Te  Te69  1  0.47385227  0.53401183  0.12764972  1
  Te  Te70  1  0.27529409  0.13420079  0.20903160  1
  Te  Te71  1  0.60725735  0.78280735  0.87876942  1
  Te  Te72  1  0.42163532  0.33818810  0.66000008  1
  Te  Te73  1  0.72470591  0.85890670  0.12430140  1
  Te  Te74  1  0.53401183  0.47385227  0.87235028  1
  Te  Te75  1  0.39274265  0.17555000  0.45456358  1
  Te  Te76  1  0.33169601  0.00098521  0.66308184  1
  Te  Te77  1  0.66830399  0.66928920  0.67025216  1
  Te  Te78  1  0.66928920  0.66830399  0.32974784  1
  Te  Te79  1  0.86644479  0.96570225  0.72911938  1
  Te  Te80  1  0.56700891  0.36806383  0.27209751  1
  Te  Te81  1  0.53569570  0.30097777  0.06122551  1
  Te  Te82  1  0.66083987  0.48978403  0.50269214  1
  Te  Te83  1  0.84129886  0.84129886  0.50000000  1
  Te  Te84  1  0.51021597  0.17105584  0.83602614  1
  Te  Te85  1  0.78280735  0.60725735  0.12123058  1
  Te  Te86  1  0.85890670  0.72470591  0.87569860  1
  Te  Te87  1  0.52614773  0.06015956  0.20568328  1
  Te  Te88  1  0.63193617  0.19894508  0.60543151  1
  Te  Te89  1  0.96570225  0.86644479  0.27088062  1
  Te  Te90  1  0.76528207  0.46430430  0.72789251  1
  Te  Te91  1  0.69902223  0.23471793  0.39455851  1
  Te  Te92  1  0.80105492  0.43299109  0.93876451  1
  Te  Te93  1  0.66181190  0.08344722  0.99333308  1
  Te  Te94  1  0.91655278  0.57836468  0.32666608  1
  Te  Te95  1  0.82894416  0.33916013  0.16935914  1
  Te  Te96  1  0.93984044  0.46598817  0.53901628  1
  Te  Te97  1  0.82445000  0.21719265  0.78789758  1
  Te  Te98  1  0.74952046  0.00000000  0.33333300  1
  Te  Te99  1  0.86579921  0.14109330  0.54236460  1
  Te  Te100  1  0.99901479  0.33071080  0.99641484  1
  Te  Te101  1  0.90074254  0.03429775  0.93754762  1
