# generated using pymatgen
data_K2YZr(PO4)3
_symmetry_space_group_name_H-M   'P 1'
_cell_length_a   10.48429661
_cell_length_b   10.48429661
_cell_length_c   10.48429661
_cell_angle_alpha   90.00000000
_cell_angle_beta   90.00000000
_cell_angle_gamma   90.00000000
_symmetry_Int_Tables_number   1
_chemical_formula_structural   K2YZr(PO4)3
_chemical_formula_sum   'K8 Y4 Zr4 P12 O48'
_cell_volume   1152.43886767
_cell_formula_units_Z   4
loop_
 _symmetry_equiv_pos_site_id
 _symmetry_equiv_pos_as_xyz
  1  'x, y, z'
loop_
 _atom_site_type_symbol
 _atom_site_label
 _atom_site_symmetry_multiplicity
 _atom_site_fract_x
 _atom_site_fract_y
 _atom_site_fract_z
 _atom_site_occupancy
  K  K0  1  0.06677300  0.06677300  0.06677300  1
  K  K1  1  0.19625040  0.69625040  0.80374960  1
  K  K2  1  0.30374960  0.30374960  0.30374960  1
  K  K3  1  0.43322700  0.93322700  0.56677300  1
  K  K4  1  0.56677300  0.43322700  0.93322700  1
  K  K5  1  0.69625040  0.80374960  0.19625040  1
  K  K6  1  0.80374960  0.19625040  0.69625040  1
  K  K7  1  0.93322700  0.56677300  0.43322700  1
  O  O8  1  0.99209051  0.58529148  0.14782511  1
  O  O9  1  0.02473138  0.79141436  0.26401980  1
  O  O10  1  0.04351943  0.93651197  0.79848107  1
  O  O11  1  0.06348803  0.29848107  0.45648057  1
  O  O12  1  0.07546689  0.16788662  0.73400560  1
  O  O13  1  0.08529148  0.35217489  0.00790949  1
  O  O14  1  0.14782511  0.99209051  0.58529148  1
  O  O15  1  0.16788662  0.73400560  0.07546689  1
  O  O16  1  0.20858564  0.76401980  0.47526862  1
  O  O17  1  0.20151893  0.54351943  0.56348803  1
  O  O18  1  0.23400560  0.42453311  0.83211338  1
  O  O19  1  0.23598020  0.97526862  0.29141436  1
  O  O20  1  0.26401980  0.02473138  0.79141436  1
  O  O21  1  0.26599440  0.57546689  0.33211338  1
  O  O22  1  0.29848107  0.45648057  0.06348803  1
  O  O23  1  0.29141436  0.23598020  0.97526862  1
  O  O24  1  0.33211338  0.26599440  0.57546689  1
  O  O25  1  0.35217489  0.00790949  0.08529148  1
  O  O26  1  0.41470852  0.64782511  0.50790949  1
  O  O27  1  0.42453311  0.83211338  0.23400560  1
  O  O28  1  0.43651197  0.70151893  0.95648057  1
  O  O29  1  0.45648057  0.06348803  0.29848107  1
  O  O30  1  0.47526862  0.20858564  0.76401980  1
  O  O31  1  0.50790949  0.41470852  0.64782511  1
  O  O32  1  0.49209051  0.91470852  0.85217489  1
  O  O33  1  0.52473138  0.70858564  0.73598020  1
  O  O34  1  0.54351943  0.56348803  0.20151893  1
  O  O35  1  0.56348803  0.20151893  0.54351943  1
  O  O36  1  0.57546689  0.33211338  0.26599440  1
  O  O37  1  0.58529148  0.14782511  0.99209051  1
  O  O38  1  0.64782511  0.50790949  0.41470852  1
  O  O39  1  0.66788662  0.76599440  0.92453311  1
  O  O40  1  0.70858564  0.73598020  0.52473138  1
  O  O41  1  0.70151893  0.95648057  0.43651197  1
  O  O42  1  0.73400560  0.07546689  0.16788662  1
  O  O43  1  0.73598020  0.52473138  0.70858564  1
  O  O44  1  0.76401980  0.47526862  0.20858564  1
  O  O45  1  0.76599440  0.92453311  0.66788662  1
  O  O46  1  0.79848107  0.04351943  0.93651197  1
  O  O47  1  0.79141436  0.26401980  0.02473138  1
  O  O48  1  0.83211338  0.23400560  0.42453311  1
  O  O49  1  0.85217489  0.49209051  0.91470852  1
  O  O50  1  0.91470852  0.85217489  0.49209051  1
  O  O51  1  0.92453311  0.66788662  0.76599440  1
  O  O52  1  0.93651197  0.79848107  0.04351943  1
  O  O53  1  0.95648057  0.43651197  0.70151893  1
  O  O54  1  0.97526862  0.29141436  0.23598020  1
  O  O55  1  0.00790949  0.08529148  0.35217489  1
  P  P56  1  0.03176622  0.72760671  0.12971582  1
  P  P57  1  0.12971582  0.03176622  0.72760671  1
  P  P58  1  0.22760671  0.37028418  0.96823378  1
  P  P59  1  0.27239329  0.62971582  0.46823378  1
  P  P60  1  0.37028418  0.96823378  0.22760671  1
  P  P61  1  0.46823378  0.27239329  0.62971582  1
  P  P62  1  0.53176622  0.77239329  0.87028418  1
  P  P63  1  0.62971582  0.46823378  0.27239329  1
  P  P64  1  0.72760671  0.12971582  0.03176622  1
  P  P65  1  0.77239329  0.87028418  0.53176622  1
  P  P66  1  0.87028418  0.53176622  0.77239329  1
  P  P67  1  0.96823378  0.22760671  0.37028418  1
  Y  Y68  1  0.14719703  0.35280297  0.64719703  1
  Y  Y69  1  0.35280297  0.64719703  0.14719703  1
  Y  Y70  1  0.64719703  0.14719703  0.35280297  1
  Y  Y71  1  0.85280297  0.85280297  0.85280297  1
  Zr  Zr72  1  0.08780523  0.91219477  0.41219477  1
  Zr  Zr73  1  0.41219477  0.08780523  0.91219477  1
  Zr  Zr74  1  0.58780523  0.58780523  0.58780523  1
  Zr  Zr75  1  0.91219477  0.41219477  0.08780523  1
