# generated using pymatgen
data_Rb3(FeSe2)2
_symmetry_space_group_name_H-M   'P 1'
_cell_length_a   7.83148055
_cell_length_b   11.38353962
_cell_length_c   12.66780285
_cell_angle_alpha   90.00000000
_cell_angle_beta   90.00000000
_cell_angle_gamma   90.00000000
_symmetry_Int_Tables_number   1
_chemical_formula_structural   Rb3(FeSe2)2
_chemical_formula_sum   'Rb12 Fe8 Se16'
_cell_volume   1129.33423295
_cell_formula_units_Z   4
loop_
 _symmetry_equiv_pos_site_id
 _symmetry_equiv_pos_as_xyz
  1  'x, y, z'
loop_
 _atom_site_type_symbol
 _atom_site_label
 _atom_site_symmetry_multiplicity
 _atom_site_fract_x
 _atom_site_fract_y
 _atom_site_fract_z
 _atom_site_occupancy
  Rb  Rb0  1  0.91373403  0.75000000  0.23253641  1
  Rb  Rb1  1  0.07117500  0.42978043  0.13633696  1
  Rb  Rb2  1  0.92882500  0.57021957  0.86366304  1
  Rb  Rb3  1  0.92882500  0.92978043  0.86366304  1
  Rb  Rb4  1  0.41373403  0.75000000  0.26746359  1
  Rb  Rb5  1  0.07117500  0.07021957  0.13633696  1
  Rb  Rb6  1  0.58626597  0.25000000  0.73253641  1
  Rb  Rb7  1  0.42882500  0.57021957  0.63633696  1
  Rb  Rb8  1  0.42882500  0.92978043  0.63633696  1
  Rb  Rb9  1  0.57117500  0.07021957  0.36366304  1
  Rb  Rb10  1  0.57117500  0.42978043  0.36366304  1
  Rb  Rb11  1  0.08626597  0.25000000  0.76746359  1
  Fe  Fe12  1  0.54968353  0.36685567  0.02891139  1
  Fe  Fe13  1  0.04968353  0.13314433  0.47108861  1
  Fe  Fe14  1  0.45031647  0.86685567  0.97108861  1
  Fe  Fe15  1  0.54968353  0.13314433  0.02891139  1
  Fe  Fe16  1  0.95031647  0.63314433  0.52891139  1
  Fe  Fe17  1  0.95031647  0.86685567  0.52891139  1
  Fe  Fe18  1  0.04968353  0.36685567  0.47108861  1
  Fe  Fe19  1  0.45031647  0.63314433  0.97108861  1
  Se  Se20  1  0.58644080  0.75000000  0.83794845  1
  Se  Se21  1  0.91355920  0.25000000  0.33794845  1
  Se  Se22  1  0.41355920  0.25000000  0.16205155  1
  Se  Se23  1  0.20808149  0.75000000  0.03231651  1
  Se  Se24  1  0.08644080  0.75000000  0.66205155  1
  Se  Se25  1  0.70808149  0.75000000  0.46768349  1
  Se  Se26  1  0.79191851  0.25000000  0.96768349  1
  Se  Se27  1  0.85304345  0.05352493  0.60594651  1
  Se  Se28  1  0.14695655  0.55352493  0.39405349  1
  Se  Se29  1  0.64695655  0.94647507  0.10594651  1
  Se  Se30  1  0.35304345  0.05352493  0.89405349  1
  Se  Se31  1  0.29191851  0.25000000  0.53231651  1
  Se  Se32  1  0.35304345  0.44647507  0.89405349  1
  Se  Se33  1  0.85304345  0.44647507  0.60594651  1
  Se  Se34  1  0.64695655  0.55352493  0.10594651  1
  Se  Se35  1  0.14695655  0.94647507  0.39405349  1
