# generated using pymatgen
data_Lu2Fe3Si5
_symmetry_space_group_name_H-M   'P 1'
_cell_length_a   5.39068394
_cell_length_b   10.28671161
_cell_length_c   10.28671161
_cell_angle_alpha   90.00000000
_cell_angle_beta   90.00000000
_cell_angle_gamma   90.00000000
_symmetry_Int_Tables_number   1
_chemical_formula_structural   Lu2Fe3Si5
_chemical_formula_sum   'Lu8 Fe12 Si20'
_cell_volume   570.42296077
_cell_formula_units_Z   4
loop_
 _symmetry_equiv_pos_site_id
 _symmetry_equiv_pos_as_xyz
  1  'x, y, z'
loop_
 _atom_site_type_symbol
 _atom_site_label
 _atom_site_symmetry_multiplicity
 _atom_site_fract_x
 _atom_site_fract_y
 _atom_site_fract_z
 _atom_site_occupancy
  Lu  Lu0  1  0.50000000  0.73773674  0.56878286  1
  Lu  Lu1  1  0.50000000  0.26226326  0.43121714  1
  Lu  Lu2  1  -0.00000000  0.76226326  0.06878286  1
  Lu  Lu3  1  0.00000000  0.23773674  0.93121714  1
  Lu  Lu4  1  0.50000000  0.56878286  0.26226326  1
  Lu  Lu5  1  0.50000000  0.43121714  0.73773674  1
  Lu  Lu6  1  0.00000000  0.06878286  0.23773674  1
  Lu  Lu7  1  -0.00000000  0.93121714  0.76226326  1
  Fe  Fe8  1  0.25000000  0.00000000  0.50000000  1
  Fe  Fe9  1  0.75000000  0.50000000  0.00000000  1
  Fe  Fe10  1  0.25000000  0.50000000  -0.00000000  1
  Fe  Fe11  1  0.75000000  0.00000000  0.50000000  1
  Fe  Fe12  1  0.50000000  0.85677125  0.87669752  1
  Fe  Fe13  1  0.50000000  0.14322875  0.12330248  1
  Fe  Fe14  1  -0.00000000  0.64322875  0.37669752  1
  Fe  Fe15  1  0.00000000  0.35677125  0.62330248  1
  Fe  Fe16  1  0.50000000  0.87669752  0.14322875  1
  Fe  Fe17  1  0.50000000  0.12330248  0.85677125  1
  Fe  Fe18  1  0.00000000  0.37669752  0.35677125  1
  Fe  Fe19  1  -0.00000000  0.62330248  0.64322875  1
  Si  Si20  1  0.25000000  0.17926540  0.67926540  1
  Si  Si21  1  0.25000000  0.82073460  0.32073460  1
  Si  Si22  1  0.75000000  0.32073460  0.17926540  1
  Si  Si23  1  0.75000000  0.67926540  0.82073460  1
  Si  Si24  1  0.25000000  0.67926540  0.82073460  1
  Si  Si25  1  0.25000000  0.32073460  0.17926540  1
  Si  Si26  1  0.75000000  0.17926540  0.67926540  1
  Si  Si27  1  0.75000000  0.82073460  0.32073460  1
  Si  Si28  1  0.24283931  0.50000000  0.50000000  1
  Si  Si29  1  0.74283931  0.00000000  -0.00000000  1
  Si  Si30  1  0.75716069  0.50000000  0.50000000  1
  Si  Si31  1  0.25716069  0.00000000  0.00000000  1
  Si  Si32  1  0.50000000  0.97753562  0.68090128  1
  Si  Si33  1  0.50000000  0.02246438  0.31909872  1
  Si  Si34  1  -0.00000000  0.52246438  0.18090128  1
  Si  Si35  1  0.00000000  0.47753562  0.81909872  1
  Si  Si36  1  0.50000000  0.68090128  0.02246438  1
  Si  Si37  1  0.50000000  0.31909872  0.97753562  1
  Si  Si38  1  -0.00000000  0.18090128  0.47753562  1
  Si  Si39  1  0.00000000  0.81909872  0.52246438  1
