# generated using pymatgen
data_CsPr(SO4)2
_symmetry_space_group_name_H-M   'P 1'
_cell_length_a   5.50700483
_cell_length_b   9.72213620
_cell_length_c   14.54146747
_cell_angle_alpha   90.00000000
_cell_angle_beta   90.00000000
_cell_angle_gamma   90.00000000
_symmetry_Int_Tables_number   1
_chemical_formula_structural   CsPr(SO4)2
_chemical_formula_sum   'Cs4 Pr4 S8 O32'
_cell_volume   778.54800183
_cell_formula_units_Z   4
loop_
 _symmetry_equiv_pos_site_id
 _symmetry_equiv_pos_as_xyz
  1  'x, y, z'
loop_
 _atom_site_type_symbol
 _atom_site_label
 _atom_site_symmetry_multiplicity
 _atom_site_fract_x
 _atom_site_fract_y
 _atom_site_fract_z
 _atom_site_occupancy
  Pr  Pr0  1  0.67656028  0.25000000  0.50000000  1
  Pr  Pr1  1  0.82343972  0.25000000  0.00000000  1
  Pr  Pr2  1  0.32343972  0.75000000  0.50000000  1
  Pr  Pr3  1  0.17656028  0.75000000  0.00000000  1
  Cs  Cs4  1  0.25000000  0.07725480  0.25000000  1
  Cs  Cs5  1  0.25000000  0.42274520  0.75000000  1
  Cs  Cs6  1  0.75000000  0.92274520  0.75000000  1
  Cs  Cs7  1  0.75000000  0.57725480  0.25000000  1
  S  S8  1  0.23797769  0.41390278  0.41582694  1
  S  S9  1  0.23797769  0.08609722  0.58417306  1
  S  S10  1  0.26202231  0.41390278  0.08417306  1
  S  S11  1  0.26202231  0.08609722  0.91582694  1
  S  S12  1  0.76202231  0.58609722  0.58417306  1
  S  S13  1  0.76202231  0.91390278  0.41582694  1
  S  S14  1  0.73797769  0.58609722  0.91582694  1
  S  S15  1  0.73797769  0.91390278  0.08417306  1
  O  O16  1  0.30509830  0.40269213  0.51520954  1
  O  O17  1  0.30509830  0.09730787  0.48479046  1
  O  O18  1  0.19490170  0.40269213  0.98479046  1
  O  O19  1  0.19490170  0.09730787  0.01520954  1
  O  O20  1  0.69490170  0.59730787  0.48479046  1
  O  O21  1  0.69490170  0.90269213  0.51520954  1
  O  O22  1  0.80509830  0.59730787  0.01520954  1
  O  O23  1  0.80509830  0.90269213  0.98479046  1
  O  O24  1  0.22593802  0.56151561  0.38808120  1
  O  O25  1  0.22593802  0.93848439  0.61191880  1
  O  O26  1  0.27406198  0.56151561  0.11191880  1
  O  O27  1  0.27406198  0.93848439  0.88808120  1
  O  O28  1  0.77406198  0.43848439  0.61191880  1
  O  O29  1  0.77406198  0.06151561  0.38808120  1
  O  O30  1  0.72593802  0.43848439  0.88808120  1
  O  O31  1  0.72593802  0.06151561  0.11191880  1
  O  O32  1  0.43349439  0.34144533  0.36289296  1
  O  O33  1  0.43349439  0.15855467  0.63710704  1
  O  O34  1  0.06650561  0.34144533  0.13710704  1
  O  O35  1  0.06650561  0.15855467  0.86289296  1
  O  O36  1  0.56650561  0.65855467  0.63710704  1
  O  O37  1  0.56650561  0.84144533  0.36289296  1
  O  O38  1  0.93349439  0.65855467  0.86289296  1
  O  O39  1  0.93349439  0.84144533  0.13710704  1
  O  O40  1  -0.00227014  0.34857139  0.39842251  1
  O  O41  1  -0.00227014  0.15142861  0.60157749  1
  O  O42  1  0.50227014  0.34857139  0.10157749  1
  O  O43  1  0.50227014  0.15142861  0.89842251  1
  O  O44  1  1.00227014  0.65142861  0.60157749  1
  O  O45  1  1.00227014  0.84857139  0.39842251  1
  O  O46  1  0.49772986  0.65142861  0.89842251  1
  O  O47  1  0.49772986  0.84857139  0.10157749  1
