# generated using pymatgen
data_Ca2Ta2SnO8
_symmetry_space_group_name_H-M   'P 1'
_cell_length_a   5.50178521
_cell_length_b   6.77244456
_cell_length_c   10.71462808
_cell_angle_alpha   108.42336944
_cell_angle_beta   89.80056469
_cell_angle_gamma   89.99068518
_symmetry_Int_Tables_number   1
_chemical_formula_structural   Ca2Ta2SnO8
_chemical_formula_sum   'Ca4 Ta4 Sn2 O16'
_cell_volume   378.76834547
_cell_formula_units_Z   2
loop_
 _symmetry_equiv_pos_site_id
 _symmetry_equiv_pos_as_xyz
  1  'x, y, z'
loop_
 _atom_site_type_symbol
 _atom_site_label
 _atom_site_symmetry_multiplicity
 _atom_site_fract_x
 _atom_site_fract_y
 _atom_site_fract_z
 _atom_site_occupancy
  Ca  Ca0  1  0.74980236  0.43145100  0.57001764  1
  Ca  Ca1  1  0.75221127  0.86279889  0.43039895  1
  Ca  Ca2  1  0.25167117  0.56501857  0.43198141  1
  Ca  Ca3  1  0.24930753  0.13333985  0.57167630  1
  Ta  Ta4  1  0.74570842  0.26575971  0.24798614  1
  Ta  Ta5  1  0.75477398  0.01620116  0.75323502  1
  Ta  Ta6  1  0.25465872  0.73075090  0.75402509  1
  Ta  Ta7  1  0.24565233  0.97963260  0.24873606  1
  Sn  Sn8  1  0.74965572  0.68603992  0.00179060  1
  Sn  Sn9  1  0.24848866  0.30934162  0.00032935  1
  O  O10  1  0.06801984  0.17485849  0.15841735  1
  O  O11  1  0.43138108  0.01737801  0.84275552  1
  O  O12  1  0.93195765  0.82066856  0.84319618  1
  O  O13  1  0.56842962  0.97923866  0.15878141  1
  O  O14  1  0.60648653  0.39802202  0.14095682  1
  O  O15  1  0.89592511  0.25499982  0.86034773  1
  O  O16  1  0.39431305  0.59946502  0.86159913  1
  O  O17  1  0.10471735  0.74066350  0.14216702  1
  O  O18  1  0.47302506  0.26527683  0.37652356  1
  O  O19  1  0.02762161  0.88699741  0.62470308  1
  O  O20  1  0.35454478  0.85813715  0.38142914  1
  O  O21  1  0.14679053  0.47656207  0.62133190  1
  O  O22  1  0.64714162  0.13838121  0.62069304  1
  O  O23  1  0.85484082  0.51953196  0.38075241  1
  O  O24  1  0.97336906  0.10914614  0.37732638  1
  O  O25  1  0.52805012  0.73120193  0.62558074  1
