# generated using pymatgen
data_Fe2PO4F
_symmetry_space_group_name_H-M   'P 1'
_cell_length_a   6.60436213
_cell_length_b   7.37008991
_cell_length_c   9.57975873
_cell_angle_alpha   70.79316001
_cell_angle_beta   69.83627199
_cell_angle_gamma   63.38125353
_symmetry_Int_Tables_number   1
_chemical_formula_structural   Fe2PO4F
_chemical_formula_sum   'Fe8 P4 O16 F4'
_cell_volume   382.76321422
_cell_formula_units_Z   4
loop_
 _symmetry_equiv_pos_site_id
 _symmetry_equiv_pos_as_xyz
  1  'x, y, z'
loop_
 _atom_site_type_symbol
 _atom_site_label
 _atom_site_symmetry_multiplicity
 _atom_site_fract_x
 _atom_site_fract_y
 _atom_site_fract_z
 _atom_site_occupancy
  O  O0  1  0.42988696  0.22847841  0.69783185  1
  O  O1  1  0.57011204  0.77152159  0.30216915  1
  O  O2  1  0.85619722  0.27152159  0.80216915  1
  O  O3  1  0.14380278  0.72847941  0.19783085  1
  O  O4  1  0.85318722  0.09892544  0.13602705  1
  O  O5  1  0.58814071  0.40107456  0.36397295  1
  O  O6  1  0.14681178  0.90107456  0.86397195  1
  O  O7  1  0.41185929  0.59892644  0.63602705  1
  O  O8  1  0.04162751  0.98723702  0.35582179  1
  O  O9  1  0.27784633  0.03164322  0.08109147  1
  O  O10  1  0.95837349  0.01276198  0.64417821  1
  O  O11  1  0.11531468  0.48723802  0.85582179  1
  O  O12  1  0.10941798  0.53164322  0.58109147  1
  O  O13  1  0.72215267  0.96835578  0.91890753  1
  O  O14  1  0.89058302  0.46835678  0.41890853  1
  O  O15  1  0.88468632  0.51276098  0.14417821  1
  F  F16  1  0.59202399  0.64012471  0.89449544  1
  F  F17  1  0.62664314  0.85987429  0.60550556  1
  F  F18  1  0.40797701  0.35987429  0.10550556  1
  F  F19  1  0.37335586  0.14012571  0.39449444  1
  P  P20  1  0.08057556  0.95992860  0.19371650  1
  P  P21  1  0.73422066  0.54007240  0.30628350  1
  P  P22  1  0.91942444  0.04007140  0.80628350  1
  P  P23  1  0.26578034  0.45992860  0.69371650  1
  Fe  Fe24  1  0.44498223  0.95752764  0.85850782  1
  Fe  Fe25  1  0.23898331  0.45752864  0.35850782  1
  Fe  Fe26  1  0.55501877  0.04247336  0.14149118  1
  Fe  Fe27  1  0.76101669  0.54247236  0.64149118  1
  Fe  Fe28  1  0.28251052  0.88485164  0.49342847  1
  Fe  Fe29  1  0.16079163  0.61514936  0.00657153  1
  Fe  Fe30  1  0.71748848  0.11514836  0.50657153  1
  Fe  Fe31  1  0.83920837  0.38485164  0.99342747  1
