# generated using pymatgen
data_Er2Au5F21
_symmetry_space_group_name_H-M   'P 1'
_cell_length_a   8.05867227
_cell_length_b   9.11018264
_cell_length_c   12.05770289
_cell_angle_alpha   89.17260415
_cell_angle_beta   88.84653441
_cell_angle_gamma   88.79387997
_symmetry_Int_Tables_number   1
_chemical_formula_structural   Er2Au5F21
_chemical_formula_sum   'Er4 Au10 F42'
_cell_volume   884.76555893
_cell_formula_units_Z   2
loop_
 _symmetry_equiv_pos_site_id
 _symmetry_equiv_pos_as_xyz
  1  'x, y, z'
loop_
 _atom_site_type_symbol
 _atom_site_label
 _atom_site_symmetry_multiplicity
 _atom_site_fract_x
 _atom_site_fract_y
 _atom_site_fract_z
 _atom_site_occupancy
  Au  Au0  1  0.17381962  0.27720844  0.59536017  1
  Au  Au1  1  0.82618038  0.72279156  0.40463983  1
  Er  Er2  1  0.67154383  0.31698917  0.49601398  1
  Er  Er3  1  0.32845617  0.68301083  0.50398602  1
  Au  Au4  1  0.55878853  0.50849748  0.79050361  1
  Au  Au5  1  0.44121147  0.49150252  0.20949639  1
  Au  Au6  1  0.83665969  0.77578941  0.09351680  1
  Au  Au7  1  0.16334031  0.22421059  0.90648320  1
  Au  Au8  1  0.44091441  0.01474167  0.29575636  1
  Au  Au9  1  0.55908559  0.98525833  0.70424364  1
  Au  Au10  1  0.01915273  0.24973562  0.24495059  1
  Au  Au11  1  0.98084727  0.75026438  0.75504941  1
  Er  Er12  1  0.66461217  0.18200362  0.00058033  1
  Er  Er13  1  0.33538783  0.81799638  0.99941967  1
  F  F14  1  0.68832460  0.40696971  0.67323656  1
  F  F15  1  0.31167540  0.59303029  0.32676344  1
  F  F16  1  0.85942297  0.25547115  0.12097156  1
  F  F17  1  0.14057703  0.74452885  0.87902844  1
  F  F18  1  0.70035280  0.39969789  0.89652040  1
  F  F19  1  0.29964720  0.60030211  0.10347960  1
  F  F20  1  0.14211501  0.41440531  0.83334368  1
  F  F21  1  0.85788499  0.58559469  0.16665632  1
  F  F22  1  0.66003386  0.10438198  0.81842606  1
  F  F23  1  0.33996614  0.89561802  0.18157394  1
  F  F24  1  0.50000000  0.00000000  0.00000000  1
  F  F25  1  0.52339627  0.13229275  0.41853703  1
  F  F26  1  0.47660373  0.86770725  0.58146297  1
  F  F27  1  0.93153616  0.27842601  0.57604196  1
  F  F28  1  0.06846384  0.72157399  0.42395804  1
  F  F29  1  0.50000000  0.50000000  0.50000000  1
  F  F30  1  0.18503451  0.24443126  0.35954593  1
  F  F31  1  0.81496549  0.75556874  0.64045407  1
  F  F32  1  0.84319062  0.22530745  0.36106980  1
  F  F33  1  0.15680938  0.77469255  0.63893020  1
  F  F34  1  0.82812655  0.51276183  0.45537530  1
  F  F35  1  0.17187345  0.48723817  0.54462470  1
  F  F36  1  0.70031249  0.09228316  0.59645308  1
  F  F37  1  0.29968751  0.90771684  0.40354692  1
  F  F38  1  0.16826449  0.07869423  0.65449645  1
  F  F39  1  0.83173551  0.92130577  0.34550355  1
  F  F40  1  0.58321380  0.73534472  0.38513224  1
  F  F41  1  0.41678620  0.26465528  0.61486776  1
  F  F42  1  0.58811146  0.38518220  0.31206140  1
  F  F43  1  0.41188854  0.61481780  0.68793860  1
  F  F44  1  0.44406871  0.61212097  0.91289206  1
  F  F45  1  0.55593129  0.38787903  0.08710794  1
  F  F46  1  0.17715691  0.02322364  0.97397452  1
  F  F47  1  0.82284309  0.97677636  0.02602548  1
  F  F48  1  0.41637006  0.88010033  0.81209378  1
  F  F49  1  0.58362994  0.11989967  0.18790622  1
  F  F50  1  0.92267488  0.19721086  0.89829063  1
  F  F51  1  0.07732512  0.80278914  0.10170937  1
  F  F52  1  0.40506935  0.25736839  0.91174108  1
  F  F53  1  0.59493065  0.74263161  0.08825892  1
  F  F54  1  0.80067844  0.72944969  0.86315371  1
  F  F55  1  0.19932156  0.27055031  0.13684629  1
