# generated using pymatgen
data_Ho2Au5F21
_symmetry_space_group_name_H-M   'P 1'
_cell_length_a   8.07586809
_cell_length_b   9.14852683
_cell_length_c   12.08798718
_cell_angle_alpha   89.21968687
_cell_angle_beta   88.99817643
_cell_angle_gamma   88.97688817
_symmetry_Int_Tables_number   1
_chemical_formula_structural   Ho2Au5F21
_chemical_formula_sum   'Ho4 Au10 F42'
_cell_volume   892.73027325
_cell_formula_units_Z   2
loop_
 _symmetry_equiv_pos_site_id
 _symmetry_equiv_pos_as_xyz
  1  'x, y, z'
loop_
 _atom_site_type_symbol
 _atom_site_label
 _atom_site_symmetry_multiplicity
 _atom_site_fract_x
 _atom_site_fract_y
 _atom_site_fract_z
 _atom_site_occupancy
  Au  Au0  1  0.17372754  0.27734582  0.59448724  1
  Au  Au1  1  0.82627246  0.72265418  0.40551276  1
  Ho  Ho2  1  0.67098683  0.31683250  0.49630892  1
  Ho  Ho3  1  0.32901317  0.68316750  0.50369108  1
  Au  Au4  1  0.55948078  0.50864557  0.79095425  1
  Au  Au5  1  0.44051922  0.49135443  0.20904575  1
  Au  Au6  1  0.83497480  0.77660735  0.09356107  1
  Au  Au7  1  0.16502520  0.22339265  0.90643893  1
  Au  Au8  1  0.44036866  0.01498047  0.29515832  1
  Au  Au9  1  0.55963134  0.98501953  0.70484168  1
  Au  Au10  1  0.01855778  0.25020971  0.24561595  1
  Au  Au11  1  0.98144222  0.74979029  0.75438405  1
  Ho  Ho12  1  0.66480251  0.18270572  0.00088135  1
  Ho  Ho13  1  0.33519749  0.81729428  0.99911865  1
  F  F14  1  0.68655859  0.40621500  0.67404778  1
  F  F15  1  0.31344141  0.59378500  0.32595222  1
  F  F16  1  0.85762439  0.25941030  0.12267346  1
  F  F17  1  0.14237561  0.74058970  0.87732654  1
  F  F18  1  0.70176192  0.40048269  0.89610655  1
  F  F19  1  0.29823808  0.59951731  0.10389345  1
  F  F20  1  0.14474382  0.41432289  0.83621320  1
  F  F21  1  0.85525618  0.58567711  0.16378680  1
  F  F22  1  0.66453407  0.10081590  0.81901883  1
  F  F23  1  0.33546593  0.89918410  0.18098117  1
  F  F24  1  0.50000000  0.00000000  0.00000000  1
  F  F25  1  0.52588259  0.13079086  0.41753997  1
  F  F26  1  0.47411741  0.86920914  0.58246003  1
  F  F27  1  0.93163923  0.27875008  0.57660962  1
  F  F28  1  0.06836077  0.72124992  0.42339038  1
  F  F29  1  0.50000000  0.50000000  0.50000000  1
  F  F30  1  0.18480467  0.24327537  0.35971088  1
  F  F31  1  0.81519533  0.75672463  0.64028912  1
  F  F32  1  0.84416024  0.22625969  0.36192410  1
  F  F33  1  0.15583976  0.77374031  0.63807590  1
  F  F34  1  0.82749408  0.51454489  0.45820940  1
  F  F35  1  0.17250592  0.48545511  0.54179060  1
  F  F36  1  0.69966170  0.09253748  0.59755142  1
  F  F37  1  0.30033830  0.90746252  0.40244858  1
  F  F38  1  0.16762354  0.08055007  0.65503412  1
  F  F39  1  0.83237646  0.91944993  0.34496588  1
  F  F40  1  0.58372025  0.73522306  0.38676612  1
  F  F41  1  0.41627975  0.26477694  0.61323388  1
  F  F42  1  0.58906919  0.38683088  0.31107762  1
  F  F43  1  0.41093081  0.61316912  0.68892238  1
  F  F44  1  0.44948686  0.61313007  0.91385028  1
  F  F45  1  0.55051314  0.38686993  0.08614972  1
  F  F46  1  0.17738978  0.02128545  0.97016318  1
  F  F47  1  0.82261022  0.97871455  0.02983682  1
  F  F48  1  0.41684656  0.87963745  0.81164609  1
  F  F49  1  0.58315344  0.12036255  0.18835391  1
  F  F50  1  0.92418570  0.19897265  0.90099184  1
  F  F51  1  0.07581430  0.80102735  0.09900816  1
  F  F52  1  0.40712720  0.25440859  0.90933784  1
  F  F53  1  0.59287280  0.74559141  0.09066216  1
  F  F54  1  0.80246363  0.73082368  0.86272477  1
  F  F55  1  0.19753637  0.26917632  0.13727523  1
