# generated using pymatgen
data_K3FeSe3
_symmetry_space_group_name_H-M   'P 1'
_cell_length_a   8.12892954
_cell_length_b   8.52212924
_cell_length_c   13.03077308
_cell_angle_alpha   90.00000000
_cell_angle_beta   90.00000000
_cell_angle_gamma   101.60180997
_symmetry_Int_Tables_number   1
_chemical_formula_structural   K3FeSe3
_chemical_formula_sum   'K12 Fe4 Se12'
_cell_volume   884.27356887
_cell_formula_units_Z   4
loop_
 _symmetry_equiv_pos_site_id
 _symmetry_equiv_pos_as_xyz
  1  'x, y, z'
loop_
 _atom_site_type_symbol
 _atom_site_label
 _atom_site_symmetry_multiplicity
 _atom_site_fract_x
 _atom_site_fract_y
 _atom_site_fract_z
 _atom_site_occupancy
  K  K0  1  0.28917074  0.41793841  0.81040152  1
  K  K1  1  0.74363466  0.39744782  0.92008423  1
  K  K2  1  0.13899710  0.52295354  0.37132752  1
  K  K3  1  0.86100290  0.47704646  0.62867248  1
  K  K4  1  0.63899710  0.02295354  0.12867248  1
  K  K5  1  0.75636534  0.10255218  0.42008423  1
  K  K6  1  0.36100290  0.97704646  0.87132752  1
  K  K7  1  0.25636534  0.60255218  0.07991577  1
  K  K8  1  0.78917074  0.91793841  0.68959848  1
  K  K9  1  0.24363466  0.89744782  0.57991577  1
  K  K10  1  0.71082926  0.58206159  0.18959848  1
  K  K11  1  0.21082926  0.08206159  0.31040152  1
  Fe  Fe12  1  0.40860799  0.34813930  0.55688576  1
  Fe  Fe13  1  0.09139201  0.15186070  0.05688576  1
  Fe  Fe14  1  0.59139201  0.65186070  0.44311424  1
  Fe  Fe15  1  0.90860799  0.84813930  0.94311424  1
  Se  Se16  1  0.53056082  0.37499252  0.38795712  1
  Se  Se17  1  0.11417792  0.24041020  0.54863846  1
  Se  Se18  1  0.95834286  0.30828767  0.17250070  1
  Se  Se19  1  0.46943918  0.62500748  0.61204288  1
  Se  Se20  1  0.96943918  0.12500748  0.88795712  1
  Se  Se21  1  0.04165714  0.69171233  0.82749930  1
  Se  Se22  1  0.88582208  0.75958980  0.45136154  1
  Se  Se23  1  0.54165714  0.19171233  0.67250070  1
  Se  Se24  1  0.03056082  0.87499252  0.11204288  1
  Se  Se25  1  0.38582208  0.25958980  0.04863846  1
  Se  Se26  1  0.61417792  0.74041020  0.95136154  1
  Se  Se27  1  0.45834286  0.80828767  0.32749930  1
