# generated using pymatgen
data_Sr3GaSb3
_symmetry_space_group_name_H-M   'P 1'
_cell_length_a   11.83728722
_cell_length_b   11.85945042
_cell_length_c   14.78414385
_cell_angle_alpha   90.00000000
_cell_angle_beta   90.00000000
_cell_angle_gamma   109.88036272
_symmetry_Int_Tables_number   1
_chemical_formula_structural   Sr3GaSb3
_chemical_formula_sum   'Sr24 Ga8 Sb24'
_cell_volume   1951.76593833
_cell_formula_units_Z   8
loop_
 _symmetry_equiv_pos_site_id
 _symmetry_equiv_pos_as_xyz
  1  'x, y, z'
loop_
 _atom_site_type_symbol
 _atom_site_label
 _atom_site_symmetry_multiplicity
 _atom_site_fract_x
 _atom_site_fract_y
 _atom_site_fract_z
 _atom_site_occupancy
  Sr  Sr0  1  0.41314114  0.33586026  0.43319829  1
  Sr  Sr1  1  0.31256187  0.90858845  0.28334727  1
  Sr  Sr2  1  0.68743813  0.09141155  0.71665273  1
  Sr  Sr3  1  0.52128768  0.65800125  0.25012696  1
  Sr  Sr4  1  0.32705633  0.97704677  0.57544722  1
  Sr  Sr5  1  0.97871232  0.84199875  0.75012696  1
  Sr  Sr6  1  0.45770365  0.31836229  0.07111380  1
  Sr  Sr7  1  0.58685886  0.66413974  0.56680171  1
  Sr  Sr8  1  0.34350179  0.96194008  0.90457453  1
  Sr  Sr9  1  0.02128768  0.15800125  0.24987304  1
  Sr  Sr10  1  0.84350179  0.46194008  0.59542547  1
  Sr  Sr11  1  0.81256187  0.40858845  0.21665273  1
  Sr  Sr12  1  0.54229635  0.68163771  0.92888620  1
  Sr  Sr13  1  0.65649821  0.03805992  0.09542547  1
  Sr  Sr14  1  0.82705633  0.47704677  0.92455278  1
  Sr  Sr15  1  0.17294367  0.52295323  0.07544722  1
  Sr  Sr16  1  0.47871232  0.34199875  0.74987304  1
  Sr  Sr17  1  0.95770365  0.81836229  0.42888620  1
  Sr  Sr18  1  0.08685886  0.16413974  0.93319829  1
  Sr  Sr19  1  0.91314114  0.83586026  0.06680171  1
  Sr  Sr20  1  0.67294367  0.02295323  0.42455278  1
  Sr  Sr21  1  0.15649821  0.53805992  0.40457453  1
  Sr  Sr22  1  0.18743813  0.59141155  0.78334727  1
  Sr  Sr23  1  0.04229635  0.18163771  0.57111380  1
  Ga  Ga24  1  0.19214284  0.32166285  0.75493131  1
  Ga  Ga25  1  0.31692975  0.68846705  0.59123390  1
  Ga  Ga26  1  0.68307025  0.31153295  0.40876610  1
  Ga  Ga27  1  0.81692975  0.18846705  0.90876610  1
  Ga  Ga28  1  0.30785716  0.17833715  0.25493131  1
  Ga  Ga29  1  0.80785716  0.67833715  0.24506869  1
  Ga  Ga30  1  0.69214284  0.82166285  0.74506869  1
  Ga  Ga31  1  0.18307025  0.81153295  0.09123390  1
  Sb  Sb32  1  0.20554778  0.05043866  0.09946180  1
  Sb  Sb33  1  0.59496649  0.20441625  0.90643380  1
  Sb  Sb34  1  0.18813868  0.07350019  0.40962222  1
  Sb  Sb35  1  0.21095676  0.10054907  0.74147951  1
  Sb  Sb36  1  0.71095676  0.60054907  0.75852049  1
  Sb  Sb37  1  0.68813868  0.57350019  0.09037778  1
  Sb  Sb38  1  0.79445222  0.94956134  0.90053820  1
  Sb  Sb39  1  0.07622790  0.72641810  0.93263144  1
  Sb  Sb40  1  0.42377210  0.77358190  0.43263144  1
  Sb  Sb41  1  0.54588756  0.17914958  0.26232193  1
  Sb  Sb42  1  0.31186132  0.42649981  0.90962222  1
  Sb  Sb43  1  0.95411244  0.32085042  0.76232193  1
  Sb  Sb44  1  0.04588756  0.67914958  0.23767807  1
  Sb  Sb45  1  0.78904324  0.89945093  0.25852049  1
  Sb  Sb46  1  0.09496649  0.70441625  0.59356620  1
  Sb  Sb47  1  0.81186132  0.92649981  0.59037778  1
  Sb  Sb48  1  0.70554778  0.55043866  0.40053820  1
  Sb  Sb49  1  0.29445222  0.44956134  0.59946180  1
  Sb  Sb50  1  0.90503351  0.29558375  0.40643380  1
  Sb  Sb51  1  0.57622790  0.22641810  0.56736856  1
  Sb  Sb52  1  0.28904324  0.39945093  0.24147951  1
  Sb  Sb53  1  0.40503351  0.79558375  0.09356620  1
  Sb  Sb54  1  0.45411244  0.82085042  0.73767807  1
  Sb  Sb55  1  0.92377210  0.27358190  0.06736856  1
