# generated using pymatgen
data_HoNiGe
_symmetry_space_group_name_H-M   'P 1'
_cell_length_a   4.22556944
_cell_length_b   6.89840156
_cell_length_c   7.27561252
_cell_angle_alpha   90.00000000
_cell_angle_beta   90.00000000
_cell_angle_gamma   90.00000000
_symmetry_Int_Tables_number   1
_chemical_formula_structural   HoNiGe
_chemical_formula_sum   'Ho4 Ni4 Ge4'
_cell_volume   212.08173905
_cell_formula_units_Z   4
loop_
 _symmetry_equiv_pos_site_id
 _symmetry_equiv_pos_as_xyz
  1  'x, y, z'
loop_
 _atom_site_type_symbol
 _atom_site_label
 _atom_site_symmetry_multiplicity
 _atom_site_fract_x
 _atom_site_fract_y
 _atom_site_fract_z
 _atom_site_occupancy
  Ho  Ho0  1  0.75000000  0.00809240  0.29293713  1
  Ho  Ho1  1  0.25000000  0.49190760  0.79293713  1
  Ho  Ho2  1  0.75000000  0.50809240  0.20706287  1
  Ho  Ho3  1  0.25000000  0.99190760  0.70706287  1
  Ni  Ni4  1  0.75000000  0.80321728  0.91899262  1
  Ni  Ni5  1  0.25000000  0.19678272  0.08100738  1
  Ni  Ni6  1  0.25000000  0.69678272  0.41899262  1
  Ni  Ni7  1  0.75000000  0.30321728  0.58100738  1
  Ge  Ge8  1  0.25000000  0.80357115  0.08930878  1
  Ge  Ge9  1  0.75000000  0.69642885  0.58930878  1
  Ge  Ge10  1  0.25000000  0.30357115  0.41069122  1
  Ge  Ge11  1  0.75000000  0.19642885  0.91069122  1
