# generated using pymatgen
data_Na9Sn4
_symmetry_space_group_name_H-M   'P 1'
_cell_length_a   5.45353901
_cell_length_b   5.45234277
_cell_length_c   29.30185361
_cell_angle_alpha   90.00000000
_cell_angle_beta   90.00000000
_cell_angle_gamma   120.00725217
_symmetry_Int_Tables_number   1
_chemical_formula_structural   Na9Sn4
_chemical_formula_sum   'Na18 Sn8'
_cell_volume   754.49359708
_cell_formula_units_Z   2
loop_
 _symmetry_equiv_pos_site_id
 _symmetry_equiv_pos_as_xyz
  1  'x, y, z'
loop_
 _atom_site_type_symbol
 _atom_site_label
 _atom_site_symmetry_multiplicity
 _atom_site_fract_x
 _atom_site_fract_y
 _atom_site_fract_z
 _atom_site_occupancy
  Na  Na0  1  0.83182251  0.66364503  0.75000000  1
  Na  Na1  1  0.16817749  0.33635497  0.25000000  1
  Na  Na2  1  0.16847643  0.33695287  0.59170542  1
  Na  Na3  1  0.83152357  0.66304713  0.40829458  1
  Na  Na4  1  0.83152357  0.66304713  0.09170542  1
  Na  Na5  1  0.16847643  0.33695287  0.90829458  1
  Na  Na6  1  0.50097527  0.00194954  0.82370030  1
  Na  Na7  1  0.49902473  0.99805046  0.17629970  1
  Na  Na8  1  0.49902473  0.99805046  0.32370030  1
  Na  Na9  1  0.50097527  0.00194954  0.67629970  1
  Na  Na10  1  0.16379856  0.32759711  0.36449473  1
  Na  Na11  1  0.83620144  0.67240289  0.63550527  1
  Na  Na12  1  0.83620144  0.67240289  0.86449473  1
  Na  Na13  1  0.16379856  0.32759711  0.13550527  1
  Na  Na14  1  0.16661861  0.33323623  0.47977763  1
  Na  Na15  1  0.83338139  0.66676377  0.52022237  1
  Na  Na16  1  0.83338139  0.66676377  0.97977763  1
  Na  Na17  1  0.16661861  0.33323623  0.02022237  1
  Sn  Sn18  1  0.16671488  0.33342977  0.79858907  1
  Sn  Sn19  1  0.83328512  0.66657023  0.20141093  1
  Sn  Sn20  1  0.83328512  0.66657023  0.29858907  1
  Sn  Sn21  1  0.16671488  0.33342977  0.70141093  1
  Sn  Sn22  1  0.50022485  0.00044970  0.94897966  1
  Sn  Sn23  1  0.49977515  0.99955030  0.05102034  1
  Sn  Sn24  1  0.49977515  0.99955030  0.44897966  1
  Sn  Sn25  1  0.50022485  0.00044970  0.55102034  1
