# generated using pymatgen
data_Ba3ZnIr2O9
_symmetry_space_group_name_H-M   'P 1'
_cell_length_a   5.85980257
_cell_length_b   5.85980246
_cell_length_c   14.47813832
_cell_angle_alpha   90.00000000
_cell_angle_beta   90.00000000
_cell_angle_gamma   120.00000066
_symmetry_Int_Tables_number   1
_chemical_formula_structural   Ba3ZnIr2O9
_chemical_formula_sum   'Ba6 Zn2 Ir4 O18'
_cell_volume   430.53583990
_cell_formula_units_Z   2
loop_
 _symmetry_equiv_pos_site_id
 _symmetry_equiv_pos_as_xyz
  1  'x, y, z'
loop_
 _atom_site_type_symbol
 _atom_site_label
 _atom_site_symmetry_multiplicity
 _atom_site_fract_x
 _atom_site_fract_y
 _atom_site_fract_z
 _atom_site_occupancy
  Ba  Ba0  1  0.33333300  0.66666700  0.91278598  1
  Ba  Ba1  1  0.66666700  0.33333300  0.08721402  1
  Ba  Ba2  1  -0.00000000  0.00000000  0.25000000  1
  Ba  Ba3  1  0.33333300  0.66666700  0.58721402  1
  Ba  Ba4  1  0.66666700  0.33333300  0.41278598  1
  Ba  Ba5  1  -0.00000000  0.00000000  0.75000000  1
  Zn  Zn6  1  -0.00000000  0.00000000  0.00000000  1
  Zn  Zn7  1  -0.00000000  0.00000000  0.50000000  1
  Ir  Ir8  1  0.33333300  0.66666700  0.34341054  1
  Ir  Ir9  1  0.66666700  0.33333300  0.65658946  1
  Ir  Ir10  1  0.33333300  0.66666700  0.15658946  1
  Ir  Ir11  1  0.66666700  0.33333300  0.84341054  1
  O  O12  1  0.51495540  0.48504460  0.75000000  1
  O  O13  1  0.65776840  0.82888420  0.08285474  1
  O  O14  1  0.17111580  0.34223160  0.08285474  1
  O  O15  1  0.48504460  0.97008920  0.25000000  1
  O  O16  1  0.65776840  0.82888420  0.41714526  1
  O  O17  1  0.82888420  0.65776840  0.58285474  1
  O  O18  1  0.34223160  0.17111580  0.91714526  1
  O  O19  1  0.51495540  0.02991080  0.75000000  1
  O  O20  1  0.17111580  0.82888420  0.41714526  1
  O  O21  1  0.82888420  0.17111580  0.58285474  1
  O  O22  1  0.82888420  0.17111580  0.91714526  1
  O  O23  1  0.17111580  0.34223160  0.41714526  1
  O  O24  1  0.34223160  0.17111580  0.58285474  1
  O  O25  1  0.97008920  0.48504460  0.75000000  1
  O  O26  1  0.82888420  0.65776840  0.91714526  1
  O  O27  1  0.17111580  0.82888420  0.08285474  1
  O  O28  1  0.02991080  0.51495540  0.25000000  1
  O  O29  1  0.48504460  0.51495540  0.25000000  1
