# generated using pymatgen
data_SrTi(PO4)2
_symmetry_space_group_name_H-M   'P 1'
_cell_length_a   5.49568144
_cell_length_b   7.23009301
_cell_length_c   9.22316824
_cell_angle_alpha   108.47883417
_cell_angle_beta   101.72808610
_cell_angle_gamma   98.52265503
_symmetry_Int_Tables_number   1
_chemical_formula_structural   SrTi(PO4)2
_chemical_formula_sum   'Sr2 Ti2 P4 O16'
_cell_volume   331.28357025
_cell_formula_units_Z   2
loop_
 _symmetry_equiv_pos_site_id
 _symmetry_equiv_pos_as_xyz
  1  'x, y, z'
loop_
 _atom_site_type_symbol
 _atom_site_label
 _atom_site_symmetry_multiplicity
 _atom_site_fract_x
 _atom_site_fract_y
 _atom_site_fract_z
 _atom_site_occupancy
  Sr  Sr0  1  0.23880571  0.76943373  0.04277239  1
  Sr  Sr1  1  0.76119429  0.23056627  0.95722761  1
  Ti  Ti2  1  0.66027896  0.83675769  0.55944789  1
  Ti  Ti3  1  0.33972104  0.16324231  0.44055211  1
  P  P4  1  0.41947341  0.43643822  0.23031202  1
  P  P5  1  0.58052659  0.56356178  0.76968798  1
  P  P6  1  0.84398792  0.03400961  0.30475304  1
  P  P7  1  0.15601208  0.96599039  0.69524696  1
  O  O8  1  0.82524536  0.55335753  0.87550989  1
  O  O9  1  0.64911106  0.46145745  0.16834081  1
  O  O10  1  0.62019624  0.76614936  0.73389231  1
  O  O11  1  0.94445852  0.09089012  0.69446388  1
  O  O12  1  0.35088894  0.53854255  0.83165919  1
  O  O13  1  0.98358303  0.75842549  0.57308407  1
  O  O14  1  0.01641697  0.24157451  0.42691593  1
  O  O15  1  0.27906042  0.98349841  0.86327799  1
  O  O16  1  0.37980476  0.23385064  0.26610769  1
  O  O17  1  0.72093958  0.01650159  0.13672201  1
  O  O18  1  0.17475464  0.44664247  0.12449011  1
  O  O19  1  0.47213789  0.60903481  0.39939163  1
  O  O20  1  0.52786211  0.39096519  0.60060837  1
  O  O21  1  0.62275617  0.97557784  0.38197831  1
  O  O22  1  0.05554148  0.90910988  0.30553612  1
  O  O23  1  0.37724383  0.02442216  0.61802169  1
