# generated using pymatgen
data_K3La(PSe4)2
_symmetry_space_group_name_H-M   'P 1'
_cell_length_a   9.67543619
_cell_length_b   10.16086893
_cell_length_c   18.07729114
_cell_angle_alpha   90.00000000
_cell_angle_beta   90.00000000
_cell_angle_gamma   89.53329392
_symmetry_Int_Tables_number   1
_chemical_formula_structural   K3La(PSe4)2
_chemical_formula_sum   'K12 La4 P8 Se32'
_cell_volume   1777.13469939
_cell_formula_units_Z   4
loop_
 _symmetry_equiv_pos_site_id
 _symmetry_equiv_pos_as_xyz
  1  'x, y, z'
loop_
 _atom_site_type_symbol
 _atom_site_label
 _atom_site_symmetry_multiplicity
 _atom_site_fract_x
 _atom_site_fract_y
 _atom_site_fract_z
 _atom_site_occupancy
  La  La0  1  0.77403760  0.02925421  0.98641476  1
  La  La1  1  0.22596240  0.47074579  0.48641476  1
  La  La2  1  0.22596240  0.97074579  0.01358524  1
  La  La3  1  0.77403760  0.52925421  0.51358524  1
  Se  Se4  1  0.03514066  0.02984503  0.87453694  1
  Se  Se5  1  0.96485934  0.47015497  0.37453694  1
  Se  Se6  1  0.96485934  0.97015497  0.12546306  1
  Se  Se7  1  0.03514066  0.52984503  0.62546306  1
  Se  Se8  1  0.94277256  0.74717535  0.98190726  1
  Se  Se9  1  0.05722744  0.75282465  0.48190726  1
  Se  Se10  1  0.05722744  0.25282465  0.01809274  1
  Se  Se11  1  0.94277256  0.24717535  0.51809274  1
  Se  Se12  1  0.46213007  0.17885954  0.97639230  1
  Se  Se13  1  0.53786993  0.32114046  0.47639230  1
  Se  Se14  1  0.53786993  0.82114046  0.02360770  1
  Se  Se15  1  0.46213007  0.67885954  0.52360770  1
  Se  Se16  1  0.69113531  0.17284395  0.13087979  1
  Se  Se17  1  0.30886469  0.32715605  0.63087979  1
  Se  Se18  1  0.30886469  0.82715605  0.86912021  1
  Se  Se19  1  0.69113531  0.67284395  0.36912021  1
  Se  Se20  1  0.78089313  0.27829197  0.88530290  1
  Se  Se21  1  0.21910687  0.22170803  0.38530290  1
  Se  Se22  1  0.21910687  0.72170803  0.11469710  1
  Se  Se23  1  0.78089313  0.77829197  0.61469710  1
  Se  Se24  1  0.12570288  0.36614930  0.81992968  1
  Se  Se25  1  0.87429712  0.13385070  0.31992968  1
  Se  Se26  1  0.87429712  0.63385070  0.18007032  1
  Se  Se27  1  0.12570288  0.86614930  0.68007032  1
  Se  Se28  1  0.42938066  0.42919174  0.12585240  1
  Se  Se29  1  0.57061934  0.07080826  0.62585240  1
  Se  Se30  1  0.57061934  0.57080826  0.87414760  1
  Se  Se31  1  0.42938066  0.92919174  0.37414760  1
  Se  Se32  1  0.66967177  0.90964787  0.84175895  1
  Se  Se33  1  0.33032823  0.59035213  0.34175895  1
  Se  Se34  1  0.33032823  0.09035213  0.15824105  1
  Se  Se35  1  0.66967177  0.40964787  0.65824105  1
  K  K36  1  0.87929727  0.62702761  0.79330878  1
  K  K37  1  0.12070273  0.87297239  0.29330878  1
  K  K38  1  0.12070273  0.37297239  0.20669122  1
  K  K39  1  0.87929727  0.12702761  0.70669122  1
  P  P40  1  0.47417584  0.22274906  0.09821208  1
  P  P41  1  0.52582416  0.27725094  0.59821208  1
  P  P42  1  0.52582416  0.77725094  0.90178792  1
  P  P43  1  0.47417584  0.72274906  0.40178792  1
  K  K44  1  0.61797540  0.37395800  0.28549376  1
  K  K45  1  0.38202460  0.12604200  0.78549376  1
  K  K46  1  0.38202460  0.62604200  0.71450624  1
  K  K47  1  0.61797540  0.87395800  0.21450624  1
  P  P48  1  0.00659201  0.24586396  0.89741467  1
  P  P49  1  0.99340799  0.25413604  0.39741467  1
  P  P50  1  0.99340799  0.75413604  0.10258533  1
  P  P51  1  0.00659201  0.74586396  0.60258533  1
  K  K52  1  0.73034734  0.48686662  0.03222885  1
  K  K53  1  0.26965266  0.01313338  0.53222885  1
  K  K54  1  0.26965266  0.51313338  0.96777115  1
  K  K55  1  0.73034734  0.98686662  0.46777115  1
