# generated using pymatgen
data_Sc5(Co2Si5)2
_symmetry_space_group_name_H-M   'P 1'
_cell_length_a   3.93698333
_cell_length_b   12.01438367
_cell_length_c   12.01438367
_cell_angle_alpha   90.00000000
_cell_angle_beta   90.00000000
_cell_angle_gamma   90.00000000
_symmetry_Int_Tables_number   1
_chemical_formula_structural   Sc5(Co2Si5)2
_chemical_formula_sum   'Sc10 Co8 Si20'
_cell_volume   568.28549250
_cell_formula_units_Z   2
loop_
 _symmetry_equiv_pos_site_id
 _symmetry_equiv_pos_as_xyz
  1  'x, y, z'
loop_
 _atom_site_type_symbol
 _atom_site_label
 _atom_site_symmetry_multiplicity
 _atom_site_fract_x
 _atom_site_fract_y
 _atom_site_fract_z
 _atom_site_occupancy
  Sc  Sc0  1  0.00000000  0.00000000  0.00000000  1
  Sc  Sc1  1  0.00000000  0.50000000  0.50000000  1
  Sc  Sc2  1  0.50000000  0.17612967  0.67612967  1
  Sc  Sc3  1  0.50000000  0.32387033  0.17612967  1
  Sc  Sc4  1  0.50000000  0.67612967  0.82387033  1
  Sc  Sc5  1  0.50000000  0.82387033  0.32387033  1
  Sc  Sc6  1  0.50000000  0.38848919  0.88848919  1
  Sc  Sc7  1  0.50000000  0.11151081  0.38848919  1
  Sc  Sc8  1  0.50000000  0.88848919  0.61151081  1
  Sc  Sc9  1  0.50000000  0.61151081  0.11151081  1
  Co  Co10  1  0.00000000  0.25411232  0.52399262  1
  Co  Co11  1  0.00000000  0.47600738  0.25411232  1
  Co  Co12  1  0.00000000  0.52399262  0.74588768  1
  Co  Co13  1  0.00000000  0.74588768  0.47600738  1
  Co  Co14  1  0.00000000  0.75411232  0.97600738  1
  Co  Co15  1  0.00000000  0.24588768  0.02399262  1
  Co  Co16  1  0.00000000  0.02399262  0.75411232  1
  Co  Co17  1  0.00000000  0.97600738  0.24588768  1
  Si  Si18  1  0.00000000  0.06843863  0.56843863  1
  Si  Si19  1  0.00000000  0.43156137  0.06843863  1
  Si  Si20  1  0.00000000  0.56843863  0.93156137  1
  Si  Si21  1  0.00000000  0.93156137  0.43156137  1
  Si  Si22  1  0.00000000  0.15681766  0.19801681  1
  Si  Si23  1  0.00000000  0.80198319  0.15681766  1
  Si  Si24  1  0.00000000  0.19801681  0.84318234  1
  Si  Si25  1  0.00000000  0.84318234  0.80198319  1
  Si  Si26  1  0.00000000  0.65681766  0.30198319  1
  Si  Si27  1  0.00000000  0.34318234  0.69801681  1
  Si  Si28  1  0.00000000  0.69801681  0.65681766  1
  Si  Si29  1  0.00000000  0.30198319  0.34318234  1
  Si  Si30  1  0.50000000  0.16404601  0.00220657  1
  Si  Si31  1  0.50000000  0.99779343  0.16404601  1
  Si  Si32  1  0.50000000  0.00220657  0.83595399  1
  Si  Si33  1  0.50000000  0.83595399  0.99779343  1
  Si  Si34  1  0.50000000  0.66404601  0.49779343  1
  Si  Si35  1  0.50000000  0.33595399  0.50220657  1
  Si  Si36  1  0.50000000  0.50220657  0.66404601  1
  Si  Si37  1  0.50000000  0.49779343  0.33595399  1
