# generated using pymatgen
data_V2Ni3O8
_symmetry_space_group_name_H-M   'P 1'
_cell_length_a   6.00482746
_cell_length_b   6.50798337
_cell_length_c   8.35516395
_cell_angle_alpha   90.00000000
_cell_angle_beta   90.00000000
_cell_angle_gamma   117.47381432
_symmetry_Int_Tables_number   1
_chemical_formula_structural   V2Ni3O8
_chemical_formula_sum   'V4 Ni6 O16'
_cell_volume   289.69042087
_cell_formula_units_Z   2
loop_
 _symmetry_equiv_pos_site_id
 _symmetry_equiv_pos_as_xyz
  1  'x, y, z'
loop_
 _atom_site_type_symbol
 _atom_site_label
 _atom_site_symmetry_multiplicity
 _atom_site_fract_x
 _atom_site_fract_y
 _atom_site_fract_z
 _atom_site_occupancy
  O  O0  1  0.11601577  0.76346241  0.49840422  1
  O  O1  1  0.35255337  0.23653759  0.50159578  1
  O  O2  1  0.38398423  0.23653759  0.99840422  1
  O  O3  1  0.14744663  0.76346241  0.00159578  1
  O  O4  1  0.88398423  0.23653759  0.50159578  1
  O  O5  1  0.64744663  0.76346241  0.49840422  1
  O  O6  1  0.61601577  0.76346241  0.00159578  1
  O  O7  1  0.85255337  0.23653759  0.99840422  1
  O  O8  1  0.50029428  0.00058855  0.74474876  1
  O  O9  1  0.49970572  0.99941145  0.25525124  1
  O  O10  1  0.24822131  0.49644262  0.77083104  1
  O  O11  1  0.75177869  0.50355738  0.22916896  1
  O  O12  1  0.25177869  0.50355738  0.27083104  1
  O  O13  1  0.74822131  0.49644262  0.72916896  1
  O  O14  1  0.00029428  0.00058855  0.75525124  1
  O  O15  1  0.99970572  0.99941145  0.24474876  1
  V  V16  1  0.87656726  0.75313452  0.61887590  1
  V  V17  1  0.12343274  0.24686548  0.38112410  1
  V  V18  1  0.62343274  0.24686548  0.11887590  1
  V  V19  1  0.37656726  0.75313452  0.88112410  1
  Ni  Ni20  1  0.38056863  0.26113726  0.75000000  1
  Ni  Ni21  1  0.11943137  0.73886274  0.25000000  1
  Ni  Ni22  1  0.61943137  0.73886274  0.25000000  1
  Ni  Ni23  1  0.88056863  0.26113726  0.75000000  1
  Ni  Ni24  1  0.50000000  0.00000000  0.50000000  1
  Ni  Ni25  1  0.00000000  0.00000000  0.00000000  1
