# generated using pymatgen
data_K6Co2O5
_symmetry_space_group_name_H-M   'P 1'
_cell_length_a   6.68489510
_cell_length_b   6.68489510
_cell_length_c   11.94830772
_cell_angle_alpha   90.00000000
_cell_angle_beta   90.00000000
_cell_angle_gamma   90.00000000
_symmetry_Int_Tables_number   1
_chemical_formula_structural   K6Co2O5
_chemical_formula_sum   'K12 Co4 O10'
_cell_volume   533.94385454
_cell_formula_units_Z   2
loop_
 _symmetry_equiv_pos_site_id
 _symmetry_equiv_pos_as_xyz
  1  'x, y, z'
loop_
 _atom_site_type_symbol
 _atom_site_label
 _atom_site_symmetry_multiplicity
 _atom_site_fract_x
 _atom_site_fract_y
 _atom_site_fract_z
 _atom_site_occupancy
  K  K0  1  0.50000000  0.50000000  0.71950048  1
  K  K1  1  0.00000000  -0.00000000  0.21950048  1
  K  K2  1  0.17989756  0.82010244  0.50000000  1
  K  K3  1  0.82010244  0.17989756  0.50000000  1
  K  K4  1  -0.00000000  0.50000000  0.75000000  1
  K  K5  1  0.32010244  0.32010244  -0.00000000  1
  K  K6  1  0.67989756  0.67989756  -0.00000000  1
  K  K7  1  -0.00000000  -0.00000000  0.78049952  1
  K  K8  1  0.50000000  -0.00000000  0.25000000  1
  K  K9  1  0.50000000  0.50000000  0.28049952  1
  K  K10  1  0.50000000  -0.00000000  0.75000000  1
  K  K11  1  0.00000000  0.50000000  0.25000000  1
  Co  Co12  1  0.20653105  0.79346895  -0.00000000  1
  Co  Co13  1  0.79346895  0.20653105  -0.00000000  1
  Co  Co14  1  0.29346895  0.29346895  0.50000000  1
  Co  Co15  1  0.70653105  0.70653105  0.50000000  1
  O  O16  1  0.78811432  0.78811432  0.36177780  1
  O  O17  1  -0.00000000  -0.00000000  -0.00000000  1
  O  O18  1  0.50000000  0.50000000  0.50000000  1
  O  O19  1  0.28811432  0.71188568  0.13822220  1
  O  O20  1  0.78811432  0.78811432  0.63822220  1
  O  O21  1  0.28811432  0.71188568  0.86177780  1
  O  O22  1  0.21188568  0.21188568  0.36177780  1
  O  O23  1  0.21188568  0.21188568  0.63822220  1
  O  O24  1  0.71188568  0.28811432  0.86177780  1
  O  O25  1  0.71188568  0.28811432  0.13822220  1
