# generated using pymatgen
data_NiP2(H4O5)2
_symmetry_space_group_name_H-M   'P 1'
_cell_length_a   5.33958488
_cell_length_b   7.20170082
_cell_length_c   9.91968039
_cell_angle_alpha   90.00000000
_cell_angle_beta   90.00000000
_cell_angle_gamma   93.91620185
_symmetry_Int_Tables_number   1
_chemical_formula_structural   NiP2(H4O5)2
_chemical_formula_sum   'Ni2 P4 H16 O20'
_cell_volume   380.56162189
_cell_formula_units_Z   2
loop_
 _symmetry_equiv_pos_site_id
 _symmetry_equiv_pos_as_xyz
  1  'x, y, z'
loop_
 _atom_site_type_symbol
 _atom_site_label
 _atom_site_symmetry_multiplicity
 _atom_site_fract_x
 _atom_site_fract_y
 _atom_site_fract_z
 _atom_site_occupancy
  Ni  Ni0  1  0.50000000  0.50000000  0.50000000  1
  Ni  Ni1  1  0.00000000  0.00000000  0.00000000  1
  P  P2  1  0.73925530  0.83546894  0.28359206  1
  P  P3  1  0.76074470  0.66453106  0.78359206  1
  P  P4  1  0.26074470  0.16453106  0.71640794  1
  P  P5  1  0.23925530  0.33546894  0.21640794  1
  O  O6  1  0.65081490  0.63914519  0.32920371  1
  O  O7  1  0.84918510  0.86085481  0.82920371  1
  O  O8  1  0.34918510  0.36085481  0.67079629  1
  O  O9  1  0.15081490  0.13914519  0.17079629  1
  O  O10  1  0.72610858  0.86410052  0.13100143  1
  O  O11  1  0.77389142  0.63589948  0.63100143  1
  O  O12  1  0.27389142  0.13589948  0.86899857  1
  O  O13  1  0.22610858  0.36410052  0.36899857  1
  O  O14  1  0.56824715  0.97106647  0.35978216  1
  O  O15  1  0.93175285  0.52893353  0.85978216  1
  O  O16  1  0.43175285  0.02893353  0.64021784  1
  O  O17  1  0.06824715  0.47106647  0.14021784  1
  O  O18  1  0.02116816  0.87766205  0.33245810  1
  O  O19  1  0.47883184  0.62233795  0.83245810  1
  O  O20  1  0.97883184  0.12233795  0.66754190  1
  O  O21  1  0.52116816  0.37766205  0.16754190  1
  O  O22  1  0.75552440  0.29452249  0.46434553  1
  O  O23  1  0.74447560  0.20547751  0.96434553  1
  O  O24  1  0.24447560  0.70547751  0.53565447  1
  O  O25  1  0.25552440  0.79452249  0.03565447  1
  H  H26  1  0.92135913  0.33917069  0.42311835  1
  H  H27  1  0.57864087  0.16082931  0.92311835  1
  H  H28  1  0.07864087  0.66082931  0.57688165  1
  H  H29  1  0.42135913  0.83917069  0.07688165  1
  H  H30  1  0.80876439  0.23527475  0.54963188  1
  H  H31  1  0.69123561  0.26472525  0.04963188  1
  H  H32  1  0.19123561  0.76472525  0.45036812  1
  H  H33  1  0.30876439  0.73527475  0.95036812  1
  H  H34  1  0.64241086  0.09631649  0.39050245  1
  H  H35  1  0.85758914  0.40368351  0.89050245  1
  H  H36  1  0.35758914  0.90368351  0.60949755  1
  H  H37  1  0.14241086  0.59631649  0.10949755  1
  H  H38  1  0.10485164  0.98686817  0.27808847  1
  H  H39  1  0.39514836  0.51313183  0.77808847  1
  H  H40  1  0.89514836  0.01313183  0.72191153  1
  H  H41  1  0.60485164  0.48686817  0.22191153  1
