# generated using pymatgen
data_Ca2Ta2CoO8
_symmetry_space_group_name_H-M   'P 1'
_cell_length_a   5.44967685
_cell_length_b   6.42586993
_cell_length_c   9.96700633
_cell_angle_alpha   108.68152787
_cell_angle_beta   91.36972963
_cell_angle_gamma   90.08888967
_symmetry_Int_Tables_number   1
_chemical_formula_structural   Ca2Ta2CoO8
_chemical_formula_sum   'Ca4 Ta4 Co2 O16'
_cell_volume   330.53430596
_cell_formula_units_Z   2
loop_
 _symmetry_equiv_pos_site_id
 _symmetry_equiv_pos_as_xyz
  1  'x, y, z'
loop_
 _atom_site_type_symbol
 _atom_site_label
 _atom_site_symmetry_multiplicity
 _atom_site_fract_x
 _atom_site_fract_y
 _atom_site_fract_z
 _atom_site_occupancy
  Ca  Ca0  1  0.75500495  0.45880812  0.58284504  1
  Ca  Ca1  1  0.74104295  0.87664113  0.41746598  1
  Ca  Ca2  1  0.24136025  0.53887772  0.41856939  1
  Ca  Ca3  1  0.25494933  0.12065276  0.58237294  1
  Ta  Ta4  1  0.74275202  0.25814739  0.22143575  1
  Ta  Ta5  1  0.75399865  0.03482182  0.77925725  1
  Ta  Ta6  1  0.25335316  0.74005739  0.77965606  1
  Ta  Ta7  1  0.24206231  0.96292597  0.22144470  1
  Co  Co8  1  0.74714984  0.63888231  0.00075978  1
  Co  Co9  1  0.24859558  0.35961048  0.00005609  1
  O  O10  1  0.07783813  0.19136883  0.13708059  1
  O  O11  1  0.41939266  0.05140363  0.86369520  1
  O  O12  1  0.91824203  0.80683924  0.86361208  1
  O  O13  1  0.57718703  0.94618091  0.13715673  1
  O  O14  1  0.57410102  0.41047376  0.11449558  1
  O  O15  1  0.92388235  0.29352135  0.88555018  1
  O  O16  1  0.42145679  0.58732409  0.88684332  1
  O  O17  1  0.07163555  0.70486738  0.11515266  1
  O  O18  1  0.48268160  0.24377182  0.36109991  1
  O  O19  1  0.01404632  0.88155185  0.63983181  1
  O  O20  1  0.33665878  0.84174811  0.36896851  1
  O  O21  1  0.15885128  0.47214963  0.63224037  1
  O  O22  1  0.65937826  0.15504644  0.63129017  1
  O  O23  1  0.83750023  0.52557154  0.36912535  1
  O  O24  1  0.98277894  0.11625888  0.36108608  1
  O  O25  1  0.51363100  0.75361446  0.63992350  1
