# generated using pymatgen
data_B2Pb6SO12
_symmetry_space_group_name_H-M   'P 1'
_cell_length_a   6.59568527
_cell_length_b   11.93821420
_cell_length_c   18.30832155
_cell_angle_alpha   90.00000000
_cell_angle_beta   90.00000000
_cell_angle_gamma   90.00000000
_symmetry_Int_Tables_number   1
_chemical_formula_structural   B2Pb6SO12
_chemical_formula_sum   'B8 Pb24 S4 O48'
_cell_volume   1441.61011965
_cell_formula_units_Z   4
loop_
 _symmetry_equiv_pos_site_id
 _symmetry_equiv_pos_as_xyz
  1  'x, y, z'
loop_
 _atom_site_type_symbol
 _atom_site_label
 _atom_site_symmetry_multiplicity
 _atom_site_fract_x
 _atom_site_fract_y
 _atom_site_fract_z
 _atom_site_occupancy
  B  B0  1  0.92113085  0.50329070  0.24616556  1
  B  B1  1  0.07886915  0.00329070  0.75383444  1
  B  B2  1  0.57886915  0.00329070  0.74616556  1
  B  B3  1  0.07886915  0.49670930  0.75383444  1
  B  B4  1  0.42113085  0.99670930  0.25383444  1
  B  B5  1  0.42113085  0.50329070  0.25383444  1
  B  B6  1  0.92113085  0.99670930  0.24616556  1
  B  B7  1  0.57886915  0.49670930  0.74616556  1
  Pb  Pb8  1  0.35559619  0.40739665  0.89475967  1
  Pb  Pb9  1  0.59629532  0.75000000  0.29937388  1
  Pb  Pb10  1  0.16814749  0.40500148  0.10627967  1
  Pb  Pb11  1  0.64440381  0.59260335  0.10524033  1
  Pb  Pb12  1  0.14440381  0.59260335  0.39475967  1
  Pb  Pb13  1  0.77492894  0.75000000  0.70940490  1
  Pb  Pb14  1  0.09629532  0.75000000  0.20062612  1
  Pb  Pb15  1  0.27492894  0.75000000  0.79059510  1
  Pb  Pb16  1  0.33185251  0.90500148  0.60627967  1
  Pb  Pb17  1  0.72507106  0.25000000  0.20940490  1
  Pb  Pb18  1  0.16814749  0.09499852  0.10627967  1
  Pb  Pb19  1  0.66814749  0.09499852  0.39372033  1
  Pb  Pb20  1  0.83185251  0.59499852  0.89372033  1
  Pb  Pb21  1  0.85559619  0.40739665  0.60524033  1
  Pb  Pb22  1  0.40370468  0.25000000  0.70062612  1
  Pb  Pb23  1  0.35559619  0.09260335  0.89475967  1
  Pb  Pb24  1  0.90370468  0.25000000  0.79937388  1
  Pb  Pb25  1  0.85559619  0.09260335  0.60524033  1
  Pb  Pb26  1  0.22507106  0.25000000  0.29059510  1
  Pb  Pb27  1  0.14440381  0.90739665  0.39475967  1
  Pb  Pb28  1  0.64440381  0.90739665  0.10524033  1
  Pb  Pb29  1  0.33185251  0.59499852  0.60627967  1
  Pb  Pb30  1  0.83185251  0.90500148  0.89372033  1
  Pb  Pb31  1  0.66814749  0.40500148  0.39372033  1
  S  S32  1  0.78691566  0.75000000  0.50799021  1
  S  S33  1  0.21308434  0.25000000  0.49200979  1
  S  S34  1  0.28691566  0.75000000  0.99200979  1
  S  S35  1  0.71308434  0.25000000  0.00799021  1
  O  O36  1  0.66588824  0.64691841  0.52278163  1
  O  O37  1  0.52686492  0.09978291  0.78441297  1
  O  O38  1  0.57481342  0.49246360  0.66980295  1
  O  O39  1  0.63428818  0.90642265  0.78219386  1
  O  O40  1  0.42581548  0.75000000  0.66415039  1
  O  O41  1  0.34811173  0.75000000  0.07222529  1
  O  O42  1  0.33411176  0.14691841  0.47721837  1
  O  O43  1  0.42518658  0.99246360  0.33019705  1
  O  O44  1  0.78436537  0.75000000  0.14293489  1
  O  O45  1  0.02686492  0.40021709  0.71558703  1
  O  O46  1  0.02243894  0.25000000  0.44753973  1
  O  O47  1  0.15188827  0.25000000  0.57222529  1
  O  O48  1  0.92518658  0.99246360  0.16980295  1
  O  O49  1  0.52686492  0.40021709  0.78441297  1
  O  O50  1  0.21563463  0.25000000  0.85706511  1
  O  O51  1  0.33411176  0.35308159  0.47721837  1
  O  O52  1  0.36571182  0.40642265  0.21780614  1
  O  O53  1  0.47313508  0.90021709  0.21558703  1
  O  O54  1  0.57481342  0.00753640  0.66980295  1
  O  O55  1  0.83411176  0.35308159  0.02278163  1
  O  O56  1  0.47756106  0.75000000  0.94753973  1
  O  O57  1  0.86571182  0.40642265  0.28219386  1
  O  O58  1  0.57418452  0.25000000  0.33584961  1
  O  O59  1  0.84811173  0.75000000  0.42777471  1
  O  O60  1  0.16588824  0.64691841  0.97721837  1
  O  O61  1  0.36571182  0.09357735  0.21780614  1
  O  O62  1  0.07418452  0.25000000  0.16415039  1
  O  O63  1  0.97313508  0.90021709  0.28441297  1
  O  O64  1  0.02686492  0.09978291  0.71558703  1
  O  O65  1  0.92518658  0.50753640  0.16980295  1
  O  O66  1  0.52243894  0.25000000  0.05246027  1
  O  O67  1  0.97756106  0.75000000  0.55246027  1
  O  O68  1  0.92581548  0.75000000  0.83584961  1
  O  O69  1  0.83411176  0.14691841  0.02278163  1
  O  O70  1  0.13428818  0.59357735  0.71780614  1
  O  O71  1  0.13428818  0.90642265  0.71780614  1
  O  O72  1  0.97313508  0.59978291  0.28441297  1
  O  O73  1  0.28436537  0.75000000  0.35706511  1
  O  O74  1  0.42518658  0.50753640  0.33019705  1
  O  O75  1  0.07481342  0.00753640  0.83019705  1
  O  O76  1  0.07481342  0.49246360  0.83019705  1
  O  O77  1  0.63428818  0.59357735  0.78219386  1
  O  O78  1  0.65188827  0.25000000  0.92777471  1
  O  O79  1  0.16588824  0.85308159  0.97721837  1
  O  O80  1  0.71563463  0.25000000  0.64293489  1
  O  O81  1  0.47313508  0.59978291  0.21558703  1
  O  O82  1  0.66588824  0.85308159  0.52278163  1
  O  O83  1  0.86571182  0.09357735  0.28219386  1
