# generated using pymatgen
data_Ag2Hg2(TeO4)3
_symmetry_space_group_name_H-M   'P 1'
_cell_length_a   6.30647439
_cell_length_b   6.58043148
_cell_length_c   13.42084569
_cell_angle_alpha   94.01953660
_cell_angle_beta   90.00000000
_cell_angle_gamma   90.00000000
_symmetry_Int_Tables_number   1
_chemical_formula_structural   Ag2Hg2(TeO4)3
_chemical_formula_sum   'Ag4 Hg4 Te6 O24'
_cell_volume   555.58600835
_cell_formula_units_Z   2
loop_
 _symmetry_equiv_pos_site_id
 _symmetry_equiv_pos_as_xyz
  1  'x, y, z'
loop_
 _atom_site_type_symbol
 _atom_site_label
 _atom_site_symmetry_multiplicity
 _atom_site_fract_x
 _atom_site_fract_y
 _atom_site_fract_z
 _atom_site_occupancy
  Ag  Ag0  1  0.63266101  0.18442114  0.28979366  1
  Ag  Ag1  1  0.86733899  0.68442114  0.78979366  1
  Ag  Ag2  1  0.13266101  0.31557886  0.21020634  1
  Ag  Ag3  1  0.36733899  0.81557886  0.71020634  1
  Hg  Hg4  1  0.95796822  0.19416011  0.90063762  1
  Hg  Hg5  1  0.54203178  0.69416011  0.40063762  1
  Hg  Hg6  1  0.45796822  0.30583989  0.59936238  1
  Hg  Hg7  1  0.04203178  0.80583989  0.09936238  1
  Te  Te8  1  0.90608869  0.01644832  0.60669575  1
  Te  Te9  1  0.40608869  0.48355168  0.89330425  1
  Te  Te10  1  0.09391131  0.98355168  0.39330425  1
  Te  Te11  1  -0.00000000  0.50000000  0.50000000  1
  Te  Te12  1  0.59391131  0.51644832  0.10669575  1
  Te  Te13  1  0.50000000  -0.00000000  0.00000000  1
  O  O14  1  0.28243471  0.55649994  0.55576262  1
  O  O15  1  0.62883468  0.21246051  0.09500022  1
  O  O16  1  0.71756529  0.44350006  0.44423738  1
  O  O17  1  0.61537165  0.04765662  0.64812640  1
  O  O18  1  0.21756529  0.05649994  0.05576262  1
  O  O19  1  0.43951707  0.18165456  0.89095174  1
  O  O20  1  0.12883468  0.28753949  0.40499978  1
  O  O21  1  0.18630585  0.98900681  0.53762426  1
  O  O22  1  0.46790452  0.49654174  0.23274874  1
  O  O23  1  0.06048293  0.68165456  0.39095174  1
  O  O24  1  0.78243471  0.94350006  0.94423738  1
  O  O25  1  0.87116532  0.71246051  0.59500022  1
  O  O26  1  0.93951707  0.31834544  0.60904826  1
  O  O27  1  0.03209548  0.99654174  0.73274874  1
  O  O28  1  0.56048293  0.81834544  0.10904826  1
  O  O29  1  0.96790452  0.00345826  0.26725126  1
  O  O30  1  0.31369415  0.48900681  0.03762426  1
  O  O31  1  0.11537165  0.45234338  0.85187360  1
  O  O32  1  0.38462835  0.95234338  0.35187360  1
  O  O33  1  0.37116532  0.78753949  0.90499978  1
  O  O34  1  0.68630585  0.51099319  0.96237574  1
  O  O35  1  0.81369415  0.01099319  0.46237574  1
  O  O36  1  0.53209548  0.50345826  0.76725126  1
  O  O37  1  0.88462835  0.54765662  0.14812640  1
