# generated using pymatgen
data_Cs5Si3AgO9
_symmetry_space_group_name_H-M   'P 1'
_cell_length_a   6.62056374
_cell_length_b   9.89165498
_cell_length_c   11.79525040
_cell_angle_alpha   93.82143592
_cell_angle_beta   90.00000000
_cell_angle_gamma   90.00000000
_symmetry_Int_Tables_number   1
_chemical_formula_structural   Cs5Si3AgO9
_chemical_formula_sum   'Cs10 Si6 Ag2 O18'
_cell_volume   770.73381185
_cell_formula_units_Z   2
loop_
 _symmetry_equiv_pos_site_id
 _symmetry_equiv_pos_as_xyz
  1  'x, y, z'
loop_
 _atom_site_type_symbol
 _atom_site_label
 _atom_site_symmetry_multiplicity
 _atom_site_fract_x
 _atom_site_fract_y
 _atom_site_fract_z
 _atom_site_occupancy
  Cs  Cs0  1  0.25000000  0.66089708  0.06341943  1
  Cs  Cs1  1  0.75000000  0.04807482  0.61856812  1
  Cs  Cs2  1  0.25000000  0.77730753  0.68588153  1
  Cs  Cs3  1  0.25000000  0.95192518  0.38143188  1
  Cs  Cs4  1  0.25000000  0.27394945  0.14205235  1
  Cs  Cs5  1  0.25000000  0.53881013  0.39821775  1
  Cs  Cs6  1  0.75000000  0.33910292  0.93658057  1
  Cs  Cs7  1  0.75000000  0.46118987  0.60178225  1
  Cs  Cs8  1  0.75000000  0.72605055  0.85794765  1
  Cs  Cs9  1  0.75000000  0.22269247  0.31411847  1
  Si  Si10  1  0.25000000  0.13019032  0.79921780  1
  Si  Si11  1  0.75000000  0.86980968  0.20078220  1
  Si  Si12  1  0.25000000  0.44272272  0.79042049  1
  Si  Si13  1  0.75000000  0.74633054  0.43519290  1
  Si  Si14  1  0.25000000  0.25366946  0.56480710  1
  Si  Si15  1  0.75000000  0.55727728  0.20957951  1
  Ag  Ag16  1  0.00000000  0.00000000  0.00000000  1
  Ag  Ag17  1  0.50000000  0.00000000  0.00000000  1
  O  O18  1  0.45671704  0.24301858  0.49196454  1
  O  O19  1  0.95777360  0.94710673  0.16488749  1
  O  O20  1  0.45777360  0.05289327  0.83511251  1
  O  O21  1  0.45585849  0.52390846  0.82494329  1
  O  O22  1  0.95671704  0.75698142  0.50803546  1
  O  O23  1  0.04414151  0.52390846  0.82494329  1
  O  O24  1  0.25000000  0.29072156  0.85255834  1
  O  O25  1  0.75000000  0.87091713  0.34146430  1
  O  O26  1  0.75000000  0.60120414  0.35024104  1
  O  O27  1  0.04222640  0.05289327  0.83511251  1
  O  O28  1  0.25000000  0.39879586  0.64975896  1
  O  O29  1  0.54222640  0.94710673  0.16488749  1
  O  O30  1  0.75000000  0.70927844  0.14744166  1
  O  O31  1  0.54328296  0.75698142  0.50803546  1
  O  O32  1  0.54414151  0.47609154  0.17505671  1
  O  O33  1  0.04328296  0.24301858  0.49196454  1
  O  O34  1  0.95585849  0.47609154  0.17505671  1
  O  O35  1  0.25000000  0.12908287  0.65853570  1
