# generated using pymatgen
data_Rh7(PbO5)3
_symmetry_space_group_name_H-M   'P 1'
_cell_length_a   10.56000112
_cell_length_b   10.56000091
_cell_length_c   13.49465217
_cell_angle_alpha   90.00000000
_cell_angle_beta   90.00000000
_cell_angle_gamma   120.00000066
_symmetry_Int_Tables_number   1
_chemical_formula_structural   Rh7(PbO5)3
_chemical_formula_sum   'Rh28 Pb12 O60'
_cell_volume   1303.22752374
_cell_formula_units_Z   4
loop_
 _symmetry_equiv_pos_site_id
 _symmetry_equiv_pos_as_xyz
  1  'x, y, z'
loop_
 _atom_site_type_symbol
 _atom_site_label
 _atom_site_symmetry_multiplicity
 _atom_site_fract_x
 _atom_site_fract_y
 _atom_site_fract_z
 _atom_site_occupancy
  Rh  Rh0  1  0.66666700  0.33333300  0.64758292  1
  Rh  Rh1  1  0.83123570  0.66247140  0.50000000  1
  Rh  Rh2  1  0.66666700  0.33333300  0.85241708  1
  Rh  Rh3  1  0.66666700  0.33333300  0.14758292  1
  Rh  Rh4  1  0.33752860  0.16876430  0.50000000  1
  Rh  Rh5  1  0.00000000  0.00000000  0.00000000  1
  Rh  Rh6  1  0.33752860  0.16876430  0.00000000  1
  Rh  Rh7  1  0.00000000  0.00000000  0.50000000  1
  Rh  Rh8  1  0.50000000  0.50000000  0.00000000  1
  Rh  Rh9  1  0.16876430  0.83123570  0.50000000  1
  Rh  Rh10  1  0.33333300  0.66666700  0.85241708  1
  Rh  Rh11  1  0.66247140  0.83123570  0.50000000  1
  Rh  Rh12  1  0.83123570  0.16876430  0.50000000  1
  Rh  Rh13  1  0.16876430  0.83123570  0.00000000  1
  Rh  Rh14  1  0.00000000  0.50000000  0.00000000  1
  Rh  Rh15  1  0.33333300  0.66666700  0.35241708  1
  Rh  Rh16  1  0.00000000  0.50000000  0.50000000  1
  Rh  Rh17  1  0.50000000  0.50000000  0.50000000  1
  Rh  Rh18  1  0.66247140  0.83123570  0.00000000  1
  Rh  Rh19  1  0.16876430  0.33752860  0.50000000  1
  Rh  Rh20  1  0.50000000  0.00000000  0.00000000  1
  Rh  Rh21  1  0.33333300  0.66666700  0.64758292  1
  Rh  Rh22  1  0.50000000  0.00000000  0.50000000  1
  Rh  Rh23  1  0.33333300  0.66666700  0.14758292  1
  Rh  Rh24  1  0.66666700  0.33333300  0.35241708  1
  Rh  Rh25  1  0.16876430  0.33752860  0.00000000  1
  Rh  Rh26  1  0.83123570  0.66247140  0.00000000  1
  Rh  Rh27  1  0.83123570  0.16876430  0.00000000  1
  Pb  Pb28  1  0.73173725  0.00000000  0.25000000  1
  Pb  Pb29  1  0.60263622  0.60263622  0.25000000  1
  Pb  Pb30  1  1.00000000  0.73173725  0.25000000  1
  Pb  Pb31  1  0.39736378  0.39736378  0.75000000  1
  Pb  Pb32  1  0.39736378  0.00000000  0.25000000  1
  Pb  Pb33  1  0.00000000  0.39736378  0.25000000  1
  Pb  Pb34  1  0.26826275  0.00000000  0.75000000  1
  Pb  Pb35  1  0.60263622  0.00000000  0.75000000  1
  Pb  Pb36  1  1.00000000  0.60263622  0.75000000  1
  Pb  Pb37  1  0.00000000  0.26826275  0.75000000  1
  Pb  Pb38  1  0.73173725  0.73173725  0.75000000  1
  Pb  Pb39  1  0.26826275  0.26826275  0.25000000  1
  O  O40  1  1.00000000  0.33383147  0.92294231  1
  O  O41  1  0.50675147  0.66570266  0.08122272  1
  O  O42  1  0.82180603  0.34345685  0.75000000  1
  O  O43  1  0.33429734  0.49324853  0.91877728  1
  O  O44  1  0.84104881  0.50675147  0.91877728  1
  O  O45  1  0.15895119  0.66570266  0.58122272  1
  O  O46  1  0.50675147  0.84104881  0.58122272  1
  O  O47  1  1.00000000  0.83087706  0.57466063  1
  O  O48  1  0.66616853  0.66616853  0.57705769  1
  O  O49  1  0.49324853  0.33429734  0.58122272  1
  O  O50  1  0.66616853  0.00000000  0.07705769  1
  O  O51  1  0.16912294  0.00000000  0.07466063  1
  O  O52  1  0.49324853  0.33429734  0.91877728  1
  O  O53  1  0.66570266  0.50675147  0.08122272  1
  O  O54  1  0.83087706  0.83087706  0.07466063  1
  O  O55  1  0.65654315  0.17819397  0.25000000  1
  O  O56  1  0.00000000  0.66616853  0.42294231  1
  O  O57  1  0.66616853  0.66616853  0.92294231  1
  O  O58  1  1.00000000  0.83087706  0.92533937  1
  O  O59  1  0.50675147  0.84104881  0.91877728  1
  O  O60  1  0.15895119  0.66570266  0.91877728  1
  O  O61  1  0.00000000  0.16912294  0.42533937  1
  O  O62  1  0.00000000  0.66616853  0.07705769  1
  O  O63  1  0.84104881  0.50675147  0.58122272  1
  O  O64  1  0.33429734  0.49324853  0.58122272  1
  O  O65  1  0.84104881  0.33429734  0.08122272  1
  O  O66  1  0.66570266  0.50675147  0.41877728  1
  O  O67  1  1.00000000  0.33383147  0.57705769  1
  O  O68  1  0.16912294  0.16912294  0.57466063  1
  O  O69  1  0.47834918  0.65654315  0.75000000  1
  O  O70  1  0.33383147  0.33383147  0.07705769  1
  O  O71  1  0.66570266  0.15895119  0.58122272  1
  O  O72  1  0.83087706  0.00000000  0.92533937  1
  O  O73  1  0.65654315  0.47834918  0.75000000  1
  O  O74  1  0.15895119  0.49324853  0.41877728  1
  O  O75  1  0.52165082  0.34345685  0.25000000  1
  O  O76  1  0.34345685  0.82180603  0.75000000  1
  O  O77  1  0.82180603  0.47834918  0.25000000  1
  O  O78  1  0.66570266  0.15895119  0.91877728  1
  O  O79  1  0.47834918  0.82180603  0.25000000  1
  O  O80  1  0.49324853  0.15895119  0.08122272  1
  O  O81  1  0.52165082  0.17819397  0.75000000  1
  O  O82  1  0.49324853  0.15895119  0.41877728  1
  O  O83  1  0.34345685  0.52165082  0.25000000  1
  O  O84  1  0.33383147  0.00000000  0.92294231  1
  O  O85  1  0.33383147  0.00000000  0.57705769  1
  O  O86  1  0.33429734  0.84104881  0.41877728  1
  O  O87  1  0.17819397  0.65654315  0.25000000  1
  O  O88  1  0.33383147  0.33383147  0.42294231  1
  O  O89  1  0.17819397  0.52165082  0.75000000  1
  O  O90  1  0.33429734  0.84104881  0.08122272  1
  O  O91  1  0.15895119  0.49324853  0.08122272  1
  O  O92  1  0.84104881  0.33429734  0.41877728  1
  O  O93  1  0.83087706  0.00000000  0.57466063  1
  O  O94  1  0.50675147  0.66570266  0.41877728  1
  O  O95  1  0.00000000  0.16912294  0.07466063  1
  O  O96  1  0.66616853  0.00000000  0.42294231  1
  O  O97  1  0.16912294  0.00000000  0.42533937  1
  O  O98  1  0.83087706  0.83087706  0.42533937  1
  O  O99  1  0.16912294  0.16912294  0.92533937  1
