# generated using pymatgen
data_CuSeO4
_symmetry_space_group_name_H-M   'P 1'
_cell_length_a   5.06949791
_cell_length_b   6.84438072
_cell_length_c   8.94017639
_cell_angle_alpha   90.00000000
_cell_angle_beta   90.00000000
_cell_angle_gamma   90.00000000
_symmetry_Int_Tables_number   1
_chemical_formula_structural   CuSeO4
_chemical_formula_sum   'Cu4 Se4 O16'
_cell_volume   310.20242968
_cell_formula_units_Z   4
loop_
 _symmetry_equiv_pos_site_id
 _symmetry_equiv_pos_as_xyz
  1  'x, y, z'
loop_
 _atom_site_type_symbol
 _atom_site_label
 _atom_site_symmetry_multiplicity
 _atom_site_fract_x
 _atom_site_fract_y
 _atom_site_fract_z
 _atom_site_occupancy
  Cu  Cu0  1  0.00000000  0.50000000  -0.00000000  1
  Cu  Cu1  1  0.50000000  -0.00000000  0.50000000  1
  Cu  Cu2  1  0.00000000  0.00000000  -0.00000000  1
  Cu  Cu3  1  0.50000000  0.50000000  0.50000000  1
  Se  Se4  1  0.45657773  0.25000000  0.18157990  1
  Se  Se5  1  0.04342227  0.25000000  0.68157990  1
  Se  Se6  1  0.54342227  0.75000000  0.81842010  1
  Se  Se7  1  0.95657773  0.75000000  0.31842010  1
  O  O8  1  0.73132392  0.25000000  0.62646856  1
  O  O9  1  0.80719283  0.95653173  0.37344875  1
  O  O10  1  0.57114440  0.75000000  0.62352480  1
  O  O11  1  0.30719283  0.04346827  0.12655125  1
  O  O12  1  0.69280717  0.54346827  0.87344875  1
  O  O13  1  0.92885560  0.75000000  0.12352480  1
  O  O14  1  0.42885560  0.25000000  0.37647520  1
  O  O15  1  0.69280717  0.95653173  0.87344875  1
  O  O16  1  0.26867608  0.75000000  0.37353144  1
  O  O17  1  0.80719283  0.54346827  0.37344875  1
  O  O18  1  0.76867608  0.25000000  0.12646856  1
  O  O19  1  0.07114440  0.25000000  0.87647520  1
  O  O20  1  0.30719283  0.45653173  0.12655125  1
  O  O21  1  0.23132392  0.75000000  0.87353144  1
  O  O22  1  0.19280717  0.04346827  0.62655125  1
  O  O23  1  0.19280717  0.45653173  0.62655125  1
