# generated using pymatgen
data_V3S
_symmetry_space_group_name_H-M   'P 1'
_cell_length_a   4.63627246
_cell_length_b   9.33367232
_cell_length_c   9.33367232
_cell_angle_alpha   90.00000000
_cell_angle_beta   90.00000000
_cell_angle_gamma   90.00000000
_symmetry_Int_Tables_number   1
_chemical_formula_structural   V3S
_chemical_formula_sum   'V24 S8'
_cell_volume   403.90018312
_cell_formula_units_Z   8
loop_
 _symmetry_equiv_pos_site_id
 _symmetry_equiv_pos_as_xyz
  1  'x, y, z'
loop_
 _atom_site_type_symbol
 _atom_site_label
 _atom_site_symmetry_multiplicity
 _atom_site_fract_x
 _atom_site_fract_y
 _atom_site_fract_z
 _atom_site_occupancy
  V  V0  1  0.75000000  0.83995084  0.83995084  1
  V  V1  1  0.25000000  0.16004916  0.16004916  1
  V  V2  1  0.25000000  0.54774791  0.54774791  1
  V  V3  1  0.75000000  0.45225209  0.45225209  1
  V  V4  1  0.00000000  0.75000000  0.10315521  1
  V  V5  1  0.00000000  0.75000000  0.39684479  1
  V  V6  1  0.75000000  0.33995084  0.16004916  1
  V  V7  1  0.25000000  0.66004916  0.83995084  1
  V  V8  1  0.75000000  0.54774791  0.95225209  1
  V  V9  1  0.75000000  0.04774791  0.04774791  1
  V  V10  1  0.00000000  0.25000000  0.60315521  1
  V  V11  1  0.25000000  0.33995084  0.33995084  1
  V  V12  1  0.00000000  0.25000000  0.89684479  1
  V  V13  1  0.75000000  0.66004916  0.66004916  1
  V  V14  1  0.50000000  0.89684479  0.25000000  1
  V  V15  1  0.75000000  0.16004916  0.33995084  1
  V  V16  1  0.25000000  0.04774791  0.45225209  1
  V  V17  1  0.25000000  0.83995084  0.66004916  1
  V  V18  1  0.50000000  0.10315521  0.75000000  1
  V  V19  1  0.50000000  0.60315521  0.25000000  1
  V  V20  1  0.25000000  0.95225209  0.95225209  1
  V  V21  1  0.25000000  0.45225209  0.04774791  1
  V  V22  1  0.50000000  0.39684479  0.75000000  1
  V  V23  1  0.75000000  0.95225209  0.54774791  1
  S  S24  1  0.50000000  0.75000000  0.45956414  1
  S  S25  1  0.50000000  0.75000000  0.04043586  1
  S  S26  1  0.50000000  0.25000000  0.95956414  1
  S  S27  1  0.50000000  0.25000000  0.54043586  1
  S  S28  1  0.00000000  0.04043586  0.75000000  1
  S  S29  1  0.00000000  0.95956414  0.25000000  1
  S  S30  1  0.00000000  0.45956414  0.75000000  1
  S  S31  1  0.00000000  0.54043586  0.25000000  1
