# generated using pymatgen
data_BaTcO3
_symmetry_space_group_name_H-M   'P 1'
_cell_length_a   5.84398277
_cell_length_b   5.84398258
_cell_length_c   14.11616325
_cell_angle_alpha   90.00000000
_cell_angle_beta   90.00000000
_cell_angle_gamma   119.99999473
_symmetry_Int_Tables_number   1
_chemical_formula_structural   BaTcO3
_chemical_formula_sum   'Ba6 Tc6 O18'
_cell_volume   417.50835066
_cell_formula_units_Z   6
loop_
 _symmetry_equiv_pos_site_id
 _symmetry_equiv_pos_as_xyz
  1  'x, y, z'
loop_
 _atom_site_type_symbol
 _atom_site_label
 _atom_site_symmetry_multiplicity
 _atom_site_fract_x
 _atom_site_fract_y
 _atom_site_fract_z
 _atom_site_occupancy
  Ba  Ba0  1  0.66666700  0.33333300  0.59252182  1
  Ba  Ba1  1  0.33333300  0.66666700  0.40747818  1
  Ba  Ba2  1  0.66666700  0.33333300  0.90747818  1
  Ba  Ba3  1  0.00000000  0.00000000  0.25000000  1
  Ba  Ba4  1  0.33333300  0.66666700  0.09252182  1
  Ba  Ba5  1  0.00000000  0.00000000  0.75000000  1
  Tc  Tc6  1  0.33333300  0.66666700  0.66129123  1
  Tc  Tc7  1  0.66666700  0.33333300  0.16129123  1
  Tc  Tc8  1  0.33333300  0.66666700  0.83870877  1
  Tc  Tc9  1  0.66666700  0.33333300  0.33870877  1
  Tc  Tc10  1  0.00000000  0.00000000  0.50000000  1
  Tc  Tc11  1  0.00000000  0.00000000  -0.00000000  1
  O  O12  1  0.83442644  0.16557356  0.41844573  1
  O  O13  1  0.83442644  0.66885287  0.08155427  1
  O  O14  1  0.66885287  0.83442644  0.58155427  1
  O  O15  1  0.83442644  0.16557356  0.08155427  1
  O  O16  1  0.16557356  0.33114713  0.91844573  1
  O  O17  1  0.83442644  0.66885287  0.41844573  1
  O  O18  1  0.50712366  0.49287634  0.25000000  1
  O  O19  1  0.33114713  0.16557356  0.41844573  1
  O  O20  1  0.16557356  0.83442644  0.91844573  1
  O  O21  1  0.50712366  0.01424732  0.25000000  1
  O  O22  1  0.16557356  0.83442644  0.58155427  1
  O  O23  1  0.49287634  0.98575268  0.75000000  1
  O  O24  1  0.01424732  0.50712366  0.75000000  1
  O  O25  1  0.49287634  0.50712366  0.75000000  1
  O  O26  1  0.16557356  0.33114713  0.58155427  1
  O  O27  1  0.66885287  0.83442644  0.91844573  1
  O  O28  1  0.98575268  0.49287634  0.25000000  1
  O  O29  1  0.33114713  0.16557356  0.08155427  1
