# generated using pymatgen
data_LaTmS3
_symmetry_space_group_name_H-M   'P 1'
_cell_length_a   3.99977639
_cell_length_b   16.48406968
_cell_length_c   21.43224669
_cell_angle_alpha   90.00000000
_cell_angle_beta   90.00000000
_cell_angle_gamma   90.00000000
_symmetry_Int_Tables_number   1
_chemical_formula_structural   LaTmS3
_chemical_formula_sum   'La12 Tm12 S36'
_cell_volume   1413.08359203
_cell_formula_units_Z   12
loop_
 _symmetry_equiv_pos_site_id
 _symmetry_equiv_pos_as_xyz
  1  'x, y, z'
loop_
 _atom_site_type_symbol
 _atom_site_label
 _atom_site_symmetry_multiplicity
 _atom_site_fract_x
 _atom_site_fract_y
 _atom_site_fract_z
 _atom_site_occupancy
  La  La0  1  0.25000000  0.19385892  0.92083634  1
  La  La1  1  0.75000000  0.84087685  0.75458101  1
  La  La2  1  0.75000000  0.34087685  0.74541899  1
  La  La3  1  0.25000000  0.83004691  0.41291689  1
  La  La4  1  0.25000000  0.65912315  0.25458101  1
  La  La5  1  0.75000000  0.30614108  0.42083634  1
  La  La6  1  0.25000000  0.15912315  0.24541899  1
  La  La7  1  0.75000000  0.80614108  0.07916366  1
  La  La8  1  0.75000000  0.66995309  0.91291689  1
  La  La9  1  0.25000000  0.69385892  0.57916366  1
  La  La10  1  0.75000000  0.16995309  0.58708311  1
  La  La11  1  0.25000000  0.33004691  0.08708311  1
  Tm  Tm12  1  0.75000000  0.90503099  0.25039981  1
  Tm  Tm13  1  0.75000000  0.43407435  0.92030520  1
  Tm  Tm14  1  0.25000000  0.94318447  0.93101121  1
  Tm  Tm15  1  0.75000000  0.40503099  0.24960019  1
  Tm  Tm16  1  0.25000000  0.44318447  0.56898879  1
  Tm  Tm17  1  0.25000000  0.06592565  0.42030520  1
  Tm  Tm18  1  0.25000000  0.09496901  0.74960019  1
  Tm  Tm19  1  0.25000000  0.56592565  0.07969480  1
  Tm  Tm20  1  0.75000000  0.93407435  0.57969480  1
  Tm  Tm21  1  0.75000000  0.05681553  0.06898879  1
  Tm  Tm22  1  0.75000000  0.55681553  0.43101121  1
  Tm  Tm23  1  0.25000000  0.59496901  0.75039981  1
  S  S24  1  0.25000000  0.23011846  0.67849688  1
  S  S25  1  0.25000000  0.44877993  0.69306135  1
  S  S26  1  0.25000000  0.20863814  0.48264509  1
  S  S27  1  0.75000000  0.55122007  0.30693865  1
  S  S28  1  0.25000000  0.32386408  0.31511643  1
  S  S29  1  0.75000000  0.84141479  0.93686668  1
  S  S30  1  0.25000000  0.04260942  0.55212952  1
  S  S31  1  0.25000000  0.35422426  0.85147083  1
  S  S32  1  0.75000000  0.95739058  0.44787048  1
  S  S33  1  0.75000000  0.05122007  0.19306135  1
  S  S34  1  0.75000000  0.79136186  0.51735491  1
  S  S35  1  0.75000000  0.14577574  0.35147083  1
  S  S36  1  0.75000000  0.55915594  0.55793777  1
  S  S37  1  0.75000000  0.05915594  0.94206223  1
  S  S38  1  0.25000000  0.65858521  0.43686668  1
  S  S39  1  0.25000000  0.96355286  0.31783431  1
  S  S40  1  0.25000000  0.94084406  0.05793777  1
  S  S41  1  0.25000000  0.46355286  0.18216569  1
  S  S42  1  0.25000000  0.15858521  0.06313332  1
  S  S43  1  0.75000000  0.03644714  0.68216569  1
  S  S44  1  0.25000000  0.73011846  0.82150312  1
  S  S45  1  0.25000000  0.94877993  0.80693865  1
  S  S46  1  0.75000000  0.76988154  0.32150312  1
  S  S47  1  0.75000000  0.53644714  0.81783431  1
  S  S48  1  0.75000000  0.45739058  0.05212952  1
  S  S49  1  0.75000000  0.64577574  0.14852917  1
  S  S50  1  0.75000000  0.17613592  0.81511643  1
  S  S51  1  0.75000000  0.67613592  0.68488357  1
  S  S52  1  0.75000000  0.29136186  0.98264509  1
  S  S53  1  0.25000000  0.85422426  0.64852917  1
  S  S54  1  0.75000000  0.34141479  0.56313332  1
  S  S55  1  0.75000000  0.26988154  0.17849688  1
  S  S56  1  0.25000000  0.70863814  0.01735491  1
  S  S57  1  0.25000000  0.44084406  0.44206223  1
  S  S58  1  0.25000000  0.82386408  0.18488357  1
  S  S59  1  0.25000000  0.54260942  0.94787048  1
