# generated using pymatgen
data_CaBi6(PO5)4
_symmetry_space_group_name_H-M   'P 1'
_cell_length_a   6.98859061
_cell_length_b   7.70336267
_cell_length_c   9.31900522
_cell_angle_alpha   107.07992649
_cell_angle_beta   93.51508035
_cell_angle_gamma   112.48383702
_symmetry_Int_Tables_number   1
_chemical_formula_structural   CaBi6(PO5)4
_chemical_formula_sum   'Ca1 Bi6 P4 O20'
_cell_volume   434.46815737
_cell_formula_units_Z   1
loop_
 _symmetry_equiv_pos_site_id
 _symmetry_equiv_pos_as_xyz
  1  'x, y, z'
loop_
 _atom_site_type_symbol
 _atom_site_label
 _atom_site_symmetry_multiplicity
 _atom_site_fract_x
 _atom_site_fract_y
 _atom_site_fract_z
 _atom_site_occupancy
  Ca  Ca0  1  -0.00000000  0.50000000  -0.00000000  1
  Bi  Bi1  1  0.80924899  0.80353535  0.32255637  1
  Bi  Bi2  1  0.33601289  0.63167050  0.51341260  1
  Bi  Bi3  1  0.43315693  0.29042931  0.08467962  1
  Bi  Bi4  1  0.56684307  0.70957069  0.91532038  1
  Bi  Bi5  1  0.66398711  0.36832950  0.48658740  1
  Bi  Bi6  1  0.19075101  0.19646465  0.67744363  1
  P  P7  1  0.34084008  0.88943241  0.25177149  1
  P  P8  1  0.65915992  0.11056759  0.74822851  1
  P  P9  1  0.94865144  0.23374282  0.23892129  1
  P  P10  1  0.05134856  0.76625718  0.76107871  1
  O  O11  1  0.44797820  0.47228600  0.63747796  1
  O  O12  1  0.14874057  0.99908719  0.83249850  1
  O  O13  1  0.34585955  0.81213275  0.07934813  1
  O  O14  1  0.22511259  0.68545389  0.75957081  1
  O  O15  1  0.51732115  0.87530537  0.35195715  1
  O  O16  1  0.89090429  0.67136725  0.85427851  1
  O  O17  1  0.48267885  0.12469463  0.64804285  1
  O  O18  1  0.05366216  0.29755680  0.41017517  1
  O  O19  1  0.63528128  0.89122079  0.69412979  1
  O  O20  1  0.85125943  0.00091281  0.16750150  1
  O  O21  1  0.77488741  0.31454611  0.24042919  1
  O  O22  1  0.94633784  0.70244320  0.58982483  1
  O  O23  1  0.55202180  0.52771400  0.36252204  1
  O  O24  1  0.87940084  0.25216096  0.72994011  1
  O  O25  1  0.31758150  0.40891579  0.90469605  1
  O  O26  1  0.65414045  0.18786725  0.92065187  1
  O  O27  1  0.68241850  0.59108421  0.09530395  1
  O  O28  1  0.10909571  0.32863275  0.14572149  1
  O  O29  1  0.36471872  0.10877821  0.30587021  1
  O  O30  1  0.12059916  0.74783904  0.27005989  1
