# generated using pymatgen
data_Rb3Sb5O14
_symmetry_space_group_name_H-M   'P 1'
_cell_length_a   7.32014533
_cell_length_b   7.49526143
_cell_length_c   24.93860133
_cell_angle_alpha   90.00000000
_cell_angle_beta   90.00000000
_cell_angle_gamma   90.00000000
_symmetry_Int_Tables_number   1
_chemical_formula_structural   Rb3Sb5O14
_chemical_formula_sum   'Rb12 Sb20 O56'
_cell_volume   1368.29134968
_cell_formula_units_Z   4
loop_
 _symmetry_equiv_pos_site_id
 _symmetry_equiv_pos_as_xyz
  1  'x, y, z'
loop_
 _atom_site_type_symbol
 _atom_site_label
 _atom_site_symmetry_multiplicity
 _atom_site_fract_x
 _atom_site_fract_y
 _atom_site_fract_z
 _atom_site_occupancy
  Rb  Rb0  1  0.27122705  0.50000000  0.01323769  1
  Rb  Rb1  1  0.10720753  0.50000000  0.88517197  1
  Rb  Rb2  1  0.89546255  0.00000000  0.20836673  1
  Rb  Rb3  1  0.22877295  0.50000000  0.51323769  1
  Rb  Rb4  1  0.39279247  0.50000000  0.38517197  1
  Rb  Rb5  1  0.72877295  0.50000000  0.98676231  1
  Rb  Rb6  1  0.60720753  0.50000000  0.61482803  1
  Rb  Rb7  1  0.89279247  0.50000000  0.11482803  1
  Rb  Rb8  1  0.77122705  0.50000000  0.48676231  1
  Rb  Rb9  1  0.60453745  0.00000000  0.70836673  1
  Rb  Rb10  1  0.10453745  0.00000000  0.79163327  1
  Rb  Rb11  1  0.39546255  0.00000000  0.29163327  1
  Sb  Sb12  1  0.11216198  0.73632687  0.64557294  1
  Sb  Sb13  1  0.61216198  0.26367313  0.85442706  1
  Sb  Sb14  1  0.09360824  0.00000000  0.43754660  1
  Sb  Sb15  1  0.33412295  0.50000000  0.75513393  1
  Sb  Sb16  1  0.16587705  0.50000000  0.25513393  1
  Sb  Sb17  1  0.66587705  0.50000000  0.24486607  1
  Sb  Sb18  1  0.11216198  0.26367313  0.64557294  1
  Sb  Sb19  1  0.41642791  0.00000000  0.55640907  1
  Sb  Sb20  1  0.61216198  0.73632687  0.85442706  1
  Sb  Sb21  1  0.59360824  0.00000000  0.06245340  1
  Sb  Sb22  1  0.83412295  0.50000000  0.74486607  1
  Sb  Sb23  1  0.38783802  0.73632687  0.14557294  1
  Sb  Sb24  1  0.08357209  0.00000000  0.05640907  1
  Sb  Sb25  1  0.58357209  0.00000000  0.44359093  1
  Sb  Sb26  1  0.90639176  0.00000000  0.56245340  1
  Sb  Sb27  1  0.88783802  0.73632687  0.35442706  1
  Sb  Sb28  1  0.38783802  0.26367313  0.14557294  1
  Sb  Sb29  1  0.88783802  0.26367313  0.35442706  1
  Sb  Sb30  1  0.40639176  0.00000000  0.93754660  1
  Sb  Sb31  1  0.91642791  0.00000000  0.94359093  1
  O  O32  1  0.04682758  0.74638229  0.42456002  1
  O  O33  1  0.53076014  0.00000000  0.85666511  1
  O  O34  1  0.83644524  0.19713382  0.89761689  1
  O  O35  1  0.95317242  0.25361771  0.57543998  1
  O  O36  1  0.32506198  0.50000000  0.11919504  1
  O  O37  1  0.27326946  0.72101270  0.70906958  1
  O  O38  1  0.88672994  0.68628498  0.68739997  1
  O  O39  1  0.17493802  0.50000000  0.61919504  1
  O  O40  1  0.72673054  0.27898730  0.29093042  1
  O  O41  1  0.04682758  0.25361771  0.42456002  1
  O  O42  1  0.92386372  0.50000000  0.21991978  1
  O  O43  1  0.66355476  0.80286618  0.39761689  1
  O  O44  1  0.65954783  0.00000000  0.98293127  1
  O  O45  1  0.46923986  0.00000000  0.14333489  1
  O  O46  1  0.11327006  0.31371502  0.31260003  1
  O  O47  1  0.66355476  0.19713382  0.39761689  1
  O  O48  1  0.34045217  0.00000000  0.01706873  1
  O  O49  1  0.16004877  0.00000000  0.90741580  1
  O  O50  1  0.45317242  0.74638229  0.92456002  1
  O  O51  1  0.42386372  0.50000000  0.28008022  1
  O  O52  1  0.33995123  0.00000000  0.40741580  1
  O  O53  1  0.22673054  0.27898730  0.20906958  1
  O  O54  1  0.77326946  0.72101270  0.79093042  1
  O  O55  1  0.45317242  0.25361771  0.92456002  1
  O  O56  1  0.61327006  0.68628498  0.18739997  1
  O  O57  1  0.38672994  0.68628498  0.81260003  1
  O  O58  1  0.00000000  0.17773294  0.00000000  1
  O  O59  1  0.00000000  0.82226706  0.00000000  1
  O  O60  1  0.61327006  0.31371502  0.18739997  1
  O  O61  1  0.84045217  0.00000000  0.48293127  1
  O  O62  1  0.16355476  0.19713382  0.10238311  1
  O  O63  1  0.33644524  0.19713382  0.60238311  1
  O  O64  1  0.33644524  0.80286618  0.60238311  1
  O  O65  1  0.77326946  0.27898730  0.79093042  1
  O  O66  1  0.66004877  0.00000000  0.59258420  1
  O  O67  1  0.54682758  0.74638229  0.07543998  1
  O  O68  1  0.15954783  0.00000000  0.51706873  1
  O  O69  1  0.50000000  0.17773294  0.50000000  1
  O  O70  1  0.83995123  0.00000000  0.09258420  1
  O  O71  1  0.67493802  0.50000000  0.88080496  1
  O  O72  1  0.88672994  0.31371502  0.68739997  1
  O  O73  1  0.16355476  0.80286618  0.10238311  1
  O  O74  1  0.57613628  0.50000000  0.71991978  1
  O  O75  1  0.03076014  0.00000000  0.64333489  1
  O  O76  1  0.96923986  0.00000000  0.35666511  1
  O  O77  1  0.95317242  0.74638229  0.57543998  1
  O  O78  1  0.22673054  0.72101270  0.20906958  1
  O  O79  1  0.07613628  0.50000000  0.78008022  1
  O  O80  1  0.83644524  0.80286618  0.89761689  1
  O  O81  1  0.82506198  0.50000000  0.38080496  1
  O  O82  1  0.72673054  0.72101270  0.29093042  1
  O  O83  1  0.11327006  0.68628498  0.31260003  1
  O  O84  1  0.38672994  0.31371502  0.81260003  1
  O  O85  1  0.50000000  0.82226706  0.50000000  1
  O  O86  1  0.27326946  0.27898730  0.70906958  1
  O  O87  1  0.54682758  0.25361771  0.07543998  1
