# generated using pymatgen
data_KCu4AsS4
_symmetry_space_group_name_H-M   'P 1'
_cell_length_a   6.41859357
_cell_length_b   6.58497491
_cell_length_c   9.60353392
_cell_angle_alpha   103.20062812
_cell_angle_beta   90.00000000
_cell_angle_gamma   90.00000000
_symmetry_Int_Tables_number   1
_chemical_formula_structural   KCu4AsS4
_chemical_formula_sum   'K2 Cu8 As2 S8'
_cell_volume   395.18014218
_cell_formula_units_Z   2
loop_
 _symmetry_equiv_pos_site_id
 _symmetry_equiv_pos_as_xyz
  1  'x, y, z'
loop_
 _atom_site_type_symbol
 _atom_site_label
 _atom_site_symmetry_multiplicity
 _atom_site_fract_x
 _atom_site_fract_y
 _atom_site_fract_z
 _atom_site_occupancy
  K  K0  1  0.02314355  0.32355673  0.86332961  1
  K  K1  1  0.52314355  0.67644327  0.13667039  1
  Cu  Cu2  1  0.17399209  0.02025211  0.48534254  1
  Cu  Cu3  1  0.38298328  0.70636217  0.55704258  1
  Cu  Cu4  1  0.67399209  0.97974789  0.51465746  1
  Cu  Cu5  1  0.88298328  0.29363783  0.44295742  1
  Cu  Cu6  1  0.53353885  0.36312757  0.60924552  1
  Cu  Cu7  1  0.03353885  0.63687243  0.39075448  1
  Cu  Cu8  1  0.90603022  0.07604382  0.12450566  1
  Cu  Cu9  1  0.40603022  0.92395618  0.87549434  1
  As  As10  1  0.38527882  0.20077909  0.25337794  1
  As  As11  1  0.88527882  0.79922091  0.74662206  1
  S  S12  1  0.40502314  0.06255509  0.65995000  1
  S  S13  1  0.58546135  0.16035920  0.04978950  1
  S  S14  1  0.90502314  0.93744491  0.34005000  1
  S  S15  1  0.11479446  0.38507100  0.19256224  1
  S  S16  1  0.08546135  0.83964080  0.95021050  1
  S  S17  1  0.58185424  0.46624744  0.39822751  1
  S  S18  1  0.61479446  0.61492900  0.80743776  1
  S  S19  1  0.08185424  0.53375256  0.60177249  1
