# generated using pymatgen
data_Ba2YTlCo2O7
_symmetry_space_group_name_H-M   'P 1'
_cell_length_a   3.91836175
_cell_length_b   3.91885478
_cell_length_c   12.64735767
_cell_angle_alpha   89.95674154
_cell_angle_beta   90.00442040
_cell_angle_gamma   89.85048144
_symmetry_Int_Tables_number   1
_chemical_formula_structural   Ba2YTlCo2O7
_chemical_formula_sum   'Ba2 Y1 Tl1 Co2 O7'
_cell_volume   194.20566531
_cell_formula_units_Z   1
loop_
 _symmetry_equiv_pos_site_id
 _symmetry_equiv_pos_as_xyz
  1  'x, y, z'
loop_
 _atom_site_type_symbol
 _atom_site_label
 _atom_site_symmetry_multiplicity
 _atom_site_fract_x
 _atom_site_fract_y
 _atom_site_fract_z
 _atom_site_occupancy
  Ba  Ba0  1  0.50017545  0.50018058  0.20835410  1
  Ba  Ba1  1  0.49989996  0.49980497  0.79245059  1
  Y  Y2  1  0.50007778  0.49985927  0.49939659  1
  Tl  Tl3  1  0.00008340  0.00052054  0.00084724  1
  Co  Co4  1  0.00050286  0.00028405  0.35772869  1
  Co  Co5  1  -0.00023566  0.99948683  0.64239664  1
  O  O6  1  0.00023138  0.00003840  0.17888912  1
  O  O7  1  0.00017092  0.49919682  0.38550025  1
  O  O8  1  0.49935593  0.99995508  0.38497117  1
  O  O9  1  0.50049158  0.99997481  0.61319088  1
  O  O10  1  0.49933748  0.49959245  0.00038731  1
  O  O11  1  -0.00003285  0.50092103  0.61374696  1
  O  O12  1  0.99993976  0.00018418  0.82214347  1
