# generated using pymatgen
data_K2SeO4
_symmetry_space_group_name_H-M   'P 1'
_cell_length_a   6.14654966
_cell_length_b   10.65273403
_cell_length_c   23.36993672
_cell_angle_alpha   90.00000000
_cell_angle_beta   90.00000000
_cell_angle_gamma   90.00000000
_symmetry_Int_Tables_number   1
_chemical_formula_structural   K2SeO4
_chemical_formula_sum   'K24 Se12 O48'
_cell_volume   1530.20640410
_cell_formula_units_Z   12
loop_
 _symmetry_equiv_pos_site_id
 _symmetry_equiv_pos_as_xyz
  1  'x, y, z'
loop_
 _atom_site_type_symbol
 _atom_site_label
 _atom_site_symmetry_multiplicity
 _atom_site_fract_x
 _atom_site_fract_y
 _atom_site_fract_z
 _atom_site_occupancy
  K  K0  1  0.76762362  0.29421355  0.66654625  1
  K  K1  1  0.26762362  0.70578645  0.33345375  1
  K  K2  1  0.25108899  0.42177680  0.89013231  1
  K  K3  1  0.23237751  0.70586721  0.99977147  1
  K  K4  1  0.73237751  0.20586721  0.50022853  1
  K  K5  1  0.26762362  0.79421355  0.83345375  1
  K  K6  1  0.23237751  0.79413279  0.49977147  1
  K  K7  1  0.75108899  0.57822320  0.10986769  1
  K  K8  1  0.75653518  0.20653703  0.83310518  1
  K  K9  1  0.75653518  0.29346297  0.33310518  1
  K  K10  1  0.73427192  0.92327328  0.94339101  1
  K  K11  1  0.73427192  0.57672672  0.44339101  1
  K  K12  1  0.23427192  0.07672672  0.05660899  1
  K  K13  1  0.26562167  0.07997720  0.72327436  1
  K  K14  1  0.26562167  0.42002280  0.22327436  1
  K  K15  1  0.76562167  0.57997720  0.77672564  1
  K  K16  1  0.25108899  0.07822320  0.39013231  1
  K  K17  1  0.76762362  0.20578645  0.16654625  1
  K  K18  1  0.25653518  0.79346297  0.16689482  1
  K  K19  1  0.23427192  0.42327328  0.55660899  1
  K  K20  1  0.76562167  0.92002280  0.27672564  1
  K  K21  1  0.25653518  0.70653703  0.66689482  1
  K  K22  1  0.73237751  0.29413279  0.00022853  1
  K  K23  1  0.75108899  0.92177680  0.60986769  1
  Se  Se24  1  0.25445626  0.41804047  0.74074766  1
  Se  Se25  1  0.23588008  0.08212981  0.90714954  1
  Se  Se26  1  0.25348491  0.08135406  0.57408112  1
  Se  Se27  1  0.73588008  0.58212981  0.59285046  1
  Se  Se28  1  0.25348491  0.41864594  0.07408112  1
  Se  Se29  1  0.75445626  0.91804047  0.75925234  1
  Se  Se30  1  0.23588008  0.41787019  0.40714954  1
  Se  Se31  1  0.75348491  0.58135406  0.92591888  1
  Se  Se32  1  0.75445626  0.58195953  0.25925234  1
  Se  Se33  1  0.73588008  0.91787019  0.09285046  1
  Se  Se34  1  0.25445626  0.08195953  0.24074766  1
  Se  Se35  1  0.75348491  0.91864594  0.42591888  1
  O  O36  1  0.52913452  0.64405819  0.22993483  1
  O  O37  1  0.01841302  0.33972127  0.43209173  1
  O  O38  1  0.97401998  0.84795431  0.39812480  1
  O  O39  1  0.46375514  0.33920922  0.42399654  1
  O  O40  1  0.24421411  0.55932055  0.43946483  1
  O  O41  1  0.52990560  0.83585292  0.40933754  1
  O  O42  1  0.96375514  0.83920922  0.07600346  1
  O  O43  1  0.28267560  0.42967500  0.00334661  1
  O  O44  1  0.02913452  0.35594181  0.77006517  1
  O  O45  1  0.01841302  0.16027873  0.93209173  1
  O  O46  1  0.78267560  0.57032500  0.99665339  1
  O  O47  1  0.74421411  0.05932055  0.06053517  1
  O  O48  1  0.23234550  0.93771557  0.60364929  1
  O  O49  1  0.97401998  0.65204569  0.89812480  1
  O  O50  1  0.46375514  0.16079078  0.92399654  1
  O  O51  1  0.71389196  0.93497984  0.16348623  1
  O  O52  1  0.79557795  0.44031806  0.22910113  1
  O  O53  1  0.71389196  0.56502016  0.66348623  1
  O  O54  1  0.47401998  0.15204569  0.60187520  1
  O  O55  1  0.96375514  0.66079078  0.57600346  1
  O  O56  1  0.29557795  0.94031806  0.27089887  1
  O  O57  1  0.74421411  0.44067945  0.56053517  1
  O  O58  1  0.24421411  0.94067945  0.93946483  1
  O  O59  1  0.02913452  0.14405819  0.27006517  1
  O  O60  1  0.28267560  0.07032500  0.50334661  1
  O  O61  1  0.02990560  0.33585292  0.09066246  1
  O  O62  1  0.21389196  0.43497984  0.33651377  1
  O  O63  1  0.71618887  0.93218326  0.82959596  1
  O  O64  1  0.46816758  0.17488485  0.25509721  1
  O  O65  1  0.79557795  0.05968194  0.72910113  1
  O  O66  1  0.51841302  0.83972127  0.06790827  1
  O  O67  1  0.52990560  0.66414708  0.90933754  1
  O  O68  1  0.21618887  0.06781674  0.17040404  1
  O  O69  1  0.73234550  0.06228443  0.39635071  1
  O  O70  1  0.73234550  0.43771557  0.89635071  1
  O  O71  1  0.46816758  0.32511515  0.75509721  1
  O  O72  1  0.21389196  0.06502016  0.83651377  1
  O  O73  1  0.52913452  0.85594181  0.72993483  1
  O  O74  1  0.71618887  0.56781674  0.32959596  1
  O  O75  1  0.29557795  0.55968194  0.77089887  1
  O  O76  1  0.02990560  0.16414708  0.59066246  1
  O  O77  1  0.78267560  0.92967500  0.49665339  1
  O  O78  1  0.51841302  0.66027873  0.56790827  1
  O  O79  1  0.21618887  0.43218326  0.67040404  1
  O  O80  1  0.47401998  0.34795431  0.10187520  1
  O  O81  1  0.23234550  0.56228443  0.10364929  1
  O  O82  1  0.96816758  0.67488485  0.24490279  1
  O  O83  1  0.96816758  0.82511515  0.74490279  1
