# generated using pymatgen
data_KSrB5O9
_symmetry_space_group_name_H-M   'P 1'
_cell_length_a   6.74487518
_cell_length_b   8.07329691
_cell_length_c   14.39827761
_cell_angle_alpha   90.00000000
_cell_angle_beta   93.05959969
_cell_angle_gamma   90.00000000
_symmetry_Int_Tables_number   1
_chemical_formula_structural   KSrB5O9
_chemical_formula_sum   'K4 Sr4 B20 O36'
_cell_volume   782.91728234
_cell_formula_units_Z   4
loop_
 _symmetry_equiv_pos_site_id
 _symmetry_equiv_pos_as_xyz
  1  'x, y, z'
loop_
 _atom_site_type_symbol
 _atom_site_label
 _atom_site_symmetry_multiplicity
 _atom_site_fract_x
 _atom_site_fract_y
 _atom_site_fract_z
 _atom_site_occupancy
  K  K0  1  0.49866572  0.34490035  0.09933727  1
  K  K1  1  0.50133428  0.84490035  0.40066273  1
  K  K2  1  0.49866572  0.15509965  0.59933727  1
  K  K3  1  0.50133428  0.65509965  0.90066273  1
  Sr  Sr4  1  0.07744999  0.51641048  0.26024475  1
  Sr  Sr5  1  0.92255001  0.01641048  0.23975525  1
  Sr  Sr6  1  0.92255001  0.48358952  0.73975525  1
  Sr  Sr7  1  0.07744999  0.98358952  0.76024475  1
  B  B8  1  0.93907229  0.28404203  0.06152029  1
  B  B9  1  0.38422461  0.99347707  0.19380847  1
  B  B10  1  0.46443244  0.21616327  0.32726215  1
  B  B11  1  0.06092771  0.71595797  0.93847971  1
  B  B12  1  0.80750355  0.22132052  0.89671538  1
  B  B13  1  0.38422461  0.50652293  0.69380847  1
  B  B14  1  0.83265615  0.80243538  0.56523293  1
  B  B15  1  0.61577539  0.49347707  0.30619153  1
  B  B16  1  0.83265615  0.69756462  0.06523293  1
  B  B17  1  0.80750355  0.27867948  0.39671538  1
  B  B18  1  0.19249645  0.77867948  0.10328462  1
  B  B19  1  0.53556756  0.78383673  0.67273785  1
  B  B20  1  0.06092771  0.78404203  0.43847971  1
  B  B21  1  0.53556756  0.71616327  0.17273785  1
  B  B22  1  0.16734385  0.30243538  0.93476707  1
  B  B23  1  0.16734385  0.19756462  0.43476707  1
  B  B24  1  0.19249645  0.72132052  0.60328462  1
  B  B25  1  0.93907229  0.21595797  0.56152029  1
  B  B26  1  0.46443244  0.28383673  0.82726215  1
  B  B27  1  0.61577539  0.00652293  0.80619153  1
  O  O28  1  0.55567328  0.60117803  0.69716177  1
  O  O29  1  0.08993542  0.70361584  0.84699668  1
  O  O30  1  0.01743877  0.23704146  0.36926276  1
  O  O31  1  0.77845686  0.45189384  0.36341737  1
  O  O32  1  0.87336492  0.67448547  0.97272536  1
  O  O33  1  0.87336492  0.82551453  0.47272536  1
  O  O34  1  0.77845686  0.04810616  0.86341737  1
  O  O35  1  0.79178143  0.23229946  0.99708529  1
  O  O36  1  0.36014083  0.17859324  0.41313006  1
  O  O37  1  0.08993542  0.79638416  0.34699668  1
  O  O38  1  0.67198520  0.16806209  0.34243685  1
  O  O39  1  0.20821857  0.76770054  0.00291471  1
  O  O40  1  0.91006458  0.29638416  0.15300332  1
  O  O41  1  0.79178143  0.26770054  0.49708529  1
  O  O42  1  0.12663508  0.17448547  0.52727464  1
  O  O43  1  0.36014083  0.32140676  0.91313006  1
  O  O44  1  0.98256123  0.76295854  0.63073724  1
  O  O45  1  0.32801480  0.66806209  0.15756315  1
  O  O46  1  0.44432672  0.10117803  0.80283823  1
  O  O47  1  0.91006458  0.20361584  0.65300332  1
  O  O48  1  0.63985917  0.82140676  0.58686994  1
  O  O49  1  0.12663508  0.32551453  0.02727464  1
  O  O50  1  0.63985917  0.67859324  0.08686994  1
  O  O51  1  0.67198520  0.33193791  0.84243685  1
  O  O52  1  0.44432672  0.39882197  0.30283823  1
  O  O53  1  0.36197364  0.13178583  0.24710994  1
  O  O54  1  0.22154314  0.95189384  0.13658263  1
  O  O55  1  0.55567328  0.89882197  0.19716177  1
  O  O56  1  0.63802636  0.86821417  0.75289006  1
  O  O57  1  0.36197364  0.36821417  0.74710994  1
  O  O58  1  0.63802636  0.63178583  0.25289006  1
  O  O59  1  0.01743877  0.26295854  0.86926276  1
  O  O60  1  0.20821857  0.73229946  0.50291471  1
  O  O61  1  0.32801480  0.83193791  0.65756315  1
  O  O62  1  0.98256123  0.73704146  0.13073724  1
  O  O63  1  0.22154314  0.54810616  0.63658263  1
