# generated using pymatgen
data_Rb4LiZr3H2F19
_symmetry_space_group_name_H-M   'P 1'
_cell_length_a   11.60817821
_cell_length_b   12.81725746
_cell_length_c   13.38377284
_cell_angle_alpha   90.00000000
_cell_angle_beta   90.00000000
_cell_angle_gamma   110.61922629
_symmetry_Int_Tables_number   1
_chemical_formula_structural   Rb4LiZr3H2F19
_chemical_formula_sum   'Rb16 Li4 Zr12 H8 F76'
_cell_volume   1863.74460045
_cell_formula_units_Z   4
loop_
 _symmetry_equiv_pos_site_id
 _symmetry_equiv_pos_as_xyz
  1  'x, y, z'
loop_
 _atom_site_type_symbol
 _atom_site_label
 _atom_site_symmetry_multiplicity
 _atom_site_fract_x
 _atom_site_fract_y
 _atom_site_fract_z
 _atom_site_occupancy
  Rb  Rb0  1  0.34948092  0.07765993  0.38601966  1
  Rb  Rb1  1  0.53690073  0.41590381  0.87973104  1
  Rb  Rb2  1  0.96309927  0.08409619  0.37973104  1
  Rb  Rb3  1  0.34413431  0.07222930  0.86690560  1
  Rb  Rb4  1  0.65051908  0.92234007  0.61398034  1
  Rb  Rb5  1  0.65586569  0.92777070  0.13309440  1
  Rb  Rb6  1  0.03258116  0.92700993  0.12985950  1
  Rb  Rb7  1  0.46309927  0.58409619  0.12026896  1
  Rb  Rb8  1  0.15051908  0.42234007  0.88601966  1
  Rb  Rb9  1  0.84948092  0.57765993  0.11398034  1
  Rb  Rb10  1  0.46741884  0.57299007  0.62985950  1
  Rb  Rb11  1  0.96741884  0.07299007  0.87014050  1
  Rb  Rb12  1  0.53258116  0.42700993  0.37014050  1
  Rb  Rb13  1  0.15586569  0.42777070  0.36690560  1
  Rb  Rb14  1  0.84413431  0.57222930  0.63309440  1
  Rb  Rb15  1  0.03690073  0.91590381  0.62026896  1
  Li  Li16  1  0.24900981  0.75408237  0.12167119  1
  Li  Li17  1  0.75099019  0.24591763  0.87832881  1
  Li  Li18  1  0.74900981  0.25408237  0.37832881  1
  Li  Li19  1  0.25099019  0.74591763  0.62167119  1
  Zr  Zr20  1  0.41472898  0.76065114  0.87349683  1
  Zr  Zr21  1  0.77297903  0.74950152  0.37420018  1
  Zr  Zr22  1  0.41142841  0.76293907  0.37367160  1
  Zr  Zr23  1  0.22702097  0.25049848  0.62579982  1
  Zr  Zr24  1  0.91472898  0.26065114  0.62650317  1
  Zr  Zr25  1  0.27297903  0.24950152  0.12579982  1
  Zr  Zr26  1  0.58527102  0.23934886  0.12650317  1
  Zr  Zr27  1  0.72702097  0.75049848  0.87420018  1
  Zr  Zr28  1  0.08527102  0.73934886  0.37349683  1
  Zr  Zr29  1  0.91142841  0.26293907  0.12632840  1
  Zr  Zr30  1  0.08857159  0.73706093  0.87367160  1
  Zr  Zr31  1  0.58857159  0.23706093  0.62632840  1
  H  H32  1  0.37243742  0.98205679  0.62402366  1
  H  H33  1  0.12756258  0.51794321  0.12402366  1
  H  H34  1  0.62756258  0.01794321  0.37597634  1
  H  H35  1  0.62925966  0.00985053  0.87960584  1
  H  H36  1  0.12925966  0.50985053  0.62039416  1
  H  H37  1  0.37074034  0.99014947  0.12039416  1
  H  H38  1  0.87243742  0.48205679  0.87597634  1
  H  H39  1  0.87074034  0.49014947  0.37960584  1
  F  F40  1  0.81624342  0.87865501  0.27282993  1
  F  F41  1  0.58573406  0.23608959  0.47428080  1
  F  F42  1  0.21191531  0.57852429  0.12625637  1
  F  F43  1  0.41259751  0.21765511  0.03699407  1
  F  F44  1  0.01213811  0.43468117  0.63263781  1
  F  F45  1  0.31624342  0.37865501  0.22717007  1
  F  F46  1  0.68375658  0.62134499  0.77282993  1
  F  F47  1  0.08740249  0.28234489  0.53699407  1
  F  F48  1  0.91623699  0.27564939  0.27787489  1
  F  F49  1  0.91426594  0.26391041  0.97428080  1
  F  F50  1  0.91587420  0.72473905  0.28345949  1
  F  F51  1  0.37124298  0.76438808  0.02042467  1
  F  F52  1  0.58111714  0.39719640  0.12078343  1
  F  F53  1  0.71506788  0.06539762  0.88898226  1
  F  F54  1  0.78493212  0.43460238  0.38898226  1
  F  F55  1  0.27719847  0.84628437  0.87079963  1
  F  F56  1  0.58412580  0.77526095  0.78345949  1
  F  F57  1  0.36561947  0.75081628  0.72704188  1
  F  F58  1  0.12875702  0.73561192  0.52042467  1
  F  F59  1  0.91427040  0.10508905  0.13222322  1
  F  F60  1  0.48727504  0.06035301  0.61983565  1
  F  F61  1  0.08111714  0.89719640  0.37921657  1
  F  F62  1  0.39604099  0.21289333  0.62730297  1
  F  F63  1  0.08572960  0.89491095  0.86777678  1
  F  F64  1  0.63438053  0.24918372  0.27295812  1
  F  F65  1  0.08412580  0.27526095  0.71654051  1
  F  F66  1  0.28808469  0.92147571  0.62625637  1
  F  F67  1  0.28248056  0.85046603  0.37743277  1
  F  F68  1  0.77719847  0.34628437  0.62920037  1
  F  F69  1  0.82865050  0.86375823  0.97837558  1
  F  F70  1  0.41426594  0.76391041  0.52571920  1
  F  F71  1  0.78248056  0.35046603  0.12256723  1
  F  F72  1  0.01272496  0.43964699  0.11983565  1
  F  F73  1  0.17134950  0.13624177  0.02162442  1
  F  F74  1  0.67490299  0.63538352  0.26942835  1
  F  F75  1  0.86561947  0.25081628  0.77295812  1
  F  F76  1  0.41888286  0.60280360  0.87921657  1
  F  F77  1  0.68422834  0.62450927  0.97880335  1
  F  F78  1  0.62875702  0.23561192  0.97957533  1
  F  F79  1  0.31577166  0.37549073  0.02119665  1
  F  F80  1  0.58376301  0.22435061  0.77787489  1
  F  F81  1  0.08573406  0.73608959  0.02571920  1
  F  F82  1  0.82509701  0.86461648  0.76942835  1
  F  F83  1  0.91259751  0.71765511  0.46300593  1
  F  F84  1  0.21506788  0.56539762  0.61101774  1
  F  F85  1  0.89604099  0.71289333  0.87269703  1
  F  F86  1  0.22280153  0.65371563  0.37079963  1
  F  F87  1  0.87124298  0.26438808  0.47957533  1
  F  F88  1  0.18422834  0.12450927  0.52119665  1
  F  F89  1  0.78808469  0.42147571  0.87374363  1
  F  F90  1  0.41623699  0.77564939  0.22212511  1
  F  F91  1  0.41587420  0.22473905  0.21654051  1
  F  F92  1  0.10395901  0.28710667  0.12730297  1
  F  F93  1  0.81577166  0.87549073  0.47880335  1
  F  F94  1  0.98786189  0.56531883  0.36736219  1
  F  F95  1  0.71191531  0.07852429  0.37374363  1
  F  F96  1  0.51272496  0.93964699  0.38016435  1
  F  F97  1  0.91888286  0.10280360  0.62078343  1
  F  F98  1  0.32509701  0.36461648  0.73057165  1
  F  F99  1  0.58740249  0.78234489  0.96300593  1
  F  F100  1  0.71751944  0.14953397  0.62256723  1
  F  F101  1  0.58572960  0.39491095  0.63222322  1
  F  F102  1  0.60395901  0.78710667  0.37269703  1
  F  F103  1  0.48786189  0.06531883  0.13263781  1
  F  F104  1  0.51213811  0.93468117  0.86736219  1
  F  F105  1  0.72280153  0.15371563  0.12920037  1
  F  F106  1  0.17490299  0.13538352  0.23057165  1
  F  F107  1  0.28493212  0.93460238  0.11101774  1
  F  F108  1  0.21751944  0.64953397  0.87743277  1
  F  F109  1  0.67134950  0.63624177  0.47837558  1
  F  F110  1  0.08376301  0.72435061  0.72212511  1
  F  F111  1  0.98727504  0.56035301  0.88016435  1
  F  F112  1  0.32865050  0.36375823  0.52162442  1
  F  F113  1  0.41427040  0.60508905  0.36777678  1
  F  F114  1  0.13438053  0.74918372  0.22704188  1
  F  F115  1  0.18375658  0.12134499  0.72717007  1
