# generated using pymatgen
data_Eu(IO3)3
_symmetry_space_group_name_H-M   'P 1'
_cell_length_a   6.07072456
_cell_length_b   8.94752572
_cell_length_c   15.53807201
_cell_angle_alpha   96.68029345
_cell_angle_beta   90.00000000
_cell_angle_gamma   90.00000000
_symmetry_Int_Tables_number   1
_chemical_formula_structural   Eu(IO3)3
_chemical_formula_sum   'Eu4 I12 O36'
_cell_volume   838.26630922
_cell_formula_units_Z   4
loop_
 _symmetry_equiv_pos_site_id
 _symmetry_equiv_pos_as_xyz
  1  'x, y, z'
loop_
 _atom_site_type_symbol
 _atom_site_label
 _atom_site_symmetry_multiplicity
 _atom_site_fract_x
 _atom_site_fract_y
 _atom_site_fract_z
 _atom_site_occupancy
  Eu  Eu0  1  0.23029056  0.03977503  0.89950935  1
  Eu  Eu1  1  0.26970944  0.53977503  0.39950935  1
  Eu  Eu2  1  0.73029056  0.46022497  0.60049065  1
  Eu  Eu3  1  0.76970944  0.96022497  0.10049065  1
  I  I4  1  0.13812925  0.66563026  0.02191706  1
  I  I5  1  0.59074122  0.61591030  0.19790836  1
  I  I6  1  0.09074122  0.88408970  0.30209164  1
  I  I7  1  0.68727159  0.78293791  0.85218955  1
  I  I8  1  0.90925878  0.11591030  0.69790836  1
  I  I9  1  0.18727159  0.71706209  0.64781045  1
  I  I10  1  0.36187075  0.16563026  0.52191706  1
  I  I11  1  0.86187075  0.33436974  0.97808294  1
  I  I12  1  0.81272841  0.28293791  0.35218955  1
  I  I13  1  0.40925878  0.38408970  0.80209164  1
  I  I14  1  0.63812925  0.83436974  0.47808294  1
  I  I15  1  0.31272841  0.21706209  0.14781045  1
  O  O16  1  0.10893641  0.85853726  0.99030789  1
  O  O17  1  0.39961063  0.13712655  0.03916332  1
  O  O18  1  0.10530763  0.07690586  0.17083069  1
  O  O19  1  0.31848533  0.58819725  0.24431326  1
  O  O20  1  0.49781491  0.23321902  0.86623298  1
  O  O21  1  0.96984984  0.71999440  0.11843919  1
  O  O22  1  0.41223759  0.54606347  0.88539891  1
  O  O23  1  0.58039854  0.08991268  0.44507045  1
  O  O24  1  0.58776241  0.45393653  0.11460109  1
  O  O25  1  0.10038937  0.63712655  0.53916332  1
  O  O26  1  0.44852390  0.86153504  0.80045564  1
  O  O27  1  0.91960146  0.58991268  0.94507045  1
  O  O28  1  0.18151467  0.08819725  0.74431326  1
  O  O29  1  0.05147610  0.36153504  0.30045564  1
  O  O30  1  0.46984984  0.78000560  0.38156081  1
  O  O31  1  0.39469237  0.57690586  0.67083069  1
  O  O32  1  0.50218509  0.76678098  0.13376702  1
  O  O33  1  0.60530763  0.42309414  0.32916931  1
  O  O34  1  0.39106359  0.35853726  0.49030789  1
  O  O35  1  0.99781491  0.26678098  0.63376702  1
  O  O36  1  0.08776241  0.04606347  0.38539891  1
  O  O37  1  0.94852390  0.63846496  0.69954436  1
  O  O38  1  0.68151467  0.41180275  0.75568674  1
  O  O39  1  0.89961063  0.36287345  0.46083668  1
  O  O40  1  0.53015016  0.21999440  0.61843919  1
  O  O41  1  0.41960146  0.91008732  0.55492955  1
  O  O42  1  0.91223759  0.95393653  0.61460109  1
  O  O43  1  0.89469237  0.92309414  0.82916931  1
  O  O44  1  0.55147610  0.13846496  0.19954436  1
  O  O45  1  0.00218509  0.73321902  0.36623298  1
  O  O46  1  0.08039854  0.41008732  0.05492955  1
  O  O47  1  0.60893641  0.64146274  0.50969211  1
  O  O48  1  0.81848533  0.91180275  0.25568674  1
  O  O49  1  0.60038937  0.86287345  0.96083668  1
  O  O50  1  0.89106359  0.14146274  0.00969211  1
  O  O51  1  0.03015016  0.28000560  0.88156081  1
