# generated using pymatgen
data_Rb2HfS4
_symmetry_space_group_name_H-M   'P 1'
_cell_length_a   6.78008359
_cell_length_b   9.88729747
_cell_length_c   24.32735393
_cell_angle_alpha   90.00000000
_cell_angle_beta   90.00000000
_cell_angle_gamma   90.00000000
_symmetry_Int_Tables_number   1
_chemical_formula_structural   Rb2HfS4
_chemical_formula_sum   'Rb16 Hf8 S32'
_cell_volume   1630.82560811
_cell_formula_units_Z   8
loop_
 _symmetry_equiv_pos_site_id
 _symmetry_equiv_pos_as_xyz
  1  'x, y, z'
loop_
 _atom_site_type_symbol
 _atom_site_label
 _atom_site_symmetry_multiplicity
 _atom_site_fract_x
 _atom_site_fract_y
 _atom_site_fract_z
 _atom_site_occupancy
  Rb  Rb0  1  0.30716699  0.85827371  0.53362989  1
  Rb  Rb1  1  0.54579955  0.92778119  0.69914746  1
  Rb  Rb2  1  0.04579955  0.07221881  0.80085254  1
  Rb  Rb3  1  0.80716699  0.64172629  0.53362989  1
  Rb  Rb4  1  0.04579955  0.57221881  0.69914746  1
  Rb  Rb5  1  0.19283301  0.35827371  0.46637011  1
  Rb  Rb6  1  0.45420045  0.57221881  0.19914746  1
  Rb  Rb7  1  0.30716699  0.35827371  0.96637011  1
  Rb  Rb8  1  0.95420045  0.92778119  0.19914746  1
  Rb  Rb9  1  0.19283301  0.85827371  0.03362989  1
  Rb  Rb10  1  0.69283301  0.64172629  0.03362989  1
  Rb  Rb11  1  0.45420045  0.07221881  0.30085254  1
  Rb  Rb12  1  0.80716699  0.14172629  0.96637011  1
  Rb  Rb13  1  0.54579955  0.42778119  0.80085254  1
  Rb  Rb14  1  0.95420045  0.42778119  0.30085254  1
  Rb  Rb15  1  0.69283301  0.14172629  0.46637011  1
  Hf  Hf16  1  0.03338122  0.67459780  0.86922396  1
  Hf  Hf17  1  0.53338122  0.82540220  0.86922396  1
  Hf  Hf18  1  0.46661878  0.67459780  0.36922396  1
  Hf  Hf19  1  0.46661878  0.17459780  0.13077604  1
  Hf  Hf20  1  0.53338122  0.32540220  0.63077604  1
  Hf  Hf21  1  0.96661878  0.82540220  0.36922396  1
  Hf  Hf22  1  0.96661878  0.32540220  0.13077604  1
  Hf  Hf23  1  0.03338122  0.17459780  0.63077604  1
  S  S24  1  0.05177949  0.42246302  0.84124357  1
  S  S25  1  0.44822051  0.42246302  0.34124357  1
  S  S26  1  0.94822051  0.57753698  0.15875643  1
  S  S27  1  0.87611223  0.46023947  0.91126365  1
  S  S28  1  0.76773606  0.72879101  0.80008084  1
  S  S29  1  0.12388777  0.53976053  0.08873635  1
  S  S30  1  0.65580341  0.32833990  0.06893146  1
  S  S31  1  0.55177949  0.57753698  0.65875643  1
  S  S32  1  0.12388777  0.03976053  0.41126365  1
  S  S33  1  0.65580341  0.82833990  0.43106854  1
  S  S34  1  0.34419659  0.17166010  0.56893146  1
  S  S35  1  0.23226394  0.27120899  0.19991916  1
  S  S36  1  0.05177949  0.92246302  0.65875643  1
  S  S37  1  0.15580341  0.17166010  0.06893146  1
  S  S38  1  0.37611223  0.53976053  0.58873635  1
  S  S39  1  0.26773606  0.27120899  0.69991916  1
  S  S40  1  0.73226394  0.72879101  0.30008084  1
  S  S41  1  0.62388777  0.96023947  0.08873635  1
  S  S42  1  0.87611223  0.96023947  0.58873635  1
  S  S43  1  0.23226394  0.77120899  0.30008084  1
  S  S44  1  0.76773606  0.22879101  0.69991916  1
  S  S45  1  0.62388777  0.46023947  0.41126365  1
  S  S46  1  0.73226394  0.22879101  0.19991916  1
  S  S47  1  0.94822051  0.07753698  0.34124357  1
  S  S48  1  0.84419659  0.32833990  0.56893146  1
  S  S49  1  0.55177949  0.07753698  0.84124357  1
  S  S50  1  0.15580341  0.67166010  0.43106854  1
  S  S51  1  0.84419659  0.82833990  0.93106854  1
  S  S52  1  0.34419659  0.67166010  0.93106854  1
  S  S53  1  0.44822051  0.92246302  0.15875643  1
  S  S54  1  0.26773606  0.77120899  0.80008084  1
  S  S55  1  0.37611223  0.03976053  0.91126365  1
