# generated using pymatgen
data_SrFe(PO4)2
_symmetry_space_group_name_H-M   'P 1'
_cell_length_a   5.78253536
_cell_length_b   7.23255454
_cell_length_c   9.11002050
_cell_angle_alpha   109.66993287
_cell_angle_beta   101.82538682
_cell_angle_gamma   99.55861450
_symmetry_Int_Tables_number   1
_chemical_formula_structural   SrFe(PO4)2
_chemical_formula_sum   'Sr2 Fe2 P4 O16'
_cell_volume   339.54683760
_cell_formula_units_Z   2
loop_
 _symmetry_equiv_pos_site_id
 _symmetry_equiv_pos_as_xyz
  1  'x, y, z'
loop_
 _atom_site_type_symbol
 _atom_site_label
 _atom_site_symmetry_multiplicity
 _atom_site_fract_x
 _atom_site_fract_y
 _atom_site_fract_z
 _atom_site_occupancy
  Sr  Sr0  1  0.25758724  0.79394640  0.05539951  1
  Sr  Sr1  1  0.74241276  0.20605360  0.94460049  1
  Fe  Fe2  1  0.68596297  0.83007875  0.54586487  1
  Fe  Fe3  1  0.31403703  0.16992125  0.45413513  1
  P  P4  1  0.39915386  0.41910980  0.23183316  1
  P  P5  1  0.60084614  0.58089020  0.76816684  1
  P  P6  1  0.84394284  0.02896074  0.30192451  1
  P  P7  1  0.15605716  0.97103926  0.69807549  1
  O  O8  1  0.82448848  0.56808740  0.88869661  1
  O  O9  1  0.61597596  0.45043159  0.16209026  1
  O  O10  1  0.64383466  0.78590465  0.74440800  1
  O  O11  1  0.94950979  0.09005262  0.70185323  1
  O  O12  1  0.38402404  0.54956841  0.83790974  1
  O  O13  1  0.99903886  0.75584326  0.57242596  1
  O  O14  1  0.00096114  0.24415674  0.42757404  1
  O  O15  1  0.27987863  0.98695650  0.86825806  1
  O  O16  1  0.35616534  0.21409535  0.25559200  1
  O  O17  1  0.72012137  0.01304350  0.13174194  1
  O  O18  1  0.17551152  0.43191260  0.11130339  1
  O  O19  1  0.43485434  0.59435218  0.39707731  1
  O  O20  1  0.56514566  0.40564782  0.60292269  1
  O  O21  1  0.63803527  0.94720666  0.37105224  1
  O  O22  1  0.05049021  0.90994738  0.29814677  1
  O  O23  1  0.36196473  0.05279334  0.62894776  1
