# generated using pymatgen
data_LaErS3
_symmetry_space_group_name_H-M   'P 1'
_cell_length_a   4.00735766
_cell_length_b   16.53377805
_cell_length_c   21.46153538
_cell_angle_alpha   90.00000000
_cell_angle_beta   90.00000000
_cell_angle_gamma   90.00000000
_symmetry_Int_Tables_number   1
_chemical_formula_structural   LaErS3
_chemical_formula_sum   'La12 Er12 S36'
_cell_volume   1421.97184435
_cell_formula_units_Z   12
loop_
 _symmetry_equiv_pos_site_id
 _symmetry_equiv_pos_as_xyz
  1  'x, y, z'
loop_
 _atom_site_type_symbol
 _atom_site_label
 _atom_site_symmetry_multiplicity
 _atom_site_fract_x
 _atom_site_fract_y
 _atom_site_fract_z
 _atom_site_occupancy
  La  La0  1  0.75000000  0.66996529  0.91262492  1
  La  La1  1  0.75000000  0.84003319  0.75443454  1
  La  La2  1  0.25000000  0.15996681  0.24556546  1
  La  La3  1  0.25000000  0.33003471  0.08737508  1
  La  La4  1  0.75000000  0.80567660  0.07854145  1
  La  La5  1  0.75000000  0.34003319  0.74556546  1
  La  La6  1  0.25000000  0.19432340  0.92145855  1
  La  La7  1  0.25000000  0.83003471  0.41262492  1
  La  La8  1  0.75000000  0.16996529  0.58737508  1
  La  La9  1  0.75000000  0.30567660  0.42145855  1
  La  La10  1  0.25000000  0.65996681  0.25443454  1
  La  La11  1  0.25000000  0.69432340  0.57854145  1
  Er  Er12  1  0.25000000  0.59484571  0.74989876  1
  Er  Er13  1  0.75000000  0.05675810  0.06924822  1
  Er  Er14  1  0.25000000  0.06597716  0.42052574  1
  Er  Er15  1  0.25000000  0.56597716  0.07947426  1
  Er  Er16  1  0.25000000  0.09484571  0.75010124  1
  Er  Er17  1  0.25000000  0.44324190  0.56924822  1
  Er  Er18  1  0.75000000  0.55675810  0.43075178  1
  Er  Er19  1  0.75000000  0.40515429  0.25010124  1
  Er  Er20  1  0.25000000  0.94324190  0.93075178  1
  Er  Er21  1  0.75000000  0.43402284  0.92052574  1
  Er  Er22  1  0.75000000  0.93402284  0.57947426  1
  Er  Er23  1  0.75000000  0.90515429  0.24989876  1
  S  S24  1  0.25000000  0.65888925  0.43676515  1
  S  S25  1  0.25000000  0.20894001  0.48311453  1
  S  S26  1  0.25000000  0.70894001  0.01688547  1
  S  S27  1  0.25000000  0.44039363  0.44184361  1
  S  S28  1  0.75000000  0.64600766  0.14846128  1
  S  S29  1  0.75000000  0.05243117  0.19374886  1
  S  S30  1  0.75000000  0.05960637  0.94184361  1
  S  S31  1  0.25000000  0.32315092  0.31570523  1
  S  S32  1  0.75000000  0.53693845  0.81795311  1
  S  S33  1  0.75000000  0.45686238  0.05225378  1
  S  S34  1  0.75000000  0.17684908  0.81570523  1
  S  S35  1  0.75000000  0.55243117  0.30625114  1
  S  S36  1  0.25000000  0.96306155  0.31795311  1
  S  S37  1  0.75000000  0.27003661  0.17845859  1
  S  S38  1  0.75000000  0.67684908  0.68429477  1
  S  S39  1  0.25000000  0.46306155  0.18204689  1
  S  S40  1  0.75000000  0.77003661  0.32154141  1
  S  S41  1  0.25000000  0.72996339  0.82154141  1
  S  S42  1  0.75000000  0.34111075  0.56323485  1
  S  S43  1  0.25000000  0.04313762  0.55225378  1
  S  S44  1  0.75000000  0.14600766  0.35153872  1
  S  S45  1  0.75000000  0.95686238  0.44774622  1
  S  S46  1  0.25000000  0.22996339  0.67845859  1
  S  S47  1  0.25000000  0.44756883  0.69374886  1
  S  S48  1  0.25000000  0.94039363  0.05815639  1
  S  S49  1  0.75000000  0.03693845  0.68204689  1
  S  S50  1  0.25000000  0.82315092  0.18429477  1
  S  S51  1  0.75000000  0.79105999  0.51688547  1
  S  S52  1  0.25000000  0.54313762  0.94774622  1
  S  S53  1  0.25000000  0.15888925  0.06323485  1
  S  S54  1  0.75000000  0.84111075  0.93676515  1
  S  S55  1  0.75000000  0.29105999  0.98311453  1
  S  S56  1  0.25000000  0.94756883  0.80625114  1
  S  S57  1  0.75000000  0.55960637  0.55815639  1
  S  S58  1  0.25000000  0.35399234  0.85153872  1
  S  S59  1  0.25000000  0.85399234  0.64846128  1
