# generated using pymatgen
data_Dy2(TeO3)3
_symmetry_space_group_name_H-M   'P 1'
_cell_length_a   5.43060074
_cell_length_b   13.92158754
_cell_length_c   22.85488627
_cell_angle_alpha   98.61522655
_cell_angle_beta   90.00000000
_cell_angle_gamma   90.00000000
_symmetry_Int_Tables_number   1
_chemical_formula_structural   Dy2(TeO3)3
_chemical_formula_sum   'Dy16 Te24 O72'
_cell_volume   1708.39200455
_cell_formula_units_Z   8
loop_
 _symmetry_equiv_pos_site_id
 _symmetry_equiv_pos_as_xyz
  1  'x, y, z'
loop_
 _atom_site_type_symbol
 _atom_site_label
 _atom_site_symmetry_multiplicity
 _atom_site_fract_x
 _atom_site_fract_y
 _atom_site_fract_z
 _atom_site_occupancy
  Dy  Dy0  1  0.29517864  0.30002497  0.29473427  1
  Dy  Dy1  1  0.28006491  0.68062500  0.33314766  1
  Dy  Dy2  1  0.75311251  0.50978406  0.06044375  1
  Dy  Dy3  1  0.70482136  0.69997503  0.70526573  1
  Dy  Dy4  1  0.71993509  0.31937500  0.66685234  1
  Dy  Dy5  1  0.73868496  0.87744333  0.85841958  1
  Dy  Dy6  1  0.74688749  0.50978406  0.56044375  1
  Dy  Dy7  1  0.25311251  0.49021594  0.43955625  1
  Dy  Dy8  1  0.76131504  0.87744333  0.35841958  1
  Dy  Dy9  1  0.26131504  0.12255667  0.14158042  1
  Dy  Dy10  1  0.79517864  0.69997503  0.20526573  1
  Dy  Dy11  1  0.24688749  0.49021594  0.93955625  1
  Dy  Dy12  1  0.20482136  0.30002497  0.79473427  1
  Dy  Dy13  1  0.21993509  0.68062500  0.83314766  1
  Dy  Dy14  1  0.23868496  0.12255667  0.64158042  1
  Dy  Dy15  1  0.78006491  0.31937500  0.16685234  1
  Te  Te16  1  0.26187582  0.88732204  0.47475590  1
  Te  Te17  1  0.21922571  0.86796986  0.74086848  1
  Te  Te18  1  0.29210329  0.31446602  0.04660557  1
  Te  Te19  1  0.20276580  0.08010326  0.87541047  1
  Te  Te20  1  0.78866093  0.50275486  0.80591806  1
  Te  Te21  1  0.78077429  0.13203014  0.25913152  1
  Te  Te22  1  0.30889865  0.69404019  0.08748809  1
  Te  Te23  1  0.71133907  0.50275486  0.30591806  1
  Te  Te24  1  0.70789671  0.68553398  0.95339443  1
  Te  Te25  1  0.80889865  0.30595981  0.41251191  1
  Te  Te26  1  0.70276580  0.91989674  0.62458953  1
  Te  Te27  1  0.76187582  0.11267796  0.02524410  1
  Te  Te28  1  0.23812418  0.88732204  0.97475590  1
  Te  Te29  1  0.69110135  0.30595981  0.91251191  1
  Te  Te30  1  0.73812418  0.11267796  0.52524410  1
  Te  Te31  1  0.20789671  0.31446602  0.54660557  1
  Te  Te32  1  0.79723420  0.91989674  0.12458953  1
  Te  Te33  1  0.21133907  0.49724514  0.19408194  1
  Te  Te34  1  0.79210329  0.68553398  0.45339443  1
  Te  Te35  1  0.19110135  0.69404019  0.58748809  1
  Te  Te36  1  0.28077429  0.86796986  0.24086848  1
  Te  Te37  1  0.71922571  0.13203014  0.75913152  1
  Te  Te38  1  0.28866093  0.49724514  0.69408194  1
  Te  Te39  1  0.29723420  0.08010326  0.37541047  1
  O  O40  1  0.34858972  0.15085056  0.81799231  1
  O  O41  1  0.88842730  0.18839528  0.59403730  1
  O  O42  1  0.99488859  0.78933057  0.77972296  1
  O  O43  1  0.00064941  0.36122136  0.89853859  1
  O  O44  1  0.59110437  0.60027061  0.26221885  1
  O  O45  1  0.01553711  0.00511324  0.38394663  1
  O  O46  1  0.01632667  0.37302050  0.36277296  1
  O  O47  1  0.00511141  0.21066943  0.22027704  1
  O  O48  1  0.90501747  0.47495900  0.15158494  1
  O  O49  1  0.98367333  0.62697950  0.63722704  1
  O  O50  1  0.50064941  0.63877864  0.60146141  1
  O  O51  1  0.98069119  0.18895558  0.71448635  1
  O  O52  1  0.62795170  0.72794935  0.38559675  1
  O  O53  1  0.09110437  0.39972939  0.23778115  1
  O  O54  1  0.98026090  0.39114005  0.60038608  1
  O  O55  1  0.09498253  0.52504100  0.84841506  1
  O  O56  1  0.57729358  0.40523094  0.97783829  1
  O  O57  1  0.92623796  0.21223643  0.99430546  1
  O  O58  1  0.91536400  0.39248787  0.75291441  1
  O  O59  1  0.53268049  0.94196327  0.43885924  1
  O  O60  1  0.07376204  0.78776357  0.00569454  1
  O  O61  1  0.65141028  0.84914944  0.18200769  1
  O  O62  1  0.61157270  0.18839528  0.09403730  1
  O  O63  1  0.03268049  0.05803673  0.06114076  1
  O  O64  1  0.59498253  0.47495900  0.65158494  1
  O  O65  1  0.50556345  0.00804756  0.67666819  1
  O  O66  1  0.42270642  0.59476906  0.02216171  1
  O  O67  1  0.15829521  0.77853313  0.17567016  1
  O  O68  1  0.40501747  0.52504100  0.34841506  1
  O  O69  1  0.51973910  0.39114005  0.10038608  1
  O  O70  1  0.42623796  0.78776357  0.50569454  1
  O  O71  1  0.99443655  0.00804756  0.17666819  1
  O  O72  1  0.48446289  0.00511324  0.88394663  1
  O  O73  1  0.40321792  0.42056016  0.52978016  1
  O  O74  1  0.57376204  0.21223643  0.49430546  1
  O  O75  1  0.38842730  0.81160472  0.90596270  1
  O  O76  1  0.01973910  0.60885995  0.39961392  1
  O  O77  1  0.15141028  0.15085056  0.31799231  1
  O  O78  1  0.40889563  0.39972939  0.73778115  1
  O  O79  1  0.01930881  0.81104442  0.28551365  1
  O  O80  1  0.49935059  0.36122136  0.39853859  1
  O  O81  1  0.65829521  0.22146687  0.32432984  1
  O  O82  1  0.12795170  0.27205065  0.11440325  1
  O  O83  1  0.51632667  0.62697950  0.13722704  1
  O  O84  1  0.37204830  0.27205065  0.61440325  1
  O  O85  1  0.49488859  0.21066943  0.72027704  1
  O  O86  1  0.11157270  0.81160472  0.40596270  1
  O  O87  1  0.51930881  0.18895558  0.21448635  1
  O  O88  1  0.41536400  0.60751213  0.74708559  1
  O  O89  1  0.48026090  0.60885995  0.89961392  1
  O  O90  1  0.98446289  0.99488676  0.61605337  1
  O  O91  1  0.84858972  0.84914944  0.68200769  1
  O  O92  1  0.87204830  0.72794935  0.88559675  1
  O  O93  1  0.84170479  0.22146687  0.82432984  1
  O  O94  1  0.92270642  0.40523094  0.47783829  1
  O  O95  1  0.00556345  0.99195244  0.82333181  1
  O  O96  1  0.51553711  0.99488676  0.11605337  1
  O  O97  1  0.34170479  0.77853313  0.67567016  1
  O  O98  1  0.09678208  0.42056016  0.02978016  1
  O  O99  1  0.48367333  0.37302050  0.86277296  1
  O  O100  1  0.58463600  0.39248787  0.25291441  1
  O  O101  1  0.90889563  0.60027061  0.76221885  1
  O  O102  1  0.08463600  0.60751213  0.24708559  1
  O  O103  1  0.48069119  0.81104442  0.78551365  1
  O  O104  1  0.90321792  0.57943984  0.97021984  1
  O  O105  1  0.96731951  0.94196327  0.93885924  1
  O  O106  1  0.59678208  0.57943984  0.47021984  1
  O  O107  1  0.99935059  0.63877864  0.10146141  1
  O  O108  1  0.46731951  0.05803673  0.56114076  1
  O  O109  1  0.50511141  0.78933057  0.27972296  1
  O  O110  1  0.07729358  0.59476906  0.52216171  1
  O  O111  1  0.49443655  0.99195244  0.32333181  1
