# generated using pymatgen
data_Rb2ZrS4
_symmetry_space_group_name_H-M   'P 1'
_cell_length_a   6.84295463
_cell_length_b   9.89575087
_cell_length_c   24.42251397
_cell_angle_alpha   90.00000000
_cell_angle_beta   90.00000000
_cell_angle_gamma   90.00000000
_symmetry_Int_Tables_number   1
_chemical_formula_structural   Rb2ZrS4
_chemical_formula_sum   'Rb16 Zr8 S32'
_cell_volume   1653.79921121
_cell_formula_units_Z   8
loop_
 _symmetry_equiv_pos_site_id
 _symmetry_equiv_pos_as_xyz
  1  'x, y, z'
loop_
 _atom_site_type_symbol
 _atom_site_label
 _atom_site_symmetry_multiplicity
 _atom_site_fract_x
 _atom_site_fract_y
 _atom_site_fract_z
 _atom_site_occupancy
  Rb  Rb0  1  0.45038730  0.56877572  0.19958798  1
  Rb  Rb1  1  0.30534139  0.35888720  0.96642553  1
  Rb  Rb2  1  0.04961270  0.06877572  0.80041202  1
  Rb  Rb3  1  0.80534139  0.64111280  0.53357447  1
  Rb  Rb4  1  0.95038730  0.43122428  0.30041202  1
  Rb  Rb5  1  0.19465861  0.85888720  0.03357447  1
  Rb  Rb6  1  0.54961270  0.43122428  0.80041202  1
  Rb  Rb7  1  0.19465861  0.35888720  0.46642553  1
  Rb  Rb8  1  0.45038730  0.06877572  0.30041202  1
  Rb  Rb9  1  0.04961270  0.56877572  0.69958798  1
  Rb  Rb10  1  0.69465861  0.64111280  0.03357447  1
  Rb  Rb11  1  0.30534139  0.85888720  0.53357447  1
  Rb  Rb12  1  0.80534139  0.14111280  0.96642553  1
  Rb  Rb13  1  0.95038730  0.93122428  0.19958798  1
  Rb  Rb14  1  0.54961270  0.93122428  0.69958798  1
  Rb  Rb15  1  0.69465861  0.14111280  0.46642553  1
  Zr  Zr16  1  0.03798274  0.67377775  0.86939256  1
  Zr  Zr17  1  0.53798274  0.32622225  0.63060744  1
  Zr  Zr18  1  0.96201726  0.32622225  0.13060744  1
  Zr  Zr19  1  0.96201726  0.82622225  0.36939256  1
  Zr  Zr20  1  0.46201726  0.67377775  0.36939256  1
  Zr  Zr21  1  0.03798274  0.17377775  0.63060744  1
  Zr  Zr22  1  0.53798274  0.82622225  0.86939256  1
  Zr  Zr23  1  0.46201726  0.17377775  0.13060744  1
  S  S24  1  0.72179658  0.23503763  0.20088280  1
  S  S25  1  0.05372094  0.41937755  0.84149093  1
  S  S26  1  0.84710317  0.82722243  0.93231137  1
  S  S27  1  0.37698550  0.54237896  0.58951284  1
  S  S28  1  0.27820342  0.76496237  0.79911720  1
  S  S29  1  0.55372094  0.08062245  0.84149093  1
  S  S30  1  0.15289683  0.17277757  0.06768863  1
  S  S31  1  0.77820342  0.73503763  0.79911720  1
  S  S32  1  0.62301450  0.95762104  0.08951284  1
  S  S33  1  0.37698550  0.04237896  0.91048716  1
  S  S34  1  0.44627906  0.41937755  0.34149093  1
  S  S35  1  0.34710317  0.67277757  0.93231137  1
  S  S36  1  0.62301450  0.45762104  0.41048716  1
  S  S37  1  0.22179658  0.76496237  0.29911720  1
  S  S38  1  0.94627906  0.08062245  0.34149093  1
  S  S39  1  0.12301450  0.54237896  0.08951284  1
  S  S40  1  0.55372094  0.58062245  0.65850907  1
  S  S41  1  0.22179658  0.26496237  0.20088280  1
  S  S42  1  0.84710317  0.32722243  0.56768863  1
  S  S43  1  0.94627906  0.58062245  0.15850907  1
  S  S44  1  0.87698550  0.95762104  0.58951284  1
  S  S45  1  0.34710317  0.17277757  0.56768863  1
  S  S46  1  0.87698550  0.45762104  0.91048716  1
  S  S47  1  0.77820342  0.23503763  0.70088280  1
  S  S48  1  0.15289683  0.67277757  0.43231137  1
  S  S49  1  0.65289683  0.32722243  0.06768863  1
  S  S50  1  0.72179658  0.73503763  0.29911720  1
  S  S51  1  0.12301450  0.04237896  0.41048716  1
  S  S52  1  0.44627906  0.91937755  0.15850907  1
  S  S53  1  0.05372094  0.91937755  0.65850907  1
  S  S54  1  0.65289683  0.82722243  0.43231137  1
  S  S55  1  0.27820342  0.26496237  0.70088280  1
