# generated using pymatgen
data_Ni2Hg2SF6
_symmetry_space_group_name_H-M   'P 1'
_cell_length_a   7.68672831
_cell_length_b   7.68672750
_cell_length_c   7.68672763
_cell_angle_alpha   59.99999493
_cell_angle_beta   59.99999843
_cell_angle_gamma   59.99999803
_symmetry_Int_Tables_number   1
_chemical_formula_structural   Ni2Hg2SF6
_chemical_formula_sum   'Ni4 Hg4 S2 F12'
_cell_volume   321.15115130
_cell_formula_units_Z   2
loop_
 _symmetry_equiv_pos_site_id
 _symmetry_equiv_pos_as_xyz
  1  'x, y, z'
loop_
 _atom_site_type_symbol
 _atom_site_label
 _atom_site_symmetry_multiplicity
 _atom_site_fract_x
 _atom_site_fract_y
 _atom_site_fract_z
 _atom_site_occupancy
  Ni  Ni0  1  0.50000000  -0.00000000  -0.00000000  1
  Ni  Ni1  1  -0.00000000  -0.00000000  -0.00000000  1
  Ni  Ni2  1  -0.00000000  -0.00000000  0.50000000  1
  Ni  Ni3  1  -0.00000000  0.50000000  -0.00000000  1
  Hg  Hg4  1  -0.00000000  0.50000000  0.50000000  1
  Hg  Hg5  1  0.50000000  0.50000000  -0.00000000  1
  Hg  Hg6  1  0.50000000  -0.00000000  0.50000000  1
  Hg  Hg7  1  0.50000000  0.50000000  0.50000000  1
  S  S8  1  0.62500000  0.62500000  0.62500000  1
  S  S9  1  0.37500000  0.37500000  0.37500000  1
  F  F10  1  0.68088936  0.68088936  0.06911064  1
  F  F11  1  0.93088936  0.31911064  0.31911064  1
  F  F12  1  0.06911064  0.68088936  0.68088936  1
  F  F13  1  0.31911064  0.93088936  0.31911064  1
  F  F14  1  0.93088936  0.31911064  0.93088936  1
  F  F15  1  0.68088936  0.06911064  0.06911064  1
  F  F16  1  0.31911064  0.93088936  0.93088936  1
  F  F17  1  0.06911064  0.06911064  0.68088936  1
  F  F18  1  0.31911064  0.31911064  0.93088936  1
  F  F19  1  0.68088936  0.06911064  0.68088936  1
  F  F20  1  0.93088936  0.93088936  0.31911064  1
  F  F21  1  0.06911064  0.68088936  0.06911064  1
