# generated using pymatgen
data_Nd(IO3)3
_symmetry_space_group_name_H-M   'P 1'
_cell_length_a   6.04699790
_cell_length_b   8.94277077
_cell_length_c   15.54685399
_cell_angle_alpha   96.64981808
_cell_angle_beta   90.00000000
_cell_angle_gamma   90.00000000
_symmetry_Int_Tables_number   1
_chemical_formula_structural   Nd(IO3)3
_chemical_formula_sum   'Nd4 I12 O36'
_cell_volume   835.06989554
_cell_formula_units_Z   4
loop_
 _symmetry_equiv_pos_site_id
 _symmetry_equiv_pos_as_xyz
  1  'x, y, z'
loop_
 _atom_site_type_symbol
 _atom_site_label
 _atom_site_symmetry_multiplicity
 _atom_site_fract_x
 _atom_site_fract_y
 _atom_site_fract_z
 _atom_site_occupancy
  Nd  Nd0  1  0.26978802  0.53960546  0.39980737  1
  Nd  Nd1  1  0.23021198  0.03960546  0.89980737  1
  Nd  Nd2  1  0.76978802  0.96039454  0.10019263  1
  Nd  Nd3  1  0.73021198  0.46039454  0.60019263  1
  I  I4  1  0.31326558  0.21775421  0.14840206  1
  I  I5  1  0.86343947  0.33654103  0.97727054  1
  I  I6  1  0.41001942  0.38514788  0.80215199  1
  I  I7  1  0.36343947  0.16345897  0.52272946  1
  I  I8  1  0.68673442  0.78224579  0.85159794  1
  I  I9  1  0.13656053  0.66345897  0.02272946  1
  I  I10  1  0.58998058  0.61485212  0.19784801  1
  I  I11  1  0.91001942  0.11485212  0.69784801  1
  I  I12  1  0.18673442  0.71775421  0.64840206  1
  I  I13  1  0.81326558  0.28224579  0.35159794  1
  I  I14  1  0.08998058  0.88514788  0.30215199  1
  I  I15  1  0.63656053  0.83654103  0.47727054  1
  O  O16  1  0.08617198  0.05029873  0.38399479  1
  O  O17  1  0.03321982  0.28225896  0.88049649  1
  O  O18  1  0.41382802  0.55029873  0.88399479  1
  O  O19  1  0.96678018  0.71774104  0.11950351  1
  O  O20  1  0.41376005  0.91216842  0.55376929  1
  O  O21  1  0.18327700  0.08867286  0.74511712  1
  O  O22  1  0.59279580  0.86652309  0.95914818  1
  O  O23  1  0.46678018  0.78225896  0.38049649  1
  O  O24  1  0.60613484  0.42481132  0.32932204  1
  O  O25  1  0.10613484  0.07518868  0.17067796  1
  O  O26  1  0.09279580  0.63347691  0.54085182  1
  O  O27  1  0.53321982  0.21774104  0.61950351  1
  O  O28  1  0.49947065  0.76312075  0.13161642  1
  O  O29  1  0.50052935  0.23687925  0.86838358  1
  O  O30  1  0.08623995  0.41216842  0.05376929  1
  O  O31  1  0.94915980  0.63931004  0.70225519  1
  O  O32  1  0.91376005  0.58783158  0.94623071  1
  O  O33  1  0.00052935  0.26312075  0.63161642  1
  O  O34  1  0.90039336  0.14316511  0.00926855  1
  O  O35  1  0.91382802  0.94970127  0.61600521  1
  O  O36  1  0.58623995  0.08783158  0.44623071  1
  O  O37  1  0.40039336  0.35683489  0.49073145  1
  O  O38  1  0.31672300  0.58867286  0.24511712  1
  O  O39  1  0.68327700  0.41132714  0.75488288  1
  O  O40  1  0.44915980  0.86068996  0.79774481  1
  O  O41  1  0.05084020  0.36068996  0.29774481  1
  O  O42  1  0.55084020  0.13931004  0.20225519  1
  O  O43  1  0.59960664  0.64316511  0.50926855  1
  O  O44  1  0.09960664  0.85683489  0.99073145  1
  O  O45  1  0.89386516  0.92481132  0.82932204  1
  O  O46  1  0.81672300  0.91132714  0.25488288  1
  O  O47  1  0.40720420  0.13347691  0.04085182  1
  O  O48  1  0.99947065  0.73687925  0.36838358  1
  O  O49  1  0.39386516  0.57518868  0.67067796  1
  O  O50  1  0.58617198  0.44970127  0.11600521  1
  O  O51  1  0.90720420  0.36652309  0.45914818  1
