# generated using pymatgen
data_Rb4NpS2ClO10
_symmetry_space_group_name_H-M   'P 1'
_cell_length_a   4.69392954
_cell_length_b   10.85818606
_cell_length_c   14.93537857
_cell_angle_alpha   102.61525089
_cell_angle_beta   90.00000000
_cell_angle_gamma   90.00000000
_symmetry_Int_Tables_number   1
_chemical_formula_structural   Rb4NpS2ClO10
_chemical_formula_sum   'Rb8 Np2 S4 Cl2 O20'
_cell_volume   742.84294326
_cell_formula_units_Z   2
loop_
 _symmetry_equiv_pos_site_id
 _symmetry_equiv_pos_as_xyz
  1  'x, y, z'
loop_
 _atom_site_type_symbol
 _atom_site_label
 _atom_site_symmetry_multiplicity
 _atom_site_fract_x
 _atom_site_fract_y
 _atom_site_fract_z
 _atom_site_occupancy
  Rb  Rb0  1  0.23557735  0.06018067  0.89622744  1
  Rb  Rb1  1  0.76994899  0.43735876  0.87190014  1
  Rb  Rb2  1  0.76442265  0.93981933  0.10377256  1
  Rb  Rb3  1  0.76994899  0.06264124  0.62809986  1
  Rb  Rb4  1  0.23557735  0.43981933  0.60377256  1
  Rb  Rb5  1  0.76442265  0.56018067  0.39622744  1
  Rb  Rb6  1  0.23005101  0.93735876  0.37190014  1
  Rb  Rb7  1  0.23005101  0.56264124  0.12809986  1
  Np  Np8  1  0.26449438  0.25000000  0.25000000  1
  Np  Np9  1  0.73550562  0.75000000  0.75000000  1
  S  S10  1  0.65620623  0.22746903  0.42493702  1
  S  S11  1  0.34379377  0.77253097  0.57506298  1
  S  S12  1  0.65620623  0.27253097  0.07506298  1
  S  S13  1  0.34379377  0.72746903  0.92493702  1
  Cl  Cl14  1  0.73038535  0.75000000  0.25000000  1
  Cl  Cl15  1  0.26961465  0.25000000  0.75000000  1
  O  O16  1  0.26050187  0.42481110  0.28536952  1
  O  O17  1  0.25542875  0.60318565  0.93998826  1
  O  O18  1  0.74457125  0.39681435  0.06001174  1
  O  O19  1  0.26011010  0.66840170  0.49810891  1
  O  O20  1  0.73988990  0.33159830  0.50189109  1
  O  O21  1  0.74457125  0.10318565  0.43998826  1
  O  O22  1  0.66298806  0.77074090  0.58795949  1
  O  O23  1  0.77192518  0.25013288  0.16520157  1
  O  O24  1  0.26011010  0.83159830  0.00189109  1
  O  O25  1  0.22807482  0.75013288  0.66520157  1
  O  O26  1  0.25542875  0.89681435  0.56001174  1
  O  O27  1  0.77192518  0.24986712  0.33479843  1
  O  O28  1  0.33701194  0.27074090  0.08795949  1
  O  O29  1  0.66298806  0.72925910  0.91204051  1
  O  O30  1  0.22807482  0.74986712  0.83479843  1
  O  O31  1  0.33701194  0.22925910  0.41204051  1
  O  O32  1  0.73949813  0.57518890  0.71463048  1
  O  O33  1  0.73988990  0.16840170  0.99810891  1
  O  O34  1  0.26050187  0.07518890  0.21463048  1
  O  O35  1  0.73949813  0.92481110  0.78536952  1
