# generated using pymatgen
data_K4LiIO6
_symmetry_space_group_name_H-M   'P 1'
_cell_length_a   10.13538936
_cell_length_b   11.45765511
_cell_length_c   13.48229990
_cell_angle_alpha   90.00000000
_cell_angle_beta   90.00000000
_cell_angle_gamma   90.00000000
_symmetry_Int_Tables_number   1
_chemical_formula_structural   K4LiIO6
_chemical_formula_sum   'K32 Li8 I8 O48'
_cell_volume   1565.66976825
_cell_formula_units_Z   8
loop_
 _symmetry_equiv_pos_site_id
 _symmetry_equiv_pos_as_xyz
  1  'x, y, z'
loop_
 _atom_site_type_symbol
 _atom_site_label
 _atom_site_symmetry_multiplicity
 _atom_site_fract_x
 _atom_site_fract_y
 _atom_site_fract_z
 _atom_site_occupancy
  K  K0  1  0.88281189  0.40627851  0.69097004  1
  K  K1  1  0.88281189  0.09372149  0.19097004  1
  K  K2  1  0.06431623  0.55601413  0.89066736  1
  K  K3  1  0.93568377  0.05601413  0.60933264  1
  K  K4  1  0.79358951  0.80962915  0.30986723  1
  K  K5  1  0.83512404  0.97777259  0.93813291  1
  K  K6  1  0.06431623  0.94398587  0.39066736  1
  K  K7  1  0.56431623  0.94398587  0.10933264  1
  K  K8  1  0.43568377  0.05601413  0.89066736  1
  K  K9  1  0.38281189  0.09372149  0.30902996  1
  K  K10  1  0.16487596  0.02222741  0.06186709  1
  K  K11  1  0.29358951  0.80962915  0.19013277  1
  K  K12  1  0.20641049  0.19037085  0.69013277  1
  K  K13  1  0.20641049  0.30962915  0.19013277  1
  K  K14  1  0.43568377  0.44398587  0.39066736  1
  K  K15  1  0.16487596  0.47777259  0.56186709  1
  K  K16  1  0.70641049  0.30962915  0.30986723  1
  K  K17  1  0.56431623  0.55601413  0.60933264  1
  K  K18  1  0.61718811  0.59372149  0.19097004  1
  K  K19  1  0.33512404  0.52222741  0.06186709  1
  K  K20  1  0.70641049  0.19037085  0.80986723  1
  K  K21  1  0.79358951  0.69037085  0.80986723  1
  K  K22  1  0.66487596  0.02222741  0.43813291  1
  K  K23  1  0.11718811  0.59372149  0.30902996  1
  K  K24  1  0.61718811  0.90627851  0.69097004  1
  K  K25  1  0.93568377  0.44398587  0.10933264  1
  K  K26  1  0.33512404  0.97777259  0.56186709  1
  K  K27  1  0.29358951  0.69037085  0.69013277  1
  K  K28  1  0.11718811  0.90627851  0.80902996  1
  K  K29  1  0.38281189  0.40627851  0.80902996  1
  K  K30  1  0.83512404  0.52222741  0.43813291  1
  K  K31  1  0.66487596  0.47777259  0.93813291  1
  Li  Li32  1  0.80106947  0.25209649  0.50956937  1
  Li  Li33  1  0.19893053  0.74790351  0.49043063  1
  Li  Li34  1  0.19893053  0.75209649  0.99043063  1
  Li  Li35  1  0.80106947  0.24790351  0.00956937  1
  Li  Li36  1  0.69893053  0.75209649  0.50956937  1
  Li  Li37  1  0.30106947  0.25209649  0.99043063  1
  Li  Li38  1  0.69893053  0.74790351  0.00956937  1
  Li  Li39  1  0.30106947  0.24790351  0.49043063  1
  I  I40  1  0.54555803  0.25437966  0.60149365  1
  I  I41  1  0.04555803  0.24562034  0.39850635  1
  I  I42  1  0.45444197  0.74562034  0.39850635  1
  I  I43  1  0.54555803  0.24562034  0.10149365  1
  I  I44  1  0.95444197  0.74562034  0.10149365  1
  I  I45  1  0.04555803  0.25437966  0.89850635  1
  I  I46  1  0.95444197  0.75437966  0.60149365  1
  I  I47  1  0.45444197  0.75437966  0.89850635  1
  O  O48  1  0.61338374  0.65141204  0.40541963  1
  O  O49  1  0.79787868  0.65844574  0.60464848  1
  O  O50  1  0.52912939  0.66673056  0.00821350  1
  O  O51  1  0.02912939  0.83326944  0.99178650  1
  O  O52  1  0.63933262  0.14883785  0.00616054  1
  O  O53  1  0.47087061  0.16673056  0.49178650  1
  O  O54  1  0.97087061  0.33326944  0.50821350  1
  O  O55  1  0.70212132  0.34155426  0.10464848  1
  O  O56  1  0.88661626  0.34858796  0.90541963  1
  O  O57  1  0.11338374  0.84858796  0.59458037  1
  O  O58  1  0.39028254  0.85371542  0.79492284  1
  O  O59  1  0.36066738  0.85116215  0.99383946  1
  O  O60  1  0.20212132  0.15844574  0.89535152  1
  O  O61  1  0.53286119  0.84982589  0.30449271  1
  O  O62  1  0.29787868  0.65844574  0.89535152  1
  O  O63  1  0.60971746  0.14628458  0.20507716  1
  O  O64  1  0.70212132  0.15844574  0.60464848  1
  O  O65  1  0.86066738  0.85116215  0.50616054  1
  O  O66  1  0.60971746  0.35371542  0.70507716  1
  O  O67  1  0.61338374  0.84858796  0.90541963  1
  O  O68  1  0.38661626  0.15141204  0.09458037  1
  O  O69  1  0.47087061  0.33326944  0.99178650  1
  O  O70  1  0.10971746  0.35371542  0.79492284  1
  O  O71  1  0.79787868  0.84155426  0.10464848  1
  O  O72  1  0.96713881  0.34982589  0.30449271  1
  O  O73  1  0.89028254  0.85371542  0.70507716  1
  O  O74  1  0.96713881  0.15017411  0.80449271  1
  O  O75  1  0.88661626  0.15141204  0.40541963  1
  O  O76  1  0.13933262  0.35116215  0.99383946  1
  O  O77  1  0.89028254  0.64628458  0.20507716  1
  O  O78  1  0.29787868  0.84155426  0.39535152  1
  O  O79  1  0.02912939  0.66673056  0.49178650  1
  O  O80  1  0.10971746  0.14628458  0.29492284  1
  O  O81  1  0.53286119  0.65017411  0.80449271  1
  O  O82  1  0.46713881  0.34982589  0.19550729  1
  O  O83  1  0.03286119  0.65017411  0.69550729  1
  O  O84  1  0.38661626  0.34858796  0.59458037  1
  O  O85  1  0.97087061  0.16673056  0.00821350  1
  O  O86  1  0.03286119  0.84982589  0.19550729  1
  O  O87  1  0.46713881  0.15017411  0.69550729  1
  O  O88  1  0.52912939  0.83326944  0.50821350  1
  O  O89  1  0.20212132  0.34155426  0.39535152  1
  O  O90  1  0.13933262  0.14883785  0.49383946  1
  O  O91  1  0.86066738  0.64883785  0.00616054  1
  O  O92  1  0.36066738  0.64883785  0.49383946  1
  O  O93  1  0.11338374  0.65141204  0.09458037  1
  O  O94  1  0.39028254  0.64628458  0.29492284  1
  O  O95  1  0.63933262  0.35116215  0.50616054  1
