# generated using pymatgen
data_AlBPbO4
_symmetry_space_group_name_H-M   'P 1'
_cell_length_a   7.15405194
_cell_length_b   9.53455681
_cell_length_c   9.98020054
_cell_angle_alpha   90.00000000
_cell_angle_beta   90.00000000
_cell_angle_gamma   90.00000000
_symmetry_Int_Tables_number   1
_chemical_formula_structural   AlBPbO4
_chemical_formula_sum   'Al8 B8 Pb8 O32'
_cell_volume   680.75661112
_cell_formula_units_Z   8
loop_
 _symmetry_equiv_pos_site_id
 _symmetry_equiv_pos_as_xyz
  1  'x, y, z'
loop_
 _atom_site_type_symbol
 _atom_site_label
 _atom_site_symmetry_multiplicity
 _atom_site_fract_x
 _atom_site_fract_y
 _atom_site_fract_z
 _atom_site_occupancy
  Al  Al0  1  0.50000000  0.00000000  0.50000000  1
  Al  Al1  1  0.00000000  0.75000000  0.83468849  1
  Al  Al2  1  0.00000000  0.25000000  0.16531151  1
  Al  Al3  1  0.50000000  0.75000000  0.33468849  1
  Al  Al4  1  0.00000000  0.00000000  0.00000000  1
  Al  Al5  1  0.50000000  0.25000000  0.66531151  1
  Al  Al6  1  0.50000000  0.50000000  0.50000000  1
  Al  Al7  1  0.00000000  0.50000000  0.00000000  1
  B  B8  1  0.77869977  0.25260352  0.90580027  1
  B  B9  1  0.72130023  0.25260352  0.40580027  1
  B  B10  1  0.72130023  0.75260352  0.59419973  1
  B  B11  1  0.77869977  0.75260352  0.09419973  1
  B  B12  1  0.22130023  0.24739648  0.90580027  1
  B  B13  1  0.22130023  0.74739648  0.09419973  1
  B  B14  1  0.27869977  0.74739648  0.59419973  1
  B  B15  1  0.27869977  0.24739648  0.40580027  1
  Pb  Pb16  1  0.57169893  0.54747179  0.82821671  1
  Pb  Pb17  1  0.42830107  0.45252821  0.17178329  1
  Pb  Pb18  1  0.42830107  0.95252821  0.82821671  1
  Pb  Pb19  1  0.92830107  0.54747179  0.32821671  1
  Pb  Pb20  1  0.57169893  0.04747179  0.17178329  1
  Pb  Pb21  1  0.07169893  0.45252821  0.67178329  1
  Pb  Pb22  1  0.92830107  0.04747179  0.67178329  1
  Pb  Pb23  1  0.07169893  0.95252821  0.32821671  1
  O  O24  1  0.33213264  0.88657600  0.60834970  1
  O  O25  1  0.67217490  0.31417446  0.80511579  1
  O  O26  1  0.83213264  0.11342400  0.89165030  1
  O  O27  1  0.66786736  0.11342400  0.39165030  1
  O  O28  1  0.83516428  0.82991031  0.98338577  1
  O  O29  1  0.66786736  0.61342400  0.60834970  1
  O  O30  1  0.33213264  0.38657600  0.39165030  1
  O  O31  1  0.40190573  0.92858983  0.34372964  1
  O  O32  1  0.90190573  0.07141017  0.15627036  1
  O  O33  1  0.83213264  0.61342400  0.10834970  1
  O  O34  1  0.82782510  0.31417446  0.30511579  1
  O  O35  1  0.09809427  0.92858983  0.84372964  1
  O  O36  1  0.66483572  0.82991031  0.48338577  1
  O  O37  1  0.32782510  0.68582554  0.19488421  1
  O  O38  1  0.17217490  0.18582554  0.30511579  1
  O  O39  1  0.17217490  0.68582554  0.69488421  1
  O  O40  1  0.32782510  0.18582554  0.80511579  1
  O  O41  1  0.09809427  0.42858983  0.15627036  1
  O  O42  1  0.67217490  0.81417446  0.19488421  1
  O  O43  1  0.66483572  0.32991031  0.51661423  1
  O  O44  1  0.59809427  0.07141017  0.65627036  1
  O  O45  1  0.83516428  0.32991031  0.01661423  1
  O  O46  1  0.33516428  0.67008969  0.48338577  1
  O  O47  1  0.33516428  0.17008969  0.51661423  1
  O  O48  1  0.16786736  0.38657600  0.89165030  1
  O  O49  1  0.82782510  0.81417446  0.69488421  1
  O  O50  1  0.16483572  0.17008969  0.01661423  1
  O  O51  1  0.59809427  0.57141017  0.34372964  1
  O  O52  1  0.90190573  0.57141017  0.84372964  1
  O  O53  1  0.16483572  0.67008969  0.98338577  1
  O  O54  1  0.16786736  0.88657600  0.10834970  1
  O  O55  1  0.40190573  0.42858983  0.65627036  1
