# generated using pymatgen
data_NbBi(TeO4)2
_symmetry_space_group_name_H-M   'P 1'
_cell_length_a   5.68935453
_cell_length_b   8.22799130
_cell_length_c   31.93595847
_cell_angle_alpha   90.00000000
_cell_angle_beta   90.00000000
_cell_angle_gamma   90.00000000
_symmetry_Int_Tables_number   1
_chemical_formula_structural   NbBi(TeO4)2
_chemical_formula_sum   'Nb8 Bi8 Te16 O64'
_cell_volume   1494.98479690
_cell_formula_units_Z   8
loop_
 _symmetry_equiv_pos_site_id
 _symmetry_equiv_pos_as_xyz
  1  'x, y, z'
loop_
 _atom_site_type_symbol
 _atom_site_label
 _atom_site_symmetry_multiplicity
 _atom_site_fract_x
 _atom_site_fract_y
 _atom_site_fract_z
 _atom_site_occupancy
  Nb  Nb0  1  0.73472096  0.94420666  0.20929382  1
  Nb  Nb1  1  0.76527904  0.05579334  0.70929382  1
  Nb  Nb2  1  0.23472096  0.55579334  0.79070618  1
  Nb  Nb3  1  0.76527904  0.44420666  0.20929382  1
  Nb  Nb4  1  0.26527904  0.44420666  0.29070618  1
  Nb  Nb5  1  0.26527904  0.05579334  0.79070618  1
  Nb  Nb6  1  0.73472096  0.55579334  0.70929382  1
  Nb  Nb7  1  0.23472096  0.94420666  0.29070618  1
  Bi  Bi8  1  0.29430977  0.13679248  0.04006575  1
  Bi  Bi9  1  0.20569023  0.86320752  0.54006575  1
  Bi  Bi10  1  0.70569023  0.86320752  0.95993425  1
  Bi  Bi11  1  0.70569023  0.63679248  0.45993425  1
  Bi  Bi12  1  0.20569023  0.63679248  0.04006575  1
  Bi  Bi13  1  0.29430977  0.36320752  0.54006575  1
  Bi  Bi14  1  0.79430977  0.13679248  0.45993425  1
  Bi  Bi15  1  0.79430977  0.36320752  0.95993425  1
  Te  Te16  1  0.76581738  0.36985493  0.07903067  1
  Te  Te17  1  0.26581738  0.36985493  0.42096933  1
  Te  Te18  1  0.23418262  0.86985493  0.42096933  1
  Te  Te19  1  0.23680215  0.36995222  0.66417913  1
  Te  Te20  1  0.76319785  0.63004778  0.33582087  1
  Te  Te21  1  0.73418262  0.63014507  0.57903067  1
  Te  Te22  1  0.73680215  0.36995222  0.83582087  1
  Te  Te23  1  0.73680215  0.13004778  0.33582087  1
  Te  Te24  1  0.26319785  0.86995222  0.66417913  1
  Te  Te25  1  0.73418262  0.86985493  0.07903067  1
  Te  Te26  1  0.26319785  0.63004778  0.16417913  1
  Te  Te27  1  0.23680215  0.13004778  0.16417913  1
  Te  Te28  1  0.26581738  0.13014507  0.92096933  1
  Te  Te29  1  0.76581738  0.13014507  0.57903067  1
  Te  Te30  1  0.76319785  0.86995222  0.83582087  1
  Te  Te31  1  0.23418262  0.63014507  0.92096933  1
  O  O32  1  0.68528464  0.17978785  0.39275019  1
  O  O33  1  0.31471536  0.82021215  0.60724981  1
  O  O34  1  0.50892993  0.54261465  0.83403039  1
  O  O35  1  0.98858089  0.38440681  0.45558880  1
  O  O36  1  0.00305301  0.98968626  0.34146590  1
  O  O37  1  0.66709036  0.10355212  0.06802780  1
  O  O38  1  0.16709036  0.39644788  0.93197220  1
  O  O39  1  0.48754087  0.33711177  0.46627987  1
  O  O40  1  0.81471536  0.82021215  0.89275019  1
  O  O41  1  0.99694699  0.01031374  0.65853410  1
  O  O42  1  0.50892993  0.95738535  0.33403039  1
  O  O43  1  0.83290964  0.60355212  0.06802780  1
  O  O44  1  0.83290964  0.89644788  0.56802780  1
  O  O45  1  0.50305301  0.98968626  0.15853410  1
  O  O46  1  0.94749650  0.52456701  0.75596295  1
  O  O47  1  0.18528464  0.32021215  0.60724981  1
  O  O48  1  0.48754087  0.16288823  0.96627987  1
  O  O49  1  0.22968487  0.72288281  0.29548988  1
  O  O50  1  0.99107007  0.45738535  0.33403039  1
  O  O51  1  0.51245913  0.83711177  0.03372013  1
  O  O52  1  0.94749650  0.97543299  0.25596295  1
  O  O53  1  0.49107007  0.45738535  0.16596961  1
  O  O54  1  0.55250350  0.47543299  0.25596295  1
  O  O55  1  0.51141911  0.88440681  0.45558880  1
  O  O56  1  0.01245913  0.83711177  0.46627987  1
  O  O57  1  0.00892993  0.54261465  0.66596961  1
  O  O58  1  0.99694699  0.48968626  0.15853410  1
  O  O59  1  0.00305301  0.51031374  0.84146590  1
  O  O60  1  0.98754087  0.33711177  0.03372013  1
  O  O61  1  0.49107007  0.04261465  0.66596961  1
  O  O62  1  0.22968487  0.77711719  0.79548988  1
  O  O63  1  0.44749650  0.52456701  0.74403705  1
  O  O64  1  0.66709036  0.39644788  0.56802780  1
  O  O65  1  0.55250350  0.02456701  0.75596295  1
  O  O66  1  0.51141911  0.61559319  0.95558880  1
  O  O67  1  0.27031513  0.27711719  0.79548988  1
  O  O68  1  0.05250350  0.02456701  0.74403705  1
  O  O69  1  0.01245913  0.66288823  0.96627987  1
  O  O70  1  0.77031513  0.27711719  0.70451012  1
  O  O71  1  0.05250350  0.47543299  0.24403705  1
  O  O72  1  0.27031513  0.22288281  0.29548988  1
  O  O73  1  0.50305301  0.51031374  0.65853410  1
  O  O74  1  0.01141911  0.61559319  0.54441120  1
  O  O75  1  0.33290964  0.89644788  0.93197220  1
  O  O76  1  0.81471536  0.67978785  0.39275019  1
  O  O77  1  0.44749650  0.97543299  0.24403705  1
  O  O78  1  0.99107007  0.04261465  0.83403039  1
  O  O79  1  0.98754087  0.16288823  0.53372013  1
  O  O80  1  0.48858089  0.11559319  0.54441120  1
  O  O81  1  0.98858089  0.11559319  0.95558880  1
  O  O82  1  0.48858089  0.38440681  0.04441120  1
  O  O83  1  0.18528464  0.17978785  0.10724981  1
  O  O84  1  0.01141911  0.88440681  0.04441120  1
  O  O85  1  0.72968487  0.72288281  0.20451012  1
  O  O86  1  0.77031513  0.22288281  0.20451012  1
  O  O87  1  0.33290964  0.60355212  0.43197220  1
  O  O88  1  0.00892993  0.95738535  0.16596961  1
  O  O89  1  0.72968487  0.77711719  0.70451012  1
  O  O90  1  0.16709036  0.10355212  0.43197220  1
  O  O91  1  0.31471536  0.67978785  0.10724981  1
  O  O92  1  0.68528464  0.32021215  0.89275019  1
  O  O93  1  0.49694699  0.48968626  0.34146590  1
  O  O94  1  0.49694699  0.01031374  0.84146590  1
  O  O95  1  0.51245913  0.66288823  0.53372013  1
