# generated using pymatgen
data_Ca4Si2O7F2
_symmetry_space_group_name_H-M   'P 1'
_cell_length_a   7.59567541
_cell_length_b   10.62534334
_cell_length_c   11.04787664
_cell_angle_alpha   90.00000000
_cell_angle_beta   109.46474480
_cell_angle_gamma   90.00000000
_symmetry_Int_Tables_number   1
_chemical_formula_structural   Ca4Si2O7F2
_chemical_formula_sum   'Ca16 Si8 O28 F8'
_cell_volume   840.67721392
_cell_formula_units_Z   4
loop_
 _symmetry_equiv_pos_site_id
 _symmetry_equiv_pos_as_xyz
  1  'x, y, z'
loop_
 _atom_site_type_symbol
 _atom_site_label
 _atom_site_symmetry_multiplicity
 _atom_site_fract_x
 _atom_site_fract_y
 _atom_site_fract_z
 _atom_site_occupancy
  Ca  Ca0  1  0.33675915  0.13365205  0.41641357  1
  Ca  Ca1  1  0.33675915  0.36634795  0.91641357  1
  Ca  Ca2  1  0.03108879  0.09732983  0.80106927  1
  Ca  Ca3  1  0.16850897  0.63711065  0.07244011  1
  Ca  Ca4  1  0.83149103  0.36288935  0.92755989  1
  Ca  Ca5  1  0.96891121  0.59732983  0.69893073  1
  Ca  Ca6  1  0.52907488  0.08714687  0.81523537  1
  Ca  Ca7  1  0.03108879  0.40267017  0.30106927  1
  Ca  Ca8  1  0.96891121  0.90267017  0.19893073  1
  Ca  Ca9  1  0.66324085  0.86634795  0.58358643  1
  Ca  Ca10  1  0.47092512  0.91285313  0.18476463  1
  Ca  Ca11  1  0.47092512  0.58714687  0.68476463  1
  Ca  Ca12  1  0.83149103  0.13711065  0.42755989  1
  Ca  Ca13  1  0.52907488  0.41285313  0.31523537  1
  Ca  Ca14  1  0.66324085  0.63365205  0.08358643  1
  Ca  Ca15  1  0.16850897  0.86288935  0.57244011  1
  Si  Si16  1  0.27374443  0.80934812  0.86775572  1
  Si  Si17  1  0.72625557  0.30934812  0.63224428  1
  Si  Si18  1  0.84754310  0.81119044  0.87675487  1
  Si  Si19  1  0.15245690  0.18880956  0.12324513  1
  Si  Si20  1  0.15245690  0.31119044  0.62324513  1
  Si  Si21  1  0.72625557  0.19065188  0.13224428  1
  Si  Si22  1  0.27374443  0.69065188  0.36775572  1
  Si  Si23  1  0.84754310  0.68880956  0.37675487  1
  O  O24  1  0.80287566  0.95869053  0.83892272  1
  O  O25  1  0.28548849  0.95760185  0.83579835  1
  O  O26  1  0.71451151  0.45760185  0.66420165  1
  O  O27  1  0.72888320  0.27624849  0.25634995  1
  O  O28  1  0.72179183  0.72306206  0.75814071  1
  O  O29  1  0.93584767  0.22649813  0.12088374  1
  O  O30  1  0.19712434  0.45869053  0.66107728  1
  O  O31  1  0.93584767  0.27350187  0.62088374  1
  O  O32  1  0.27820817  0.27693794  0.24185929  1
  O  O33  1  0.58954774  0.26386712  0.49120349  1
  O  O34  1  0.58954774  0.23613288  0.99120349  1
  O  O35  1  0.27111680  0.77624849  0.24365005  1
  O  O36  1  0.27820817  0.22306206  0.74185929  1
  O  O37  1  0.85981163  0.73175961  0.52169313  1
  O  O38  1  0.27111680  0.72375151  0.74365005  1
  O  O39  1  0.85981163  0.76824039  0.02169313  1
  O  O40  1  0.72179183  0.77693794  0.25814071  1
  O  O41  1  0.41045226  0.76386712  0.00879651  1
  O  O42  1  0.14018837  0.26824039  0.47830687  1
  O  O43  1  0.19712434  0.04130947  0.16107728  1
  O  O44  1  0.72888320  0.22375151  0.75634995  1
  O  O45  1  0.14018837  0.23175961  0.97830687  1
  O  O46  1  0.06415233  0.72649813  0.37911626  1
  O  O47  1  0.06415233  0.77350187  0.87911626  1
  O  O48  1  0.28548849  0.54239815  0.33579835  1
  O  O49  1  0.71451151  0.04239815  0.16420165  1
  O  O50  1  0.80287566  0.54130947  0.33892272  1
  O  O51  1  0.41045226  0.73613288  0.50879651  1
  F  F52  1  0.57562798  0.50008733  0.89636416  1
  F  F53  1  0.92988836  0.99481955  0.60237092  1
  F  F54  1  0.07011164  0.00518045  0.39762908  1
  F  F55  1  0.57562798  0.99991267  0.39636416  1
  F  F56  1  0.07011164  0.49481955  0.89762908  1
  F  F57  1  0.92988836  0.50518045  0.10237092  1
  F  F58  1  0.42437202  0.49991267  0.10363584  1
  F  F59  1  0.42437202  0.00008733  0.60363584  1
