# generated using pymatgen
data_KVF4
_symmetry_space_group_name_H-M   'P 1'
_cell_length_a   7.74535996
_cell_length_b   7.91286536
_cell_length_c   12.56348938
_cell_angle_alpha   90.00000000
_cell_angle_beta   90.00000000
_cell_angle_gamma   90.00000000
_symmetry_Int_Tables_number   1
_chemical_formula_structural   KVF4
_chemical_formula_sum   'K8 V8 F32'
_cell_volume   769.99101812
_cell_formula_units_Z   8
loop_
 _symmetry_equiv_pos_site_id
 _symmetry_equiv_pos_as_xyz
  1  'x, y, z'
loop_
 _atom_site_type_symbol
 _atom_site_label
 _atom_site_symmetry_multiplicity
 _atom_site_fract_x
 _atom_site_fract_y
 _atom_site_fract_z
 _atom_site_occupancy
  F  F0  1  0.45282694  0.37548850  0.24709701  1
  F  F1  1  0.95282694  0.62451150  0.75290299  1
  F  F2  1  0.54717306  0.87548850  0.25290299  1
  F  F3  1  0.04717306  0.12451150  0.74709701  1
  F  F4  1  0.54717306  0.62451150  0.75290299  1
  F  F5  1  0.04717306  0.37548850  0.24709701  1
  F  F6  1  0.45282694  0.12451150  0.74709701  1
  F  F7  1  0.95282694  0.87548850  0.25290299  1
  F  F8  1  0.25000000  0.41780069  0.78845994  1
  F  F9  1  0.75000000  0.58219931  0.21154006  1
  F  F10  1  0.75000000  0.91780069  0.71154006  1
  F  F11  1  0.25000000  0.08219931  0.28845994  1
  F  F12  1  0.75000000  0.33132959  0.71654606  1
  F  F13  1  0.25000000  0.66867041  0.28345394  1
  F  F14  1  0.25000000  0.83132959  0.78345394  1
  F  F15  1  0.75000000  0.16867041  0.21654606  1
  F  F16  1  0.04919556  0.11523257  0.10181207  1
  F  F17  1  0.54919556  0.88476743  0.89818793  1
  F  F18  1  0.95080444  0.61523257  0.39818793  1
  F  F19  1  0.45080444  0.38476743  0.60181207  1
  F  F20  1  0.95080444  0.88476743  0.89818793  1
  F  F21  1  0.45080444  0.11523257  0.10181207  1
  F  F22  1  0.04919556  0.38476743  0.60181207  1
  F  F23  1  0.54919556  0.61523257  0.39818793  1
  F  F24  1  0.95329907  0.13459781  0.40237240  1
  F  F25  1  0.45329907  0.86540219  0.59762760  1
  F  F26  1  0.04670093  0.63459781  0.09762760  1
  F  F27  1  0.54670093  0.36540219  0.90237240  1
  F  F28  1  0.04670093  0.86540219  0.59762760  1
  F  F29  1  0.54670093  0.13459781  0.40237240  1
  F  F30  1  0.95329907  0.36540219  0.90237240  1
  F  F31  1  0.45329907  0.63459781  0.09762760  1
  K  K32  1  0.25000000  0.62411464  0.51235669  1
  K  K33  1  0.75000000  0.37588536  0.48764331  1
  K  K34  1  0.75000000  0.12411464  0.98764331  1
  K  K35  1  0.25000000  0.87588536  0.01235669  1
  K  K36  1  0.25000000  0.12588528  0.52705611  1
  K  K37  1  0.75000000  0.87411472  0.47294389  1
  K  K38  1  0.75000000  0.62588528  0.97294389  1
  K  K39  1  0.25000000  0.37411472  0.02705611  1
  V  V40  1  0.50063598  0.62548091  0.24809795  1
  V  V41  1  0.00063598  0.37451909  0.75190205  1
  V  V42  1  0.49936402  0.12548091  0.25190205  1
  V  V43  1  0.99936402  0.87451909  0.74809795  1
  V  V44  1  0.49936402  0.37451909  0.75190205  1
  V  V45  1  0.99936402  0.62548091  0.24809795  1
  V  V46  1  0.50063598  0.87451909  0.74809795  1
  V  V47  1  0.00063598  0.12548091  0.25190205  1
