# generated using pymatgen
data_BaNa2Nd2Si4CO15
_symmetry_space_group_name_H-M   'P 1'
_cell_length_a   7.05760579
_cell_length_b   13.61261336
_cell_length_c   14.18709346
_cell_angle_alpha   90.00000000
_cell_angle_beta   90.00000000
_cell_angle_gamma   90.00000000
_symmetry_Int_Tables_number   1
_chemical_formula_structural   BaNa2Nd2Si4CO15
_chemical_formula_sum   'Ba4 Na8 Nd8 Si16 C4 O60'
_cell_volume   1362.98895287
_cell_formula_units_Z   4
loop_
 _symmetry_equiv_pos_site_id
 _symmetry_equiv_pos_as_xyz
  1  'x, y, z'
loop_
 _atom_site_type_symbol
 _atom_site_label
 _atom_site_symmetry_multiplicity
 _atom_site_fract_x
 _atom_site_fract_y
 _atom_site_fract_z
 _atom_site_occupancy
  Ba  Ba0  1  0.41059044  0.25000000  0.85939730  1
  Ba  Ba1  1  0.91059044  0.75000000  0.64060270  1
  Ba  Ba2  1  0.08940956  0.25000000  0.35939730  1
  Ba  Ba3  1  0.58940956  0.75000000  0.14060270  1
  Na  Na4  1  0.76399606  0.96277636  0.52928601  1
  Na  Na5  1  0.23600394  0.03722364  0.47071399  1
  Na  Na6  1  0.26399606  0.46277636  0.97071399  1
  Na  Na7  1  0.76399606  0.53722364  0.52928601  1
  Na  Na8  1  0.73600394  0.53722364  0.02928601  1
  Na  Na9  1  0.23600394  0.46277636  0.47071399  1
  Na  Na10  1  0.26399606  0.03722364  0.97071399  1
  Na  Na11  1  0.73600394  0.96277636  0.02928601  1
  Nd  Nd12  1  0.88101795  0.94281226  0.28745745  1
  Nd  Nd13  1  0.38101795  0.05718774  0.21254255  1
  Nd  Nd14  1  0.11898205  0.44281226  0.71254255  1
  Nd  Nd15  1  0.61898205  0.94281226  0.78745745  1
  Nd  Nd16  1  0.61898205  0.55718774  0.78745745  1
  Nd  Nd17  1  0.38101795  0.44281226  0.21254255  1
  Nd  Nd18  1  0.11898205  0.05718774  0.71254255  1
  Nd  Nd19  1  0.88101795  0.55718774  0.28745745  1
  Si  Si20  1  0.11847796  0.86655625  0.85049557  1
  Si  Si21  1  0.38152204  0.86655625  0.35049557  1
  Si  Si22  1  0.61909432  0.13714376  0.42558378  1
  Si  Si23  1  0.88090568  0.13714376  0.92558378  1
  Si  Si24  1  0.38090568  0.86285624  0.57441622  1
  Si  Si25  1  0.61847796  0.36655625  0.64950443  1
  Si  Si26  1  0.38152204  0.63344375  0.35049557  1
  Si  Si27  1  0.38090568  0.63714376  0.57441622  1
  Si  Si28  1  0.88152204  0.13344375  0.14950443  1
  Si  Si29  1  0.11847796  0.63344375  0.85049557  1
  Si  Si30  1  0.11909432  0.63714376  0.07441622  1
  Si  Si31  1  0.88152204  0.36655625  0.14950443  1
  Si  Si32  1  0.11909432  0.86285624  0.07441622  1
  Si  Si33  1  0.61909432  0.36285624  0.42558378  1
  Si  Si34  1  0.61847796  0.13344375  0.64950443  1
  Si  Si35  1  0.88090568  0.36285624  0.92558378  1
  C  C36  1  0.87939280  0.75000000  0.40152024  1
  C  C37  1  0.62060720  0.75000000  0.90152024  1
  C  C38  1  0.37939280  0.25000000  0.09847976  1
  C  C39  1  0.12060720  0.25000000  0.59847976  1
  O  O40  1  0.05102203  0.10041262  0.22118112  1
  O  O41  1  0.94897797  0.89958738  0.77881888  1
  O  O42  1  0.55666842  0.38279800  0.53804662  1
  O  O43  1  0.86881796  0.75000000  0.30960562  1
  O  O44  1  0.61432645  0.83328102  0.94589519  1
  O  O45  1  0.20730227  0.75000000  0.08171826  1
  O  O46  1  0.55102203  0.60041262  0.27881888  1
  O  O47  1  0.57601613  0.87477202  0.63386942  1
  O  O48  1  0.57601613  0.62522798  0.63386942  1
  O  O49  1  0.63118204  0.75000000  0.80960562  1
  O  O50  1  0.38567355  0.16671898  0.05410481  1
  O  O51  1  0.29327052  0.56407807  0.10054485  1
  O  O52  1  0.94897797  0.60041262  0.77881888  1
  O  O53  1  0.44897797  0.10041262  0.72118112  1
  O  O54  1  0.29327052  0.93592193  0.10054485  1
  O  O55  1  0.70730227  0.25000000  0.41828174  1
  O  O56  1  0.88567355  0.83328102  0.44589519  1
  O  O57  1  0.29269773  0.75000000  0.58171826  1
  O  O58  1  0.70672948  0.43592193  0.89945515  1
  O  O59  1  0.13118204  0.25000000  0.69039438  1
  O  O60  1  0.20447412  0.93923222  0.32731733  1
  O  O61  1  0.94333158  0.11720200  0.03804662  1
  O  O62  1  0.20447412  0.56076778  0.32731733  1
  O  O63  1  0.79552588  0.06076778  0.67268267  1
  O  O64  1  0.07601613  0.37477202  0.86613058  1
  O  O65  1  0.11432645  0.16671898  0.55410481  1
  O  O66  1  0.16910768  0.75000000  0.83180976  1
  O  O67  1  0.42398387  0.12522798  0.36613058  1
  O  O68  1  0.05102203  0.39958738  0.22118112  1
  O  O69  1  0.36881796  0.25000000  0.19039438  1
  O  O70  1  0.61432645  0.66671898  0.94589519  1
  O  O71  1  0.66910768  0.25000000  0.66819024  1
  O  O72  1  0.92398387  0.62522798  0.13386942  1
  O  O73  1  0.20672948  0.56407807  0.60054485  1
  O  O74  1  0.11432645  0.33328102  0.55410481  1
  O  O75  1  0.29552588  0.56076778  0.82731733  1
  O  O76  1  0.29552588  0.93923222  0.82731733  1
  O  O77  1  0.79327052  0.43592193  0.39945515  1
  O  O78  1  0.20672948  0.93592193  0.60054485  1
  O  O79  1  0.38567355  0.33328102  0.05410481  1
  O  O80  1  0.70672948  0.06407807  0.89945515  1
  O  O81  1  0.33089232  0.75000000  0.33180976  1
  O  O82  1  0.05666842  0.88279800  0.96195338  1
  O  O83  1  0.55102203  0.89958738  0.27881888  1
  O  O84  1  0.44333158  0.61720200  0.46195338  1
  O  O85  1  0.94333158  0.38279800  0.03804662  1
  O  O86  1  0.79327052  0.06407807  0.39945515  1
  O  O87  1  0.05666842  0.61720200  0.96195338  1
  O  O88  1  0.79552588  0.43923222  0.67268267  1
  O  O89  1  0.07601613  0.12522798  0.86613058  1
  O  O90  1  0.55666842  0.11720200  0.53804662  1
  O  O91  1  0.44333158  0.88279800  0.46195338  1
  O  O92  1  0.83089232  0.25000000  0.16819024  1
  O  O93  1  0.92398387  0.87477202  0.13386942  1
  O  O94  1  0.42398387  0.37477202  0.36613058  1
  O  O95  1  0.88567355  0.66671898  0.44589519  1
  O  O96  1  0.70447412  0.06076778  0.17268267  1
  O  O97  1  0.70447412  0.43923222  0.17268267  1
  O  O98  1  0.79269773  0.25000000  0.91828174  1
  O  O99  1  0.44897797  0.39958738  0.72118112  1
