# generated using pymatgen
data_Rb2Ga2B2O7
_symmetry_space_group_name_H-M   'P 1'
_cell_length_a   7.86720896
_cell_length_b   8.92748406
_cell_length_c   12.16763609
_cell_angle_alpha   104.45719911
_cell_angle_beta   90.00000000
_cell_angle_gamma   90.00000000
_symmetry_Int_Tables_number   1
_chemical_formula_structural   Rb2Ga2B2O7
_chemical_formula_sum   'Rb8 Ga8 B8 O28'
_cell_volume   827.52542376
_cell_formula_units_Z   4
loop_
 _symmetry_equiv_pos_site_id
 _symmetry_equiv_pos_as_xyz
  1  'x, y, z'
loop_
 _atom_site_type_symbol
 _atom_site_label
 _atom_site_symmetry_multiplicity
 _atom_site_fract_x
 _atom_site_fract_y
 _atom_site_fract_z
 _atom_site_occupancy
  Rb  Rb0  1  0.37211008  0.53304931  0.12696568  1
  Rb  Rb1  1  0.37451057  0.05329561  0.65136297  1
  Rb  Rb2  1  0.62548943  0.94670439  0.34863703  1
  Rb  Rb3  1  0.87451057  0.94670439  0.84863703  1
  Rb  Rb4  1  0.87211008  0.46695069  0.37303432  1
  Rb  Rb5  1  0.12788992  0.53304931  0.62696568  1
  Rb  Rb6  1  0.12548943  0.05329561  0.15136297  1
  Rb  Rb7  1  0.62788992  0.46695069  0.87303432  1
  Ga  Ga8  1  0.56897333  0.68533104  0.63335986  1
  Ga  Ga9  1  0.12152017  0.84560741  0.38566236  1
  Ga  Ga10  1  0.62152017  0.15439259  0.11433764  1
  Ga  Ga11  1  0.37847983  0.84560741  0.88566236  1
  Ga  Ga12  1  0.06897333  0.31466896  0.86664014  1
  Ga  Ga13  1  0.87847983  0.15439259  0.61433764  1
  Ga  Ga14  1  0.93102667  0.68533104  0.13335986  1
  Ga  Ga15  1  0.43102667  0.31466896  0.36664014  1
  B  B16  1  0.09216702  0.65453467  0.91297694  1
  B  B17  1  0.62938772  0.81512380  0.06082572  1
  B  B18  1  0.40783298  0.65453467  0.41297694  1
  B  B19  1  0.37061228  0.18487620  0.93917428  1
  B  B20  1  0.87061228  0.81512380  0.56082572  1
  B  B21  1  0.90783298  0.34546533  0.08702306  1
  B  B22  1  0.59216702  0.34546533  0.58702306  1
  B  B23  1  0.12938772  0.18487620  0.43917428  1
  O  O24  1  0.99107177  0.48381338  0.13411982  1
  O  O25  1  0.80692630  0.28392727  0.15842241  1
  O  O26  1  0.00892823  0.51618662  0.86588018  1
  O  O27  1  0.21415298  0.04492009  0.41863006  1
  O  O28  1  0.02773181  0.78720464  0.50920708  1
  O  O29  1  0.53423779  0.82373522  0.77072150  1
  O  O30  1  0.49107177  0.51618662  0.36588018  1
  O  O31  1  0.52773181  0.21279536  0.99079292  1
  O  O32  1  0.20147919  0.30914667  0.40573303  1
  O  O33  1  0.50892823  0.48381338  0.63411982  1
  O  O34  1  0.71415298  0.95507991  0.08136994  1
  O  O35  1  0.79852081  0.69085333  0.59426697  1
  O  O36  1  0.19307370  0.71607273  0.84157759  1
  O  O37  1  0.96576221  0.82373522  0.27072150  1
  O  O38  1  0.30692630  0.71607273  0.34157759  1
  O  O39  1  0.47226819  0.78720464  0.00920708  1
  O  O40  1  0.43228164  0.73934251  0.52342909  1
  O  O41  1  0.29852081  0.30914667  0.90573303  1
  O  O42  1  0.97226819  0.21279536  0.49079292  1
  O  O43  1  0.69307370  0.28392727  0.65842241  1
  O  O44  1  0.56771836  0.26065749  0.47657091  1
  O  O45  1  0.46576221  0.17626478  0.22927850  1
  O  O46  1  0.28584702  0.04492009  0.91863006  1
  O  O47  1  0.06771836  0.73934251  0.02342909  1
  O  O48  1  0.70147919  0.69085333  0.09426697  1
  O  O49  1  0.78584702  0.95507991  0.58136994  1
  O  O50  1  0.93228164  0.26065749  0.97657091  1
  O  O51  1  0.03423779  0.17626478  0.72927850  1
