# generated using pymatgen
data_NaCaBeSi2O6F
_symmetry_space_group_name_H-M   'P 1'
_cell_length_a   7.47368943
_cell_length_b   7.45721336
_cell_length_c   10.09308679
_cell_angle_alpha   90.00000000
_cell_angle_beta   90.00000000
_cell_angle_gamma   90.00000000
_symmetry_Int_Tables_number   1
_chemical_formula_structural   NaCaBeSi2O6F
_chemical_formula_sum   'Na4 Ca4 Be4 Si8 O24 F4'
_cell_volume   562.51696311
_cell_formula_units_Z   4
loop_
 _symmetry_equiv_pos_site_id
 _symmetry_equiv_pos_as_xyz
  1  'x, y, z'
loop_
 _atom_site_type_symbol
 _atom_site_label
 _atom_site_symmetry_multiplicity
 _atom_site_fract_x
 _atom_site_fract_y
 _atom_site_fract_z
 _atom_site_occupancy
  Na  Na0  1  0.56717403  0.64612793  0.49443734  1
  Na  Na1  1  0.93282597  0.35387207  0.99443734  1
  Na  Na2  1  0.43282597  0.14612793  0.00556266  1
  Na  Na3  1  0.06717403  0.85387207  0.50556266  1
  Ca  Ca4  1  0.60490917  0.67319215  0.01061663  1
  Ca  Ca5  1  0.89509083  0.32680785  0.51061663  1
  Ca  Ca6  1  0.39509083  0.17319215  0.48938337  1
  Ca  Ca7  1  0.10490917  0.82680785  0.98938337  1
  Be  Be8  1  0.89059923  0.63095869  0.78256202  1
  Be  Be9  1  0.39059923  0.86904131  0.21743798  1
  Be  Be10  1  0.10940077  0.13095869  0.71743798  1
  Be  Be11  1  0.60940077  0.36904131  0.28256202  1
  Si  Si12  1  0.60807642  0.34995232  0.77321623  1
  Si  Si13  1  0.75927198  0.98680069  0.75100679  1
  Si  Si14  1  0.89192358  0.65004768  0.27321623  1
  Si  Si15  1  0.74072802  0.01319931  0.25100679  1
  Si  Si16  1  0.10807642  0.15004768  0.22678377  1
  Si  Si17  1  0.39192358  0.84995232  0.72678377  1
  Si  Si18  1  0.25927198  0.51319931  0.24899321  1
  Si  Si19  1  0.24072802  0.48680069  0.74899321  1
  O  O20  1  0.40723295  0.39793350  0.83906671  1
  O  O21  1  0.83810276  0.82961768  0.84698346  1
  O  O22  1  0.66387343  0.15101154  0.83948271  1
  O  O23  1  0.16189724  0.32961768  0.65301654  1
  O  O24  1  0.59276705  0.89793350  0.66093329  1
  O  O25  1  0.58735687  0.92604282  0.15655607  1
  O  O26  1  0.83612657  0.84898846  0.33948271  1
  O  O27  1  0.91264313  0.07395718  0.65655607  1
  O  O28  1  0.16387343  0.34898846  0.16051729  1
  O  O29  1  0.90723295  0.10206650  0.16093329  1
  O  O30  1  0.08735687  0.57395718  0.84344393  1
  O  O31  1  0.25816768  0.99583317  0.66057279  1
  O  O32  1  0.09276705  0.60206650  0.33906671  1
  O  O33  1  0.24183232  0.00416683  0.16057279  1
  O  O34  1  0.60530310  0.34026032  0.61414894  1
  O  O35  1  0.10530310  0.15973968  0.38585106  1
  O  O36  1  0.74183232  0.49583317  0.83942721  1
  O  O37  1  0.39469690  0.84026032  0.88585106  1
  O  O38  1  0.41264313  0.42604282  0.34344393  1
  O  O39  1  0.75816768  0.50416683  0.33942721  1
  O  O40  1  0.66189724  0.17038232  0.34698346  1
  O  O41  1  0.33612657  0.65101154  0.66051729  1
  O  O42  1  0.89469690  0.65973968  0.11414894  1
  O  O43  1  0.33810276  0.67038232  0.15301654  1
  F  F44  1  0.39739309  0.87124568  0.37573876  1
  F  F45  1  0.60260691  0.37124568  0.12426124  1
  F  F46  1  0.10260691  0.12875432  0.87573876  1
  F  F47  1  0.89739309  0.62875432  0.62426124  1
