# generated using pymatgen
data_Sb2BrF17
_symmetry_space_group_name_H-M   'P 1'
_cell_length_a   8.93042076
_cell_length_b   12.51756561
_cell_length_c   12.57204126
_cell_angle_alpha   97.11650036
_cell_angle_beta   90.00000000
_cell_angle_gamma   90.00000000
_symmetry_Int_Tables_number   1
_chemical_formula_structural   Sb2BrF17
_chemical_formula_sum   'Sb8 Br4 F68'
_cell_volume   1394.56566353
_cell_formula_units_Z   4
loop_
 _symmetry_equiv_pos_site_id
 _symmetry_equiv_pos_as_xyz
  1  'x, y, z'
loop_
 _atom_site_type_symbol
 _atom_site_label
 _atom_site_symmetry_multiplicity
 _atom_site_fract_x
 _atom_site_fract_y
 _atom_site_fract_z
 _atom_site_occupancy
  Sb  Sb0  1  0.00260976  0.72707680  0.64163011  1
  Sb  Sb1  1  0.02180822  0.80953725  0.34465393  1
  Sb  Sb2  1  0.50260976  0.77292320  0.85836989  1
  Sb  Sb3  1  0.52180822  0.69046275  0.15534607  1
  Sb  Sb4  1  0.99739024  0.27292320  0.35836989  1
  Sb  Sb5  1  0.47819178  0.30953725  0.84465393  1
  Sb  Sb6  1  0.97819178  0.19046275  0.65534607  1
  Sb  Sb7  1  0.49739024  0.22707680  0.14163011  1
  Br  Br8  1  0.00000000  0.50000000  -0.00000000  1
  Br  Br9  1  0.50000000  0.50000000  0.50000000  1
  Br  Br10  1  0.00000000  -0.00000000  -0.00000000  1
  Br  Br11  1  0.50000000  -0.00000000  0.50000000  1
  F  F12  1  0.65905206  0.52320228  0.42391544  1
  F  F13  1  0.19698334  0.31604436  0.39448435  1
  F  F14  1  0.62916740  0.89987308  0.52283578  1
  F  F15  1  0.02055841  0.13941417  0.03694536  1
  F  F16  1  0.70243032  0.76541853  0.13277960  1
  F  F17  1  0.01885646  0.64998946  0.76158793  1
  F  F18  1  0.34094794  0.47679772  0.57608456  1
  F  F19  1  0.80301666  0.68395564  0.60551565  1
  F  F20  1  0.69698334  0.18395564  0.10551565  1
  F  F21  1  0.87310141  0.05850018  0.62028312  1
  F  F22  1  0.45025744  0.30455049  0.69476444  1
  F  F23  1  0.54974256  0.69544951  0.30523556  1
  F  F24  1  0.66021523  0.38914257  0.84610181  1
  F  F25  1  0.62689859  0.55850018  0.12028312  1
  F  F26  1  0.29960815  0.28563573  0.15382028  1
  F  F27  1  0.47214703  0.93658899  0.36887700  1
  F  F28  1  0.12689859  0.94149982  0.37971688  1
  F  F29  1  0.48114354  0.14998946  0.26158793  1
  F  F30  1  0.37310141  0.44149982  0.87971688  1
  F  F31  1  0.01419081  0.18635302  0.49041318  1
  F  F32  1  0.20243032  0.73458147  0.36722040  1
  F  F33  1  0.07780183  0.61098275  0.54461040  1
  F  F34  1  0.98114354  0.35001054  0.23841207  1
  F  F35  1  0.02785297  0.43658899  0.86887700  1
  F  F36  1  0.57062977  0.35332539  0.22470440  1
  F  F37  1  0.47944159  0.63941417  0.53694536  1
  F  F38  1  0.20039185  0.78563573  0.65382028  1
  F  F39  1  0.37083260  0.10012692  0.47716422  1
  F  F40  1  0.61521492  0.49168554  0.61283581  1
  F  F41  1  0.64440484  0.07773129  0.45386285  1
  F  F42  1  0.35559516  0.92226871  0.54613715  1
  F  F43  1  0.79960815  0.21436427  0.34617972  1
  F  F44  1  0.92219817  0.38901725  0.45538960  1
  F  F45  1  0.97944159  0.86058583  0.96305464  1
  F  F46  1  0.97214703  0.56341101  0.13112300  1
  F  F47  1  0.42219817  0.11098275  0.04461040  1
  F  F48  1  0.95025744  0.19544951  0.80523556  1
  F  F49  1  0.98580919  0.81364698  0.50958682  1
  F  F50  1  0.38478508  0.50831446  0.38716419  1
  F  F51  1  0.11521492  0.00831446  0.88716419  1
  F  F52  1  0.42937023  0.64667461  0.77529560  1
  F  F53  1  0.30301666  0.81604436  0.89448435  1
  F  F54  1  0.15905206  0.97679772  0.07608456  1
  F  F55  1  0.51885646  0.85001054  0.73841207  1
  F  F56  1  0.16021523  0.11085743  0.65389819  1
  F  F57  1  0.91289477  0.67732704  0.33098842  1
  F  F58  1  0.70039185  0.71436427  0.84617972  1
  F  F59  1  0.08710523  0.32267296  0.66901158  1
  F  F60  1  0.79756968  0.26541853  0.63277960  1
  F  F61  1  0.51419081  0.31364698  0.00958682  1
  F  F62  1  0.41289477  0.82267296  0.16901158  1
  F  F63  1  0.88478508  0.99168554  0.11283581  1
  F  F64  1  0.07062977  0.14667461  0.27529560  1
  F  F65  1  0.84094794  0.02320228  0.92391544  1
  F  F66  1  0.52055841  0.36058583  0.46305464  1
  F  F67  1  0.58710523  0.17732704  0.83098842  1
  F  F68  1  0.83978477  0.88914257  0.34610181  1
  F  F69  1  0.33978477  0.61085743  0.15389819  1
  F  F70  1  0.48580919  0.68635302  0.99041318  1
  F  F71  1  0.14440484  0.42226871  0.04613715  1
  F  F72  1  0.29756968  0.23458147  0.86722040  1
  F  F73  1  0.52785297  0.06341101  0.63112300  1
  F  F74  1  0.85559516  0.57773129  0.95386285  1
  F  F75  1  0.92937023  0.85332539  0.72470440  1
  F  F76  1  0.12916740  0.60012692  0.97716422  1
  F  F77  1  0.04974256  0.80455049  0.19476444  1
  F  F78  1  0.57780183  0.88901725  0.95538960  1
  F  F79  1  0.87083260  0.39987308  0.02283578  1
