# generated using pymatgen
data_Mg(Cu2O3)2
_symmetry_space_group_name_H-M   'P 1'
_cell_length_a   2.96988294
_cell_length_b   5.11087204
_cell_length_c   14.60466935
_cell_angle_alpha   90.00000000
_cell_angle_beta   90.00000000
_cell_angle_gamma   106.89062412
_symmetry_Int_Tables_number   1
_chemical_formula_structural   Mg(Cu2O3)2
_chemical_formula_sum   'Mg2 Cu8 O12'
_cell_volume   212.11676104
_cell_formula_units_Z   2
loop_
 _symmetry_equiv_pos_site_id
 _symmetry_equiv_pos_as_xyz
  1  'x, y, z'
loop_
 _atom_site_type_symbol
 _atom_site_label
 _atom_site_symmetry_multiplicity
 _atom_site_fract_x
 _atom_site_fract_y
 _atom_site_fract_z
 _atom_site_occupancy
  Mg  Mg0  1  0.65901265  0.31802629  0.75000000  1
  Mg  Mg1  1  0.34098735  0.68197371  0.25000000  1
  Cu  Cu2  1  0.86226929  0.72454058  0.04424770  1
  Cu  Cu3  1  0.40588796  0.81177392  0.63589929  1
  Cu  Cu4  1  0.13772871  0.27545842  0.95575230  1
  Cu  Cu5  1  0.59411204  0.18822608  0.36410171  1
  Cu  Cu6  1  0.86226929  0.72454058  0.45575230  1
  Cu  Cu7  1  0.13772871  0.27545842  0.54424770  1
  Cu  Cu8  1  0.59411204  0.18822608  0.13589829  1
  Cu  Cu9  1  0.40588796  0.81177392  0.86410071  1
  O  O10  1  0.49999900  -0.00000000  0.50000000  1
  O  O11  1  0.49999900  -0.00000000  -0.00000000  1
  O  O12  1  0.04882059  0.09763917  0.84070167  1
  O  O13  1  0.95117941  0.90236083  0.15929933  1
  O  O14  1  0.95117941  0.90236083  0.34070067  1
  O  O15  1  0.04882059  0.09763917  0.65929933  1
  O  O16  1  0.78318089  0.56636377  0.92105280  1
  O  O17  1  0.21681811  0.43363723  0.07894720  1
  O  O18  1  0.21681811  0.43363723  0.42105280  1
  O  O19  1  0.78318089  0.56636377  0.57894720  1
  O  O20  1  0.30317103  0.60634307  0.75000000  1
  O  O21  1  0.69682697  0.39365593  0.25000000  1
