# generated using pymatgen
data_Cs3PO4
_symmetry_space_group_name_H-M   'P 1'
_cell_length_a   6.53913415
_cell_length_b   9.04746685
_cell_length_c   12.44069721
_cell_angle_alpha   90.00000000
_cell_angle_beta   90.00000000
_cell_angle_gamma   90.00000000
_symmetry_Int_Tables_number   1
_chemical_formula_structural   Cs3PO4
_chemical_formula_sum   'Cs12 P4 O16'
_cell_volume   736.02398591
_cell_formula_units_Z   4
loop_
 _symmetry_equiv_pos_site_id
 _symmetry_equiv_pos_as_xyz
  1  'x, y, z'
loop_
 _atom_site_type_symbol
 _atom_site_label
 _atom_site_symmetry_multiplicity
 _atom_site_fract_x
 _atom_site_fract_y
 _atom_site_fract_z
 _atom_site_occupancy
  Cs  Cs0  1  0.35684951  0.25000000  0.42283470  1
  Cs  Cs1  1  0.18299456  0.50756727  0.64456571  1
  Cs  Cs2  1  0.14315049  0.25000000  0.92283470  1
  Cs  Cs3  1  0.68299456  0.00756727  0.85543429  1
  Cs  Cs4  1  0.85684951  0.75000000  0.07716530  1
  Cs  Cs5  1  0.81700544  0.00756727  0.35543429  1
  Cs  Cs6  1  0.81700544  0.49243273  0.35543429  1
  Cs  Cs7  1  0.31700544  0.99243273  0.14456571  1
  Cs  Cs8  1  0.64315049  0.75000000  0.57716530  1
  Cs  Cs9  1  0.68299456  0.49243273  0.85543429  1
  Cs  Cs10  1  0.18299456  0.99243273  0.64456571  1
  Cs  Cs11  1  0.31700544  0.50756727  0.14456571  1
  P  P12  1  0.73054534  0.25000000  0.11429124  1
  P  P13  1  0.23054534  0.75000000  0.38570876  1
  P  P14  1  0.26945466  0.75000000  0.88570876  1
  P  P15  1  0.76945466  0.25000000  0.61429124  1
  O  O16  1  0.63340101  0.10751553  0.60811197  1
  O  O17  1  0.13340101  0.89248447  0.89188803  1
  O  O18  1  0.36659899  0.60751553  0.39188803  1
  O  O19  1  0.86659899  0.39248447  0.10811197  1
  O  O20  1  0.89344930  0.25000000  0.72270418  1
  O  O21  1  0.42628844  0.75000000  0.98181418  1
  O  O22  1  0.57371156  0.25000000  0.01818582  1
  O  O23  1  0.92628844  0.25000000  0.51818582  1
  O  O24  1  0.86659899  0.10751553  0.10811197  1
  O  O25  1  0.13340101  0.60751553  0.89188803  1
  O  O26  1  0.36659899  0.89248447  0.39188803  1
  O  O27  1  0.10655070  0.75000000  0.27729582  1
  O  O28  1  0.63340101  0.39248447  0.60811197  1
  O  O29  1  0.07371156  0.75000000  0.48181418  1
  O  O30  1  0.39344930  0.75000000  0.77729582  1
  O  O31  1  0.60655070  0.25000000  0.22270418  1
