# generated using pymatgen
data_AsPbClO2
_symmetry_space_group_name_H-M   'P 1'
_cell_length_a   7.14967723
_cell_length_b   10.08999378
_cell_length_c   11.67317515
_cell_angle_alpha   90.00000000
_cell_angle_beta   90.00000000
_cell_angle_gamma   90.00000000
_symmetry_Int_Tables_number   1
_chemical_formula_structural   AsPbClO2
_chemical_formula_sum   'As8 Pb8 Cl8 O16'
_cell_volume   842.10517571
_cell_formula_units_Z   8
loop_
 _symmetry_equiv_pos_site_id
 _symmetry_equiv_pos_as_xyz
  1  'x, y, z'
loop_
 _atom_site_type_symbol
 _atom_site_label
 _atom_site_symmetry_multiplicity
 _atom_site_fract_x
 _atom_site_fract_y
 _atom_site_fract_z
 _atom_site_occupancy
  As  As0  1  0.91886046  0.88170398  0.46544024  1
  As  As1  1  0.58113954  0.11829602  0.96544024  1
  As  As2  1  0.69950137  0.80783241  0.69756789  1
  As  As3  1  0.08113954  0.38170398  0.03455976  1
  As  As4  1  0.30049863  0.30783241  0.80243211  1
  As  As5  1  0.19950137  0.69216759  0.30243211  1
  As  As6  1  0.80049863  0.19216759  0.19756789  1
  As  As7  1  0.41886046  0.61829602  0.53455976  1
  Pb  Pb8  1  0.93064307  0.49656949  0.49341298  1
  Pb  Pb9  1  0.06935693  0.99656949  0.00658702  1
  Pb  Pb10  1  0.43064307  0.00343051  0.50658702  1
  Pb  Pb11  1  0.16543442  0.66488618  0.78467136  1
  Pb  Pb12  1  0.83456558  0.16488618  0.71532864  1
  Pb  Pb13  1  0.56935693  0.50343051  0.99341298  1
  Pb  Pb14  1  0.33456558  0.33511382  0.28467136  1
  Pb  Pb15  1  0.66543442  0.83511382  0.21532864  1
  Cl  Cl16  1  0.06186293  0.23369038  0.46768634  1
  Cl  Cl17  1  0.56186293  0.26630962  0.53231366  1
  Cl  Cl18  1  0.34976690  0.01635109  0.23948894  1
  Cl  Cl19  1  0.43813707  0.76630962  0.96768634  1
  Cl  Cl20  1  0.65023310  0.51635109  0.26051106  1
  Cl  Cl21  1  0.93813707  0.73369038  0.03231366  1
  Cl  Cl22  1  0.15023310  0.98364891  0.73948894  1
  Cl  Cl23  1  0.84976690  0.48364891  0.76051106  1
  O  O24  1  0.03298241  0.25470793  0.14744644  1
  O  O25  1  0.53298241  0.24529207  0.85255356  1
  O  O26  1  0.16492528  0.25405412  0.93019784  1
  O  O27  1  0.33507472  0.74594588  0.43019784  1
  O  O28  1  0.16115090  0.52464099  0.34476899  1
  O  O29  1  0.96701759  0.75470793  0.35255356  1
  O  O30  1  0.79674947  0.07181320  0.90306487  1
  O  O31  1  0.83884910  0.02464099  0.15523101  1
  O  O32  1  0.33884910  0.47535901  0.84476899  1
  O  O33  1  0.66492528  0.24594588  0.06980216  1
  O  O34  1  0.66115090  0.97535901  0.65523101  1
  O  O35  1  0.70325053  0.92818680  0.40306487  1
  O  O36  1  0.83507472  0.75405412  0.56980216  1
  O  O37  1  0.29674947  0.42818680  0.09693513  1
  O  O38  1  0.46701759  0.74529207  0.64744644  1
  O  O39  1  0.20325053  0.57181320  0.59693513  1
