# generated using pymatgen
data_Nd5Te2Cl3O10
_symmetry_space_group_name_H-M   'P 1'
_cell_length_a   5.70832249
_cell_length_b   7.01467293
_cell_length_c   10.24414076
_cell_angle_alpha   90.32085956
_cell_angle_beta   90.00000000
_cell_angle_gamma   114.00926963
_symmetry_Int_Tables_number   1
_chemical_formula_structural   Nd5Te2Cl3O10
_chemical_formula_sum   'Nd5 Te2 Cl3 O10'
_cell_volume   374.69869067
_cell_formula_units_Z   1
loop_
 _symmetry_equiv_pos_site_id
 _symmetry_equiv_pos_as_xyz
  1  'x, y, z'
loop_
 _atom_site_type_symbol
 _atom_site_label
 _atom_site_symmetry_multiplicity
 _atom_site_fract_x
 _atom_site_fract_y
 _atom_site_fract_z
 _atom_site_occupancy
  Nd  Nd0  1  0.60265776  0.20531552  0.23143442  1
  Nd  Nd1  1  0.29046375  0.58092750  0.10459265  1
  Nd  Nd2  1  0.39734224  0.79468448  0.76856558  1
  Nd  Nd3  1  0.70953625  0.41907250  0.89540735  1
  Nd  Nd4  1  0.00000000  0.00000000  0.00000000  1
  Te  Te5  1  0.08366914  0.16733828  0.67223062  1
  Te  Te6  1  0.91633086  0.83266172  0.32776938  1
  Cl  Cl7  1  0.16310913  0.32621826  0.35132106  1
  Cl  Cl8  1  0.83689087  0.67378174  0.64867894  1
  Cl  Cl9  1  0.50000000  0.00000000  0.50000000  1
  O  O10  1  0.60058695  0.70792933  0.94207952  1
  O  O11  1  0.89265763  0.29207067  0.05792048  1
  O  O12  1  0.70677169  0.89875352  0.20404568  1
  O  O13  1  0.10734237  0.70792933  0.94207952  1
  O  O14  1  0.80801817  0.10124648  0.79595432  1
  O  O15  1  0.39941305  0.29207067  0.05792048  1
  O  O16  1  0.19198183  0.89875352  0.20404568  1
  O  O17  1  0.77578078  0.55156157  0.28177578  1
  O  O18  1  0.29322831  0.10124648  0.79595432  1
  O  O19  1  0.22421922  0.44843843  0.71822422  1
