# generated using pymatgen
data_Cs4KLiFe2F12
_symmetry_space_group_name_H-M   'P 1'
_cell_length_a   11.13260534
_cell_length_b   11.13260544
_cell_length_c   11.13260543
_cell_angle_alpha   33.70145938
_cell_angle_beta   33.70145853
_cell_angle_gamma   33.70145905
_symmetry_Int_Tables_number   1
_chemical_formula_structural   Cs4KLiFe2F12
_chemical_formula_sum   'Cs4 K1 Li1 Fe2 F12'
_cell_volume   378.45317350
_cell_formula_units_Z   1
loop_
 _symmetry_equiv_pos_site_id
 _symmetry_equiv_pos_as_xyz
  1  'x, y, z'
loop_
 _atom_site_type_symbol
 _atom_site_label
 _atom_site_symmetry_multiplicity
 _atom_site_fract_x
 _atom_site_fract_y
 _atom_site_fract_z
 _atom_site_occupancy
  Cs  Cs0  1  0.28452718  0.28452718  0.28452718  1
  Cs  Cs1  1  0.71547282  0.71547282  0.71547282  1
  Cs  Cs2  1  0.86664783  0.86664783  0.86664783  1
  Cs  Cs3  1  0.13335217  0.13335217  0.13335217  1
  K  K4  1  0.00000000  0.00000000  0.00000000  1
  Li  Li5  1  0.50000000  0.50000000  0.50000000  1
  Fe  Fe6  1  0.41581505  0.41581505  0.41581505  1
  Fe  Fe7  1  0.58418495  0.58418495  0.58418495  1
  F  F8  1  0.76338896  0.32814604  0.76338896  1
  F  F9  1  0.67185396  0.23661104  0.23661104  1
  F  F10  1  0.32814604  0.76338896  0.76338896  1
  F  F11  1  0.76338896  0.76338896  0.32814604  1
  F  F12  1  0.23661104  0.23661104  0.67185396  1
  F  F13  1  0.23661104  0.67185396  0.23661104  1
  F  F14  1  0.40602920  0.40602920  0.81974132  1
  F  F15  1  0.59397080  0.18025868  0.59397080  1
  F  F16  1  0.59397080  0.59397080  0.18025868  1
  F  F17  1  0.18025868  0.59397080  0.59397080  1
  F  F18  1  0.81974132  0.40602920  0.40602920  1
  F  F19  1  0.40602920  0.81974132  0.40602920  1
