# generated using pymatgen
data_RbB5O8
_symmetry_space_group_name_H-M   'P 1'
_cell_length_a   7.82908170
_cell_length_b   12.07429108
_cell_length_c   14.99579392
_cell_angle_alpha   90.00000000
_cell_angle_beta   90.00000000
_cell_angle_gamma   90.00000000
_symmetry_Int_Tables_number   1
_chemical_formula_structural   RbB5O8
_chemical_formula_sum   'Rb8 B40 O64'
_cell_volume   1417.56156671
_cell_formula_units_Z   8
loop_
 _symmetry_equiv_pos_site_id
 _symmetry_equiv_pos_as_xyz
  1  'x, y, z'
loop_
 _atom_site_type_symbol
 _atom_site_label
 _atom_site_symmetry_multiplicity
 _atom_site_fract_x
 _atom_site_fract_y
 _atom_site_fract_z
 _atom_site_occupancy
  Rb  Rb0  1  0.43256352  0.70803770  0.12111664  1
  Rb  Rb1  1  0.06743648  0.29196230  0.62111664  1
  Rb  Rb2  1  0.43256352  0.79196230  0.62111664  1
  Rb  Rb3  1  0.06743648  0.20803770  0.12111664  1
  Rb  Rb4  1  0.93256352  0.79196230  0.87888336  1
  Rb  Rb5  1  0.56743648  0.20803770  0.37888336  1
  Rb  Rb6  1  0.93256352  0.70803770  0.37888336  1
  Rb  Rb7  1  0.56743648  0.29196230  0.87888336  1
  B  B8  1  0.69294037  0.42702671  0.54511513  1
  B  B9  1  0.01494920  0.97134449  0.65650586  1
  B  B10  1  0.51494920  0.52865551  0.34349414  1
  B  B11  1  0.80705963  0.57297329  0.04511513  1
  B  B12  1  0.01494920  0.52865551  0.15650586  1
  B  B13  1  0.90222151  0.40369757  0.41966846  1
  B  B14  1  0.45213192  0.72742245  0.37394114  1
  B  B15  1  0.98505080  0.47134449  0.84349414  1
  B  B16  1  0.59777849  0.90369757  0.41966846  1
  B  B17  1  0.48505080  0.47134449  0.65650586  1
  B  B18  1  0.59777849  0.59630243  0.91966846  1
  B  B19  1  0.04786808  0.22742245  0.37394114  1
  B  B20  1  0.95213192  0.72742245  0.12605886  1
  B  B21  1  0.06974306  0.09888826  0.78704580  1
  B  B22  1  0.19294037  0.07297329  0.45488487  1
  B  B23  1  0.56974306  0.09888826  0.71295420  1
  B  B24  1  0.80705963  0.92702671  0.54511513  1
  B  B25  1  0.56974306  0.40111174  0.21295420  1
  B  B26  1  0.98505080  0.02865551  0.34349414  1
  B  B27  1  0.40222151  0.40369757  0.08033154  1
  B  B28  1  0.93025694  0.90111174  0.21295420  1
  B  B29  1  0.48505080  0.02865551  0.15650586  1
  B  B30  1  0.54786808  0.22742245  0.12605886  1
  B  B31  1  0.69294037  0.07297329  0.04511513  1
  B  B32  1  0.19294037  0.42702671  0.95488487  1
  B  B33  1  0.54786808  0.27257755  0.62605886  1
  B  B34  1  0.93025694  0.59888826  0.71295420  1
  B  B35  1  0.43025694  0.59888826  0.78704580  1
  B  B36  1  0.06974306  0.40111174  0.28704580  1
  B  B37  1  0.95213192  0.77257755  0.62605886  1
  B  B38  1  0.04786808  0.27257755  0.87394114  1
  B  B39  1  0.30705963  0.57297329  0.45488487  1
  B  B40  1  0.90222151  0.09630243  0.91966846  1
  B  B41  1  0.09777849  0.59630243  0.58033154  1
  B  B42  1  0.43025694  0.90111174  0.28704580  1
  B  B43  1  0.30705963  0.92702671  0.95488487  1
  B  B44  1  0.09777849  0.90369757  0.08033154  1
  B  B45  1  0.51494920  0.97134449  0.84349414  1
  B  B46  1  0.40222151  0.09630243  0.58033154  1
  B  B47  1  0.45213192  0.77257755  0.87394114  1
  O  O48  1  0.68004672  0.31799995  0.56605820  1
  O  O49  1  0.31995328  0.68200005  0.43394180  1
  O  O50  1  0.02281332  0.96268802  0.15023377  1
  O  O51  1  0.90304819  0.94491821  0.29637700  1
  O  O52  1  0.60071651  0.50709575  0.59157067  1
  O  O53  1  0.97718668  0.46268802  0.34976623  1
  O  O54  1  0.37408870  0.79680345  0.30399131  1
  O  O55  1  0.57304533  0.79322001  0.42897829  1
  O  O56  1  0.40304819  0.94491821  0.20362300  1
  O  O57  1  0.87408870  0.70319655  0.69600869  1
  O  O58  1  0.52281332  0.96268802  0.34976623  1
  O  O59  1  0.42695467  0.29322001  0.07102171  1
  O  O60  1  0.68004672  0.18200005  0.06605820  1
  O  O61  1  0.62591130  0.20319655  0.69600869  1
  O  O62  1  0.39928349  0.00709575  0.90842933  1
  O  O63  1  0.09695181  0.05508179  0.70362300  1
  O  O64  1  0.47718668  0.03731198  0.65023377  1
  O  O65  1  0.80060250  0.03501096  0.97767381  1
  O  O66  1  0.07304533  0.70677999  0.57102171  1
  O  O67  1  0.95148701  0.36301176  0.82862738  1
  O  O68  1  0.62591130  0.29680345  0.19600869  1
  O  O69  1  0.18004672  0.31799995  0.93394180  1
  O  O70  1  0.30060250  0.03501096  0.52232619  1
  O  O71  1  0.59695181  0.05508179  0.79637700  1
  O  O72  1  0.80060250  0.46498904  0.47767381  1
  O  O73  1  0.12591130  0.20319655  0.80399131  1
  O  O74  1  0.02281332  0.53731198  0.65023377  1
  O  O75  1  0.52281332  0.53731198  0.84976623  1
  O  O76  1  0.87408870  0.79680345  0.19600869  1
  O  O77  1  0.07304533  0.79322001  0.07102171  1
  O  O78  1  0.92695467  0.29322001  0.42897829  1
  O  O79  1  0.04851299  0.86301176  0.67137262  1
  O  O80  1  0.37408870  0.70319655  0.80399131  1
  O  O81  1  0.54851299  0.86301176  0.82862738  1
  O  O82  1  0.69939750  0.96498904  0.47767381  1
  O  O83  1  0.39928349  0.49290425  0.40842933  1
  O  O84  1  0.92695467  0.20677999  0.92897829  1
  O  O85  1  0.54851299  0.63698824  0.32862738  1
  O  O86  1  0.60071651  0.99290425  0.09157067  1
  O  O87  1  0.57304533  0.70677999  0.92897829  1
  O  O88  1  0.31995328  0.81799995  0.93394180  1
  O  O89  1  0.10071651  0.99290425  0.40842933  1
  O  O90  1  0.12591130  0.29680345  0.30399131  1
  O  O91  1  0.19939750  0.96498904  0.02232619  1
  O  O92  1  0.81995328  0.81799995  0.56605820  1
  O  O93  1  0.47718668  0.46268802  0.15023377  1
  O  O94  1  0.30060250  0.46498904  0.02232619  1
  O  O95  1  0.04851299  0.63698824  0.17137262  1
  O  O96  1  0.97718668  0.03731198  0.84976623  1
  O  O97  1  0.90304819  0.55508179  0.79637700  1
  O  O98  1  0.81995328  0.68200005  0.06605820  1
  O  O99  1  0.95148701  0.13698824  0.32862738  1
  O  O100  1  0.69939750  0.53501096  0.97767381  1
  O  O101  1  0.40304819  0.55508179  0.70362300  1
  O  O102  1  0.10071651  0.50709575  0.90842933  1
  O  O103  1  0.59695181  0.44491821  0.29637700  1
  O  O104  1  0.18004672  0.18200005  0.43394180  1
  O  O105  1  0.42695467  0.20677999  0.57102171  1
  O  O106  1  0.45148701  0.13698824  0.17137262  1
  O  O107  1  0.89928349  0.49290425  0.09157067  1
  O  O108  1  0.89928349  0.00709575  0.59157067  1
  O  O109  1  0.09695181  0.44491821  0.20362300  1
  O  O110  1  0.45148701  0.36301176  0.67137262  1
  O  O111  1  0.19939750  0.53501096  0.52232619  1
