# generated using pymatgen
data_Na3Sc2(BO3)3
_symmetry_space_group_name_H-M   'P 1'
_cell_length_a   8.37151044
_cell_length_b   8.37150989
_cell_length_c   8.37150977
_cell_angle_alpha   62.55807155
_cell_angle_beta   62.55807353
_cell_angle_gamma   62.55807035
_symmetry_Int_Tables_number   1
_chemical_formula_structural   Na3Sc2(BO3)3
_chemical_formula_sum   'Na6 Sc4 B6 O18'
_cell_volume   438.49453648
_cell_formula_units_Z   2
loop_
 _symmetry_equiv_pos_site_id
 _symmetry_equiv_pos_as_xyz
  1  'x, y, z'
loop_
 _atom_site_type_symbol
 _atom_site_label
 _atom_site_symmetry_multiplicity
 _atom_site_fract_x
 _atom_site_fract_y
 _atom_site_fract_z
 _atom_site_occupancy
  Na  Na0  1  0.91549191  0.58450809  0.25000000  1
  Na  Na1  1  0.08450809  0.41549191  0.75000000  1
  Na  Na2  1  0.58450809  0.25000000  0.91549191  1
  Na  Na3  1  0.75000000  0.08450809  0.41549191  1
  Na  Na4  1  0.25000000  0.91549191  0.58450809  1
  Na  Na5  1  0.41549191  0.75000000  0.08450809  1
  Sc  Sc6  1  0.82811519  0.82811519  0.82811519  1
  Sc  Sc7  1  0.17188481  0.17188481  0.17188481  1
  Sc  Sc8  1  0.67188481  0.67188481  0.67188481  1
  Sc  Sc9  1  0.32811519  0.32811519  0.32811519  1
  B  B10  1  0.58886188  0.91113812  0.25000000  1
  B  B11  1  0.91113812  0.25000000  0.58886188  1
  B  B12  1  0.41113812  0.08886188  0.75000000  1
  B  B13  1  0.75000000  0.41113812  0.08886188  1
  B  B14  1  0.25000000  0.58886188  0.91113812  1
  B  B15  1  0.08886188  0.75000000  0.41113812  1
  O  O16  1  0.15078439  0.90652370  0.31392161  1
  O  O17  1  0.81392161  0.40652370  0.65078439  1
  O  O18  1  0.84921561  0.09347630  0.68607839  1
  O  O19  1  0.90652370  0.31392161  0.15078439  1
  O  O20  1  0.65078439  0.81392161  0.40652370  1
  O  O21  1  0.75000000  0.57123688  0.92876312  1
  O  O22  1  0.59347630  0.34921561  0.18607839  1
  O  O23  1  0.25000000  0.42876312  0.07123688  1
  O  O24  1  0.34921561  0.18607839  0.59347630  1
  O  O25  1  0.31392161  0.15078439  0.90652370  1
  O  O26  1  0.18607839  0.59347630  0.34921561  1
  O  O27  1  0.68607839  0.84921561  0.09347630  1
  O  O28  1  0.57123688  0.92876312  0.75000000  1
  O  O29  1  0.40652370  0.65078439  0.81392161  1
  O  O30  1  0.07123688  0.25000000  0.42876312  1
  O  O31  1  0.42876312  0.07123688  0.25000000  1
  O  O32  1  0.09347630  0.68607839  0.84921561  1
  O  O33  1  0.92876312  0.75000000  0.57123688  1
