# generated using pymatgen
data_MgCoPO5
_symmetry_space_group_name_H-M   'P 1'
_cell_length_a   5.34162803
_cell_length_b   6.81307322
_cell_length_c   8.28938077
_cell_angle_alpha   89.76769295
_cell_angle_beta   38.54124727
_cell_angle_gamma   75.78661606
_symmetry_Int_Tables_number   1
_chemical_formula_structural   MgCoPO5
_chemical_formula_sum   'Mg2 Co2 P2 O10'
_cell_volume   173.16230051
_cell_formula_units_Z   2
loop_
 _symmetry_equiv_pos_site_id
 _symmetry_equiv_pos_as_xyz
  1  'x, y, z'
loop_
 _atom_site_type_symbol
 _atom_site_label
 _atom_site_symmetry_multiplicity
 _atom_site_fract_x
 _atom_site_fract_y
 _atom_site_fract_z
 _atom_site_occupancy
  Mg  Mg0  1  0.49527224  0.23519076  0.66985570  1
  Mg  Mg1  1  0.51400662  0.72810938  0.31594509  1
  Co  Co2  1  0.49907549  0.48569789  0.99572111  1
  Co  Co3  1  0.49948425  0.98568690  0.99561185  1
  P  P4  1  0.50522390  0.23456550  0.32984174  1
  P  P5  1  0.49073425  0.73735967  0.66291601  1
  O  O6  1  0.29499793  0.11344486  0.32870278  1
  O  O7  1  0.72190296  0.35633195  0.11507464  1
  O  O8  1  0.70035109  0.85998864  0.66328865  1
  O  O9  1  0.27181113  0.61783650  0.87991146  1
  O  O10  1  0.83061351  0.57762832  0.37641444  1
  O  O11  1  0.16214689  0.89145187  0.70653597  1
  O  O12  1  0.16715726  0.39254110  0.61693651  1
  O  O13  1  0.83651424  0.07936595  0.28356711  1
  O  O14  1  0.49574502  0.73544806  0.08513950  1
  O  O15  1  0.50169522  0.23648066  0.90655143  1
