# generated using pymatgen
data_MgVBiO5
_symmetry_space_group_name_H-M   'P 1'
_cell_length_a   5.40159254
_cell_length_b   7.73394181
_cell_length_c   11.71094417
_cell_angle_alpha   90.00000000
_cell_angle_beta   90.00000000
_cell_angle_gamma   107.35213047
_symmetry_Int_Tables_number   1
_chemical_formula_structural   MgVBiO5
_chemical_formula_sum   'Mg4 V4 Bi4 O20'
_cell_volume   466.96673090
_cell_formula_units_Z   4
loop_
 _symmetry_equiv_pos_site_id
 _symmetry_equiv_pos_as_xyz
  1  'x, y, z'
loop_
 _atom_site_type_symbol
 _atom_site_label
 _atom_site_symmetry_multiplicity
 _atom_site_fract_x
 _atom_site_fract_y
 _atom_site_fract_z
 _atom_site_occupancy
  Mg  Mg0  1  0.62629950  0.17668209  0.92141742  1
  Mg  Mg1  1  0.37370050  0.82331791  0.07858258  1
  Mg  Mg2  1  0.87370050  0.32331791  0.42141742  1
  Mg  Mg3  1  0.12629950  0.67668209  0.57858258  1
  V  V4  1  0.78456565  0.97111654  0.64836507  1
  V  V5  1  0.21543435  0.02888346  0.35163493  1
  V  V6  1  0.71543435  0.52888346  0.14836507  1
  V  V7  1  0.28456565  0.47111654  0.85163493  1
  Bi  Bi8  1  0.11701875  0.17558772  0.09547149  1
  Bi  Bi9  1  0.88298125  0.82441228  0.90452851  1
  Bi  Bi10  1  0.61701875  0.67558772  0.40452851  1
  Bi  Bi11  1  0.38298125  0.32441228  0.59547149  1
  O  O12  1  0.57603142  0.32830576  0.07201062  1
  O  O13  1  0.02942640  0.32607999  0.93181085  1
  O  O14  1  0.48575236  0.63706578  0.17499958  1
  O  O15  1  0.75568003  0.51449362  0.52687549  1
  O  O16  1  0.80901310  0.48435400  0.28577059  1
  O  O17  1  0.30901310  0.98435400  0.21422941  1
  O  O18  1  0.52942640  0.82607999  0.56818915  1
  O  O19  1  0.47057360  0.17392001  0.43181085  1
  O  O20  1  0.24431997  0.48550638  0.47312451  1
  O  O21  1  0.92396858  0.17169424  0.57201062  1
  O  O22  1  0.19098690  0.51564600  0.71422941  1
  O  O23  1  0.42396858  0.67169424  0.92798938  1
  O  O24  1  0.07603142  0.82830576  0.42798938  1
  O  O25  1  0.69098690  0.01564600  0.78577059  1
  O  O26  1  0.74431997  0.98550638  0.02687549  1
  O  O27  1  0.25568003  0.01449362  0.97312451  1
  O  O28  1  0.51424764  0.36293422  0.82500042  1
  O  O29  1  0.97057360  0.67392001  0.06818915  1
  O  O30  1  0.01424764  0.86293422  0.67499958  1
  O  O31  1  0.98575236  0.13706578  0.32500042  1
