# generated using pymatgen
data_CaVBiO5
_symmetry_space_group_name_H-M   'P 1'
_cell_length_a   5.53330596
_cell_length_b   11.38240630
_cell_length_c   15.80869111
_cell_angle_alpha   90.00000000
_cell_angle_beta   90.00000000
_cell_angle_gamma   90.00000000
_symmetry_Int_Tables_number   1
_chemical_formula_structural   CaVBiO5
_chemical_formula_sum   'Ca8 V8 Bi8 O40'
_cell_volume   995.66830499
_cell_formula_units_Z   8
loop_
 _symmetry_equiv_pos_site_id
 _symmetry_equiv_pos_as_xyz
  1  'x, y, z'
loop_
 _atom_site_type_symbol
 _atom_site_label
 _atom_site_symmetry_multiplicity
 _atom_site_fract_x
 _atom_site_fract_y
 _atom_site_fract_z
 _atom_site_occupancy
  Ca  Ca0  1  0.50466472  0.35898891  0.44786590  1
  Ca  Ca1  1  0.00466472  0.14101109  0.44786590  1
  Ca  Ca2  1  0.00466472  0.64101109  0.05213410  1
  Ca  Ca3  1  0.99533528  0.35898891  0.94786590  1
  Ca  Ca4  1  0.49533528  0.14101109  0.94786590  1
  Ca  Ca5  1  0.99533528  0.85898891  0.55213410  1
  Ca  Ca6  1  0.49533528  0.64101109  0.55213410  1
  Ca  Ca7  1  0.50466472  0.85898891  0.05213410  1
  V  V8  1  0.98603944  0.40403162  0.59840655  1
  V  V9  1  0.51396056  0.90403162  0.40159345  1
  V  V10  1  0.01396056  0.59596838  0.40159345  1
  V  V11  1  0.48603944  0.09596838  0.59840655  1
  V  V12  1  0.01396056  0.09596838  0.09840655  1
  V  V13  1  0.98603944  0.90403162  0.90159345  1
  V  V14  1  0.51396056  0.40403162  0.09840655  1
  V  V15  1  0.48603944  0.59596838  0.90159345  1
  Bi  Bi16  1  0.95214611  0.84559188  0.23173177  1
  Bi  Bi17  1  0.04785389  0.15440812  0.76826823  1
  Bi  Bi18  1  0.54785389  0.34559188  0.76826823  1
  Bi  Bi19  1  0.04785389  0.65440812  0.73173177  1
  Bi  Bi20  1  0.45214611  0.15440812  0.26826823  1
  Bi  Bi21  1  0.45214611  0.65440812  0.23173177  1
  Bi  Bi22  1  0.54785389  0.84559188  0.73173177  1
  Bi  Bi23  1  0.95214611  0.34559188  0.26826823  1
  O  O24  1  0.93913129  0.32629674  0.69508684  1
  O  O25  1  0.29513322  0.04650022  0.06611332  1
  O  O26  1  0.20486678  0.54650022  0.93388668  1
  O  O27  1  0.24282177  0.76894126  0.15331752  1
  O  O28  1  0.25717823  0.26894126  0.84668248  1
  O  O29  1  0.93913129  0.82629674  0.80491316  1
  O  O30  1  0.25717823  0.76894126  0.65331752  1
  O  O31  1  0.56086871  0.82629674  0.30491316  1
  O  O32  1  0.29513322  0.54650022  0.43388668  1
  O  O33  1  0.06086871  0.67370326  0.30491316  1
  O  O34  1  0.56086871  0.32629674  0.19508684  1
  O  O35  1  0.62402483  0.18294436  0.52422833  1
  O  O36  1  0.79513322  0.95349978  0.43388668  1
  O  O37  1  0.75717823  0.73105874  0.65331752  1
  O  O38  1  0.17221016  0.02490988  0.87510999  1
  O  O39  1  0.79513322  0.45349978  0.06611332  1
  O  O40  1  0.06086871  0.17370326  0.19508684  1
  O  O41  1  0.74282177  0.23105874  0.34668248  1
  O  O42  1  0.12402483  0.81705564  0.97577167  1
  O  O43  1  0.20486678  0.04650022  0.56611332  1
  O  O44  1  0.37597517  0.81705564  0.47577167  1
  O  O45  1  0.82778984  0.97509012  0.12489001  1
  O  O46  1  0.75717823  0.23105874  0.84668248  1
  O  O47  1  0.67221016  0.97509012  0.62489001  1
  O  O48  1  0.37597517  0.31705564  0.02422833  1
  O  O49  1  0.12402483  0.31705564  0.52422833  1
  O  O50  1  0.70486678  0.45349978  0.56611332  1
  O  O51  1  0.70486678  0.95349978  0.93388668  1
  O  O52  1  0.67221016  0.47509012  0.87510999  1
  O  O53  1  0.87597517  0.68294436  0.47577167  1
  O  O54  1  0.87597517  0.18294436  0.02422833  1
  O  O55  1  0.62402483  0.68294436  0.97577167  1
  O  O56  1  0.82778984  0.47509012  0.37510999  1
  O  O57  1  0.74282177  0.73105874  0.15331752  1
  O  O58  1  0.24282177  0.26894126  0.34668248  1
  O  O59  1  0.17221016  0.52490988  0.62489001  1
  O  O60  1  0.32778984  0.52490988  0.12489001  1
  O  O61  1  0.43913129  0.17370326  0.69508684  1
  O  O62  1  0.32778984  0.02490988  0.37510999  1
  O  O63  1  0.43913129  0.67370326  0.80491316  1
