# generated using pymatgen
data_MgFe(SiO3)2
_symmetry_space_group_name_H-M   'P 1'
_cell_length_a   5.30419386
_cell_length_b   9.05167165
_cell_length_c   18.53401787
_cell_angle_alpha   90.00000000
_cell_angle_beta   90.00000000
_cell_angle_gamma   90.00000000
_symmetry_Int_Tables_number   1
_chemical_formula_structural   MgFe(SiO3)2
_chemical_formula_sum   'Mg8 Fe8 Si16 O48'
_cell_volume   889.85195188
_cell_formula_units_Z   8
loop_
 _symmetry_equiv_pos_site_id
 _symmetry_equiv_pos_as_xyz
  1  'x, y, z'
loop_
 _atom_site_type_symbol
 _atom_site_label
 _atom_site_symmetry_multiplicity
 _atom_site_fract_x
 _atom_site_fract_y
 _atom_site_fract_z
 _atom_site_occupancy
  Mg  Mg0  1  0.61703310  0.15383000  0.62469238  1
  Mg  Mg1  1  0.38296690  0.84617000  0.37530762  1
  Mg  Mg2  1  0.61703310  0.65383000  0.87530762  1
  Mg  Mg3  1  0.11703310  0.84617000  0.87530762  1
  Mg  Mg4  1  0.88296690  0.15383000  0.12469238  1
  Mg  Mg5  1  0.38296690  0.34617000  0.12469238  1
  Mg  Mg6  1  0.11703310  0.34617000  0.62469238  1
  Mg  Mg7  1  0.88296690  0.65383000  0.37530762  1
  Fe  Fe8  1  0.37712990  0.98641397  0.12300942  1
  Fe  Fe9  1  0.62287010  0.01358603  0.87699058  1
  Fe  Fe10  1  0.87712990  0.01358603  0.37699058  1
  Fe  Fe11  1  0.12287010  0.98641397  0.62300942  1
  Fe  Fe12  1  0.37712990  0.48641397  0.37699058  1
  Fe  Fe13  1  0.62287010  0.51358603  0.62300942  1
  Fe  Fe14  1  0.87712990  0.51358603  0.12300942  1
  Fe  Fe15  1  0.12287010  0.48641397  0.87699058  1
  Si  Si16  1  0.56216276  0.66048753  0.22810723  1
  Si  Si17  1  0.71050491  0.83606270  0.52528674  1
  Si  Si18  1  0.78949509  0.83606270  0.02528674  1
  Si  Si19  1  0.93783724  0.16048753  0.77189277  1
  Si  Si20  1  0.06216276  0.33951247  0.27189277  1
  Si  Si21  1  0.43783724  0.83951247  0.72810723  1
  Si  Si22  1  0.21050491  0.66393730  0.52528674  1
  Si  Si23  1  0.71050491  0.33606270  0.97471326  1
  Si  Si24  1  0.78949509  0.33606270  0.47471326  1
  Si  Si25  1  0.93783724  0.66048753  0.72810723  1
  Si  Si26  1  0.43783724  0.33951247  0.77189277  1
  Si  Si27  1  0.56216276  0.16048753  0.27189277  1
  Si  Si28  1  0.28949509  0.16393730  0.47471326  1
  Si  Si29  1  0.06216276  0.83951247  0.22810723  1
  Si  Si30  1  0.28949509  0.66393730  0.02528674  1
  Si  Si31  1  0.21050491  0.16393730  0.97471326  1
  O  O32  1  0.93627910  0.50137237  0.68828471  1
  O  O33  1  0.29684669  0.01397357  0.93405804  1
  O  O34  1  0.06372090  0.49862763  0.31171529  1
  O  O35  1  0.70962682  0.33567492  0.06304597  1
  O  O36  1  0.20962682  0.16432508  0.06304597  1
  O  O37  1  0.91730398  0.20640951  0.94803806  1
  O  O38  1  0.94426652  0.66390088  0.81603563  1
  O  O39  1  0.05573348  0.83609912  0.31603563  1
  O  O40  1  0.70962682  0.83567492  0.43695403  1
  O  O41  1  0.94426652  0.16390088  0.68396437  1
  O  O42  1  0.43627910  0.49862763  0.81171529  1
  O  O43  1  0.79037318  0.33567492  0.56304597  1
  O  O44  1  0.70315331  0.98602643  0.06594196  1
  O  O45  1  0.44426652  0.83609912  0.81603563  1
  O  O46  1  0.56372090  0.00137237  0.31171529  1
  O  O47  1  0.29684669  0.51397357  0.56594196  1
  O  O48  1  0.43627910  0.99862763  0.68828471  1
  O  O49  1  0.16746841  0.76777852  0.69745016  1
  O  O50  1  0.33253159  0.76777852  0.19745016  1
  O  O51  1  0.58269602  0.70640951  0.05196194  1
  O  O52  1  0.79037318  0.83567492  0.93695403  1
  O  O53  1  0.55573348  0.66390088  0.31603563  1
  O  O54  1  0.79684669  0.48602643  0.93405804  1
  O  O55  1  0.16746841  0.26777852  0.80254984  1
  O  O56  1  0.29037318  0.16432508  0.56304597  1
  O  O57  1  0.55573348  0.16390088  0.18396437  1
  O  O58  1  0.70315331  0.48602643  0.43405804  1
  O  O59  1  0.20962682  0.66432508  0.43695403  1
  O  O60  1  0.20315331  0.51397357  0.06594196  1
  O  O61  1  0.66746841  0.73222148  0.69745016  1
  O  O62  1  0.06372090  0.99862763  0.18828471  1
  O  O63  1  0.83253159  0.73222148  0.19745016  1
  O  O64  1  0.83253159  0.23222148  0.30254984  1
  O  O65  1  0.79684669  0.98602643  0.56594196  1
  O  O66  1  0.29037318  0.66432508  0.93695403  1
  O  O67  1  0.20315331  0.01397357  0.43405804  1
  O  O68  1  0.33253159  0.26777852  0.30254984  1
  O  O69  1  0.08269602  0.79359049  0.05196194  1
  O  O70  1  0.41730398  0.79359049  0.55196194  1
  O  O71  1  0.66746841  0.23222148  0.80254984  1
  O  O72  1  0.41730398  0.29359049  0.94803806  1
  O  O73  1  0.58269602  0.20640951  0.44803806  1
  O  O74  1  0.08269602  0.29359049  0.44803806  1
  O  O75  1  0.44426652  0.33609912  0.68396437  1
  O  O76  1  0.56372090  0.50137237  0.18828471  1
  O  O77  1  0.91730398  0.70640951  0.55196194  1
  O  O78  1  0.05573348  0.33609912  0.18396437  1
  O  O79  1  0.93627910  0.00137237  0.81171529  1
