# generated using pymatgen
data_Na4Ce(As2O7)2
_symmetry_space_group_name_H-M   'P 1'
_cell_length_a   10.41413076
_cell_length_b   11.00105832
_cell_length_c   11.00105832
_cell_angle_alpha   90.00000000
_cell_angle_beta   90.00000000
_cell_angle_gamma   90.00000000
_symmetry_Int_Tables_number   1
_chemical_formula_structural   Na4Ce(As2O7)2
_chemical_formula_sum   'Na16 Ce4 As16 O56'
_cell_volume   1260.35230625
_cell_formula_units_Z   4
loop_
 _symmetry_equiv_pos_site_id
 _symmetry_equiv_pos_as_xyz
  1  'x, y, z'
loop_
 _atom_site_type_symbol
 _atom_site_label
 _atom_site_symmetry_multiplicity
 _atom_site_fract_x
 _atom_site_fract_y
 _atom_site_fract_z
 _atom_site_occupancy
  Na  Na0  1  0.39563173  0.10113803  0.67511266  1
  Na  Na1  1  0.89563173  0.82488734  0.39886197  1
  Na  Na2  1  0.60436827  0.17511266  0.89886197  1
  Na  Na3  1  0.39563173  0.39886197  0.82488734  1
  Na  Na4  1  0.39563173  0.82488734  0.10113803  1
  Na  Na5  1  0.89563173  0.39886197  0.67511266  1
  Na  Na6  1  0.10436827  0.89886197  0.17511266  1
  Na  Na7  1  0.89563173  0.10113803  0.82488734  1
  Na  Na8  1  0.60436827  0.60113803  0.17511266  1
  Na  Na9  1  0.39563173  0.67511266  0.39886197  1
  Na  Na10  1  0.89563173  0.67511266  0.10113803  1
  Na  Na11  1  0.10436827  0.60113803  0.32488734  1
  Na  Na12  1  0.60436827  0.89886197  0.32488734  1
  Na  Na13  1  0.10436827  0.32488734  0.89886197  1
  Na  Na14  1  0.60436827  0.32488734  0.60113803  1
  Na  Na15  1  0.10436827  0.17511266  0.60113803  1
  Ce  Ce16  1  0.93065820  0.75000000  0.75000000  1
  Ce  Ce17  1  0.06934180  0.25000000  0.25000000  1
  Ce  Ce18  1  0.43065820  0.75000000  0.75000000  1
  Ce  Ce19  1  0.56934180  0.25000000  0.25000000  1
  As  As20  1  0.82272219  0.35061455  0.02355195  1
  As  As21  1  0.67727781  0.52355195  0.85061455  1
  As  As22  1  0.32272219  0.14938545  0.02355195  1
  As  As23  1  0.67727781  0.97644805  0.64938545  1
  As  As24  1  0.17727781  0.97644805  0.85061455  1
  As  As25  1  0.32272219  0.35061455  0.47644805  1
  As  As26  1  0.82272219  0.14938545  0.47644805  1
  As  As27  1  0.32272219  0.02355195  0.35061455  1
  As  As28  1  0.17727781  0.52355195  0.64938545  1
  As  As29  1  0.32272219  0.47644805  0.14938545  1
  As  As30  1  0.17727781  0.85061455  0.52355195  1
  As  As31  1  0.17727781  0.64938545  0.97644805  1
  As  As32  1  0.82272219  0.02355195  0.14938545  1
  As  As33  1  0.82272219  0.47644805  0.35061455  1
  As  As34  1  0.67727781  0.85061455  0.97644805  1
  As  As35  1  0.67727781  0.64938545  0.52355195  1
  O  O36  1  0.88114264  0.88829326  0.19726128  1
  O  O37  1  0.25000000  0.99981737  0.00018263  1
  O  O38  1  0.30249843  0.57147618  0.73847103  1
  O  O39  1  0.80249843  0.73847103  0.57147618  1
  O  O40  1  0.69750157  0.42852382  0.26152897  1
  O  O41  1  0.44296271  0.37563601  0.11693455  1
  O  O42  1  0.94296271  0.37563601  0.38306545  1
  O  O43  1  0.11885736  0.80273872  0.38829326  1
  O  O44  1  0.44296271  0.11693455  0.12436399  1
  O  O45  1  0.05703729  0.61693455  0.87563601  1
  O  O46  1  0.11885736  0.11170674  0.80273872  1
  O  O47  1  0.55703729  0.61693455  0.62436399  1
  O  O48  1  0.30249843  0.73847103  0.92852382  1
  O  O49  1  0.25000000  0.49981737  0.99981737  1
  O  O50  1  0.05703729  0.62436399  0.61693455  1
  O  O51  1  0.80249843  0.92852382  0.73847103  1
  O  O52  1  0.38114264  0.30273872  0.61170674  1
  O  O53  1  0.30249843  0.76152897  0.57147618  1
  O  O54  1  0.44296271  0.38306545  0.37563601  1
  O  O55  1  0.55703729  0.62436399  0.88306545  1
  O  O56  1  0.94296271  0.38306545  0.12436399  1
  O  O57  1  0.69750157  0.26152897  0.07147618  1
  O  O58  1  0.69750157  0.23847103  0.42852382  1
  O  O59  1  0.38114264  0.19726128  0.88829326  1
  O  O60  1  0.80249843  0.57147618  0.76152897  1
  O  O61  1  0.25000000  0.00018263  0.50018263  1
  O  O62  1  0.19750157  0.26152897  0.42852382  1
  O  O63  1  0.75000000  0.99981737  0.49981737  1
  O  O64  1  0.80249843  0.76152897  0.92852382  1
  O  O65  1  0.61885736  0.38829326  0.80273872  1
  O  O66  1  0.19750157  0.42852382  0.23847103  1
  O  O67  1  0.05703729  0.88306545  0.62436399  1
  O  O68  1  0.25000000  0.50018263  0.49981737  1
  O  O69  1  0.19750157  0.23847103  0.07147618  1
  O  O70  1  0.55703729  0.87563601  0.61693455  1
  O  O71  1  0.11885736  0.69726128  0.11170674  1
  O  O72  1  0.88114264  0.19726128  0.61170674  1
  O  O73  1  0.30249843  0.92852382  0.76152897  1
  O  O74  1  0.94296271  0.12436399  0.11693455  1
  O  O75  1  0.61885736  0.11170674  0.69726128  1
  O  O76  1  0.88114264  0.30273872  0.88829326  1
  O  O77  1  0.88114264  0.61170674  0.30273872  1
  O  O78  1  0.38114264  0.61170674  0.19726128  1
  O  O79  1  0.55703729  0.88306545  0.87563601  1
  O  O80  1  0.75000000  0.00018263  0.99981737  1
  O  O81  1  0.19750157  0.07147618  0.26152897  1
  O  O82  1  0.69750157  0.07147618  0.23847103  1
  O  O83  1  0.61885736  0.80273872  0.11170674  1
  O  O84  1  0.11885736  0.38829326  0.69726128  1
  O  O85  1  0.75000000  0.50018263  0.00018263  1
  O  O86  1  0.38114264  0.88829326  0.30273872  1
  O  O87  1  0.05703729  0.87563601  0.88306545  1
  O  O88  1  0.94296271  0.11693455  0.37563601  1
  O  O89  1  0.44296271  0.12436399  0.38306545  1
  O  O90  1  0.75000000  0.49981737  0.50018263  1
  O  O91  1  0.61885736  0.69726128  0.38829326  1
