# generated using pymatgen
data_Na2U(WO5)2
_symmetry_space_group_name_H-M   'P 1'
_cell_length_a   6.82530289
_cell_length_b   7.66599311
_cell_length_c   8.63356415
_cell_angle_alpha   89.92126668
_cell_angle_beta   86.99263645
_cell_angle_gamma   73.44672345
_symmetry_Int_Tables_number   1
_chemical_formula_structural   Na2U(WO5)2
_chemical_formula_sum   'Na4 U2 W4 O20'
_cell_volume   432.36987481
_cell_formula_units_Z   2
loop_
 _symmetry_equiv_pos_site_id
 _symmetry_equiv_pos_as_xyz
  1  'x, y, z'
loop_
 _atom_site_type_symbol
 _atom_site_label
 _atom_site_symmetry_multiplicity
 _atom_site_fract_x
 _atom_site_fract_y
 _atom_site_fract_z
 _atom_site_occupancy
  Na  Na0  1  0.40099118  0.90481842  0.20066778  1
  Na  Na1  1  0.58667853  0.60626845  0.79199241  1
  Na  Na2  1  0.59900882  0.09518158  0.79933222  1
  Na  Na3  1  0.41332147  0.39373155  0.20800759  1
  U  U4  1  0.00622818  0.24922896  0.97808617  1
  U  U5  1  0.99377182  0.75077104  0.02191383  1
  W  W6  1  0.84242549  0.03997545  0.36226790  1
  W  W7  1  0.84020285  0.54197178  0.36317679  1
  W  W8  1  0.15757451  0.96002455  0.63773210  1
  W  W9  1  0.15979715  0.45802822  0.63682321  1
  O  O10  1  0.90761153  0.77351538  0.31293702  1
  O  O11  1  0.42146021  0.37512413  0.68254709  1
  O  O12  1  0.83155554  0.01543638  0.57646248  1
  O  O13  1  0.72444412  0.32134326  0.95794181  1
  O  O14  1  0.09238847  0.22648462  0.68706298  1
  O  O15  1  0.84002247  0.29114087  0.36408873  1
  O  O16  1  0.15997753  0.70885913  0.63591127  1
  O  O17  1  0.16879936  0.43147908  0.42220798  1
  O  O18  1  0.28626937  0.17893540  0.00456022  1
  O  O19  1  0.98130829  0.02696443  0.14759032  1
  O  O20  1  0.27555588  0.67865674  0.04205819  1
  O  O21  1  0.97625282  0.48428573  0.14760287  1
  O  O22  1  0.71373063  0.82106460  0.99543978  1
  O  O23  1  0.57853979  0.62487587  0.31745291  1
  O  O24  1  0.83120064  0.56852092  0.57779202  1
  O  O25  1  0.58245701  0.08970563  0.31130541  1
  O  O26  1  0.01869171  0.97303557  0.85240968  1
  O  O27  1  0.16844546  0.98456362  0.42353752  1
  O  O28  1  0.02374818  0.51571427  0.85239713  1
  O  O29  1  0.41754299  0.91029437  0.68869459  1
