# generated using pymatgen
data_Na2CrNiF7
_symmetry_space_group_name_H-M   'P 1'
_cell_length_a   7.28193580
_cell_length_b   7.38260504
_cell_length_c   7.38260516
_cell_angle_alpha   61.32969468
_cell_angle_beta   60.45005925
_cell_angle_gamma   60.45005558
_symmetry_Int_Tables_number   1
_chemical_formula_structural   Na2CrNiF7
_chemical_formula_sum   'Na4 Cr2 Ni2 F14'
_cell_volume   285.30350329
_cell_formula_units_Z   2
loop_
 _symmetry_equiv_pos_site_id
 _symmetry_equiv_pos_as_xyz
  1  'x, y, z'
loop_
 _atom_site_type_symbol
 _atom_site_label
 _atom_site_symmetry_multiplicity
 _atom_site_fract_x
 _atom_site_fract_y
 _atom_site_fract_z
 _atom_site_occupancy
  Na  Na0  1  0.00000000  0.00000000  0.00000000  1
  Na  Na1  1  0.50000000  0.50000000  0.50000000  1
  Na  Na2  1  0.50000000  0.50000000  0.00000000  1
  Na  Na3  1  0.00000000  0.50000000  0.00000000  1
  Cr  Cr4  1  0.00000000  0.50000000  0.50000000  1
  Cr  Cr5  1  0.50000000  0.00000000  0.00000000  1
  Ni  Ni6  1  0.50000000  0.00000000  0.50000000  1
  Ni  Ni7  1  0.00000000  0.00000000  0.50000000  1
  F  F8  1  0.40935821  0.31984806  0.86143553  1
  F  F9  1  0.75000000  0.10583933  0.39416067  1
  F  F10  1  0.81482242  0.94725058  0.82092159  1
  F  F11  1  0.18517758  0.05274942  0.17907841  1
  F  F12  1  0.68517758  0.67907841  0.55274942  1
  F  F13  1  0.31482242  0.32092159  0.44725058  1
  F  F14  1  0.09064179  0.63856447  0.18015194  1
  F  F15  1  0.59064179  0.68015194  0.13856447  1
  F  F16  1  0.25000000  0.89416067  0.60583933  1
  F  F17  1  0.08299459  0.67907841  0.55274942  1
  F  F18  1  0.91700541  0.32092159  0.44725058  1
  F  F19  1  0.41700541  0.94725058  0.82092159  1
  F  F20  1  0.90935821  0.36143553  0.81984806  1
  F  F21  1  0.58299459  0.05274942  0.17907841  1
