# generated using pymatgen
data_SbMoOF9
_symmetry_space_group_name_H-M   'P 1'
_cell_length_a   7.68497086
_cell_length_b   9.93930597
_cell_length_c   10.72181093
_cell_angle_alpha   90.00000000
_cell_angle_beta   90.00000000
_cell_angle_gamma   93.08054524
_symmetry_Int_Tables_number   1
_chemical_formula_structural   SbMoOF9
_chemical_formula_sum   'Sb4 Mo4 O4 F36'
_cell_volume   817.78362333
_cell_formula_units_Z   4
loop_
 _symmetry_equiv_pos_site_id
 _symmetry_equiv_pos_as_xyz
  1  'x, y, z'
loop_
 _atom_site_type_symbol
 _atom_site_label
 _atom_site_symmetry_multiplicity
 _atom_site_fract_x
 _atom_site_fract_y
 _atom_site_fract_z
 _atom_site_occupancy
  Sb  Sb0  1  0.78676704  0.69137549  0.48274652  1
  Sb  Sb1  1  0.71323296  0.80862451  0.98274652  1
  Sb  Sb2  1  0.21323296  0.30862451  0.51725348  1
  Sb  Sb3  1  0.28676704  0.19137549  0.01725348  1
  Mo  Mo4  1  0.62653598  0.16498389  0.31283637  1
  Mo  Mo5  1  0.12653598  0.66498389  0.18716363  1
  Mo  Mo6  1  0.87346402  0.33501611  0.81283637  1
  Mo  Mo7  1  0.37346402  0.83501611  0.68716363  1
  O  O8  1  0.20850489  0.91665374  0.74881963  1
  O  O9  1  0.70850489  0.41665374  0.75118037  1
  O  O10  1  0.79149511  0.08334626  0.25118037  1
  O  O11  1  0.29149511  0.58334626  0.24881963  1
  F  F12  1  0.67336037  0.33969032  0.25532049  1
  F  F13  1  0.14131136  0.12343808  0.52191920  1
  F  F14  1  0.87337354  0.78075550  0.85255933  1
  F  F15  1  0.52870324  0.84286447  0.84912161  1
  F  F16  1  0.22545316  0.00447456  0.01911055  1
  F  F17  1  0.64131136  0.62343808  0.97808080  1
  F  F18  1  0.32663963  0.66030968  0.74467951  1
  F  F19  1  0.29263147  0.80624706  0.52673300  1
  F  F20  1  0.72545316  0.50447456  0.48088945  1
  F  F21  1  0.47095020  0.02216685  0.35631510  1
  F  F22  1  0.77454684  0.99552544  0.98088945  1
  F  F23  1  0.04072229  0.33935678  0.39589997  1
  F  F24  1  0.37337354  0.28075550  0.64744067  1
  F  F25  1  0.12662646  0.21924450  0.14744067  1
  F  F26  1  0.61228725  0.72153747  0.61186905  1
  F  F27  1  0.54072229  0.83935678  0.10410003  1
  F  F28  1  0.45927771  0.16064322  0.89589997  1
  F  F29  1  0.11228725  0.22153747  0.88813095  1
  F  F30  1  0.27454684  0.49552544  0.51911055  1
  F  F31  1  0.52904980  0.97783315  0.64368490  1
  F  F32  1  0.82663963  0.16030968  0.75532049  1
  F  F33  1  0.97095020  0.52216685  0.14368490  1
  F  F34  1  0.38771275  0.27846253  0.38813095  1
  F  F35  1  0.02870324  0.34286447  0.65087839  1
  F  F36  1  0.88771275  0.77846253  0.11186905  1
  F  F37  1  0.02904980  0.47783315  0.85631510  1
  F  F38  1  0.17336037  0.83969032  0.24467951  1
  F  F39  1  0.95927771  0.66064322  0.60410003  1
  F  F40  1  0.85868864  0.87656192  0.47808080  1
  F  F41  1  0.20736853  0.69375294  0.02673300  1
  F  F42  1  0.62662646  0.71924450  0.35255933  1
  F  F43  1  0.70736853  0.19375294  0.47326700  1
  F  F44  1  0.47129676  0.15713553  0.15087839  1
  F  F45  1  0.35868864  0.37656192  0.02191920  1
  F  F46  1  0.97129676  0.65713553  0.34912161  1
  F  F47  1  0.79263147  0.30624706  0.97326700  1
