# generated using pymatgen
data_KV2PO8
_symmetry_space_group_name_H-M   'P 1'
_cell_length_a   4.83794605
_cell_length_b   13.94843390
_cell_length_c   20.56934697
_cell_angle_alpha   90.00000000
_cell_angle_beta   90.00000000
_cell_angle_gamma   90.00000000
_symmetry_Int_Tables_number   1
_chemical_formula_structural   KV2PO8
_chemical_formula_sum   'K8 V16 P8 O64'
_cell_volume   1388.05595548
_cell_formula_units_Z   8
loop_
 _symmetry_equiv_pos_site_id
 _symmetry_equiv_pos_as_xyz
  1  'x, y, z'
loop_
 _atom_site_type_symbol
 _atom_site_label
 _atom_site_symmetry_multiplicity
 _atom_site_fract_x
 _atom_site_fract_y
 _atom_site_fract_z
 _atom_site_occupancy
  K  K0  1  0.31428439  0.47006712  0.25045346  1
  K  K1  1  0.81428439  0.02993288  0.75045346  1
  K  K2  1  0.29151278  0.71363073  0.49472935  1
  K  K3  1  0.18571561  0.97006712  0.25045346  1
  K  K4  1  0.20848722  0.21363073  0.49472935  1
  K  K5  1  0.79151278  0.78636927  0.99472935  1
  K  K6  1  0.68571561  0.52993288  0.75045346  1
  K  K7  1  0.70848722  0.28636927  0.99472935  1
  V  V8  1  0.20482171  0.95779557  0.60105599  1
  V  V9  1  0.16438070  0.37277060  0.86593982  1
  V  V10  1  0.79846279  0.28962205  0.64184377  1
  V  V11  1  0.34351151  0.12224811  0.87711509  1
  V  V12  1  0.70153721  0.78962205  0.64184377  1
  V  V13  1  0.70482171  0.54220443  0.10105599  1
  V  V14  1  0.79517829  0.04220443  0.10105599  1
  V  V15  1  0.66438070  0.12722940  0.36593982  1
  V  V16  1  0.29517829  0.45779557  0.60105599  1
  V  V17  1  0.33561930  0.87277060  0.86593982  1
  V  V18  1  0.20153721  0.71037795  0.14184377  1
  V  V19  1  0.29846279  0.21037795  0.14184377  1
  V  V20  1  0.65648849  0.87775189  0.37711509  1
  V  V21  1  0.15648849  0.62224811  0.87711509  1
  V  V22  1  0.83561930  0.62722940  0.36593982  1
  V  V23  1  0.84351151  0.37775189  0.37711509  1
  P  P24  1  0.18831879  0.73626889  0.74119621  1
  P  P25  1  0.30598052  0.98630714  0.00233177  1
  P  P26  1  0.81168121  0.26373111  0.24119621  1
  P  P27  1  0.68831879  0.76373111  0.24119621  1
  P  P28  1  0.31168121  0.23626889  0.74119621  1
  P  P29  1  0.69401948  0.01369286  0.50233177  1
  P  P30  1  0.80598052  0.51369286  0.50233177  1
  P  P31  1  0.19401948  0.48630714  0.00233177  1
  O  O32  1  0.38356236  0.72869350  0.68221780  1
  O  O33  1  0.11597119  0.26916538  0.21829888  1
  O  O34  1  0.81961117  0.61871409  0.87758615  1
  O  O35  1  0.32616305  0.01989124  0.66155452  1
  O  O36  1  0.67383695  0.98010876  0.16155452  1
  O  O37  1  0.73952459  0.75567409  0.39321996  1
  O  O38  1  0.24057613  0.64759317  0.78513965  1
  O  O39  1  0.23952459  0.74432591  0.89321996  1
  O  O40  1  0.74909543  0.41905271  0.46449833  1
  O  O41  1  0.58505638  0.39105497  0.64824592  1
  O  O42  1  0.75863687  0.16862257  0.27866209  1
  O  O43  1  0.39029726  0.01903768  0.52563699  1
  O  O44  1  0.82719245  0.37357659  0.86569327  1
  O  O45  1  0.75602958  0.60266223  0.45833494  1
  O  O46  1  0.68038883  0.11871409  0.87758615  1
  O  O47  1  0.91492278  0.64408336  0.09300499  1
  O  O48  1  0.17383695  0.51989124  0.66155452  1
  O  O49  1  0.38402881  0.76916538  0.21829888  1
  O  O50  1  0.75090457  0.91905271  0.46449833  1
  O  O51  1  0.23993165  0.99399735  0.84978002  1
  O  O52  1  0.32719245  0.12642341  0.36569327  1
  O  O53  1  0.60918831  0.52109045  0.56089060  1
  O  O54  1  0.26047541  0.24432591  0.89321996  1
  O  O55  1  0.41492278  0.85591664  0.59300499  1
  O  O56  1  0.24136313  0.83137743  0.77866209  1
  O  O57  1  0.25602958  0.89733777  0.95833494  1
  O  O58  1  0.75942287  0.35240683  0.28513965  1
  O  O59  1  0.67280755  0.87357659  0.86569327  1
  O  O60  1  0.17844021  0.27500130  0.08247343  1
  O  O61  1  0.67844021  0.22499870  0.58247343  1
  O  O62  1  0.73993165  0.50600265  0.34978002  1
  O  O63  1  0.17280755  0.62642341  0.36569327  1
  O  O64  1  0.74136313  0.66862257  0.27866209  1
  O  O65  1  0.89081169  0.02109045  0.56089060  1
  O  O66  1  0.32155979  0.77500130  0.08247343  1
  O  O67  1  0.61597119  0.23083462  0.71829888  1
  O  O68  1  0.10970274  0.51903768  0.52563699  1
  O  O69  1  0.58507722  0.14408336  0.09300499  1
  O  O70  1  0.08505638  0.10894503  0.14824592  1
  O  O71  1  0.91494362  0.89105497  0.64824592  1
  O  O72  1  0.89029726  0.48096232  0.02563699  1
  O  O73  1  0.25863687  0.33137743  0.77866209  1
  O  O74  1  0.74057713  0.85240683  0.28513965  1
  O  O75  1  0.39081169  0.47890955  0.06089060  1
  O  O76  1  0.41494362  0.60894503  0.14824592  1
  O  O77  1  0.60970274  0.98096232  0.02563699  1
  O  O78  1  0.26006835  0.49399735  0.84978002  1
  O  O79  1  0.82616305  0.48010876  0.16155452  1
  O  O80  1  0.76047541  0.25567409  0.39321996  1
  O  O81  1  0.24909543  0.08094729  0.96449833  1
  O  O82  1  0.76006835  0.00600265  0.34978002  1
  O  O83  1  0.25090457  0.58094729  0.96449833  1
  O  O84  1  0.08507722  0.35591664  0.59300499  1
  O  O85  1  0.88356136  0.77130650  0.18221780  1
  O  O86  1  0.11643864  0.22869350  0.68221780  1
  O  O87  1  0.74397042  0.10266223  0.45833494  1
  O  O88  1  0.25942287  0.14759317  0.78513965  1
  O  O89  1  0.31961117  0.88128591  0.37758615  1
  O  O90  1  0.61643864  0.27130650  0.18221780  1
  O  O91  1  0.88402881  0.73083462  0.71829888  1
  O  O92  1  0.18038883  0.38128591  0.37758615  1
  O  O93  1  0.24397042  0.39733777  0.95833494  1
  O  O94  1  0.10918831  0.97890955  0.06089060  1
  O  O95  1  0.82155979  0.72499870  0.58247343  1
