# generated using pymatgen
data_CaMn4(SiO3)5
_symmetry_space_group_name_H-M   'P 1'
_cell_length_a   6.80085493
_cell_length_b   7.81862589
_cell_length_c   12.00081138
_cell_angle_alpha   105.59689288
_cell_angle_beta   92.43393514
_cell_angle_gamma   93.92449270
_symmetry_Int_Tables_number   1
_chemical_formula_structural   CaMn4(SiO3)5
_chemical_formula_sum   'Ca2 Mn8 Si10 O30'
_cell_volume   611.95302743
_cell_formula_units_Z   2
loop_
 _symmetry_equiv_pos_site_id
 _symmetry_equiv_pos_as_xyz
  1  'x, y, z'
loop_
 _atom_site_type_symbol
 _atom_site_label
 _atom_site_symmetry_multiplicity
 _atom_site_fract_x
 _atom_site_fract_y
 _atom_site_fract_z
 _atom_site_occupancy
  Ca  Ca0  1  0.63540948  0.04575640  0.69328636  1
  Ca  Ca1  1  0.36459052  0.95424360  0.30671364  1
  Mn  Mn2  1  0.03139745  0.11760239  0.14832246  1
  Mn  Mn3  1  0.12565004  0.31667208  0.44558879  1
  Mn  Mn4  1  0.79706997  0.30559812  0.97820908  1
  Mn  Mn5  1  0.20293003  0.69440188  0.02179092  1
  Mn  Mn6  1  0.81254165  0.49228197  0.27043620  1
  Mn  Mn7  1  0.96860255  0.88239661  0.85167754  1
  Mn  Mn8  1  0.87434996  0.68332792  0.55441121  1
  Mn  Mn9  1  0.18745835  0.50771803  0.72956380  1
  Si  Si10  1  0.29065992  0.53869083  0.26122986  1
  Si  Si11  1  0.49599295  0.22177171  0.12540705  1
  Si  Si12  1  0.84445917  0.92688478  0.34538443  1
  Si  Si13  1  0.15554083  0.07311522  0.65461557  1
  Si  Si14  1  0.75498932  0.74644084  0.08944118  1
  Si  Si15  1  0.50400705  0.77822829  0.87459295  1
  Si  Si16  1  0.24501068  0.25355916  0.91055882  1
  Si  Si17  1  0.63855468  0.27016095  0.47066421  1
  Si  Si18  1  0.70934008  0.46130917  0.73877014  1
  Si  Si19  1  0.36144532  0.72983905  0.52933579  1
  O  O20  1  0.30154353  0.94370484  0.56607009  1
  O  O21  1  0.88364537  0.75252861  0.38865172  1
  O  O22  1  0.10452748  0.39935064  0.26815233  1
  O  O23  1  0.25449631  0.67263687  0.18300658  1
  O  O24  1  0.26603132  0.79670562  0.86915710  1
  O  O25  1  0.29939558  0.13595082  0.77866143  1
  O  O26  1  0.63489812  0.31610015  0.61322350  1
  O  O27  1  0.96173409  0.95454504  0.67666840  1
  O  O28  1  0.11635463  0.24747139  0.61134828  1
  O  O29  1  0.41878590  0.25659557  0.41362004  1
  O  O30  1  0.05672751  0.15690391  0.95892610  1
  O  O31  1  0.70060442  0.86404918  0.22133857  1
  O  O32  1  0.80941894  0.40111094  0.43630798  1
  O  O33  1  0.89547252  0.60064936  0.73184767  1
  O  O34  1  0.03826591  0.04545496  0.32333160  1
  O  O35  1  0.94327249  0.84309609  0.04107390  1
  O  O36  1  0.19058106  0.59888906  0.56369202  1
  O  O37  1  0.58121410  0.74340443  0.58637996  1
  O  O38  1  0.80682057  0.55267040  0.10017801  1
  O  O39  1  0.44478389  0.25678347  0.99580070  1
  O  O40  1  0.55521611  0.74321653  0.00419930  1
  O  O41  1  0.19317943  0.44732960  0.89982199  1
  O  O42  1  0.51690126  0.57888815  0.77850687  1
  O  O43  1  0.74550369  0.32736313  0.81699342  1
  O  O44  1  0.69845647  0.05629516  0.43392991  1
  O  O45  1  0.65883797  0.92817727  0.85157547  1
  O  O46  1  0.36510188  0.68389985  0.38677650  1
  O  O47  1  0.48309874  0.42111185  0.22149313  1
  O  O48  1  0.73396868  0.20329438  0.13084290  1
  O  O49  1  0.34116203  0.07182273  0.14842453  1
