# generated using pymatgen
data_LaZn2
_symmetry_space_group_name_H-M   'P 1'
_cell_length_a   4.70238822
_cell_length_b   5.86985276
_cell_length_c   5.86985276
_cell_angle_alpha   80.49788118
_cell_angle_beta   66.38717196
_cell_angle_gamma   66.38717196
_symmetry_Int_Tables_number   1
_chemical_formula_structural   LaZn2
_chemical_formula_sum   'La2 Zn4'
_cell_volume   136.02417768
_cell_formula_units_Z   2
loop_
 _symmetry_equiv_pos_site_id
 _symmetry_equiv_pos_as_xyz
  1  'x, y, z'
loop_
 _atom_site_type_symbol
 _atom_site_label
 _atom_site_symmetry_multiplicity
 _atom_site_fract_x
 _atom_site_fract_y
 _atom_site_fract_z
 _atom_site_occupancy
  La  La0  1  0.75000000  0.70718104  0.79281896  1
  La  La1  1  0.25000000  0.29281896  0.20718104  1
  Zn  Zn2  1  0.56208292  0.27302013  0.60281403  1
  Zn  Zn3  1  0.43791708  0.72697987  0.39718597  1
  Zn  Zn4  1  0.06208292  0.10281403  0.77302013  1
  Zn  Zn5  1  0.93791708  0.89718597  0.22697987  1
