# generated using pymatgen
data_MgCrSiO5
_symmetry_space_group_name_H-M   'P 1'
_cell_length_a   5.30931149
_cell_length_b   6.92346720
_cell_length_c   8.37178604
_cell_angle_alpha   89.89923441
_cell_angle_beta   37.84544400
_cell_angle_gamma   74.95570774
_symmetry_Int_Tables_number   1
_chemical_formula_structural   MgCrSiO5
_chemical_formula_sum   'Mg2 Cr2 Si2 O10'
_cell_volume   171.27639770
_cell_formula_units_Z   2
loop_
 _symmetry_equiv_pos_site_id
 _symmetry_equiv_pos_as_xyz
  1  'x, y, z'
loop_
 _atom_site_type_symbol
 _atom_site_label
 _atom_site_symmetry_multiplicity
 _atom_site_fract_x
 _atom_site_fract_y
 _atom_site_fract_z
 _atom_site_occupancy
  Mg  Mg0  1  0.50348303  0.23217575  0.66796631  1
  Mg  Mg1  1  0.50646194  0.73082926  0.31825702  1
  Cr  Cr2  1  0.49964149  0.48601853  0.99579305  1
  Cr  Cr3  1  0.49838486  0.98615484  0.99587362  1
  Si  Si4  1  0.49924234  0.23601199  0.32197653  1
  Si  Si5  1  0.49683630  0.73573229  0.67047139  1
  O  O6  1  0.28441243  0.10400811  0.32175221  1
  O  O7  1  0.71879085  0.36743357  0.10492720  1
  O  O8  1  0.70803797  0.87064391  0.67114911  1
  O  O9  1  0.27791732  0.60550984  0.88857278  1
  O  O10  1  0.86600618  0.57671582  0.35720066  1
  O  O11  1  0.13401383  0.88999120  0.71938751  1
  O  O12  1  0.13269629  0.39435364  0.63491654  1
  O  O13  1  0.86310871  0.07975693  0.27143690  1
  O  O14  1  0.49676838  0.73601989  0.08060120  1
  O  O15  1  0.50092908  0.23577442  0.91173398  1
