# generated using pymatgen
data_PrOs2
_symmetry_space_group_name_H-M   'P 1'
_cell_length_a   5.40036877
_cell_length_b   5.40036877
_cell_length_c   9.17103911
_cell_angle_alpha   90.00000000
_cell_angle_beta   90.00000000
_cell_angle_gamma   120.12240054
_symmetry_Int_Tables_number   1
_chemical_formula_structural   PrOs2
_chemical_formula_sum   'Pr4 Os8'
_cell_volume   231.34442345
_cell_formula_units_Z   4
loop_
 _symmetry_equiv_pos_site_id
 _symmetry_equiv_pos_as_xyz
  1  'x, y, z'
loop_
 _atom_site_type_symbol
 _atom_site_label
 _atom_site_symmetry_multiplicity
 _atom_site_fract_x
 _atom_site_fract_y
 _atom_site_fract_z
 _atom_site_occupancy
  Pr  Pr0  1  0.66672711  0.33327289  0.56463941  1
  Pr  Pr1  1  0.33327289  0.66672711  0.43536059  1
  Pr  Pr2  1  0.33327289  0.66672711  0.06463941  1
  Pr  Pr3  1  0.66672711  0.33327289  0.93536059  1
  Os  Os4  1  0.00000000  0.00000000  0.50000000  1
  Os  Os5  1  0.00000000  0.00000000  0.00000000  1
  Os  Os6  1  0.17056673  0.34092479  0.75000000  1
  Os  Os7  1  0.17032147  0.82967853  0.75000000  1
  Os  Os8  1  0.65907521  0.82943327  0.75000000  1
  Os  Os9  1  0.82943327  0.65907521  0.25000000  1
  Os  Os10  1  0.82967853  0.17032147  0.25000000  1
  Os  Os11  1  0.34092479  0.17056673  0.25000000  1
