# generated using pymatgen
data_Pr(Al4Co)2
_symmetry_space_group_name_H-M   'P 1'
_cell_length_a   4.01195468
_cell_length_b   12.51430355
_cell_length_c   14.29847433
_cell_angle_alpha   90.00000000
_cell_angle_beta   90.00000000
_cell_angle_gamma   90.00000000
_symmetry_Int_Tables_number   1
_chemical_formula_structural   Pr(Al4Co)2
_chemical_formula_sum   'Pr4 Al32 Co8'
_cell_volume   717.88090829
_cell_formula_units_Z   4
loop_
 _symmetry_equiv_pos_site_id
 _symmetry_equiv_pos_as_xyz
  1  'x, y, z'
loop_
 _atom_site_type_symbol
 _atom_site_label
 _atom_site_symmetry_multiplicity
 _atom_site_fract_x
 _atom_site_fract_y
 _atom_site_fract_z
 _atom_site_occupancy
  Pr  Pr0  1  0.00000000  0.65940746  0.68137999  1
  Pr  Pr1  1  -0.00000000  0.15940746  0.81862001  1
  Pr  Pr2  1  0.00000000  0.34059254  0.31862001  1
  Pr  Pr3  1  -0.00000000  0.84059254  0.18137999  1
  Al  Al4  1  0.50000000  0.16814140  0.99183088  1
  Al  Al5  1  0.00000000  0.59587855  0.24702293  1
  Al  Al6  1  0.50000000  0.76429456  0.82774663  1
  Al  Al7  1  0.50000000  0.83185860  0.00816912  1
  Al  Al8  1  0.50000000  0.54677181  0.82034354  1
  Al  Al9  1  -0.00000000  0.00000000  -0.00000000  1
  Al  Al10  1  0.50000000  0.97410695  0.86842308  1
  Al  Al11  1  0.50000000  0.45322819  0.17965646  1
  Al  Al12  1  0.50000000  0.84065522  0.62084297  1
  Al  Al13  1  0.50000000  0.73570544  0.32774663  1
  Al  Al14  1  0.50000000  0.95322819  0.32034354  1
  Al  Al15  1  0.50000000  0.02589305  0.13157692  1
  Al  Al16  1  0.50000000  0.23570544  0.17225337  1
  Al  Al17  1  0.50000000  0.66814140  0.50816912  1
  Al  Al18  1  -0.00000000  0.40412145  0.75297707  1
  Al  Al19  1  0.00000000  0.09587855  0.25297707  1
  Al  Al20  1  0.50000000  0.52589305  0.36842308  1
  Al  Al21  1  0.50000000  0.15934478  0.37915703  1
  Al  Al22  1  0.50000000  0.65934478  0.12084297  1
  Al  Al23  1  0.50000000  0.26429456  0.67225337  1
  Al  Al24  1  0.50000000  0.04677181  0.67965646  1
  Al  Al25  1  0.50000000  0.33185860  0.49183088  1
  Al  Al26  1  0.00000000  0.15957576  0.54457415  1
  Al  Al27  1  -0.00000000  0.50000000  0.50000000  1
  Al  Al28  1  0.00000000  0.90412145  0.74702293  1
  Al  Al29  1  -0.00000000  0.84042424  0.45542585  1
  Al  Al30  1  0.50000000  0.34065522  0.87915703  1
  Al  Al31  1  0.50000000  0.00000000  0.50000000  1
  Al  Al32  1  0.50000000  0.47410695  0.63157692  1
  Al  Al33  1  0.00000000  0.65957576  0.95542585  1
  Al  Al34  1  0.50000000  0.50000000  -0.00000000  1
  Al  Al35  1  0.00000000  0.34042424  0.04457415  1
  Co  Co36  1  0.00000000  0.96516040  0.59418053  1
  Co  Co37  1  -0.00000000  0.46516040  0.90581947  1
  Co  Co38  1  0.00000000  0.03483960  0.40581947  1
  Co  Co39  1  -0.00000000  0.15177271  0.09621980  1
  Co  Co40  1  -0.00000000  0.53483960  0.09418053  1
  Co  Co41  1  0.00000000  0.84822729  0.90378020  1
  Co  Co42  1  0.00000000  0.34822729  0.59621980  1
  Co  Co43  1  -0.00000000  0.65177271  0.40378020  1
