# generated using pymatgen
data_K17Fe5O16
_symmetry_space_group_name_H-M   'P 1'
_cell_length_a   6.78661185
_cell_length_b   6.79246401
_cell_length_c   18.63204936
_cell_angle_alpha   79.49026853
_cell_angle_beta   84.86686669
_cell_angle_gamma   60.62534217
_symmetry_Int_Tables_number   1
_chemical_formula_structural   K17Fe5O16
_chemical_formula_sum   'K17 Fe5 O16'
_cell_volume   735.91280684
_cell_formula_units_Z   1
loop_
 _symmetry_equiv_pos_site_id
 _symmetry_equiv_pos_as_xyz
  1  'x, y, z'
loop_
 _atom_site_type_symbol
 _atom_site_label
 _atom_site_symmetry_multiplicity
 _atom_site_fract_x
 _atom_site_fract_y
 _atom_site_fract_z
 _atom_site_occupancy
  K  K0  1  0.87959259  0.08357273  0.83095301  1
  K  K1  1  0.45780820  0.32696881  0.45154961  1
  K  K2  1  0.60743026  0.82760432  0.33814588  1
  K  K3  1  0.01790697  0.59242616  0.72127715  1
  K  K4  1  0.45786495  0.49544416  0.09188253  1
  K  K5  1  0.58279291  0.99762197  0.99996591  1
  K  K6  1  0.60723067  0.16591763  0.66188703  1
  K  K7  1  0.45787573  0.58725114  0.90815220  1
  K  K8  1  0.01082720  0.67428313  0.53404820  1
  K  K9  1  0.45783226  0.77848012  0.54845565  1
  K  K10  1  0.01100188  0.20823150  0.46594791  1
  K  K11  1  0.87946122  0.91480712  0.16902429  1
  K  K12  1  0.47372226  0.40621280  0.27499773  1
  K  K13  1  0.01786928  0.31374305  0.27867897  1
  K  K14  1  0.00041434  0.40967290  0.09313040  1
  K  K15  1  0.00032415  0.50289207  0.90687856  1
  K  K16  1  0.47362730  0.68126897  0.72499308  1
  Fe  Fe17  1  0.07457559  0.99890392  0.00000198  1
  Fe  Fe18  1  0.08532084  0.17800986  0.64122001  1
  Fe  Fe19  1  0.08533228  0.81926433  0.35877774  1
  Fe  Fe20  1  0.38888062  0.08872573  0.82073016  1
  Fe  Fe21  1  0.38893156  0.90937717  0.17927343  1
  O  O22  1  0.40869699  0.17360871  0.18585520  1
  O  O23  1  0.19586827  0.86836889  0.25727865  1
  O  O24  1  0.67349557  0.63987444  0.18578501  1
  O  O25  1  0.40866072  0.35949341  0.81414743  1
  O  O26  1  0.06648362  0.91642080  0.62675901  1
  O  O27  1  0.67347677  0.82571922  0.81421378  1
  O  O28  1  0.19585212  0.12566858  0.74271527  1
  O  O29  1  0.05702224  0.72980165  0.99999361  1
  O  O30  1  0.29961726  0.21017618  0.57349741  1
  O  O31  1  0.80325935  0.45415465  0.62838994  1
  O  O32  1  0.06643309  0.54323026  0.37325026  1
  O  O33  1  0.29961028  0.78364138  0.42651634  1
  O  O34  1  0.80328587  0.08259611  0.37162149  1
  O  O35  1  0.24467167  0.04205175  0.91399663  1
  O  O36  1  0.79021717  0.26565747  0.00000897  1
  O  O37  1  0.24468592  0.95610889  0.08599957  1
