# generated using pymatgen
data_KNiAs3F18
_symmetry_space_group_name_H-M   'P 1'
_cell_length_a   9.61982156
_cell_length_b   10.53156647
_cell_length_c   14.10472380
_cell_angle_alpha   90.00000000
_cell_angle_beta   90.00000000
_cell_angle_gamma   90.00000000
_symmetry_Int_Tables_number   1
_chemical_formula_structural   KNiAs3F18
_chemical_formula_sum   'K4 Ni4 As12 F72'
_cell_volume   1428.97481829
_cell_formula_units_Z   4
loop_
 _symmetry_equiv_pos_site_id
 _symmetry_equiv_pos_as_xyz
  1  'x, y, z'
loop_
 _atom_site_type_symbol
 _atom_site_label
 _atom_site_symmetry_multiplicity
 _atom_site_fract_x
 _atom_site_fract_y
 _atom_site_fract_z
 _atom_site_occupancy
  K  K0  1  0.97673867  0.57580586  0.25000000  1
  K  K1  1  0.02326133  0.42419414  0.75000000  1
  K  K2  1  0.52326133  0.07580586  0.25000000  1
  K  K3  1  0.47673867  0.92419414  0.75000000  1
  Ni  Ni4  1  0.50000000  0.50000000  0.00000000  1
  Ni  Ni5  1  0.00000000  0.00000000  0.00000000  1
  Ni  Ni6  1  0.50000000  0.50000000  0.50000000  1
  Ni  Ni7  1  0.00000000  0.00000000  0.50000000  1
  As  As8  1  0.80469024  0.29588074  0.04902165  1
  As  As9  1  0.19530976  0.70411926  0.54902165  1
  As  As10  1  0.30469024  0.20411926  0.54902165  1
  As  As11  1  0.30469024  0.20411926  0.95097835  1
  As  As12  1  0.19530976  0.70411926  0.95097835  1
  As  As13  1  0.69530976  0.79588074  0.45097835  1
  As  As14  1  0.89291454  0.02084963  0.75000000  1
  As  As15  1  0.69530976  0.79588074  0.04902165  1
  As  As16  1  0.10708546  0.97915037  0.25000000  1
  As  As17  1  0.60708546  0.52084963  0.75000000  1
  As  As18  1  0.80469024  0.29588074  0.45097835  1
  As  As19  1  0.39291454  0.47915037  0.25000000  1
  F  F20  1  0.78246444  0.56716003  0.75000000  1
  F  F21  1  0.56184991  0.67245805  0.45182245  1
  F  F22  1  0.11026273  0.97580093  0.37957999  1
  F  F23  1  0.29328472  0.78542710  0.03508071  1
  F  F24  1  0.90265562  0.37795751  0.36580288  1
  F  F25  1  0.93815009  0.17245805  0.45182245  1
  F  F26  1  0.82558183  0.92279946  0.44279213  1
  F  F27  1  0.88973727  0.02419907  0.62042001  1
  F  F28  1  0.89164316  0.37765927  0.95856655  1
  F  F29  1  0.21753556  0.43283997  0.25000000  1
  F  F30  1  0.39164316  0.12234073  0.04143345  1
  F  F31  1  0.82558183  0.92279946  0.05720787  1
  F  F32  1  0.84174904  0.86220797  0.75000000  1
  F  F33  1  0.55863348  0.68202506  0.75000000  1
  F  F34  1  0.43196507  0.47748569  0.75000000  1
  F  F35  1  0.59734438  0.87795751  0.13419712  1
  F  F36  1  0.88973727  0.02419907  0.87957999  1
  F  F37  1  0.71753556  0.06716003  0.75000000  1
  F  F38  1  0.89164316  0.37765927  0.54143345  1
  F  F39  1  0.20671528  0.28542710  0.46491929  1
  F  F40  1  0.93196507  0.02251431  0.25000000  1
  F  F41  1  0.71745894  0.21453797  0.35980201  1
  F  F42  1  0.71745894  0.21453797  0.14019799  1
  F  F43  1  0.67441817  0.42279946  0.44279213  1
  F  F44  1  0.10835684  0.62234073  0.04143345  1
  F  F45  1  0.65825096  0.36220797  0.75000000  1
  F  F46  1  0.06184991  0.82754195  0.54817755  1
  F  F47  1  0.43815009  0.32754195  0.95182245  1
  F  F48  1  0.29328472  0.78542710  0.46491929  1
  F  F49  1  0.38973727  0.47580093  0.37957999  1
  F  F50  1  0.39164316  0.12234073  0.45856655  1
  F  F51  1  0.38973727  0.47580093  0.12042001  1
  F  F52  1  0.09734438  0.62204249  0.86580288  1
  F  F53  1  0.70671528  0.21457290  0.53508071  1
  F  F54  1  0.94136652  0.18202506  0.75000000  1
  F  F55  1  0.59734438  0.87795751  0.36580288  1
  F  F56  1  0.17441817  0.07720054  0.55720787  1
  F  F57  1  0.56803493  0.52251431  0.25000000  1
  F  F58  1  0.05863348  0.81797494  0.25000000  1
  F  F59  1  0.60835684  0.87765927  0.95856655  1
  F  F60  1  0.56184991  0.67245805  0.04817755  1
  F  F61  1  0.93815009  0.17245805  0.04817755  1
  F  F62  1  0.28254106  0.78546203  0.64019799  1
  F  F63  1  0.61026273  0.52419907  0.62042001  1
  F  F64  1  0.40265562  0.12204249  0.86580288  1
  F  F65  1  0.21745894  0.28546203  0.64019799  1
  F  F66  1  0.32558183  0.57720054  0.94279213  1
  F  F67  1  0.79328472  0.71457290  0.53508071  1
  F  F68  1  0.79328472  0.71457290  0.96491929  1
  F  F69  1  0.28246444  0.93283997  0.25000000  1
  F  F70  1  0.32558183  0.57720054  0.55720787  1
  F  F71  1  0.21745894  0.28546203  0.85980201  1
  F  F72  1  0.40265562  0.12204249  0.63419712  1
  F  F73  1  0.61026273  0.52419907  0.87957999  1
  F  F74  1  0.28254106  0.78546203  0.85980201  1
  F  F75  1  0.90265562  0.37795751  0.13419712  1
  F  F76  1  0.20671528  0.28542710  0.03508071  1
  F  F77  1  0.60835684  0.87765927  0.54143345  1
  F  F78  1  0.34174904  0.63779203  0.25000000  1
  F  F79  1  0.17441817  0.07720054  0.94279213  1
  F  F80  1  0.44136652  0.31797494  0.25000000  1
  F  F81  1  0.70671528  0.21457290  0.96491929  1
  F  F82  1  0.09734438  0.62204249  0.63419712  1
  F  F83  1  0.78254106  0.71453797  0.35980201  1
  F  F84  1  0.06803493  0.97748569  0.75000000  1
  F  F85  1  0.11026273  0.97580093  0.12042001  1
  F  F86  1  0.67441817  0.42279946  0.05720787  1
  F  F87  1  0.78254106  0.71453797  0.14019799  1
  F  F88  1  0.43815009  0.32754195  0.54817755  1
  F  F89  1  0.10835684  0.62234073  0.45856655  1
  F  F90  1  0.15825096  0.13779203  0.25000000  1
  F  F91  1  0.06184991  0.82754195  0.95182245  1
