# generated using pymatgen
data_KFeF4
_symmetry_space_group_name_H-M   'P 1'
_cell_length_a   7.72906835
_cell_length_b   7.93417148
_cell_length_c   12.45991821
_cell_angle_alpha   90.00000000
_cell_angle_beta   90.00000000
_cell_angle_gamma   90.00000000
_symmetry_Int_Tables_number   1
_chemical_formula_structural   KFeF4
_chemical_formula_sum   'K8 Fe8 F32'
_cell_volume   764.08895505
_cell_formula_units_Z   8
loop_
 _symmetry_equiv_pos_site_id
 _symmetry_equiv_pos_as_xyz
  1  'x, y, z'
loop_
 _atom_site_type_symbol
 _atom_site_label
 _atom_site_symmetry_multiplicity
 _atom_site_fract_x
 _atom_site_fract_y
 _atom_site_fract_z
 _atom_site_occupancy
  K  K0  1  0.00000000  0.50118703  0.27529228  1
  K  K1  1  0.50000000  0.50168335  0.73305582  1
  K  K2  1  0.00000000  0.00168335  0.26694418  1
  K  K3  1  0.50000000  0.74975390  0.22558374  1
  K  K4  1  0.50000000  0.00118703  0.72470772  1
  K  K5  1  0.00000000  0.24975390  0.77441626  1
  K  K6  1  0.00000000  0.74973687  0.76696860  1
  K  K7  1  0.50000000  0.24973687  0.23303140  1
  Fe  Fe8  1  0.25050460  0.75106517  0.49898554  1
  Fe  Fe9  1  0.24949540  0.25106517  0.50101446  1
  Fe  Fe10  1  0.24956325  0.49917325  0.00100381  1
  Fe  Fe11  1  0.75043675  0.49917325  0.00100381  1
  Fe  Fe12  1  0.74956325  0.99917325  0.99899619  1
  Fe  Fe13  1  0.75050460  0.25106517  0.50101446  1
  Fe  Fe14  1  0.74949540  0.75106517  0.49898554  1
  Fe  Fe15  1  0.25043675  0.99917325  0.99899619  1
  F  F16  1  0.28541008  0.00109258  0.50181344  1
  F  F17  1  0.70067921  0.74496561  0.64870669  1
  F  F18  1  0.28168466  0.74916530  0.00148638  1
  F  F19  1  0.70167494  0.49417451  0.15095294  1
  F  F20  1  0.79832506  0.99417451  0.84904706  1
  F  F21  1  0.00000000  0.52721571  0.03881710  1
  F  F22  1  0.20007017  0.50545134  0.85131536  1
  F  F23  1  0.71831534  0.74916530  0.00148638  1
  F  F24  1  0.00000000  0.96989847  0.03578875  1
  F  F25  1  0.29932079  0.74496561  0.64870669  1
  F  F26  1  0.79932079  0.24496561  0.35129331  1
  F  F27  1  0.78541008  0.50109258  0.49818656  1
  F  F28  1  0.79992983  0.50545134  0.85131536  1
  F  F29  1  0.20067921  0.24496561  0.35129331  1
  F  F30  1  0.79757824  0.75783681  0.34907716  1
  F  F31  1  0.70242176  0.25783681  0.65092284  1
  F  F32  1  0.29992983  0.00545134  0.14868464  1
  F  F33  1  0.50000000  0.02721571  0.96118290  1
  F  F34  1  0.20242176  0.75783681  0.34907716  1
  F  F35  1  0.00000000  0.78255613  0.53507472  1
  F  F36  1  0.50000000  0.46989847  0.96421125  1
  F  F37  1  0.21458992  0.50109258  0.49818656  1
  F  F38  1  0.78168466  0.24916530  0.99851362  1
  F  F39  1  0.20167494  0.99417451  0.84904706  1
  F  F40  1  0.70007017  0.00545134  0.14868464  1
  F  F41  1  0.71458992  0.00109258  0.50181344  1
  F  F42  1  0.29757824  0.25783681  0.65092284  1
  F  F43  1  0.50000000  0.28255613  0.46492528  1
  F  F44  1  0.21831534  0.24916530  0.99851362  1
  F  F45  1  0.50000000  0.71791940  0.46194507  1
  F  F46  1  0.00000000  0.21791940  0.53805493  1
  F  F47  1  0.29832506  0.49417451  0.15095294  1
