# generated using pymatgen
data_HfIN
_symmetry_space_group_name_H-M   'P 1'
_cell_length_a   12.23417392
_cell_length_b   12.23417375
_cell_length_c   12.23417408
_cell_angle_alpha   17.44230666
_cell_angle_beta   17.44230887
_cell_angle_gamma   17.44230893
_symmetry_Int_Tables_number   1
_chemical_formula_structural   HfIN
_chemical_formula_sum   'Hf2 I2 N2'
_cell_volume   143.58202074
_cell_formula_units_Z   2
loop_
 _symmetry_equiv_pos_site_id
 _symmetry_equiv_pos_as_xyz
  1  'x, y, z'
loop_
 _atom_site_type_symbol
 _atom_site_label
 _atom_site_symmetry_multiplicity
 _atom_site_fract_x
 _atom_site_fract_y
 _atom_site_fract_z
 _atom_site_occupancy
  Hf  Hf0  1  0.79838199  0.79838199  0.79838199  1
  Hf  Hf1  1  0.20161801  0.20161801  0.20161801  1
  I  I2  1  0.40410693  0.40410693  0.40410693  1
  I  I3  1  0.59589307  0.59589307  0.59589307  1
  N  N4  1  0.14255591  0.14255591  0.14255591  1
  N  N5  1  0.85744409  0.85744409  0.85744409  1
