# generated using pymatgen
data_Cd8Ag5
_symmetry_space_group_name_H-M   'P 1'
_cell_length_a   8.81106641
_cell_length_b   8.81106674
_cell_length_c   8.81106648
_cell_angle_alpha   109.47122241
_cell_angle_beta   109.47122320
_cell_angle_gamma   109.47121735
_symmetry_Int_Tables_number   1
_chemical_formula_structural   Cd8Ag5
_chemical_formula_sum   'Cd16 Ag10'
_cell_volume   526.57901395
_cell_formula_units_Z   2
loop_
 _symmetry_equiv_pos_site_id
 _symmetry_equiv_pos_as_xyz
  1  'x, y, z'
loop_
 _atom_site_type_symbol
 _atom_site_label
 _atom_site_symmetry_multiplicity
 _atom_site_fract_x
 _atom_site_fract_y
 _atom_site_fract_z
 _atom_site_occupancy
  Cd  Cd0  1  0.27669161  0.65141124  0.00000000  1
  Cd  Cd1  1  0.72330839  0.37471963  0.72330839  1
  Cd  Cd2  1  0.27669161  1.00000000  0.65141124  1
  Cd  Cd3  1  0.62528037  0.34858876  0.34858876  1
  Cd  Cd4  1  0.00000000  0.78219826  0.00000000  1
  Cd  Cd5  1  0.21780174  0.21780174  0.21780174  1
  Cd  Cd6  1  0.72330839  0.72330839  0.37471963  1
  Cd  Cd7  1  0.00000000  0.65141124  0.27669161  1
  Cd  Cd8  1  0.65141124  0.27669161  1.00000000  1
  Cd  Cd9  1  0.37471963  0.72330839  0.72330839  1
  Cd  Cd10  1  0.34858876  0.62528037  0.34858876  1
  Cd  Cd11  1  1.00000000  0.27669161  0.65141124  1
  Cd  Cd12  1  0.65141124  0.00000000  0.27669161  1
  Cd  Cd13  1  0.78219826  0.00000000  1.00000000  1
  Cd  Cd14  1  1.00000000  1.00000000  0.78219826  1
  Cd  Cd15  1  0.34858876  0.34858876  0.62528037  1
  Ag  Ag16  1  0.34528677  0.00000000  1.00000000  1
  Ag  Ag17  1  0.35729826  1.00000000  0.35729826  1
  Ag  Ag18  1  0.00000000  0.64270174  0.64270174  1
  Ag  Ag19  1  0.65471323  0.65471323  0.65471323  1
  Ag  Ag20  1  0.00000000  0.34528677  0.00000000  1
  Ag  Ag21  1  0.35729826  0.35729826  1.00000000  1
  Ag  Ag22  1  -0.00000000  0.35729826  0.35729826  1
  Ag  Ag23  1  0.64270174  0.00000000  0.64270174  1
  Ag  Ag24  1  1.00000000  1.00000000  0.34528677  1
  Ag  Ag25  1  0.64270174  0.64270174  0.00000000  1
