# generated using pymatgen
data_Ce2(Al5Ru)3
_symmetry_space_group_name_H-M   'P 1'
_cell_length_a   13.12141986
_cell_length_b   13.12141956
_cell_length_c   9.05855811
_cell_angle_alpha   90.00000000
_cell_angle_beta   90.00000000
_cell_angle_gamma   120.00000075
_symmetry_Int_Tables_number   1
_chemical_formula_structural   Ce2(Al5Ru)3
_chemical_formula_sum   'Ce8 Al60 Ru12'
_cell_volume   1350.67654374
_cell_formula_units_Z   4
loop_
 _symmetry_equiv_pos_site_id
 _symmetry_equiv_pos_as_xyz
  1  'x, y, z'
loop_
 _atom_site_type_symbol
 _atom_site_label
 _atom_site_symmetry_multiplicity
 _atom_site_fract_x
 _atom_site_fract_y
 _atom_site_fract_z
 _atom_site_occupancy
  Ce  Ce0  1  0.60519802  0.00000000  0.25000000  1
  Ce  Ce1  1  0.39480198  0.39480198  0.25000000  1
  Ce  Ce2  1  0.39480198  0.00000000  0.75000000  1
  Ce  Ce3  1  0.00000000  0.00000000  0.25000000  1
  Ce  Ce4  1  1.00000000  0.39480198  0.75000000  1
  Ce  Ce5  1  0.60519802  0.60519802  0.75000000  1
  Ce  Ce6  1  0.00000000  0.60519802  0.25000000  1
  Ce  Ce7  1  0.00000000  0.00000000  0.75000000  1
  Al  Al8  1  0.72354849  0.24801497  0.75000000  1
  Al  Al9  1  0.61647068  0.61647068  0.39695185  1
  Al  Al10  1  0.79823004  0.00000000  0.47274215  1
  Al  Al11  1  0.75198503  0.47553352  0.75000000  1
  Al  Al12  1  0.79823004  0.00000000  0.02725785  1
  Al  Al13  1  0.75198503  0.27645151  0.25000000  1
  Al  Al14  1  1.00000000  0.79823004  0.47274215  1
  Al  Al15  1  0.79823004  0.79823004  0.52725785  1
  Al  Al16  1  0.81755317  0.40877659  0.50000000  1
  Al  Al17  1  0.00000000  0.20176996  0.97274215  1
  Al  Al18  1  0.40877659  0.81755317  0.00000000  1
  Al  Al19  1  0.47553352  0.75198503  0.75000000  1
  Al  Al20  1  0.83441906  0.71451055  0.25000000  1
  Al  Al21  1  0.59122341  0.18244683  0.00000000  1
  Al  Al22  1  0.61647068  0.00000000  0.89695185  1
  Al  Al23  1  0.20176996  0.20176996  0.47274215  1
  Al  Al24  1  0.59122341  0.18244683  0.50000000  1
  Al  Al25  1  0.27645151  0.52446648  0.75000000  1
  Al  Al26  1  0.71451055  0.83441906  0.25000000  1
  Al  Al27  1  0.20176996  0.00000000  0.97274215  1
  Al  Al28  1  0.40877659  0.81755317  0.50000000  1
  Al  Al29  1  0.47553352  0.72354849  0.25000000  1
  Al  Al30  1  0.38352932  0.00000000  0.39695185  1
  Al  Al31  1  0.11990851  0.83441906  0.75000000  1
  Al  Al32  1  0.20176996  0.20176996  0.02725785  1
  Al  Al33  1  1.00000000  0.38352932  0.39695185  1
  Al  Al34  1  1.00000000  0.79823004  0.02725785  1
  Al  Al35  1  0.20176996  0.00000000  0.52725785  1
  Al  Al36  1  0.59122341  0.40877659  0.00000000  1
  Al  Al37  1  0.72354849  0.47553352  0.25000000  1
  Al  Al38  1  0.52446648  0.24801497  0.25000000  1
  Al  Al39  1  0.59122341  0.40877659  0.50000000  1
  Al  Al40  1  0.18244683  0.59122341  0.00000000  1
  Al  Al41  1  0.18244683  0.59122341  0.50000000  1
  Al  Al42  1  0.38352932  0.38352932  0.89695185  1
  Al  Al43  1  0.28548945  0.11990851  0.25000000  1
  Al  Al44  1  0.16558094  0.88009149  0.25000000  1
  Al  Al45  1  0.61647068  0.61647068  0.10304815  1
  Al  Al46  1  0.83441906  0.11990851  0.75000000  1
  Al  Al47  1  0.28548945  0.16558094  0.75000000  1
  Al  Al48  1  0.88009149  0.16558094  0.25000000  1
  Al  Al49  1  0.00000000  0.61647068  0.60304815  1
  Al  Al50  1  0.00000000  0.20176996  0.52725785  1
  Al  Al51  1  0.38352932  0.00000000  0.10304815  1
  Al  Al52  1  0.88009149  0.71451055  0.75000000  1
  Al  Al53  1  0.11990851  0.28548945  0.25000000  1
  Al  Al54  1  0.52446648  0.27645151  0.75000000  1
  Al  Al55  1  0.79823004  0.79823004  0.97274215  1
  Al  Al56  1  0.00000000  0.61647068  0.89695185  1
  Al  Al57  1  0.16558094  0.28548945  0.75000000  1
  Al  Al58  1  0.61647068  0.00000000  0.60304815  1
  Al  Al59  1  0.27645151  0.75198503  0.25000000  1
  Al  Al60  1  0.24801497  0.72354849  0.75000000  1
  Al  Al61  1  0.40877659  0.59122341  0.50000000  1
  Al  Al62  1  0.38352932  0.38352932  0.60304815  1
  Al  Al63  1  0.81755317  0.40877659  0.00000000  1
  Al  Al64  1  1.00000000  0.38352932  0.10304815  1
  Al  Al65  1  0.24801497  0.52446648  0.25000000  1
  Al  Al66  1  0.71451055  0.88009149  0.75000000  1
  Al  Al67  1  0.40877659  0.59122341  0.00000000  1
  Ru  Ru68  1  0.20293503  0.79706497  0.00000000  1
  Ru  Ru69  1  0.79706497  0.59412994  0.50000000  1
  Ru  Ru70  1  0.59412994  0.79706497  0.50000000  1
  Ru  Ru71  1  0.40587006  0.20293503  0.00000000  1
  Ru  Ru72  1  0.20293503  0.40587006  0.00000000  1
  Ru  Ru73  1  0.20293503  0.79706497  0.50000000  1
  Ru  Ru74  1  0.40587006  0.20293503  0.50000000  1
  Ru  Ru75  1  0.79706497  0.59412994  0.00000000  1
  Ru  Ru76  1  0.79706497  0.20293503  0.50000000  1
  Ru  Ru77  1  0.59412994  0.79706497  0.00000000  1
  Ru  Ru78  1  0.20293503  0.40587006  0.50000000  1
  Ru  Ru79  1  0.79706497  0.20293503  0.00000000  1
