# generated using pymatgen
data_Dy12C6I17
_symmetry_space_group_name_H-M   'P 1'
_cell_length_a   11.60890777
_cell_length_b   11.60890826
_cell_length_c   18.71395841
_cell_angle_alpha   89.25728232
_cell_angle_beta   89.25728234
_cell_angle_gamma   63.75276211
_symmetry_Int_Tables_number   1
_chemical_formula_structural   Dy12C6I17
_chemical_formula_sum   'Dy24 C12 I34'
_cell_volume   2261.72056075
_cell_formula_units_Z   2
loop_
 _symmetry_equiv_pos_site_id
 _symmetry_equiv_pos_as_xyz
  1  'x, y, z'
loop_
 _atom_site_type_symbol
 _atom_site_label
 _atom_site_symmetry_multiplicity
 _atom_site_fract_x
 _atom_site_fract_y
 _atom_site_fract_z
 _atom_site_occupancy
  Dy  Dy0  1  0.29699695  0.69852511  0.47682245  1
  Dy  Dy1  1  0.54757950  0.53165651  0.12532804  1
  Dy  Dy2  1  0.92130048  0.98439631  0.84763805  1
  Dy  Dy3  1  0.89051741  0.41884028  0.61767692  1
  Dy  Dy4  1  0.80457772  0.33778866  0.78768439  1
  Dy  Dy5  1  0.46834349  0.45242050  0.37467196  1
  Dy  Dy6  1  0.01560369  0.07869952  0.65236195  1
  Dy  Dy7  1  0.07869952  0.01560369  0.15236195  1
  Dy  Dy8  1  0.45242050  0.46834349  0.87467196  1
  Dy  Dy9  1  0.19542228  0.66221134  0.21231561  1
  Dy  Dy10  1  0.58115972  0.10948259  0.88232308  1
  Dy  Dy11  1  0.33778866  0.80457772  0.28768439  1
  Dy  Dy12  1  0.36253660  0.35767539  0.05003899  1
  Dy  Dy13  1  0.69852511  0.29699695  0.97682245  1
  Dy  Dy14  1  0.66221134  0.19542228  0.71231561  1
  Dy  Dy15  1  0.30147489  0.70300305  0.02317755  1
  Dy  Dy16  1  0.10948259  0.58115972  0.38232308  1
  Dy  Dy17  1  0.53165651  0.54757950  0.62532804  1
  Dy  Dy18  1  0.70300305  0.30147489  0.52317755  1
  Dy  Dy19  1  0.64232461  0.63746340  0.44996101  1
  Dy  Dy20  1  0.63746340  0.64232461  0.94996101  1
  Dy  Dy21  1  0.41884028  0.89051741  0.11767692  1
  Dy  Dy22  1  0.35767539  0.36253660  0.55003899  1
  Dy  Dy23  1  0.98439631  0.92130048  0.34763805  1
  C  C24  1  0.46475633  0.46726878  0.51214807  1
  C  C25  1  0.25322428  0.82981704  0.15374747  1
  C  C26  1  0.53273122  0.53524367  0.98785193  1
  C  C27  1  0.63122620  0.28692460  0.84966093  1
  C  C28  1  0.17018296  0.74677572  0.34625253  1
  C  C29  1  0.53524367  0.53273122  0.48785193  1
  C  C30  1  0.82981704  0.25322428  0.65374747  1
  C  C31  1  0.46726878  0.46475633  0.01214807  1
  C  C32  1  0.71307540  0.36877380  0.65033907  1
  C  C33  1  0.36877380  0.71307540  0.15033907  1
  C  C34  1  0.28692460  0.63122620  0.34966093  1
  C  C35  1  0.74677572  0.17018296  0.84625253  1
  I  I36  1  0.62793266  0.57334599  0.29238506  1
  I  I37  1  0.28589615  0.80749510  0.63608414  1
  I  I38  1  0.03624918  0.50291446  0.24855911  1
  I  I39  1  0.89121699  0.90517784  0.69768981  1
  I  I40  1  0.68993875  0.70652078  0.59965561  1
  I  I41  1  0.09814629  0.60597028  0.54698594  1
  I  I42  1  0.96375082  0.49708554  0.75144089  1
  I  I43  1  0.89231512  0.39971973  0.93845534  1
  I  I44  1  0.00000000  0.00000000  0.50000000  1
  I  I45  1  0.19250490  0.71410385  0.86391586  1
  I  I46  1  0.31006125  0.29347922  0.40034439  1
  I  I47  1  0.29347922  0.31006125  0.90034439  1
  I  I48  1  0.39402972  0.90185371  0.95301406  1
  I  I49  1  0.90185371  0.39402972  0.45301406  1
  I  I50  1  0.39971973  0.89231512  0.43845534  1
  I  I51  1  0.49708554  0.96375082  0.25144089  1
  I  I52  1  0.10768488  0.60028027  0.06154466  1
  I  I53  1  0.42665401  0.37206734  0.20761494  1
  I  I54  1  0.90517784  0.89121699  0.19768981  1
  I  I55  1  0.70652078  0.68993875  0.09965561  1
  I  I56  1  0.78527909  0.82305094  0.89848185  1
  I  I57  1  0.50291446  0.03624918  0.74855911  1
  I  I58  1  0.60597028  0.09814629  0.04698594  1
  I  I59  1  0.21472091  0.17694906  0.10151815  1
  I  I60  1  0.57334599  0.62793266  0.79238506  1
  I  I61  1  0.37206734  0.42665401  0.70761494  1
  I  I62  1  0.82305094  0.78527909  0.39848185  1
  I  I63  1  0.00000000  0.00000000  0.00000000  1
  I  I64  1  0.71410385  0.19250490  0.36391586  1
  I  I65  1  0.17694906  0.21472091  0.60151815  1
  I  I66  1  0.60028027  0.10768488  0.56154466  1
  I  I67  1  0.09482216  0.10878301  0.80231019  1
  I  I68  1  0.10878301  0.09482216  0.30231019  1
  I  I69  1  0.80749510  0.28589615  0.13608414  1
