# generated using pymatgen
data_Ba9Sm6Cl34
_symmetry_space_group_name_H-M   'P 1'
_cell_length_a   11.34706905
_cell_length_b   11.34706844
_cell_length_c   13.47719143
_cell_angle_alpha   114.89603638
_cell_angle_beta   114.89603498
_cell_angle_gamma   89.99999911
_symmetry_Int_Tables_number   1
_chemical_formula_structural   Ba9Sm6Cl34
_chemical_formula_sum   'Ba9 Sm6 Cl34'
_cell_volume   1394.23574566
_cell_formula_units_Z   1
loop_
 _symmetry_equiv_pos_site_id
 _symmetry_equiv_pos_as_xyz
  1  'x, y, z'
loop_
 _atom_site_type_symbol
 _atom_site_label
 _atom_site_symmetry_multiplicity
 _atom_site_fract_x
 _atom_site_fract_y
 _atom_site_fract_z
 _atom_site_occupancy
  Ba  Ba0  1  0.65951566  0.20624000  0.68505660  1
  Ba  Ba1  1  0.79376000  0.97445906  0.31494340  1
  Ba  Ba2  1  0.52118340  0.34048434  0.31494340  1
  Ba  Ba3  1  0.34048434  0.79376000  0.31494340  1
  Ba  Ba4  1  0.97445906  0.52118340  0.31494340  1
  Ba  Ba5  1  0.20624000  0.02554094  0.68505660  1
  Ba  Ba6  1  0.50000000  0.50000000  -0.00000000  1
  Ba  Ba7  1  0.47881660  0.65951566  0.68505660  1
  Ba  Ba8  1  0.02554094  0.47881660  0.68505660  1
  Sm  Sm9  1  0.18552532  0.18552532  0.37105064  1
  Sm  Sm10  1  0.10566450  0.31848177  1.00000000  1
  Sm  Sm11  1  0.89433550  0.68151823  0.00000000  1
  Sm  Sm12  1  0.81447468  0.81447468  0.62894936  1
  Sm  Sm13  1  0.31848177  0.89433550  -0.00000000  1
  Sm  Sm14  1  0.68151823  0.10566450  0.00000000  1
  Cl  Cl15  1  0.17048442  0.44960903  0.51774472  1
  Cl  Cl16  1  0.57559580  0.07559580  0.15119161  1
  Cl  Cl17  1  0.42440420  0.92440420  0.84880839  1
  Cl  Cl18  1  0.79439880  0.66860262  0.15971490  1
  Cl  Cl19  1  0.72302471  0.85920802  0.00000000  1
  Cl  Cl20  1  0.82951558  0.55039097  0.48225528  1
  Cl  Cl21  1  0.85920802  0.27697529  0.00000000  1
  Cl  Cl22  1  0.80913804  0.66968360  0.75848282  1
  Cl  Cl23  1  0.44960903  0.34726030  0.51774472  1
  Cl  Cl24  1  0.94934478  0.08879922  0.75848282  1
  Cl  Cl25  1  0.93186431  0.82951558  0.48225528  1
  Cl  Cl26  1  0.55039097  0.65273970  0.48225528  1
  Cl  Cl27  1  0.92440420  0.42440420  0.84880839  1
  Cl  Cl28  1  0.63468389  0.50888771  0.84028510  1
  Cl  Cl29  1  0.33031640  0.05065522  0.24151718  1
  Cl  Cl30  1  0.20560120  0.33139738  0.84028510  1
  Cl  Cl31  1  0.08879922  0.80913804  0.75848282  1
  Cl  Cl32  1  0.07559580  0.57559580  0.15119161  1
  Cl  Cl33  1  0.14079198  0.72302471  1.00000000  1
  Cl  Cl34  1  0.66968360  0.94934478  0.75848282  1
  Cl  Cl35  1  0.25000000  0.75000000  0.50000000  1
  Cl  Cl36  1  0.65273970  0.93186431  0.48225528  1
  Cl  Cl37  1  0.36531611  0.49111229  0.15971490  1
  Cl  Cl38  1  0.49111229  0.79439880  0.15971490  1
  Cl  Cl39  1  0.91120078  0.19086196  0.24151718  1
  Cl  Cl40  1  0.27697529  0.14079198  1.00000000  1
  Cl  Cl41  1  0.05065522  0.91120078  0.24151718  1
  Cl  Cl42  1  0.50888771  0.20560120  0.84028510  1
  Cl  Cl43  1  0.19086196  0.33031640  0.24151718  1
  Cl  Cl44  1  0.33139738  0.63468389  0.84028510  1
  Cl  Cl45  1  0.66860262  0.36531611  0.15971490  1
  Cl  Cl46  1  0.06813569  0.17048442  0.51774472  1
  Cl  Cl47  1  0.34726030  0.06813569  0.51774472  1
  Cl  Cl48  1  0.75000000  0.25000000  0.50000000  1
