# generated using pymatgen
data_Ca14AlSb11
_symmetry_space_group_name_H-M   'P 1'
_cell_length_a   16.32875131
_cell_length_b   16.32875116
_cell_length_c   16.32875109
_cell_angle_alpha   92.90874214
_cell_angle_beta   118.33509046
_cell_angle_gamma   118.33508988
_symmetry_Int_Tables_number   1
_chemical_formula_structural   Ca14AlSb11
_chemical_formula_sum   'Ca56 Al4 Sb44'
_cell_volume   3151.61194686
_cell_formula_units_Z   4
loop_
 _symmetry_equiv_pos_site_id
 _symmetry_equiv_pos_as_xyz
  1  'x, y, z'
loop_
 _atom_site_type_symbol
 _atom_site_label
 _atom_site_symmetry_multiplicity
 _atom_site_fract_x
 _atom_site_fract_y
 _atom_site_fract_z
 _atom_site_occupancy
  Ca  Ca0  1  0.60009756  0.61641777  0.97094190  1
  Ca  Ca1  1  0.10009756  0.12915566  0.98367979  1
  Ca  Ca2  1  0.91081860  0.47706445  0.24972237  1
  Ca  Ca3  1  0.85452413  0.98367979  0.38358223  1
  Ca  Ca4  1  0.89990244  0.52905810  0.88358223  1
  Ca  Ca5  1  0.35453647  0.25000000  0.60453647  1
  Ca  Ca6  1  0.39990244  0.38358223  0.02905810  1
  Ca  Ca7  1  0.38290320  0.59736741  0.12718053  1
  Ca  Ca8  1  0.61709680  0.40263259  0.87281947  1
  Ca  Ca9  1  0.22734208  0.75027763  0.16109622  1
  Ca  Ca10  1  0.97018688  0.21446421  0.59736741  1
  Ca  Ca11  1  0.72734208  0.56624585  0.47706445  1
  Ca  Ca12  1  0.27265792  0.33890378  0.74972237  1
  Ca  Ca13  1  0.58918140  0.25027763  0.02293555  1
  Ca  Ca14  1  0.85452413  0.37084434  0.47094190  1
  Ca  Ca15  1  0.14547587  0.62915566  0.52905810  1
  Ca  Ca16  1  0.14546353  0.89546353  0.25000000  1
  Ca  Ca17  1  0.08918140  0.52293555  0.75027763  1
  Ca  Ca18  1  0.88290320  0.75572267  0.78553579  1
  Ca  Ca19  1  0.35453647  0.60453647  0.75000000  1
  Ca  Ca20  1  0.85453647  0.25000000  0.10453647  1
  Ca  Ca21  1  0.14546353  0.75000000  0.89546353  1
  Ca  Ca22  1  0.10009756  0.47094190  0.11641777  1
  Ca  Ca23  1  0.60009756  0.48367979  0.62915566  1
  Ca  Ca24  1  0.11709680  0.37281947  0.90263259  1
  Ca  Ca25  1  0.08918140  0.06624585  0.33890378  1
  Ca  Ca26  1  0.47018688  0.87281947  0.75572267  1
  Ca  Ca27  1  0.41081860  0.16109622  0.43375415  1
  Ca  Ca28  1  0.52981312  0.90263259  0.28553579  1
  Ca  Ca29  1  0.38290320  0.28553579  0.25572267  1
  Ca  Ca30  1  0.27265792  0.43375415  0.52293555  1
  Ca  Ca31  1  0.52981312  0.12718053  0.24427733  1
  Ca  Ca32  1  0.02981312  0.74427733  0.62718053  1
  Ca  Ca33  1  0.02981312  0.78553579  0.40263259  1
  Ca  Ca34  1  0.64546353  0.39546353  0.25000000  1
  Ca  Ca35  1  0.35452413  0.88358223  0.48367979  1
  Ca  Ca36  1  0.64547587  0.11641777  0.51632021  1
  Ca  Ca37  1  0.22734208  0.97706445  0.06624585  1
  Ca  Ca38  1  0.77265792  0.02293555  0.93375415  1
  Ca  Ca39  1  0.58918140  0.83890378  0.56624585  1
  Ca  Ca40  1  0.35452413  0.97094190  0.87084434  1
  Ca  Ca41  1  0.11709680  0.24427733  0.21446421  1
  Ca  Ca42  1  0.64547587  0.02905810  0.12915566  1
  Ca  Ca43  1  0.14547587  0.01632021  0.61641777  1
  Ca  Ca44  1  0.88290320  0.62718053  0.09736741  1
  Ca  Ca45  1  0.64546353  0.75000000  0.39546353  1
  Ca  Ca46  1  0.41081860  0.74972237  0.97706445  1
  Ca  Ca47  1  0.61709680  0.71446421  0.74427733  1
  Ca  Ca48  1  0.97018688  0.25572267  0.37281947  1
  Ca  Ca49  1  0.85453647  0.10453647  0.75000000  1
  Ca  Ca50  1  0.39990244  0.51632021  0.37084434  1
  Ca  Ca51  1  0.72734208  0.66109622  0.25027763  1
  Ca  Ca52  1  0.77265792  0.24972237  0.83890378  1
  Ca  Ca53  1  0.47018688  0.09736741  0.71446421  1
  Ca  Ca54  1  0.91081860  0.93375415  0.66109622  1
  Ca  Ca55  1  0.89990244  0.87084434  0.01632021  1
  Al  Al56  1  0.25000000  0.62500000  0.37500000  1
  Al  Al57  1  0.75000000  0.87500000  0.12500000  1
  Al  Al58  1  0.25000000  0.12500000  0.87500000  1
  Al  Al59  1  0.75000000  0.37500000  0.62500000  1
  Sb  Sb60  1  0.11660934  0.92161430  0.81270664  1
  Sb  Sb61  1  0.89453382  0.57234861  0.41702205  1
  Sb  Sb62  1  0.52074226  0.51037113  0.26037113  1
  Sb  Sb63  1  0.75000000  0.98962887  0.51037113  1
  Sb  Sb64  1  0.84467344  0.41702205  0.02248823  1
  Sb  Sb65  1  0.39109235  0.69609730  0.31270664  1
  Sb  Sb66  1  0.88339066  0.07838570  0.18729336  1
  Sb  Sb67  1  0.38339066  0.68729336  0.57838570  1
  Sb  Sb68  1  0.89109235  0.81270664  0.19609730  1
  Sb  Sb69  1  0.61660934  0.31270664  0.42161430  1
  Sb  Sb70  1  0.89109235  0.57838570  0.69499505  1
  Sb  Sb71  1  0.10546618  0.42765139  0.58297795  1
  Sb  Sb72  1  0.39453382  0.91702205  0.07234861  1
  Sb  Sb73  1  0.65532656  0.67781480  0.57234861  1
  Sb  Sb74  1  0.10890765  0.18729336  0.80390270  1
  Sb  Sb75  1  0.15532656  0.07234861  0.17781480  1
  Sb  Sb76  1  0.25000000  0.87500000  0.62500000  1
  Sb  Sb77  1  0.39453382  0.97751177  0.32218520  1
  Sb  Sb78  1  0.02074226  0.76037113  0.01037113  1
  Sb  Sb79  1  0.89453382  0.82218520  0.47751177  1
  Sb  Sb80  1  0.60546618  0.08297795  0.92765139  1
  Sb  Sb81  1  0.84467344  0.92765139  0.82218520  1
  Sb  Sb82  1  0.75000000  0.62500000  0.87500000  1
  Sb  Sb83  1  0.97925774  0.23962887  0.98962887  1
  Sb  Sb84  1  0.10546618  0.17781480  0.52248823  1
  Sb  Sb85  1  0.39109235  0.19499505  0.07838570  1
  Sb  Sb86  1  0.10890765  0.42161430  0.30500495  1
  Sb  Sb87  1  0.34467344  0.52248823  0.91702205  1
  Sb  Sb88  1  0.60546618  0.02248823  0.67781480  1
  Sb  Sb89  1  0.88339066  0.30500495  0.69609730  1
  Sb  Sb90  1  0.75000000  0.12500000  0.37500000  1
  Sb  Sb91  1  0.34467344  0.32218520  0.42765139  1
  Sb  Sb92  1  0.75000000  0.26037113  0.23962887  1
  Sb  Sb93  1  0.60890765  0.30390270  0.68729336  1
  Sb  Sb94  1  0.15532656  0.58297795  0.97751177  1
  Sb  Sb95  1  0.38339066  0.19609730  0.80500495  1
  Sb  Sb96  1  0.61660934  0.80390270  0.19499505  1
  Sb  Sb97  1  0.65532656  0.47751177  0.08297795  1
  Sb  Sb98  1  0.25000000  0.37500000  0.12500000  1
  Sb  Sb99  1  0.11660934  0.69499505  0.30390270  1
  Sb  Sb100  1  0.60890765  0.80500495  0.92161430  1
  Sb  Sb101  1  0.25000000  0.01037113  0.48962887  1
  Sb  Sb102  1  0.25000000  0.73962887  0.76037113  1
  Sb  Sb103  1  0.47925774  0.48962887  0.73962887  1
