# generated using pymatgen
data_AlTlCl4
_symmetry_space_group_name_H-M   'P 1'
_cell_length_a   7.21159493
_cell_length_b   9.47781801
_cell_length_c   11.09631893
_cell_angle_alpha   90.00000000
_cell_angle_beta   90.00000000
_cell_angle_gamma   90.00000000
_symmetry_Int_Tables_number   1
_chemical_formula_structural   AlTlCl4
_chemical_formula_sum   'Al4 Tl4 Cl16'
_cell_volume   758.43544401
_cell_formula_units_Z   4
loop_
 _symmetry_equiv_pos_site_id
 _symmetry_equiv_pos_as_xyz
  1  'x, y, z'
loop_
 _atom_site_type_symbol
 _atom_site_label
 _atom_site_symmetry_multiplicity
 _atom_site_fract_x
 _atom_site_fract_y
 _atom_site_fract_z
 _atom_site_occupancy
  Al  Al0  1  0.25000000  0.31266598  0.43447041  1
  Al  Al1  1  0.25000000  0.18733402  0.93447041  1
  Al  Al2  1  0.75000000  0.68733402  0.56552959  1
  Al  Al3  1  0.75000000  0.81266598  0.06552959  1
  Tl  Tl4  1  0.75000000  0.18429261  0.68595258  1
  Tl  Tl5  1  0.25000000  0.68429261  0.81404742  1
  Tl  Tl6  1  0.25000000  0.81570739  0.31404742  1
  Tl  Tl7  1  0.75000000  0.31570739  0.18595258  1
  Cl  Cl8  1  0.49348171  0.17889877  0.42474888  1
  Cl  Cl9  1  0.25000000  0.45244630  0.28136324  1
  Cl  Cl10  1  0.50651829  0.67889877  0.07525112  1
  Cl  Cl11  1  0.99348171  0.67889877  0.07525112  1
  Cl  Cl12  1  0.49348171  0.32110123  0.92474888  1
  Cl  Cl13  1  0.75000000  0.54755370  0.71863676  1
  Cl  Cl14  1  0.25000000  0.04755370  0.78136324  1
  Cl  Cl15  1  0.75000000  0.92531613  0.89769384  1
  Cl  Cl16  1  0.99348171  0.82110123  0.57525112  1
  Cl  Cl17  1  0.50651829  0.82110123  0.57525112  1
  Cl  Cl18  1  0.75000000  0.95244630  0.21863676  1
  Cl  Cl19  1  0.25000000  0.07468387  0.10230616  1
  Cl  Cl20  1  0.00651829  0.17889877  0.42474888  1
  Cl  Cl21  1  0.25000000  0.42531613  0.60230616  1
  Cl  Cl22  1  0.75000000  0.57468387  0.39769384  1
  Cl  Cl23  1  0.00651829  0.32110123  0.92474888  1
