# generated using pymatgen
data_Ce9Sb16Cl3
_symmetry_space_group_name_H-M   'P 1'
_cell_length_a   20.75378797
_cell_length_b   20.75378781
_cell_length_c   4.31765493
_cell_angle_alpha   90.00000000
_cell_angle_beta   90.00000000
_cell_angle_gamma   120.00000026
_symmetry_Int_Tables_number   1
_chemical_formula_structural   Ce9Sb16Cl3
_chemical_formula_sum   'Ce18 Sb32 Cl6'
_cell_volume   1610.54664889
_cell_formula_units_Z   2
loop_
 _symmetry_equiv_pos_site_id
 _symmetry_equiv_pos_as_xyz
  1  'x, y, z'
loop_
 _atom_site_type_symbol
 _atom_site_label
 _atom_site_symmetry_multiplicity
 _atom_site_fract_x
 _atom_site_fract_y
 _atom_site_fract_z
 _atom_site_occupancy
  Ce  Ce0  1  0.30889359  0.76935008  0.75000000  1
  Ce  Ce1  1  0.46045649  0.69110641  0.75000000  1
  Ce  Ce2  1  0.00950225  0.60828921  0.25000000  1
  Ce  Ce3  1  0.53954351  0.30889359  0.25000000  1
  Ce  Ce4  1  0.69110641  0.23064992  0.25000000  1
  Ce  Ce5  1  0.39171079  0.40121304  0.25000000  1
  Ce  Ce6  1  0.60828921  0.59878696  0.75000000  1
  Ce  Ce7  1  0.85667803  0.76069063  0.75000000  1
  Ce  Ce8  1  0.90401261  0.14332197  0.75000000  1
  Ce  Ce9  1  0.76935008  0.46045649  0.25000000  1
  Ce  Ce10  1  0.09598739  0.85667803  0.25000000  1
  Ce  Ce11  1  0.23064992  0.53954351  0.75000000  1
  Ce  Ce12  1  0.14332197  0.23930937  0.25000000  1
  Ce  Ce13  1  0.76069063  0.90401261  0.25000000  1
  Ce  Ce14  1  0.40121304  0.00950225  0.75000000  1
  Ce  Ce15  1  0.99049775  0.39171079  0.75000000  1
  Ce  Ce16  1  0.23930937  0.09598739  0.75000000  1
  Ce  Ce17  1  0.59878696  0.99049775  0.25000000  1
  Sb  Sb18  1  0.28072076  1.00167498  0.25000000  1
  Sb  Sb19  1  0.50753452  0.40498205  0.75000000  1
  Sb  Sb20  1  0.42741685  0.17970416  0.75000000  1
  Sb  Sb21  1  0.75228731  0.57258315  0.75000000  1
  Sb  Sb22  1  0.12758061  0.35409922  0.75000000  1
  Sb  Sb23  1  0.77348139  0.12758061  0.25000000  1
  Sb  Sb24  1  0.57258315  0.82029584  0.25000000  1
  Sb  Sb25  1  0.49200407  0.86296048  0.75000000  1
  Sb  Sb26  1  -0.00167498  0.27904579  0.25000000  1
  Sb  Sb27  1  0.71927924  -0.00167498  0.75000000  1
  Sb  Sb28  1  0.86296048  0.37095641  0.25000000  1
  Sb  Sb29  1  0.10255247  0.50753452  0.25000000  1
  Sb  Sb30  1  0.37095641  0.50799593  0.75000000  1
  Sb  Sb31  1  0.27904579  0.28072076  0.75000000  1
  Sb  Sb32  1  0.82029584  0.24771269  0.75000000  1
  Sb  Sb33  1  0.49246548  0.59501795  0.25000000  1
  Sb  Sb34  1  1.00167498  0.72095421  0.75000000  1
  Sb  Sb35  1  0.24771269  0.42741685  0.25000000  1
  Sb  Sb36  1  0.72095421  0.71927924  0.25000000  1
  Sb  Sb37  1  0.22651861  0.87241939  0.75000000  1
  Sb  Sb38  1  0.62904359  0.49200407  0.25000000  1
  Sb  Sb39  1  0.40498205  0.89744753  0.25000000  1
  Sb  Sb40  1  0.59501795  0.10255247  0.75000000  1
  Sb  Sb41  1  0.87241939  0.64590078  0.25000000  1
  Sb  Sb42  1  0.35409922  0.22651861  0.25000000  1
  Sb  Sb43  1  0.17970416  0.75228731  0.25000000  1
  Sb  Sb44  1  0.64590078  0.77348139  0.75000000  1
  Sb  Sb45  1  0.50799593  0.13703952  0.25000000  1
  Sb  Sb46  1  0.89744753  0.49246548  0.75000000  1
  Sb  Sb47  1  0.13703952  0.62904359  0.75000000  1
  Sb  Sb48  1  0.66666700  0.33333300  0.75000000  1
  Sb  Sb49  1  0.33333300  0.66666700  0.25000000  1
  Cl  Cl50  1  0.14889615  0.09970155  0.25000000  1
  Cl  Cl51  1  0.95080540  0.85110385  0.25000000  1
  Cl  Cl52  1  0.04919460  0.14889615  0.75000000  1
  Cl  Cl53  1  0.09970155  0.95080540  0.75000000  1
  Cl  Cl54  1  0.85110385  0.90029845  0.75000000  1
  Cl  Cl55  1  0.90029845  0.04919460  0.25000000  1
