# generated using pymatgen
data_Ag2Se
_symmetry_space_group_name_H-M   'P 1'
_cell_length_a   4.49748133
_cell_length_b   7.11325505
_cell_length_c   7.67068178
_cell_angle_alpha   90.00000000
_cell_angle_beta   90.00000000
_cell_angle_gamma   90.00000000
_symmetry_Int_Tables_number   1
_chemical_formula_structural   Ag2Se
_chemical_formula_sum   'Ag8 Se4'
_cell_volume   245.39839410
_cell_formula_units_Z   4
loop_
 _symmetry_equiv_pos_site_id
 _symmetry_equiv_pos_as_xyz
  1  'x, y, z'
loop_
 _atom_site_type_symbol
 _atom_site_label
 _atom_site_symmetry_multiplicity
 _atom_site_fract_x
 _atom_site_fract_y
 _atom_site_fract_z
 _atom_site_occupancy
  Ag  Ag0  1  0.02200558  0.22646376  0.86460077  1
  Ag  Ag1  1  0.65454220  0.88494816  0.95244129  1
  Ag  Ag2  1  0.47799442  0.77353624  0.36460077  1
  Ag  Ag3  1  0.15454220  0.61505184  0.04755871  1
  Ag  Ag4  1  0.84545780  0.11505184  0.45244129  1
  Ag  Ag5  1  0.97799442  0.72646376  0.63539923  1
  Ag  Ag6  1  0.34545780  0.38494816  0.54755871  1
  Ag  Ag7  1  0.52200558  0.27353624  0.13539923  1
  Se  Se8  1  0.87879949  0.49677284  0.34555478  1
  Se  Se9  1  0.12120051  0.99677284  0.15444522  1
  Se  Se10  1  0.37879949  0.00322716  0.65444522  1
  Se  Se11  1  0.62120051  0.50322716  0.84555478  1
