# generated using pymatgen
data_Ca2Nb2NiO8
_symmetry_space_group_name_H-M   'P 1'
_cell_length_a   5.48497161
_cell_length_b   6.30311434
_cell_length_c   9.95792025
_cell_angle_alpha   108.48982793
_cell_angle_beta   91.16997937
_cell_angle_gamma   90.01338709
_symmetry_Int_Tables_number   1
_chemical_formula_structural   Ca2Nb2NiO8
_chemical_formula_sum   'Ca4 Nb4 Ni2 O16'
_cell_volume   326.42180668
_cell_formula_units_Z   2
loop_
 _symmetry_equiv_pos_site_id
 _symmetry_equiv_pos_as_xyz
  1  'x, y, z'
loop_
 _atom_site_type_symbol
 _atom_site_label
 _atom_site_symmetry_multiplicity
 _atom_site_fract_x
 _atom_site_fract_y
 _atom_site_fract_z
 _atom_site_occupancy
  Ca  Ca0  1  0.75925617  0.47771857  0.58653157  1
  Ca  Ca1  1  0.74495724  0.89177342  0.41360273  1
  Ca  Ca2  1  0.24483197  0.52180048  0.41447693  1
  Ca  Ca3  1  0.25937345  0.10778170  0.58735514  1
  Nb  Nb4  1  0.75662624  0.26523138  0.21976739  1
  Nb  Nb5  1  0.74736977  0.04509149  0.78090201  1
  Nb  Nb6  1  0.24726714  0.73435814  0.78122773  1
  Nb  Nb7  1  0.25659343  0.95445408  0.22017511  1
  Ni  Ni8  1  0.75171060  0.64131050  0.00053376  1
  Ni  Ni9  1  0.25181777  0.35806633  0.00053352  1
  O  O10  1  0.09563447  0.19818615  0.13767464  1
  O  O11  1  0.40820476  0.06065777  0.86327761  1
  O  O12  1  0.90817185  0.80127191  0.86327797  1
  O  O13  1  0.59563954  0.93897010  0.13767923  1
  O  O14  1  0.58249688  0.41422145  0.11216234  1
  O  O15  1  0.92112939  0.30193966  0.88899837  1
  O  O16  1  0.42102101  0.58531704  0.88896250  1
  O  O17  1  0.08224429  0.69788178  0.11230183  1
  O  O18  1  0.50852701  0.24017942  0.36299726  1
  O  O19  1  0.99574402  0.87689254  0.63795279  1
  O  O20  1  0.34504191  0.83325565  0.36929932  1
  O  O21  1  0.15886349  0.46404195  0.63189322  1
  O  O22  1  0.65925041  0.16623964  0.63171193  1
  O  O23  1  0.84519072  0.53550413  0.36911180  1
  O  O24  1  0.00855274  0.12286995  0.36318417  1
  O  O25  1  0.49561374  0.75935874  0.63807215  1
