# generated using pymatgen
data_Yb3(Ga2Ge3)2
_symmetry_space_group_name_H-M   'P 1'
_cell_length_a   4.26972465
_cell_length_b   10.85303764
_cell_length_c   12.14685642
_cell_angle_alpha   91.13543787
_cell_angle_beta   100.12256288
_cell_angle_gamma   89.99999909
_symmetry_Int_Tables_number   1
_chemical_formula_structural   Yb3(Ga2Ge3)2
_chemical_formula_sum   'Yb6 Ga8 Ge12'
_cell_volume   554.00501758
_cell_formula_units_Z   2
loop_
 _symmetry_equiv_pos_site_id
 _symmetry_equiv_pos_as_xyz
  1  'x, y, z'
loop_
 _atom_site_type_symbol
 _atom_site_label
 _atom_site_symmetry_multiplicity
 _atom_site_fract_x
 _atom_site_fract_y
 _atom_site_fract_z
 _atom_site_occupancy
  Yb  Yb0  1  0.64439994  0.10641430  0.28879987  1
  Yb  Yb1  1  0.17621195  0.54679839  0.35242389  1
  Yb  Yb2  1  0.52348280  0.83385227  0.04696561  1
  Yb  Yb3  1  0.82378805  0.45320161  0.64757611  1
  Yb  Yb4  1  0.35560006  0.89358570  0.71120013  1
  Yb  Yb5  1  0.47651720  0.16614773  0.95303439  1
  Ga  Ga6  1  0.42158619  0.41223784  0.84317238  1
  Ga  Ga7  1  0.57841381  0.58776216  0.15682762  1
  Ga  Ga8  1  0.75939157  0.74189668  0.51878313  1
  Ga  Ga9  1  0.93470940  0.73108135  0.86941881  1
  Ga  Ga10  1  0.24060843  0.25810332  0.48121687  1
  Ga  Ga11  1  0.13605114  0.88347504  0.27210228  1
  Ga  Ga12  1  0.86394886  0.11652496  0.72789772  1
  Ga  Ga13  1  0.06529060  0.26891865  0.13058119  1
  Ge  Ge14  1  0.70909308  0.35984965  0.41818616  1
  Ge  Ge15  1  0.02374086  0.60507210  0.04748172  1
  Ge  Ge16  1  0.65215987  0.76303773  0.30431975  1
  Ge  Ge17  1  0.22519405  0.02716104  0.45038810  1
  Ge  Ge18  1  0.94810036  0.96501348  0.89620072  1
  Ge  Ge19  1  0.60474270  0.36507192  0.20948541  1
  Ge  Ge20  1  0.97625914  0.39492790  0.95251828  1
  Ge  Ge21  1  0.05189964  0.03498652  0.10379928  1
  Ge  Ge22  1  0.77480595  0.97283896  0.54961190  1
  Ge  Ge23  1  0.39525730  0.63492808  0.79051459  1
  Ge  Ge24  1  0.34784013  0.23696227  0.69568025  1
  Ge  Ge25  1  0.29090692  0.64015035  0.58181384  1
