# generated using pymatgen
data_Lu(BRu)4
_symmetry_space_group_name_H-M   'P 1'
_cell_length_a   7.45673288
_cell_length_b   7.45673321
_cell_length_c   9.17382181
_cell_angle_alpha   113.97974211
_cell_angle_beta   113.97974324
_cell_angle_gamma   89.99999967
_symmetry_Int_Tables_number   1
_chemical_formula_structural   Lu(BRu)4
_chemical_formula_sum   'Lu4 B16 Ru16'
_cell_volume   417.42009256
_cell_formula_units_Z   4
loop_
 _symmetry_equiv_pos_site_id
 _symmetry_equiv_pos_as_xyz
  1  'x, y, z'
loop_
 _atom_site_type_symbol
 _atom_site_label
 _atom_site_symmetry_multiplicity
 _atom_site_fract_x
 _atom_site_fract_y
 _atom_site_fract_z
 _atom_site_occupancy
  Lu  Lu0  1  0.37500000  0.12500000  0.75000000  1
  Lu  Lu1  1  0.87500000  0.62500000  0.75000000  1
  Lu  Lu2  1  0.12500000  0.37500000  0.25000000  1
  Lu  Lu3  1  0.62500000  0.87500000  0.25000000  1
  B  B4  1  0.56844160  0.62566441  0.41228123  1
  B  B5  1  0.78661682  0.34383963  0.91228123  1
  B  B6  1  0.37433559  0.15616037  0.08771877  1
  B  B7  1  0.62566441  0.84383963  0.91228123  1
  B  B8  1  0.12566441  0.06844160  0.91228123  1
  B  B9  1  0.06844160  0.78661682  0.41228123  1
  B  B10  1  0.93155840  0.21338318  0.58771877  1
  B  B11  1  0.43155840  0.37433559  0.58771877  1
  B  B12  1  0.71338318  0.43155840  0.08771877  1
  B  B13  1  0.87433559  0.93155840  0.08771877  1
  B  B14  1  0.65616037  0.87433559  0.58771877  1
  B  B15  1  0.28661682  0.56844160  0.91228123  1
  B  B16  1  0.21338318  0.65616037  0.08771877  1
  B  B17  1  0.84383963  0.28661682  0.41228123  1
  B  B18  1  0.34383963  0.12566441  0.41228123  1
  B  B19  1  0.15616037  0.71338318  0.58771877  1
  Ru  Ru20  1  0.67774849  0.16254381  0.12605352  1
  Ru  Ru21  1  0.16254381  0.44830503  0.62605352  1
  Ru  Ru22  1  0.94830503  0.66254381  0.12605352  1
  Ru  Ru23  1  0.05169497  0.33745619  0.87394648  1
  Ru  Ru24  1  0.03649030  0.05169497  0.37394648  1
  Ru  Ru25  1  0.44830503  0.46350970  0.12605352  1
  Ru  Ru26  1  0.33745619  0.82225151  0.37394648  1
  Ru  Ru27  1  0.96350970  0.94830503  0.62605352  1
  Ru  Ru28  1  0.32225151  0.83745619  0.87394648  1
  Ru  Ru29  1  0.46350970  0.67774849  0.62605352  1
  Ru  Ru30  1  0.17774849  0.96350970  0.12605352  1
  Ru  Ru31  1  0.82225151  0.03649030  0.87394648  1
  Ru  Ru32  1  0.53649030  0.32225151  0.37394648  1
  Ru  Ru33  1  0.66254381  0.17774849  0.62605352  1
  Ru  Ru34  1  0.55169497  0.53649030  0.87394648  1
  Ru  Ru35  1  0.83745619  0.55169497  0.37394648  1
