# generated using pymatgen
data_SrAlH5
_symmetry_space_group_name_H-M   'P 1'
_cell_length_a   12.67900000
_cell_length_b   5.20000000
_cell_length_c   4.50800000
_cell_angle_alpha   90.00000000
_cell_angle_beta   90.00000000
_cell_angle_gamma   90.00000000
_symmetry_Int_Tables_number   1
_chemical_formula_structural   SrAlH5
_chemical_formula_sum   'Sr4 Al4 H20'
_cell_volume   297.21604640
_cell_formula_units_Z   4
loop_
 _symmetry_equiv_pos_site_id
 _symmetry_equiv_pos_as_xyz
  1  'x, y, z'
loop_
 _atom_site_type_symbol
 _atom_site_label
 _atom_site_symmetry_multiplicity
 _atom_site_fract_x
 _atom_site_fract_y
 _atom_site_fract_z
 _atom_site_occupancy
  Sr  Sr0  1  0.09200000  0.60400000  0.46400000  1
  Sr  Sr1  1  0.40800000  0.39600000  0.96400000  1
  Sr  Sr2  1  0.59200000  0.89600000  0.53600000  1
  Sr  Sr3  1  0.90800000  0.10400000  0.03600000  1
  Al  Al4  1  0.83500000  0.61700000  0.42900000  1
  Al  Al5  1  0.66500000  0.38300000  0.92900000  1
  Al  Al6  1  0.33500000  0.88300000  0.57100000  1
  Al  Al7  1  0.16500000  0.11700000  0.07100000  1
  H  H8  1  0.23700000  0.35900000  0.22200000  1
  H  H9  1  0.26300000  0.64100000  0.72200000  1
  H  H10  1  0.73700000  0.14100000  0.77800000  1
  H  H11  1  0.76300000  0.85900000  0.27800000  1
  H  H12  1  0.92200000  0.83700000  0.58200000  1
  H  H13  1  0.57800000  0.16300000  0.08200000  1
  H  H14  1  0.42200000  0.66300000  0.41800000  1
  H  H15  1  0.07800000  0.33700000  0.91800000  1
  H  H16  1  0.90700000  0.36000000  0.55500000  1
  H  H17  1  0.59300000  0.64000000  0.05500000  1
  H  H18  1  0.40700000  0.14000000  0.44500000  1
  H  H19  1  0.09300000  0.86000000  0.94500000  1
  H  H20  1  0.92100000  0.61400000  0.12600000  1
  H  H21  1  0.57900000  0.38600000  0.62600000  1
  H  H22  1  0.42100000  0.88600000  0.87400000  1
  H  H23  1  0.07900000  0.11400000  0.37400000  1
  H  H24  1  0.74600000  0.61600000  0.73200000  1
  H  H25  1  0.75400000  0.38400000  0.23200000  1
  H  H26  1  0.24600000  0.88400000  0.26800000  1
  H  H27  1  0.25400000  0.11600000  0.76800000  1
