# generated using pymatgen
data_Ti2Bi
_symmetry_space_group_name_H-M   'P 1'
_cell_length_a   4.23590034
_cell_length_b   4.23590018
_cell_length_c   7.66151457
_cell_angle_alpha   106.04784788
_cell_angle_beta   106.04784739
_cell_angle_gamma   90.00000519
_symmetry_Int_Tables_number   1
_chemical_formula_structural   Ti2Bi
_chemical_formula_sum   'Ti4 Bi2'
_cell_volume   126.52876588
_cell_formula_units_Z   2
loop_
 _symmetry_equiv_pos_site_id
 _symmetry_equiv_pos_as_xyz
  1  'x, y, z'
loop_
 _atom_site_type_symbol
 _atom_site_label
 _atom_site_symmetry_multiplicity
 _atom_site_fract_x
 _atom_site_fract_y
 _atom_site_fract_z
 _atom_site_occupancy
  Ti  Ti0  1  0.86291529  0.86291529  0.72583057  1
  Ti  Ti1  1  0.50000000  0.00000000  -0.00000000  1
  Ti  Ti2  1  -0.00000000  0.50000000  -0.00000000  1
  Ti  Ti3  1  0.13708471  0.13708471  0.27416943  1
  Bi  Bi4  1  0.65085235  0.65085235  0.30170471  1
  Bi  Bi5  1  0.34914765  0.34914765  0.69829529  1
