# generated using pymatgen
data_ErAl9(Fe2Si3)2
_symmetry_space_group_name_H-M   'P 1'
_cell_length_a   8.65512623
_cell_length_b   8.65512623
_cell_length_c   15.15536376
_cell_angle_alpha   90.00000000
_cell_angle_beta   90.00000000
_cell_angle_gamma   90.00000000
_symmetry_Int_Tables_number   1
_chemical_formula_structural   ErAl9(Fe2Si3)2
_chemical_formula_sum   'Er4 Al36 Fe16 Si24'
_cell_volume   1135.30663812
_cell_formula_units_Z   4
loop_
 _symmetry_equiv_pos_site_id
 _symmetry_equiv_pos_as_xyz
  1  'x, y, z'
loop_
 _atom_site_type_symbol
 _atom_site_label
 _atom_site_symmetry_multiplicity
 _atom_site_fract_x
 _atom_site_fract_y
 _atom_site_fract_z
 _atom_site_occupancy
  Er  Er0  1  0.75000000  0.75000000  0.83568734  1
  Er  Er1  1  0.75000000  0.75000000  0.33568734  1
  Er  Er2  1  0.25000000  0.25000000  0.16431266  1
  Er  Er3  1  0.25000000  0.25000000  0.66431266  1
  Al  Al4  1  0.93328224  0.75000000  0.66086860  1
  Al  Al5  1  0.50402019  0.45279667  0.08095263  1
  Al  Al6  1  0.59409650  0.25000000  0.64833743  1
  Al  Al7  1  0.06671776  0.25000000  0.33913140  1
  Al  Al8  1  0.95279667  0.00402019  0.41904737  1
  Al  Al9  1  0.25000000  0.59409650  0.14833743  1
  Al  Al10  1  0.75000000  0.09409650  0.85166257  1
  Al  Al11  1  0.90590350  0.25000000  0.64833743  1
  Al  Al12  1  0.75000000  0.25000000  0.02194932  1
  Al  Al13  1  0.49597981  0.95279667  0.91904737  1
  Al  Al14  1  0.99597981  0.45279667  0.08095263  1
  Al  Al15  1  0.95279667  0.49597981  0.41904737  1
  Al  Al16  1  0.25000000  0.90590350  0.14833743  1
  Al  Al17  1  0.99597981  0.04720333  0.08095263  1
  Al  Al18  1  0.45279667  0.99597981  0.58095263  1
  Al  Al19  1  0.75000000  0.40590350  0.85166257  1
  Al  Al20  1  0.25000000  0.75000000  0.52194932  1
  Al  Al21  1  0.00402019  0.54720333  0.91904737  1
  Al  Al22  1  0.04720333  0.50402019  0.58095263  1
  Al  Al23  1  0.00402019  0.95279667  0.91904737  1
  Al  Al24  1  0.54720333  0.49597981  0.41904737  1
  Al  Al25  1  0.09409650  0.75000000  0.35166257  1
  Al  Al26  1  0.50402019  0.04720333  0.08095263  1
  Al  Al27  1  0.75000000  0.93328224  0.16086860  1
  Al  Al28  1  0.56671776  0.75000000  0.66086860  1
  Al  Al29  1  0.25000000  0.75000000  0.97805068  1
  Al  Al30  1  0.75000000  0.25000000  0.47805068  1
  Al  Al31  1  0.54720333  0.00402019  0.41904737  1
  Al  Al32  1  0.04720333  0.99597981  0.58095263  1
  Al  Al33  1  0.75000000  0.56671776  0.16086860  1
  Al  Al34  1  0.49597981  0.54720333  0.91904737  1
  Al  Al35  1  0.45279667  0.50402019  0.58095263  1
  Al  Al36  1  0.40590350  0.75000000  0.35166257  1
  Al  Al37  1  0.25000000  0.43328224  0.83913140  1
  Al  Al38  1  0.25000000  0.06671776  0.83913140  1
  Al  Al39  1  0.43328224  0.25000000  0.33913140  1
  Fe  Fe40  1  0.47207932  0.25000000  0.50011340  1
  Fe  Fe41  1  0.99465633  0.49465633  0.25000000  1
  Fe  Fe42  1  0.25000000  0.47207932  1.00011340  1
  Fe  Fe43  1  0.99465633  0.00534367  0.25000000  1
  Fe  Fe44  1  0.75000000  0.97207932  -0.00011340  1
  Fe  Fe45  1  0.75000000  0.52792068  -0.00011340  1
  Fe  Fe46  1  0.97207932  0.75000000  0.49988660  1
  Fe  Fe47  1  0.49465633  0.50534367  0.75000000  1
  Fe  Fe48  1  0.50534367  0.49465633  0.25000000  1
  Fe  Fe49  1  0.00534367  0.50534367  0.75000000  1
  Fe  Fe50  1  0.00534367  0.99465633  0.75000000  1
  Fe  Fe51  1  0.25000000  0.02792068  1.00011340  1
  Fe  Fe52  1  0.50534367  0.00534367  0.25000000  1
  Fe  Fe53  1  0.52792068  0.75000000  0.49988660  1
  Fe  Fe54  1  0.49465633  0.99465633  0.75000000  1
  Fe  Fe55  1  0.02792068  0.25000000  0.50011340  1
  Si  Si56  1  0.51195382  0.75000000  0.18837001  1
  Si  Si57  1  0.48804618  0.25000000  0.81162999  1
  Si  Si58  1  0.90683152  0.25000000  0.19337159  1
  Si  Si59  1  0.11180274  0.25000000  0.97080564  1
  Si  Si60  1  0.88819726  0.75000000  0.02919436  1
  Si  Si61  1  0.25000000  0.01195382  0.31162999  1
  Si  Si62  1  0.40683152  0.75000000  0.80662841  1
  Si  Si63  1  0.38819726  0.25000000  0.97080564  1
  Si  Si64  1  0.59316848  0.25000000  0.19337159  1
  Si  Si65  1  0.75000000  0.09316848  0.30662841  1
  Si  Si66  1  0.61180274  0.75000000  0.02919436  1
  Si  Si67  1  0.25000000  0.48804618  0.31162999  1
  Si  Si68  1  0.75000000  0.51195382  0.68837001  1
  Si  Si69  1  0.75000000  0.61180274  0.52919436  1
  Si  Si70  1  0.25000000  0.38819726  0.47080564  1
  Si  Si71  1  0.09316848  0.75000000  0.80662841  1
  Si  Si72  1  0.75000000  0.98804618  0.68837001  1
  Si  Si73  1  0.75000000  0.40683152  0.30662841  1
  Si  Si74  1  0.25000000  0.11180274  0.47080564  1
  Si  Si75  1  0.01195382  0.25000000  0.81162999  1
  Si  Si76  1  0.75000000  0.88819726  0.52919436  1
  Si  Si77  1  0.25000000  0.90683152  0.69337159  1
  Si  Si78  1  0.25000000  0.59316848  0.69337159  1
  Si  Si79  1  0.98804618  0.75000000  0.18837001  1
