# generated using pymatgen
data_Ca2Bi
_symmetry_space_group_name_H-M   'P 1'
_cell_length_a   4.88415763
_cell_length_b   4.88415779
_cell_length_c   9.16114233
_cell_angle_alpha   105.46021648
_cell_angle_beta   105.46021701
_cell_angle_gamma   90.00000556
_symmetry_Int_Tables_number   1
_chemical_formula_structural   Ca2Bi
_chemical_formula_sum   'Ca4 Bi2'
_cell_volume   202.41499757
_cell_formula_units_Z   2
loop_
 _symmetry_equiv_pos_site_id
 _symmetry_equiv_pos_as_xyz
  1  'x, y, z'
loop_
 _atom_site_type_symbol
 _atom_site_label
 _atom_site_symmetry_multiplicity
 _atom_site_fract_x
 _atom_site_fract_y
 _atom_site_fract_z
 _atom_site_occupancy
  Ca  Ca0  1  0.67331453  0.67331453  0.34662905  1
  Ca  Ca1  1  0.50000000  -0.00000000  -0.00000000  1
  Ca  Ca2  1  0.32668547  0.32668547  0.65337095  1
  Ca  Ca3  1  -0.00000000  0.50000000  -0.00000000  1
  Bi  Bi4  1  0.13671851  0.13671851  0.27343702  1
  Bi  Bi5  1  0.86328149  0.86328149  0.72656298  1
