# generated using pymatgen
data_Ti4MnBi2
_symmetry_space_group_name_H-M   'P 1'
_cell_length_a   4.97446701
_cell_length_b   7.86181855
_cell_length_c   7.86181815
_cell_angle_alpha   84.25569217
_cell_angle_beta   71.55654080
_cell_angle_gamma   71.55654010
_symmetry_Int_Tables_number   1
_chemical_formula_structural   Ti4MnBi2
_chemical_formula_sum   'Ti8 Mn2 Bi4'
_cell_volume   276.68910403
_cell_formula_units_Z   2
loop_
 _symmetry_equiv_pos_site_id
 _symmetry_equiv_pos_as_xyz
  1  'x, y, z'
loop_
 _atom_site_type_symbol
 _atom_site_label
 _atom_site_symmetry_multiplicity
 _atom_site_fract_x
 _atom_site_fract_y
 _atom_site_fract_z
 _atom_site_occupancy
  Ti  Ti0  1  0.69229019  0.88808654  0.72733307  1
  Ti  Ti1  1  0.30770981  0.11191346  0.27266693  1
  Ti  Ti2  1  0.58037673  0.72733307  0.11191346  1
  Ti  Ti3  1  0.08037673  0.11191346  0.72733307  1
  Ti  Ti4  1  0.80770981  0.27266693  0.11191346  1
  Ti  Ti5  1  0.41962327  0.27266693  0.88808654  1
  Ti  Ti6  1  0.91962327  0.88808654  0.27266693  1
  Ti  Ti7  1  0.19229019  0.72733307  0.88808654  1
  Mn  Mn8  1  0.25000000  0.00000000  0.00000000  1
  Mn  Mn9  1  0.75000000  0.00000000  0.00000000  1
  Bi  Bi10  1  0.13860031  0.50000000  0.22279937  1
  Bi  Bi11  1  0.36139969  0.77720063  0.50000000  1
  Bi  Bi12  1  0.86139969  0.50000000  0.77720063  1
  Bi  Bi13  1  0.63860031  0.22279937  0.50000000  1
