# generated using pymatgen
data_La10Al5Br4
_symmetry_space_group_name_H-M   'P 1'
_cell_length_a   8.27907901
_cell_length_b   8.27907921
_cell_length_c   17.67943176
_cell_angle_alpha   103.54119286
_cell_angle_beta   103.54119327
_cell_angle_gamma   90.00000026
_symmetry_Int_Tables_number   1
_chemical_formula_structural   La10Al5Br4
_chemical_formula_sum   'La20 Al10 Br8'
_cell_volume   1143.44013771
_cell_formula_units_Z   2
loop_
 _symmetry_equiv_pos_site_id
 _symmetry_equiv_pos_as_xyz
  1  'x, y, z'
loop_
 _atom_site_type_symbol
 _atom_site_label
 _atom_site_symmetry_multiplicity
 _atom_site_fract_x
 _atom_site_fract_y
 _atom_site_fract_z
 _atom_site_occupancy
  La  La0  1  0.65224156  0.65224156  0.30448311  1
  La  La1  1  0.10033690  0.60033690  0.85691254  1
  La  La2  1  0.87185060  0.03521201  0.40706261  1
  La  La3  1  0.53521201  0.37185060  0.40706261  1
  La  La4  1  0.89966310  0.39966310  0.14308746  1
  La  La5  1  0.24342437  0.74342437  0.14308746  1
  La  La6  1  0.12814940  0.96478799  0.59293739  1
  La  La7  1  0.37185060  0.87185060  0.40706261  1
  La  La8  1  0.96478799  0.46478799  0.59293739  1
  La  La9  1  0.34775844  0.34775844  0.69551689  1
  La  La10  1  0.25657563  0.10033690  0.85691254  1
  La  La11  1  0.75657563  0.25657563  0.85691254  1
  La  La12  1  0.60033690  0.75657563  0.85691254  1
  La  La13  1  0.62814940  0.12814940  0.59293739  1
  La  La14  1  0.15224156  0.15224156  0.30448311  1
  La  La15  1  0.84775844  0.84775844  0.69551689  1
  La  La16  1  0.39966310  0.24342437  0.14308746  1
  La  La17  1  0.03521201  0.53521201  0.40706261  1
  La  La18  1  0.46478799  0.62814940  0.59293739  1
  La  La19  1  0.74342437  0.89966310  0.14308746  1
  Al  Al20  1  0.75401492  0.25401492  0.26986942  1
  Al  Al21  1  0.74598508  0.48414550  0.73013058  1
  Al  Al22  1  0.25401492  0.51585450  0.26986942  1
  Al  Al23  1  0.98414550  0.24598508  0.73013058  1
  Al  Al24  1  0.75000000  0.75000000  0.50000000  1
  Al  Al25  1  0.24598508  0.74598508  0.73013058  1
  Al  Al26  1  0.01585450  0.75401492  0.26986942  1
  Al  Al27  1  0.51585450  0.01585450  0.26986942  1
  Al  Al28  1  0.48414550  0.98414550  0.73013058  1
  Al  Al29  1  0.25000000  0.25000000  0.50000000  1
  Br  Br30  1  0.64216656  0.14216656  0.00000000  1
  Br  Br31  1  0.14216656  0.35783344  0.00000000  1
  Br  Br32  1  0.85783344  0.64216656  -0.00000000  1
  Br  Br33  1  0.44413905  0.44413905  0.88827811  1
  Br  Br34  1  0.94413905  0.94413905  0.88827811  1
  Br  Br35  1  0.55586095  0.55586095  0.11172189  1
  Br  Br36  1  0.05586095  0.05586095  0.11172189  1
  Br  Br37  1  0.35783344  0.85783344  -0.00000000  1
