# generated using pymatgen
data_Ca(CuO2)2
_symmetry_space_group_name_H-M   'P 1'
_cell_length_a   5.53267892
_cell_length_b   5.53267946
_cell_length_c   7.50138809
_cell_angle_alpha   111.64021028
_cell_angle_beta   111.64021801
_cell_angle_gamma   89.99999653
_symmetry_Int_Tables_number   1
_chemical_formula_structural   Ca(CuO2)2
_chemical_formula_sum   'Ca2 Cu4 O8'
_cell_volume   195.92072969
_cell_formula_units_Z   2
loop_
 _symmetry_equiv_pos_site_id
 _symmetry_equiv_pos_as_xyz
  1  'x, y, z'
loop_
 _atom_site_type_symbol
 _atom_site_label
 _atom_site_symmetry_multiplicity
 _atom_site_fract_x
 _atom_site_fract_y
 _atom_site_fract_z
 _atom_site_occupancy
  Ca  Ca0  1  0.37500000  0.62500000  0.75000000  1
  Ca  Ca1  1  0.62500000  0.37500000  0.25000000  1
  Cu  Cu2  1  0.00000000  0.00000000  0.50000000  1
  Cu  Cu3  1  0.00000000  0.50000000  0.00000000  1
  Cu  Cu4  1  0.50000000  0.00000000  0.50000000  1
  Cu  Cu5  1  0.00000000  0.00000000  0.00000000  1
  O  O6  1  0.75456478  0.78395364  0.50913057  1
  O  O7  1  0.77482507  0.24543522  0.99086943  1
  O  O8  1  0.21604636  0.24543522  0.99086943  1
  O  O9  1  0.24543522  0.21604636  0.49086943  1
  O  O10  1  0.24543522  0.77482507  0.49086943  1
  O  O11  1  0.22517493  0.75456478  0.00913057  1
  O  O12  1  0.75456478  0.22517493  0.50913057  1
  O  O13  1  0.78395364  0.75456478  0.00913057  1
