# generated using pymatgen
data_Ce3SiPt5
_symmetry_space_group_name_H-M   'P 1'
_cell_length_a   7.34965516
_cell_length_b   7.49903875
_cell_length_c   8.34573813
_cell_angle_alpha   116.69708175
_cell_angle_beta   116.12454457
_cell_angle_gamma   90.00000420
_symmetry_Int_Tables_number   1
_chemical_formula_structural   Ce3SiPt5
_chemical_formula_sum   'Ce6 Si2 Pt10'
_cell_volume   357.56268679
_cell_formula_units_Z   2
loop_
 _symmetry_equiv_pos_site_id
 _symmetry_equiv_pos_as_xyz
  1  'x, y, z'
loop_
 _atom_site_type_symbol
 _atom_site_label
 _atom_site_symmetry_multiplicity
 _atom_site_fract_x
 _atom_site_fract_y
 _atom_site_fract_z
 _atom_site_occupancy
  Ce  Ce0  1  0.54806647  0.27005347  0.09613294  1
  Ce  Ce1  1  0.25000000  0.88361925  0.50000000  1
  Ce  Ce2  1  0.45193353  0.72994653  0.90386706  1
  Ce  Ce3  1  0.75000000  0.11638075  0.50000000  1
  Ce  Ce4  1  0.95193353  0.67392053  0.90386706  1
  Ce  Ce5  1  0.04806647  0.32607947  0.09613294  1
  Si  Si6  1  0.25000000  0.28391316  0.50000000  1
  Si  Si7  1  0.75000000  0.71608684  0.50000000  1
  Pt  Pt8  1  0.90187614  0.04242794  0.21171865  1
  Pt  Pt9  1  0.09812386  0.95757206  0.78828135  1
  Pt  Pt10  1  0.19015749  0.33070930  0.78828135  1
  Pt  Pt11  1  0.40187614  0.66929070  0.21171865  1
  Pt  Pt12  1  0.69015749  0.95757206  0.78828135  1
  Pt  Pt13  1  0.59812386  0.33070930  0.78828135  1
  Pt  Pt14  1  0.80984251  0.66929070  0.21171865  1
  Pt  Pt15  1  0.30984251  0.04242794  0.21171865  1
  Pt  Pt16  1  0.00000000  0.50000000  0.50000000  1
  Pt  Pt17  1  0.50000000  0.50000000  0.50000000  1
