# generated using pymatgen
data_Ta4Se9I8
_symmetry_space_group_name_H-M   'P 1'
_cell_length_a   13.66602253
_cell_length_b   15.04542063
_cell_length_c   15.52433093
_cell_angle_alpha   90.00000000
_cell_angle_beta   90.00000000
_cell_angle_gamma   90.00000000
_symmetry_Int_Tables_number   1
_chemical_formula_structural   Ta4Se9I8
_chemical_formula_sum   'Ta16 Se36 I32'
_cell_volume   3191.97409644
_cell_formula_units_Z   4
loop_
 _symmetry_equiv_pos_site_id
 _symmetry_equiv_pos_as_xyz
  1  'x, y, z'
loop_
 _atom_site_type_symbol
 _atom_site_label
 _atom_site_symmetry_multiplicity
 _atom_site_fract_x
 _atom_site_fract_y
 _atom_site_fract_z
 _atom_site_occupancy
  Ta  Ta0  1  0.26132125  0.31385598  0.49899939  1
  Ta  Ta1  1  0.38387942  0.82110991  0.19365506  1
  Ta  Ta2  1  0.26132125  0.81385598  1.00100061  1
  Ta  Ta3  1  0.88387942  0.17889009  0.80634494  1
  Ta  Ta4  1  0.88387942  0.67889009  0.69365506  1
  Ta  Ta5  1  0.04560251  0.79074254  0.10974021  1
  Ta  Ta6  1  0.16670199  0.79772220  0.29787471  1
  Ta  Ta7  1  0.66670199  0.70227780  0.79787471  1
  Ta  Ta8  1  0.16670199  0.29772220  0.20212529  1
  Ta  Ta9  1  0.76132125  0.18614402  -0.00100061  1
  Ta  Ta10  1  0.04560251  0.29074254  0.39025979  1
  Ta  Ta11  1  0.38387942  0.32110991  0.30634494  1
  Ta  Ta12  1  0.66670199  0.20227780  0.70212529  1
  Ta  Ta13  1  0.54560251  0.20925746  0.89025979  1
  Ta  Ta14  1  0.76132125  0.68614402  0.50100061  1
  Ta  Ta15  1  0.54560251  0.70925746  0.60974021  1
  Se  Se16  1  0.58117413  0.71160719  0.43979207  1
  Se  Se17  1  0.08117413  0.78839281  0.93979207  1
  Se  Se18  1  0.97562290  0.77257914  0.26916625  1
  Se  Se19  1  0.10932848  0.42381585  0.48747334  1
  Se  Se20  1  0.28776048  0.93434175  0.29483997  1
  Se  Se21  1  0.35709120  0.94611799  0.07618240  1
  Se  Se22  1  0.34826694  0.80457068  0.36230845  1
  Se  Se23  1  0.84826694  0.69542932  0.86230845  1
  Se  Se24  1  0.22260418  0.73933495  0.14875687  1
  Se  Se25  1  0.97562290  0.27257914  0.23083375  1
  Se  Se26  1  0.72260418  0.26066505  0.85124313  1
  Se  Se27  1  0.84826694  0.19542932  0.63769155  1
  Se  Se28  1  0.35709120  0.44611799  0.42381760  1
  Se  Se29  1  0.78776048  0.06565825  0.70516003  1
  Se  Se30  1  0.54215167  0.58657367  0.73345992  1
  Se  Se31  1  0.47562290  0.72742086  0.76916625  1
  Se  Se32  1  0.78776048  0.56565825  0.79483997  1
  Se  Se33  1  0.85709120  0.05388201  0.92381760  1
  Se  Se34  1  0.85709120  0.55388201  0.57618240  1
  Se  Se35  1  0.45438491  0.32299278  0.46808947  1
  Se  Se36  1  0.95438491  0.17700722  0.96808947  1
  Se  Se37  1  0.08117413  0.28839281  0.56020793  1
  Se  Se38  1  0.04215167  0.41342633  0.26654008  1
  Se  Se39  1  0.54215167  0.08657367  0.76654008  1
  Se  Se40  1  0.95438491  0.67700722  0.53191053  1
  Se  Se41  1  0.45438491  0.82299278  0.03191053  1
  Se  Se42  1  0.60932848  0.07618415  0.98747334  1
  Se  Se43  1  0.10932848  0.92381585  0.01252666  1
  Se  Se44  1  0.22260418  0.23933495  0.35124313  1
  Se  Se45  1  0.60932848  0.57618415  0.51252666  1
  Se  Se46  1  0.04215167  0.91342633  0.23345992  1
  Se  Se47  1  0.58117413  0.21160719  0.06020793  1
  Se  Se48  1  0.72260418  0.76066505  0.64875687  1
  Se  Se49  1  0.47562290  0.22742086  0.73083375  1
  Se  Se50  1  0.28776048  0.43434175  0.20516003  1
  Se  Se51  1  0.34826694  0.30457068  0.13769155  1
  I  I52  1  0.85697562  0.33982402  0.43270331  1
  I  I53  1  0.05558878  0.59697912  0.74041003  1
  I  I54  1  0.67241432  0.88500661  0.84105688  1
  I  I55  1  0.29287172  0.64206110  0.94925170  1
  I  I56  1  0.11100967  0.34739583  0.03717500  1
  I  I57  1  0.80314068  0.10860365  0.15623911  1
  I  I58  1  0.17241432  0.11499339  0.15894312  1
  I  I59  1  0.55558878  0.90302088  0.24041003  1
  I  I60  1  0.01187997  0.11153015  0.40891946  1
  I  I61  1  0.80314068  0.60860365  0.34376089  1
  I  I62  1  0.51187997  0.88846985  0.59108054  1
  I  I63  1  0.61100967  0.65260417  0.96282500  1
  I  I64  1  0.55558878  0.40302088  0.25958997  1
  I  I65  1  0.95715917  0.84865838  0.70285069  1
  I  I66  1  0.67241432  0.38500661  0.65894312  1
  I  I67  1  0.79287172  0.85793890  0.44925170  1
  I  I68  1  0.35697562  0.66017598  0.56729669  1
  I  I69  1  0.51187997  0.38846985  0.90891946  1
  I  I70  1  0.30314068  0.39139635  0.65623911  1
  I  I71  1  0.79287172  0.35793890  0.05074830  1
  I  I72  1  0.30314068  0.89139635  0.84376089  1
  I  I73  1  0.35697562  0.16017598  0.93270331  1
  I  I74  1  0.45715917  0.65134162  0.20285069  1
  I  I75  1  0.05558878  0.09697912  0.75958997  1
  I  I76  1  0.11100967  0.84739583  0.46282500  1
  I  I77  1  0.61100967  0.15260417  0.53717500  1
  I  I78  1  0.45715917  0.15134162  0.29714931  1
  I  I79  1  0.29287172  0.14206110  0.55074830  1
  I  I80  1  0.95715917  0.34865838  0.79714931  1
  I  I81  1  0.85697562  0.83982402  0.06729669  1
  I  I82  1  0.01187997  0.61153015  0.09108054  1
  I  I83  1  0.17241432  0.61499339  0.34105688  1
