# generated using pymatgen
data_Yb2(Ni5B3)3
_symmetry_space_group_name_H-M   'P 1'
_cell_length_a   9.75725763
_cell_length_b   9.75725740
_cell_length_c   11.18269348
_cell_angle_alpha   90.00000000
_cell_angle_beta   90.00000000
_cell_angle_gamma   107.54755749
_symmetry_Int_Tables_number   1
_chemical_formula_structural   Yb2(Ni5B3)3
_chemical_formula_sum   'Yb8 Ni60 B36'
_cell_volume   1015.09720793
_cell_formula_units_Z   4
loop_
 _symmetry_equiv_pos_site_id
 _symmetry_equiv_pos_as_xyz
  1  'x, y, z'
loop_
 _atom_site_type_symbol
 _atom_site_label
 _atom_site_symmetry_multiplicity
 _atom_site_fract_x
 _atom_site_fract_y
 _atom_site_fract_z
 _atom_site_occupancy
  Yb  Yb0  1  0.26043530  0.26043530  0.95912506  1
  Yb  Yb1  1  0.73956470  0.73956470  0.04087494  1
  Yb  Yb2  1  0.69354469  0.19354469  0.75000000  1
  Yb  Yb3  1  0.19354469  0.69354469  0.75000000  1
  Yb  Yb4  1  0.30645531  0.80645531  0.25000000  1
  Yb  Yb5  1  0.76043530  0.76043530  0.54087494  1
  Yb  Yb6  1  0.80645531  0.30645531  0.25000000  1
  Yb  Yb7  1  0.23956470  0.23956470  0.45912506  1
  Ni  Ni8  1  0.00767099  0.81527210  0.16037431  1
  Ni  Ni9  1  0.16292495  0.63628822  0.46994604  1
  Ni  Ni10  1  0.06808200  0.56808200  0.25000000  1
  Ni  Ni11  1  0.63628822  0.16292495  0.46994604  1
  Ni  Ni12  1  0.00942831  0.16869949  0.30698813  1
  Ni  Ni13  1  0.52980344  0.74264503  0.40265950  1
  Ni  Ni14  1  0.50942831  0.66869949  0.19301187  1
  Ni  Ni15  1  0.39265198  0.05335367  0.41516077  1
  Ni  Ni16  1  0.49232901  0.68472790  0.66037431  1
  Ni  Ni17  1  0.27164117  0.50294007  0.11689565  1
  Ni  Ni18  1  0.49705993  0.72835883  0.88310435  1
  Ni  Ni19  1  0.66869949  0.50942831  0.19301187  1
  Ni  Ni20  1  0.74264503  0.52980344  0.40265950  1
  Ni  Ni21  1  0.31527210  0.50767099  0.33962569  1
  Ni  Ni22  1  0.36371178  0.83707505  0.53005396  1
  Ni  Ni23  1  0.60734802  0.94664633  0.58483923  1
  Ni  Ni24  1  0.49057169  0.33130051  0.80698813  1
  Ni  Ni25  1  0.68472790  0.49232901  0.66037431  1
  Ni  Ni26  1  0.22835883  0.99705993  0.61689565  1
  Ni  Ni27  1  0.55335367  0.89265198  0.08483923  1
  Ni  Ni28  1  0.75735497  0.97019656  0.90265950  1
  Ni  Ni29  1  0.18472790  0.99232901  0.83962569  1
  Ni  Ni30  1  0.10734802  0.44664633  0.91516077  1
  Ni  Ni31  1  0.47019656  0.25735497  0.59734050  1
  Ni  Ni32  1  0.99057169  0.83130051  0.69301187  1
  Ni  Ni33  1  -0.00000000  -0.00000000  -0.00000000  1
  Ni  Ni34  1  0.33130051  0.49057169  0.80698813  1
  Ni  Ni35  1  0.50767099  0.31527210  0.33962569  1
  Ni  Ni36  1  0.44664633  0.10734802  0.91516077  1
  Ni  Ni37  1  0.93191800  0.43191800  0.75000000  1
  Ni  Ni38  1  0.23644795  0.23644795  0.71246640  1
  Ni  Ni39  1  0.50000000  0.50000000  -0.00000000  1
  Ni  Ni40  1  0.33707505  0.86371178  0.96994604  1
  Ni  Ni41  1  0.16869949  0.00942831  0.30698813  1
  Ni  Ni42  1  0.94664633  0.60734802  0.58483923  1
  Ni  Ni43  1  0.50294007  0.27164117  0.11689565  1
  Ni  Ni44  1  0.97019656  0.75735497  0.90265950  1
  Ni  Ni45  1  0.00294007  0.77164117  0.38310435  1
  Ni  Ni46  1  0.73644795  0.73644795  0.78753360  1
  Ni  Ni47  1  0.83707505  0.36371178  0.53005396  1
  Ni  Ni48  1  0.76355205  0.76355205  0.28753360  1
  Ni  Ni49  1  0.83130051  0.99057169  0.69301187  1
  Ni  Ni50  1  0.50000000  0.50000000  0.50000000  1
  Ni  Ni51  1  0.99705993  0.22835883  0.61689565  1
  Ni  Ni52  1  0.05335367  0.39265198  0.41516077  1
  Ni  Ni53  1  0.72835883  0.49705993  0.88310435  1
  Ni  Ni54  1  0.56808200  0.06808200  0.25000000  1
  Ni  Ni55  1  0.02980344  0.24264503  0.09734050  1
  Ni  Ni56  1  0.81527210  0.00767099  0.16037431  1
  Ni  Ni57  1  0.99232901  0.18472790  0.83962569  1
  Ni  Ni58  1  0.24264503  0.02980344  0.09734050  1
  Ni  Ni59  1  0.89265198  0.55335367  0.08483923  1
  Ni  Ni60  1  -0.00000000  -0.00000000  0.50000000  1
  Ni  Ni61  1  0.25735497  0.47019656  0.59734050  1
  Ni  Ni62  1  0.43191800  0.93191800  0.75000000  1
  Ni  Ni63  1  0.86371178  0.33707505  0.96994604  1
  Ni  Ni64  1  0.66292495  0.13628822  0.03005396  1
  Ni  Ni65  1  0.26355205  0.26355205  0.21246640  1
  Ni  Ni66  1  0.77164117  0.00294007  0.38310435  1
  Ni  Ni67  1  0.13628822  0.66292495  0.03005396  1
  B  B68  1  0.79737561  0.09533855  0.55101280  1
  B  B69  1  0.86554460  0.13445540  -0.00000000  1
  B  B70  1  0.45075860  0.04888880  0.09905145  1
  B  B71  1  0.87843728  0.62030318  0.25539199  1
  B  B72  1  0.62156272  0.87969682  0.75539199  1
  B  B73  1  0.37969682  0.12156272  0.74460801  1
  B  B74  1  0.37843728  0.12030318  0.24460801  1
  B  B75  1  0.04888880  0.45075860  0.09905145  1
  B  B76  1  0.90466145  0.20262439  0.44898720  1
  B  B77  1  0.54470024  0.54470024  0.32698906  1
  B  B78  1  0.13445540  0.86554460  -0.00000000  1
  B  B79  1  0.45111120  0.04924140  0.59905145  1
  B  B80  1  0.63445540  0.36554460  0.50000000  1
  B  B81  1  0.12030318  0.37843728  0.24460801  1
  B  B82  1  0.55797091  0.55797091  0.80091684  1
  B  B83  1  0.95075860  0.54888880  0.40094855  1
  B  B84  1  0.40466145  0.70262439  0.05101280  1
  B  B85  1  0.12156272  0.37969682  0.74460801  1
  B  B86  1  0.54924140  0.95111120  0.90094855  1
  B  B87  1  0.44202909  0.44202909  0.19908316  1
  B  B88  1  0.70262439  0.40466145  0.05101280  1
  B  B89  1  0.95111120  0.54924140  0.90094855  1
  B  B90  1  0.62030318  0.87843728  0.25539199  1
  B  B91  1  0.59533855  0.29737561  0.94898720  1
  B  B92  1  0.05797091  0.05797091  0.69908316  1
  B  B93  1  0.45529976  0.45529976  0.67301094  1
  B  B94  1  0.20262439  0.90466145  0.44898720  1
  B  B95  1  0.95529976  0.95529976  0.82698906  1
  B  B96  1  0.36554460  0.63445540  0.50000000  1
  B  B97  1  0.04924140  0.45111120  0.59905145  1
  B  B98  1  0.94202909  0.94202909  0.30091684  1
  B  B99  1  0.29737561  0.59533855  0.94898720  1
  B  B100  1  0.87969682  0.62156272  0.75539199  1
  B  B101  1  0.54888880  0.95075860  0.40094855  1
  B  B102  1  0.04470024  0.04470024  0.17301094  1
  B  B103  1  0.09533855  0.79737561  0.55101280  1
