# generated using pymatgen
data_Ca14MnBi11
_symmetry_space_group_name_H-M   'P 1'
_cell_length_a   16.60538132
_cell_length_b   16.60538131
_cell_length_c   16.60538139
_cell_angle_alpha   94.26683320
_cell_angle_beta   117.56788500
_cell_angle_gamma   117.56788828
_symmetry_Int_Tables_number   1
_chemical_formula_structural   Ca14MnBi11
_chemical_formula_sum   'Ca56 Mn4 Bi44'
_cell_volume   3346.64378277
_cell_formula_units_Z   4
loop_
 _symmetry_equiv_pos_site_id
 _symmetry_equiv_pos_as_xyz
  1  'x, y, z'
loop_
 _atom_site_type_symbol
 _atom_site_label
 _atom_site_symmetry_multiplicity
 _atom_site_fract_x
 _atom_site_fract_y
 _atom_site_fract_z
 _atom_site_occupancy
  Ca  Ca0  1  0.41207917  0.16400002  0.43269047  1
  Ca  Ca1  1  0.14650210  0.62630743  0.52486867  1
  Ca  Ca2  1  0.26869045  0.43269047  0.52061130  1
  Ca  Ca3  1  0.53270864  0.90189289  0.28653787  1
  Ca  Ca4  1  0.23130955  0.75192085  0.16400002  1
  Ca  Ca5  1  0.85349790  0.97980533  0.37836657  1
  Ca  Ca6  1  0.10143876  0.47513133  0.12163343  1
  Ca  Ca7  1  0.08792083  0.06730953  0.33599998  1
  Ca  Ca8  1  0.35405050  0.25000000  0.60405050  1
  Ca  Ca9  1  0.60143876  0.62163343  0.97513133  1
  Ca  Ca10  1  0.85405050  0.10405050  0.75000000  1
  Ca  Ca11  1  0.85349790  0.37369257  0.47513133  1
  Ca  Ca12  1  0.41207917  0.74807915  0.97938870  1
  Ca  Ca13  1  0.61535502  0.40189289  0.86918425  1
  Ca  Ca14  1  0.14594950  0.75000000  0.89594950  1
  Ca  Ca15  1  0.53270864  0.13081575  0.24617077  1
  Ca  Ca16  1  0.23130955  0.97938870  0.06730953  1
  Ca  Ca17  1  0.89856124  0.52486867  0.87836657  1
  Ca  Ca18  1  0.76869045  0.24807915  0.83599998  1
  Ca  Ca19  1  0.14650210  0.02019467  0.62163343  1
  Ca  Ca20  1  0.39856124  0.37836657  0.02486867  1
  Ca  Ca21  1  0.35349790  0.87836657  0.47980533  1
  Ca  Ca22  1  0.73130955  0.56730953  0.47938870  1
  Ca  Ca23  1  0.03270864  0.74617077  0.63081575  1
  Ca  Ca24  1  0.96729136  0.25382923  0.36918425  1
  Ca  Ca25  1  0.26869045  0.33599998  0.74807915  1
  Ca  Ca26  1  0.10143876  0.12630743  0.97980533  1
  Ca  Ca27  1  0.89856124  0.87369257  0.02019467  1
  Ca  Ca28  1  0.58792083  0.25192085  0.02061130  1
  Ca  Ca29  1  0.91207917  0.47938870  0.24807915  1
  Ca  Ca30  1  0.46729136  0.86918425  0.75382923  1
  Ca  Ca31  1  0.11535502  0.24617077  0.21346213  1
  Ca  Ca32  1  0.73130955  0.66400002  0.25192085  1
  Ca  Ca33  1  0.64594950  0.75000000  0.39594950  1
  Ca  Ca34  1  0.91207917  0.93269047  0.66400002  1
  Ca  Ca35  1  0.35405050  0.60405050  0.75000000  1
  Ca  Ca36  1  0.35349790  0.97513133  0.87369257  1
  Ca  Ca37  1  0.38464498  0.59810711  0.13081575  1
  Ca  Ca38  1  0.38464498  0.28653787  0.25382923  1
  Ca  Ca39  1  0.60143876  0.47980533  0.62630743  1
  Ca  Ca40  1  0.88464498  0.63081575  0.09810711  1
  Ca  Ca41  1  0.46729136  0.09810711  0.71346213  1
  Ca  Ca42  1  0.64594950  0.39594950  0.25000000  1
  Ca  Ca43  1  0.39856124  0.52019467  0.37369257  1
  Ca  Ca44  1  0.11535502  0.36918425  0.90189289  1
  Ca  Ca45  1  0.61535502  0.71346213  0.74617077  1
  Ca  Ca46  1  0.58792083  0.83599998  0.56730953  1
  Ca  Ca47  1  0.14594950  0.89594950  0.25000000  1
  Ca  Ca48  1  0.08792083  0.52061130  0.75192085  1
  Ca  Ca49  1  0.85405050  0.25000000  0.10405050  1
  Ca  Ca50  1  0.64650210  0.12163343  0.52019467  1
  Ca  Ca51  1  0.03270864  0.78653787  0.40189289  1
  Ca  Ca52  1  0.88464498  0.75382923  0.78653787  1
  Ca  Ca53  1  0.64650210  0.02486867  0.12630743  1
  Ca  Ca54  1  0.76869045  0.02061130  0.93269047  1
  Ca  Ca55  1  0.96729136  0.21346213  0.59810711  1
  Mn  Mn56  1  0.75000000  0.87500000  0.12500000  1
  Mn  Mn57  1  0.75000000  0.37500000  0.62500000  1
  Mn  Mn58  1  0.25000000  0.62500000  0.37500000  1
  Mn  Mn59  1  0.25000000  0.12500000  0.87500000  1
  Bi  Bi60  1  0.61565047  0.31773127  0.42213229  1
  Bi  Bi61  1  0.25000000  0.01249062  0.48750938  1
  Bi  Bi62  1  0.60440102  0.80648182  0.92213229  1
  Bi  Bi63  1  0.11565047  0.69351818  0.29791920  1
  Bi  Bi64  1  0.65756725  0.47981065  0.08319088  1
  Bi  Bi65  1  0.10440102  0.42213229  0.30648182  1
  Bi  Bi66  1  0.75000000  0.26249062  0.23750938  1
  Bi  Bi67  1  0.34243275  0.52018935  0.91680912  1
  Bi  Bi68  1  0.89661977  0.82224339  0.47981065  1
  Bi  Bi69  1  0.75000000  0.12500000  0.37500000  1
  Bi  Bi70  1  0.60338023  0.08319088  0.92562362  1
  Bi  Bi71  1  0.38434953  0.68226873  0.57786771  1
  Bi  Bi72  1  0.88434953  0.07786771  0.18226873  1
  Bi  Bi73  1  0.97501877  0.23750938  0.98750938  1
  Bi  Bi74  1  0.60338023  0.02018935  0.67775661  1
  Bi  Bi75  1  0.38434953  0.20208080  0.80648182  1
  Bi  Bi76  1  0.61565047  0.79791920  0.19351818  1
  Bi  Bi77  1  0.52498123  0.51249062  0.26249062  1
  Bi  Bi78  1  0.39559898  0.70208080  0.31773127  1
  Bi  Bi79  1  0.75000000  0.98750938  0.51249062  1
  Bi  Bi80  1  0.25000000  0.87500000  0.62500000  1
  Bi  Bi81  1  0.89559898  0.81773127  0.20208080  1
  Bi  Bi82  1  0.89559898  0.57786771  0.69351818  1
  Bi  Bi83  1  0.65756725  0.67775661  0.57437638  1
  Bi  Bi84  1  0.10440102  0.18226873  0.79791920  1
  Bi  Bi85  1  0.10338023  0.42562362  0.58319088  1
  Bi  Bi86  1  0.10338023  0.17775661  0.52018935  1
  Bi  Bi87  1  0.84243275  0.41680912  0.02018935  1
  Bi  Bi88  1  0.84243275  0.92562362  0.82224339  1
  Bi  Bi89  1  0.11565047  0.92213229  0.81773127  1
  Bi  Bi90  1  0.75000000  0.62500000  0.87500000  1
  Bi  Bi91  1  0.39661977  0.97981065  0.32224339  1
  Bi  Bi92  1  0.39559898  0.19351818  0.07786771  1
  Bi  Bi93  1  0.15756725  0.58319088  0.97981065  1
  Bi  Bi94  1  0.02498123  0.76249062  0.01249062  1
  Bi  Bi95  1  0.34243275  0.32224339  0.42562362  1
  Bi  Bi96  1  0.25000000  0.37500000  0.12500000  1
  Bi  Bi97  1  0.89661977  0.57437638  0.41680912  1
  Bi  Bi98  1  0.25000000  0.73750938  0.76249062  1
  Bi  Bi99  1  0.60440102  0.29791920  0.68226873  1
  Bi  Bi100  1  0.88434953  0.30648182  0.70208080  1
  Bi  Bi101  1  0.15756725  0.07437638  0.17775661  1
  Bi  Bi102  1  0.39661977  0.91680912  0.07437638  1
  Bi  Bi103  1  0.47501877  0.48750938  0.73750938  1
