# generated using pymatgen
data_Ga2Te2Br7
_symmetry_space_group_name_H-M   'P 1'
_cell_length_a   10.47317267
_cell_length_b   11.73883845
_cell_length_c   14.37640951
_cell_angle_alpha   90.00000000
_cell_angle_beta   98.86593751
_cell_angle_gamma   90.00000000
_symmetry_Int_Tables_number   1
_chemical_formula_structural   Ga2Te2Br7
_chemical_formula_sum   'Ga8 Te8 Br28'
_cell_volume   1746.35881260
_cell_formula_units_Z   4
loop_
 _symmetry_equiv_pos_site_id
 _symmetry_equiv_pos_as_xyz
  1  'x, y, z'
loop_
 _atom_site_type_symbol
 _atom_site_label
 _atom_site_symmetry_multiplicity
 _atom_site_fract_x
 _atom_site_fract_y
 _atom_site_fract_z
 _atom_site_occupancy
  Ga  Ga0  1  0.09448088  0.68312333  0.68052908  1
  Ga  Ga1  1  0.71639623  0.89168299  0.16415250  1
  Ga  Ga2  1  0.90551912  0.18312333  0.81947092  1
  Ga  Ga3  1  0.28360377  0.39168299  0.33584750  1
  Ga  Ga4  1  0.28360377  0.10831701  0.83584750  1
  Ga  Ga5  1  0.71639623  0.60831701  0.66415250  1
  Ga  Ga6  1  0.90551912  0.31687667  0.31947092  1
  Ga  Ga7  1  0.09448088  0.81687667  0.18052908  1
  Te  Te8  1  0.58042545  0.46371848  0.12671290  1
  Te  Te9  1  0.35050168  0.55748158  0.04849398  1
  Te  Te10  1  0.41957455  0.53628152  0.87328710  1
  Te  Te11  1  0.64949832  0.44251842  0.95150602  1
  Te  Te12  1  0.35050168  0.94251842  0.54849398  1
  Te  Te13  1  0.41957455  0.96371848  0.37328710  1
  Te  Te14  1  0.64949832  0.05748158  0.45150602  1
  Te  Te15  1  0.58042545  0.03628152  0.62671290  1
  Br  Br16  1  0.61256575  0.82968068  0.01944418  1
  Br  Br17  1  0.01382776  0.85439189  0.61551095  1
  Br  Br18  1  0.38064058  0.93951048  0.78455390  1
  Br  Br19  1  0.27580571  0.88149632  0.12028913  1
  Br  Br20  1  0.98617224  0.35439189  0.88448905  1
  Br  Br21  1  0.61935942  0.06048952  0.21544610  1
  Br  Br22  1  0.72419429  0.38149632  0.37971087  1
  Br  Br23  1  0.07032246  0.46751054  0.36685037  1
  Br  Br24  1  0.92967754  0.96751054  0.13314963  1
  Br  Br25  1  0.74521381  0.75801702  0.28405213  1
  Br  Br26  1  0.61935942  0.43951048  0.71544610  1
  Br  Br27  1  0.25478619  0.24198298  0.71594787  1
  Br  Br28  1  0.86676531  0.32276735  0.15248020  1
  Br  Br29  1  0.74521381  0.74198298  0.78405213  1
  Br  Br30  1  0.25478619  0.25801702  0.21594787  1
  Br  Br31  1  0.13323469  0.67723265  0.84751980  1
  Br  Br32  1  0.13323469  0.82276735  0.34751980  1
  Br  Br33  1  0.38064058  0.56048952  0.28455390  1
  Br  Br34  1  0.38743425  0.32968068  0.48055582  1
  Br  Br35  1  0.61256575  0.67031932  0.51944418  1
  Br  Br36  1  0.86676531  0.17723265  0.65248020  1
  Br  Br37  1  0.01382776  0.64560811  0.11551095  1
  Br  Br38  1  0.38743425  0.17031932  0.98055582  1
  Br  Br39  1  0.07032246  0.03248946  0.86685037  1
  Br  Br40  1  0.27580571  0.61850368  0.62028913  1
  Br  Br41  1  0.72419429  0.11850368  0.87971087  1
  Br  Br42  1  0.98617224  0.14560811  0.38448905  1
  Br  Br43  1  0.92967754  0.53248946  0.63314963  1
