# generated using pymatgen
data_Zr3Al3C5
_symmetry_space_group_name_H-M   'P 1'
_cell_length_a   3.36224987
_cell_length_b   3.36224987
_cell_length_c   27.74973749
_cell_angle_alpha   90.00000000
_cell_angle_beta   90.00000000
_cell_angle_gamma   119.99999994
_symmetry_Int_Tables_number   1
_chemical_formula_structural   Zr3Al3C5
_chemical_formula_sum   'Zr6 Al6 C10'
_cell_volume   271.67487851
_cell_formula_units_Z   2
loop_
 _symmetry_equiv_pos_site_id
 _symmetry_equiv_pos_as_xyz
  1  'x, y, z'
loop_
 _atom_site_type_symbol
 _atom_site_label
 _atom_site_symmetry_multiplicity
 _atom_site_fract_x
 _atom_site_fract_y
 _atom_site_fract_z
 _atom_site_occupancy
  Zr  Zr0  1  0.33333300  0.66666700  0.90431637  1
  Zr  Zr1  1  0.66666700  0.33333300  0.09527801  1
  Zr  Zr2  1  0.00000000  0.00000000  -0.00019661  1
  Zr  Zr3  1  0.33333300  0.66666700  0.59527801  1
  Zr  Zr4  1  0.00000000  0.00000000  0.49980339  1
  Zr  Zr5  1  0.66666700  0.33333300  0.40431637  1
  Al  Al6  1  0.00000000  0.00000000  0.24952733  1
  Al  Al7  1  0.66666700  0.33333300  0.82260883  1
  Al  Al8  1  0.33333300  0.66666700  0.17691924  1
  Al  Al9  1  0.33333300  0.66666700  0.32260883  1
  Al  Al10  1  0.66666700  0.33333300  0.67691924  1
  Al  Al11  1  0.00000000  0.00000000  0.74952733  1
  C  C12  1  0.66666700  0.33333300  0.94979762  1
  C  C13  1  0.66666700  0.33333300  0.54985686  1
  C  C14  1  0.00000000  0.00000000  0.34744934  1
  C  C15  1  0.00000000  0.00000000  0.65232712  1
  C  C16  1  0.66666700  0.33333300  0.74976588  1
  C  C17  1  0.33333300  0.66666700  0.04985686  1
  C  C18  1  0.33333300  0.66666700  0.44979762  1
  C  C19  1  0.00000000  0.00000000  0.15232712  1
  C  C20  1  0.33333300  0.66666700  0.24976588  1
  C  C21  1  0.00000000  0.00000000  0.84744934  1
