# generated using pymatgen
data_Sc6Ni16Ge7
_symmetry_space_group_name_H-M   'P 1'
_cell_length_a   8.22426206
_cell_length_b   8.22426216
_cell_length_c   8.22426279
_cell_angle_alpha   60.00000152
_cell_angle_beta   60.00000112
_cell_angle_gamma   60.00000117
_symmetry_Int_Tables_number   1
_chemical_formula_structural   Sc6Ni16Ge7
_chemical_formula_sum   'Sc6 Ni16 Ge7'
_cell_volume   393.34703359
_cell_formula_units_Z   1
loop_
 _symmetry_equiv_pos_site_id
 _symmetry_equiv_pos_as_xyz
  1  'x, y, z'
loop_
 _atom_site_type_symbol
 _atom_site_label
 _atom_site_symmetry_multiplicity
 _atom_site_fract_x
 _atom_site_fract_y
 _atom_site_fract_z
 _atom_site_occupancy
  Sc  Sc0  1  0.79287146  0.79287146  0.20712854  1
  Sc  Sc1  1  0.79287146  0.20712854  0.79287146  1
  Sc  Sc2  1  0.20712854  0.20712854  0.79287146  1
  Sc  Sc3  1  0.20712854  0.79287146  0.20712854  1
  Sc  Sc4  1  0.20712854  0.79287146  0.79287146  1
  Sc  Sc5  1  0.79287146  0.20712854  0.20712854  1
  Ni  Ni6  1  0.61946679  0.14159964  0.61946679  1
  Ni  Ni7  1  0.49278759  0.16907080  0.16907080  1
  Ni  Ni8  1  0.38053321  0.38053321  0.85840036  1
  Ni  Ni9  1  0.83092920  0.83092920  0.50721241  1
  Ni  Ni10  1  0.16907080  0.16907080  0.49278759  1
  Ni  Ni11  1  0.83092920  0.50721241  0.83092920  1
  Ni  Ni12  1  0.16907080  0.49278759  0.16907080  1
  Ni  Ni13  1  0.61946679  0.61946679  0.14159964  1
  Ni  Ni14  1  0.16907080  0.16907080  0.16907080  1
  Ni  Ni15  1  0.38053321  0.85840036  0.38053321  1
  Ni  Ni16  1  0.61946679  0.61946679  0.61946679  1
  Ni  Ni17  1  0.85840036  0.38053321  0.38053321  1
  Ni  Ni18  1  0.38053321  0.38053321  0.38053321  1
  Ni  Ni19  1  0.83092920  0.83092920  0.83092920  1
  Ni  Ni20  1  0.14159964  0.61946679  0.61946679  1
  Ni  Ni21  1  0.50721241  0.83092920  0.83092920  1
  Ge  Ge22  1  0.00000000  0.50000000  0.50000000  1
  Ge  Ge23  1  0.50000000  0.00000000  0.50000000  1
  Ge  Ge24  1  0.50000000  0.50000000  0.50000000  1
  Ge  Ge25  1  0.00000000  0.50000000  0.00000000  1
  Ge  Ge26  1  0.50000000  0.00000000  0.00000000  1
  Ge  Ge27  1  0.50000000  0.50000000  0.00000000  1
  Ge  Ge28  1  0.00000000  0.00000000  0.50000000  1
