# generated using pymatgen
data_La7Os4C9
_symmetry_space_group_name_H-M   'P 1'
_cell_length_a   5.42909002
_cell_length_b   6.60018874
_cell_length_c   11.66975970
_cell_angle_alpha   76.59012001
_cell_angle_beta   76.55417073
_cell_angle_gamma   65.71368377
_symmetry_Int_Tables_number   1
_chemical_formula_structural   La7Os4C9
_chemical_formula_sum   'La7 Os4 C9'
_cell_volume   366.30227635
_cell_formula_units_Z   1
loop_
 _symmetry_equiv_pos_site_id
 _symmetry_equiv_pos_as_xyz
  1  'x, y, z'
loop_
 _atom_site_type_symbol
 _atom_site_label
 _atom_site_symmetry_multiplicity
 _atom_site_fract_x
 _atom_site_fract_y
 _atom_site_fract_z
 _atom_site_occupancy
  La  La0  1  0.37346830  0.41019872  0.84289429  1
  La  La1  1  0.14693751  0.02697394  0.67922138  1
  La  La2  1  0.85306249  0.97302606  0.32077862  1
  La  La3  1  0.13700851  0.34344544  0.38256720  1
  La  La4  1  0.86299149  0.65655456  0.61743280  1
  La  La5  1  0.00000000  0.00000000  0.00000000  1
  La  La6  1  0.62653170  0.58980128  0.15710571  1
  Os  Os7  1  0.35757514  0.14355836  0.14122890  1
  Os  Os8  1  0.56615099  0.29654587  0.57121142  1
  Os  Os9  1  0.43384901  0.70345413  0.42878858  1
  Os  Os10  1  0.64242486  0.85644164  0.85877110  1
  C  C11  1  0.38442728  0.94027153  0.29066021  1
  C  C12  1  0.92192217  0.33578883  0.82022705  1
  C  C13  1  0.39193987  0.60348258  0.61252814  1
  C  C14  1  0.19591777  0.46344193  0.14455533  1
  C  C15  1  0.80408223  0.53655807  0.85544467  1
  C  C16  1  0.50000000  0.00000000  0.00000000  1
  C  C17  1  0.07807783  0.66421117  0.17977295  1
  C  C18  1  0.61557272  0.05972847  0.70933979  1
  C  C19  1  0.60806013  0.39651742  0.38747186  1
