# generated using pymatgen
data_Pr5Tl3
_symmetry_space_group_name_H-M   'P 1'
_cell_length_a   6.36574792
_cell_length_b   9.53091251
_cell_length_c   9.53091237
_cell_angle_alpha   83.52459915
_cell_angle_beta   70.30472236
_cell_angle_gamma   70.30472749
_symmetry_Int_Tables_number   1
_chemical_formula_structural   Pr5Tl3
_chemical_formula_sum   'Pr10 Tl6'
_cell_volume   512.57489863
_cell_formula_units_Z   2
loop_
 _symmetry_equiv_pos_site_id
 _symmetry_equiv_pos_as_xyz
  1  'x, y, z'
loop_
 _atom_site_type_symbol
 _atom_site_label
 _atom_site_symmetry_multiplicity
 _atom_site_fract_x
 _atom_site_fract_y
 _atom_site_fract_z
 _atom_site_occupancy
  Pr  Pr0  1  0.58483270  0.69662013  0.13109561  1
  Pr  Pr1  1  0.41516730  0.30337987  0.86890439  1
  Pr  Pr2  1  0.28309906  0.13126315  0.30495610  1
  Pr  Pr3  1  0.91516730  0.86890439  0.30337987  1
  Pr  Pr4  1  0.78309906  0.30495610  0.13126315  1
  Pr  Pr5  1  0.75000000  0.49814543  0.50185457  1
  Pr  Pr6  1  0.25000000  0.50185457  0.49814543  1
  Pr  Pr7  1  0.08483270  0.13109561  0.69662013  1
  Pr  Pr8  1  0.71690094  0.86873685  0.69504390  1
  Pr  Pr9  1  0.21690094  0.69504390  0.86873685  1
  Tl  Tl10  1  0.34152879  0.82015369  0.49996327  1
  Tl  Tl11  1  0.15847121  0.50003673  0.17984631  1
  Tl  Tl12  1  0.25000000  0.99999717  0.00000283  1
  Tl  Tl13  1  0.84152879  0.49996327  0.82015369  1
  Tl  Tl14  1  0.65847121  0.17984631  0.50003673  1
  Tl  Tl15  1  0.75000000  0.00000283  0.99999717  1
