# generated using pymatgen
data_SmOs2
_symmetry_space_group_name_H-M   'P 1'
_cell_length_a   5.34798753
_cell_length_b   5.34798786
_cell_length_c   9.02846788
_cell_angle_alpha   90.00000000
_cell_angle_beta   90.00000000
_cell_angle_gamma   119.99999801
_symmetry_Int_Tables_number   1
_chemical_formula_structural   SmOs2
_chemical_formula_sum   'Sm4 Os8'
_cell_volume   223.62764820
_cell_formula_units_Z   4
loop_
 _symmetry_equiv_pos_site_id
 _symmetry_equiv_pos_as_xyz
  1  'x, y, z'
loop_
 _atom_site_type_symbol
 _atom_site_label
 _atom_site_symmetry_multiplicity
 _atom_site_fract_x
 _atom_site_fract_y
 _atom_site_fract_z
 _atom_site_occupancy
  Sm  Sm0  1  0.33333300  0.66666700  0.43590552  1
  Sm  Sm1  1  0.66666700  0.33333300  0.56409448  1
  Sm  Sm2  1  0.66666700  0.33333300  0.93590552  1
  Sm  Sm3  1  0.33333300  0.66666700  0.06409448  1
  Os  Os4  1  0.17082130  0.34164261  0.75000000  1
  Os  Os5  1  0.17082130  0.82917870  0.75000000  1
  Os  Os6  1  0.34164261  0.17082130  0.25000000  1
  Os  Os7  1  0.82917870  0.65835739  0.25000000  1
  Os  Os8  1  0.65835739  0.82917870  0.75000000  1
  Os  Os9  1  0.00000000  0.00000000  -0.00000000  1
  Os  Os10  1  0.82917870  0.17082130  0.25000000  1
  Os  Os11  1  0.00000000  0.00000000  0.50000000  1
