# generated using pymatgen
data_Ba2YCr3O8
_symmetry_space_group_name_H-M   'P 1'
_cell_length_a   3.97443454
_cell_length_b   3.97277668
_cell_length_c   11.80775554
_cell_angle_alpha   90.00262992
_cell_angle_beta   89.93614863
_cell_angle_gamma   89.99932880
_symmetry_Int_Tables_number   1
_chemical_formula_structural   Ba2YCr3O8
_chemical_formula_sum   'Ba2 Y1 Cr3 O8'
_cell_volume   186.43892240
_cell_formula_units_Z   1
loop_
 _symmetry_equiv_pos_site_id
 _symmetry_equiv_pos_as_xyz
  1  'x, y, z'
loop_
 _atom_site_type_symbol
 _atom_site_label
 _atom_site_symmetry_multiplicity
 _atom_site_fract_x
 _atom_site_fract_y
 _atom_site_fract_z
 _atom_site_occupancy
  Ba  Ba0  1  0.49998662  0.49999343  0.16192964  1
  Ba  Ba1  1  0.50002502  0.49999373  0.83805457  1
  Y  Y2  1  0.49999291  0.50000657  0.50000082  1
  Cr  Cr3  1  0.00001070  0.00000294  0.34242960  1
  Cr  Cr4  1  0.00001632  0.99999700  0.99992313  1
  Cr  Cr5  1  0.99997607  0.00000759  0.65759077  1
  O  O6  1  0.99997505  0.50000414  0.38078878  1
  O  O7  1  0.49998992  0.00000941  0.38079678  1
  O  O8  1  0.50001507  0.99999106  0.99998240  1
  O  O9  1  0.00001185  0.99999585  0.18033909  1
  O  O10  1  0.00000987  0.50000590  0.61925193  1
  O  O11  1  0.49999682  0.00000374  0.61924475  1
  O  O12  1  0.99998544  0.99999795  0.81968444  1
  O  O13  1  0.00000934  0.49998869  0.99998330  1
