# generated using pymatgen
data_VH26(C3O)4
_symmetry_space_group_name_H-M   'P 1'
_cell_length_a   9.91026708
_cell_length_b   10.04331781
_cell_length_c   11.65954261
_cell_angle_alpha   90.00000000
_cell_angle_beta   90.00000000
_cell_angle_gamma   59.77910971
_symmetry_Int_Tables_number   1
_chemical_formula_structural   VH26(C3O)4
_chemical_formula_sum   'V2 H52 C24 O8'
_cell_volume   1002.77553928
_cell_formula_units_Z   2
loop_
 _symmetry_equiv_pos_site_id
 _symmetry_equiv_pos_as_xyz
  1  'x, y, z'
loop_
 _atom_site_type_symbol
 _atom_site_label
 _atom_site_symmetry_multiplicity
 _atom_site_fract_x
 _atom_site_fract_y
 _atom_site_fract_z
 _atom_site_occupancy
  V  V0  1  0.73490087  0.99882617  0.14139292  1
  V  V1  1  0.26509913  0.00117383  0.64139292  1
  H  H2  1  0.52666711  0.43508759  0.12816631  1
  H  H3  1  0.96390047  0.56303609  0.12787724  1
  H  H4  1  0.47333289  0.56491241  0.62816631  1
  H  H5  1  0.03609953  0.43696391  0.62787724  1
  H  H6  1  0.54901081  0.41440746  0.34721517  1
  H  H7  1  0.96543895  0.58351600  0.34749765  1
  H  H8  1  0.45098919  0.58559254  0.84721517  1
  H  H9  1  0.03456105  0.41648400  0.84749765  1
  H  H10  1  0.19455389  0.02469694  0.96217106  1
  H  H11  1  0.80544611  0.97530306  0.46217106  1
  H  H12  1  0.47929121  0.30555952  0.42153931  1
  H  H13  1  0.78469328  0.69412180  0.42161038  1
  H  H14  1  0.52070879  0.69444048  0.92153931  1
  H  H15  1  0.21530672  0.30587820  0.92161038  1
  H  H16  1  0.34422071  0.48474804  0.35594660  1
  H  H17  1  0.83043693  0.51560658  0.35593397  1
  H  H18  1  0.65577929  0.51525196  0.85594660  1
  H  H19  1  0.16956307  0.48439342  0.85593397  1
  H  H20  1  0.44397242  0.33852797  0.05229356  1
  H  H21  1  0.78254155  0.66163946  0.05235281  1
  H  H22  1  0.55602758  0.66147203  0.55229356  1
  H  H23  1  0.21745845  0.33836054  0.55235281  1
  H  H24  1  0.35770053  0.17350583  0.16291704  1
  H  H25  1  0.52917585  0.82856376  0.16280649  1
  H  H26  1  0.64229947  0.82649417  0.66291704  1
  H  H27  1  0.47082415  0.17143624  0.66280649  1
  H  H28  1  0.36698491  0.16928179  0.31624595  1
  H  H29  1  0.53382852  0.83254756  0.31623227  1
  H  H30  1  0.63301509  0.83071821  0.81624595  1
  H  H31  1  0.46617148  0.16745244  0.81623227  1
  H  H32  1  0.94493995  0.14310809  0.84227116  1
  H  H33  1  0.08563468  0.85168382  0.83914546  1
  H  H34  1  0.05506005  0.85689191  0.34227116  1
  H  H35  1  0.91436532  0.14831618  0.33914546  1
  H  H36  1  0.77372521  0.14928736  0.89728914  1
  H  H37  1  0.91740478  0.85239757  0.89541885  1
  H  H38  1  0.22627479  0.85071264  0.39728914  1
  H  H39  1  0.08259522  0.14760243  0.39541885  1
  H  H40  1  0.22920729  0.34067416  0.24358627  1
  H  H41  1  0.56955824  0.66163812  0.24339611  1
  H  H42  1  0.77079271  0.65932584  0.74358627  1
  H  H43  1  0.43044176  0.33836188  0.74339611  1
  H  H44  1  0.32233415  0.50407380  0.13752425  1
  H  H45  1  0.82806801  0.49649770  0.13754814  1
  H  H46  1  0.67766585  0.49592620  0.63752425  1
  H  H47  1  0.17193199  0.50350230  0.63754814  1
  H  H48  1  0.85880263  0.24549603  0.97161999  1
  H  H49  1  0.10229096  0.74726477  0.96712697  1
  H  H50  1  0.14119737  0.75450397  0.47161999  1
  H  H51  1  0.89770904  0.25273523  0.46712697  1
  H  H52  1  0.20389173  0.91409716  0.09511627  1
  H  H53  1  0.79610827  0.08590284  0.59511627  1
  C  C54  1  0.13756115  0.98690110  0.02329155  1
  C  C55  1  0.86243885  0.01309890  0.52329155  1
  C  C56  1  0.88409788  0.14327332  0.92101105  1
  C  C57  1  0.02534473  0.85207557  0.91825665  1
  C  C58  1  0.11590212  0.85672668  0.42101105  1
  C  C59  1  0.97465527  0.14792443  0.41825665  1
  C  C60  1  0.34828189  0.24069914  0.23989575  1
  C  C61  1  0.58759535  0.76104820  0.23984134  1
  C  C62  1  0.65171811  0.75930086  0.73989575  1
  C  C63  1  0.41240465  0.23895180  0.73984134  1
  C  C64  1  0.45959221  0.38047434  0.34729983  1
  C  C65  1  0.84099280  0.61897024  0.34737355  1
  C  C66  1  0.54040779  0.61952566  0.84729983  1
  C  C67  1  0.15900720  0.38102976  0.84737355  1
  C  C68  1  0.98768567  0.99593254  0.98959177  1
  C  C69  1  0.01231433  0.00406746  0.48959177  1
  C  C70  1  0.43825049  0.39984533  0.13177622  1
  C  C71  1  0.83916052  0.59983708  0.13175902  1
  C  C72  1  0.56174951  0.60015467  0.63177622  1
  C  C73  1  0.16083948  0.40016292  0.63175902  1
  C  C74  1  0.46632414  0.29647146  0.23601556  1
  C  C75  1  0.76293467  0.70351741  0.23606130  1
  C  C76  1  0.53367586  0.70352854  0.73601556  1
  C  C77  1  0.23706533  0.29648259  0.73606130  1
  O  O78  1  0.62297903  0.16577006  0.22935458  1
  O  O79  1  0.78827821  0.83299899  0.22970903  1
  O  O80  1  0.37702097  0.83422994  0.72935458  1
  O  O81  1  0.21172179  0.16700101  0.72970903  1
  O  O82  1  0.90906279  0.99613216  0.09448637  1
  O  O83  1  0.09093721  0.00386784  0.59448637  1
  O  O84  1  0.63221088  0.00054032  0.03160509  1
  O  O85  1  0.36778912  0.99945968  0.53160509  1
