# generated using pymatgen
data_Cs2Zr7CI18
_symmetry_space_group_name_H-M   'P 1'
_cell_length_a   11.87162467
_cell_length_b   11.87162431
_cell_length_c   11.87162462
_cell_angle_alpha   55.65416120
_cell_angle_beta   55.65416241
_cell_angle_gamma   55.65416036
_symmetry_Int_Tables_number   1
_chemical_formula_structural   Cs2Zr7CI18
_chemical_formula_sum   'Cs2 Zr7 C1 I18'
_cell_volume   1063.78726807
_cell_formula_units_Z   1
loop_
 _symmetry_equiv_pos_site_id
 _symmetry_equiv_pos_as_xyz
  1  'x, y, z'
loop_
 _atom_site_type_symbol
 _atom_site_label
 _atom_site_symmetry_multiplicity
 _atom_site_fract_x
 _atom_site_fract_y
 _atom_site_fract_z
 _atom_site_occupancy
  Cs  Cs0  1  0.22426089  0.22426089  0.22426089  1
  Cs  Cs1  1  0.77573911  0.77573911  0.77573911  1
  Zr  Zr2  1  0.08846622  0.18598795  0.85654971  1
  Zr  Zr3  1  0.91153378  0.81401205  0.14345029  1
  Zr  Zr4  1  0.81401205  0.14345029  0.91153378  1
  Zr  Zr5  1  0.14345029  0.91153378  0.81401205  1
  Zr  Zr6  1  0.18598795  0.85654971  0.08846622  1
  Zr  Zr7  1  0.85654971  0.08846622  0.18598795  1
  Zr  Zr8  1  0.50000000  0.50000000  0.50000000  1
  C  C9  1  0.00000000  0.00000000  0.00000000  1
  I  I10  1  0.52891937  0.35552793  0.78186009  1
  I  I11  1  0.47108063  0.64447207  0.21813991  1
  I  I12  1  0.94558723  0.06745438  0.65666442  1
  I  I13  1  0.05441277  0.93254562  0.34333558  1
  I  I14  1  0.65666442  0.94558723  0.06745438  1
  I  I15  1  0.12364915  0.58799447  0.28744326  1
  I  I16  1  0.21813991  0.47108063  0.64447207  1
  I  I17  1  0.71255674  0.87635085  0.41200553  1
  I  I18  1  0.87635085  0.41200553  0.71255674  1
  I  I19  1  0.41200553  0.71255674  0.87635085  1
  I  I20  1  0.93254562  0.34333558  0.05441277  1
  I  I21  1  0.28744326  0.12364915  0.58799447  1
  I  I22  1  0.58799447  0.28744326  0.12364915  1
  I  I23  1  0.34333558  0.05441277  0.93254562  1
  I  I24  1  0.35552793  0.78186009  0.52891937  1
  I  I25  1  0.78186009  0.52891937  0.35552793  1
  I  I26  1  0.64447207  0.21813991  0.47108063  1
  I  I27  1  0.06745438  0.65666442  0.94558723  1
