# generated using pymatgen
data_Cs2GeO3
_symmetry_space_group_name_H-M   'P 1'
_cell_length_a   7.06088203
_cell_length_b   14.35698860
_cell_length_c   16.98209249
_cell_angle_alpha   90.00000000
_cell_angle_beta   95.63008630
_cell_angle_gamma   90.00000000
_symmetry_Int_Tables_number   1
_chemical_formula_structural   Cs2GeO3
_chemical_formula_sum   'Cs24 Ge12 O36'
_cell_volume   1713.22110593
_cell_formula_units_Z   12
loop_
 _symmetry_equiv_pos_site_id
 _symmetry_equiv_pos_as_xyz
  1  'x, y, z'
loop_
 _atom_site_type_symbol
 _atom_site_label
 _atom_site_symmetry_multiplicity
 _atom_site_fract_x
 _atom_site_fract_y
 _atom_site_fract_z
 _atom_site_occupancy
  Cs  Cs0  1  0.74652695  0.08701404  0.46942827  1
  Cs  Cs1  1  0.06614914  0.49107917  0.71970302  1
  Cs  Cs2  1  0.68149819  0.69559172  0.80552002  1
  Cs  Cs3  1  0.75732189  0.88068890  0.63687306  1
  Cs  Cs4  1  0.56614914  0.00892083  0.21970302  1
  Cs  Cs5  1  0.25732189  0.61931110  0.13687306  1
  Cs  Cs6  1  0.93385086  0.50892083  0.28029698  1
  Cs  Cs7  1  0.74267811  0.38068890  0.86312694  1
  Cs  Cs8  1  0.31850181  0.30440828  0.19447998  1
  Cs  Cs9  1  0.24267811  0.11931110  0.36312694  1
  Cs  Cs10  1  0.75347305  0.58701404  0.03057173  1
  Cs  Cs11  1  0.58303248  0.61104060  0.58463324  1
  Cs  Cs12  1  0.24652695  0.41298596  0.96942827  1
  Cs  Cs13  1  0.95013629  0.34847191  0.50742590  1
  Cs  Cs14  1  0.04986371  0.65152809  0.49257410  1
  Cs  Cs15  1  0.91696752  0.11104060  0.91536676  1
  Cs  Cs16  1  0.81850181  0.19559172  0.69447998  1
  Cs  Cs17  1  0.08303248  0.88895940  0.08463324  1
  Cs  Cs18  1  0.18149819  0.80440828  0.30552002  1
  Cs  Cs19  1  0.25347305  0.91298596  0.53057173  1
  Cs  Cs20  1  0.54986371  0.84847191  0.99257410  1
  Cs  Cs21  1  0.41696752  0.38895940  0.41536676  1
  Cs  Cs22  1  0.45013629  0.15152809  0.00742590  1
  Cs  Cs23  1  0.43385086  0.99107917  0.78029698  1
  Ge  Ge24  1  0.67645874  0.75334578  0.21799778  1
  Ge  Ge25  1  0.16955972  0.65339993  0.89737816  1
  Ge  Ge26  1  0.83044028  0.34660007  0.10262184  1
  Ge  Ge27  1  0.66955972  0.84660007  0.39737816  1
  Ge  Ge28  1  0.33044028  0.15339993  0.60262184  1
  Ge  Ge29  1  0.03273872  0.87405443  0.86600420  1
  Ge  Ge30  1  0.46726128  0.37405443  0.63399580  1
  Ge  Ge31  1  0.82354126  0.25334578  0.28200222  1
  Ge  Ge32  1  0.96726128  0.12594557  0.13399580  1
  Ge  Ge33  1  0.32354126  0.24665422  0.78200222  1
  Ge  Ge34  1  0.53273872  0.62594557  0.36600420  1
  Ge  Ge35  1  0.17645874  0.74665422  0.71799778  1
  O  O36  1  0.69724939  0.55047298  0.41661136  1
  O  O37  1  0.86646826  0.86322110  0.46641331  1
  O  O38  1  0.37260058  0.77300780  0.66670353  1
  O  O39  1  0.19724939  0.94952702  0.91661136  1
  O  O40  1  0.99660515  0.56529021  0.88997245  1
  O  O41  1  0.26233502  0.67070984  0.80098323  1
  O  O42  1  0.70581337  0.40818366  0.64235960  1
  O  O43  1  0.09938386  0.85404758  0.76527506  1
  O  O44  1  0.59938386  0.64595242  0.26527506  1
  O  O45  1  0.36646826  0.63677890  0.96641331  1
  O  O46  1  0.90061614  0.14595242  0.23472494  1
  O  O47  1  0.50339485  0.06529021  0.61002755  1
  O  O48  1  0.20581337  0.09181634  0.14235960  1
  O  O49  1  0.63353174  0.36322110  0.03358669  1
  O  O50  1  0.49660515  0.93470979  0.38997245  1
  O  O51  1  0.95672053  0.23856737  0.08154828  1
  O  O52  1  0.52488627  0.19794209  0.83516340  1
  O  O53  1  0.13353174  0.13677890  0.53358669  1
  O  O54  1  0.29418663  0.59181634  0.35764040  1
  O  O55  1  0.62739942  0.22699220  0.33329647  1
  O  O56  1  0.40061614  0.35404758  0.73472494  1
  O  O57  1  0.12739942  0.27300780  0.83329647  1
  O  O58  1  0.97511373  0.69794209  0.66483660  1
  O  O59  1  0.87260058  0.72699220  0.16670353  1
  O  O60  1  0.02488627  0.30205791  0.33516340  1
  O  O61  1  0.79418663  0.90818366  0.85764040  1
  O  O62  1  0.54327947  0.73856737  0.41845172  1
  O  O63  1  0.30275061  0.44952702  0.58338864  1
  O  O64  1  0.47511373  0.80205791  0.16483660  1
  O  O65  1  0.45672053  0.26143263  0.58154828  1
  O  O66  1  0.00339485  0.43470979  0.11002755  1
  O  O67  1  0.04327947  0.76143263  0.91845172  1
  O  O68  1  0.23766498  0.17070984  0.69901677  1
  O  O69  1  0.73766498  0.32929016  0.19901677  1
  O  O70  1  0.80275061  0.05047298  0.08338864  1
  O  O71  1  0.76233502  0.82929016  0.30098323  1
