# generated using pymatgen
data_V6Ga5
_symmetry_space_group_name_H-M   'P 1'
_cell_length_a   5.12336716
_cell_length_b   8.48809326
_cell_length_c   8.48809326
_cell_angle_alpha   119.98749941
_cell_angle_beta   90.00000000
_cell_angle_gamma   90.00000000
_symmetry_Int_Tables_number   1
_chemical_formula_structural   V6Ga5
_chemical_formula_sum   'V12 Ga10'
_cell_volume   319.71358360
_cell_formula_units_Z   2
loop_
 _symmetry_equiv_pos_site_id
 _symmetry_equiv_pos_as_xyz
  1  'x, y, z'
loop_
 _atom_site_type_symbol
 _atom_site_label
 _atom_site_symmetry_multiplicity
 _atom_site_fract_x
 _atom_site_fract_y
 _atom_site_fract_z
 _atom_site_occupancy
  V  V0  1  0.50000000  0.50000000  0.00000000  1
  V  V1  1  0.50000000  0.50000000  0.50000000  1
  V  V2  1  0.50000000  -0.00000000  0.50000000  1
  V  V3  1  0.00000000  0.50000000  0.00000000  1
  V  V4  1  -0.00000000  0.50000000  0.50000000  1
  V  V5  1  -0.00000000  -0.00000000  0.50000000  1
  V  V6  1  0.75000000  0.84335003  0.68661828  1
  V  V7  1  0.75000000  0.84327835  0.15672165  1
  V  V8  1  0.75000000  0.31338172  0.15664997  1
  V  V9  1  0.25000000  0.15664997  0.31338172  1
  V  V10  1  0.25000000  0.15672165  0.84327835  1
  V  V11  1  0.25000000  0.68661828  0.84335003  1
  Ga  Ga12  1  0.50000000  -0.00000000  0.00000000  1
  Ga  Ga13  1  -0.00000000  -0.00000000  0.00000000  1
  Ga  Ga14  1  0.75000000  0.66663996  0.33336004  1
  Ga  Ga15  1  0.25000000  0.33336004  0.66663996  1
  Ga  Ga16  1  0.75000000  0.20409123  0.40835842  1
  Ga  Ga17  1  0.75000000  0.20419958  0.79580042  1
  Ga  Ga18  1  0.75000000  0.59164158  0.79590877  1
  Ga  Ga19  1  0.25000000  0.79590877  0.59164158  1
  Ga  Ga20  1  0.25000000  0.79580042  0.20419958  1
  Ga  Ga21  1  0.25000000  0.40835842  0.20409123  1
