# generated using pymatgen
data_CeTe3
_symmetry_space_group_name_H-M   'P 1'
_cell_length_a   4.41333049
_cell_length_b   4.41938879
_cell_length_c   13.13356477
_cell_angle_alpha   90.00000000
_cell_angle_beta   99.67255301
_cell_angle_gamma   90.00000000
_symmetry_Int_Tables_number   1
_chemical_formula_structural   CeTe3
_chemical_formula_sum   'Ce2 Te6'
_cell_volume   252.51842734
_cell_formula_units_Z   2
loop_
 _symmetry_equiv_pos_site_id
 _symmetry_equiv_pos_as_xyz
  1  'x, y, z'
loop_
 _atom_site_type_symbol
 _atom_site_label
 _atom_site_symmetry_multiplicity
 _atom_site_fract_x
 _atom_site_fract_y
 _atom_site_fract_z
 _atom_site_occupancy
  Ce  Ce0  1  0.08874318  0.75000000  0.33627537  1
  Ce  Ce1  1  0.75246781  0.25000000  0.66372463  1
  Te  Te2  1  0.99491715  0.25000000  0.14707496  1
  Te  Te3  1  0.49458261  0.75000000  0.14710696  1
  Te  Te4  1  0.62520266  0.25000000  0.40943391  1
  Te  Te5  1  0.84784219  0.75000000  0.85292504  1
  Te  Te6  1  0.34747565  0.25000000  0.85289304  1
  Te  Te7  1  0.21576875  0.75000000  0.59056609  1
