# generated using pymatgen
data_CdHg4(AsI2)2
_symmetry_space_group_name_H-M   'P 1'
_cell_length_a   8.22331293
_cell_length_b   8.31548376
_cell_length_c   13.42812586
_cell_angle_alpha   90.00000000
_cell_angle_beta   90.00000000
_cell_angle_gamma   117.14158058
_symmetry_Int_Tables_number   1
_chemical_formula_structural   CdHg4(AsI2)2
_chemical_formula_sum   'Cd2 Hg8 As4 I8'
_cell_volume   817.11305461
_cell_formula_units_Z   2
loop_
 _symmetry_equiv_pos_site_id
 _symmetry_equiv_pos_as_xyz
  1  'x, y, z'
loop_
 _atom_site_type_symbol
 _atom_site_label
 _atom_site_symmetry_multiplicity
 _atom_site_fract_x
 _atom_site_fract_y
 _atom_site_fract_z
 _atom_site_occupancy
  Cd  Cd0  1  0.99936858  0.00203395  0.83582207  1
  Cd  Cd1  1  0.00063142  0.99796605  0.33582207  1
  Hg  Hg2  1  0.32617268  0.66781737  0.79070121  1
  Hg  Hg3  1  0.97260202  0.57411611  0.54977303  1
  Hg  Hg4  1  0.02739798  0.42588389  0.04977303  1
  Hg  Hg5  1  0.48669942  0.05399426  0.55507612  1
  Hg  Hg6  1  0.67382732  0.33218263  0.29070121  1
  Hg  Hg7  1  0.52527748  0.44772907  0.02154673  1
  Hg  Hg8  1  0.47472252  0.55227093  0.52154673  1
  Hg  Hg9  1  0.51330058  0.94600574  0.05507612  1
  As  As10  1  0.65133674  0.37330800  0.47940803  1
  As  As11  1  0.31020538  0.71773679  0.60262890  1
  As  As12  1  0.34866326  0.62669200  0.97940803  1
  As  As13  1  0.68979462  0.28226321  0.10262890  1
  I  I14  1  0.67604014  0.74394271  0.24260102  1
  I  I15  1  0.29159243  0.91159545  0.31272457  1
  I  I16  1  0.11403963  0.06457386  0.04028601  1
  I  I17  1  0.32395986  0.25605729  0.74260102  1
  I  I18  1  0.88596037  0.93542614  0.54028601  1
  I  I19  1  0.70840757  0.08840455  0.81272457  1
  I  I20  1  0.88041255  0.63012737  0.80816231  1
  I  I21  1  0.11958745  0.36987263  0.30816231  1
