# generated using pymatgen
data_MgTi4O8
_symmetry_space_group_name_H-M   'P 1'
_cell_length_a   2.94708378
_cell_length_b   7.46491938
_cell_length_c   7.59277277
_cell_angle_alpha   79.43398088
_cell_angle_beta   78.80764394
_cell_angle_gamma   78.60661602
_symmetry_Int_Tables_number   1
_chemical_formula_structural   MgTi4O8
_chemical_formula_sum   'Mg1 Ti4 O8'
_cell_volume   158.79592814
_cell_formula_units_Z   1
loop_
 _symmetry_equiv_pos_site_id
 _symmetry_equiv_pos_as_xyz
  1  'x, y, z'
loop_
 _atom_site_type_symbol
 _atom_site_label
 _atom_site_symmetry_multiplicity
 _atom_site_fract_x
 _atom_site_fract_y
 _atom_site_fract_z
 _atom_site_occupancy
  Mg  Mg0  1  0.32900084  0.13646605  0.20567257  1
  Ti  Ti1  1  0.62568998  0.17484940  0.57383024  1
  Ti  Ti2  1  0.14256596  0.51201066  0.20311085  1
  Ti  Ti3  1  0.83735378  0.48520784  0.83996130  1
  Ti  Ti4  1  0.35427987  0.80527836  0.48614362  1
  O  O5  1  0.85544374  0.66668831  0.62254456  1
  O  O6  1  0.45937835  0.32561215  0.75606796  1
  O  O7  1  0.53031534  0.64996787  0.28963834  1
  O  O8  1  0.14388358  0.29984801  0.41229181  1
  O  O9  1  0.17440033  0.00537333  0.64607236  1
  O  O10  1  0.78690255  0.32533278  0.10101880  1
  O  O11  1  0.83965256  0.97835711  0.34251022  1
  O  O12  1  0.21861513  0.61111613  0.95178237  1
