# generated using pymatgen
data_CsEr(TaBr3)6
_symmetry_space_group_name_H-M   'P 1'
_cell_length_a   9.94298607
_cell_length_b   9.94298568
_cell_length_c   18.49250670
_cell_angle_alpha   90.00000000
_cell_angle_beta   90.00000000
_cell_angle_gamma   120.00000134
_symmetry_Int_Tables_number   1
_chemical_formula_structural   CsEr(TaBr3)6
_chemical_formula_sum   'Cs2 Er2 Ta12 Br36'
_cell_volume   1583.28849279
_cell_formula_units_Z   2
loop_
 _symmetry_equiv_pos_site_id
 _symmetry_equiv_pos_as_xyz
  1  'x, y, z'
loop_
 _atom_site_type_symbol
 _atom_site_label
 _atom_site_symmetry_multiplicity
 _atom_site_fract_x
 _atom_site_fract_y
 _atom_site_fract_z
 _atom_site_occupancy
  Cs  Cs0  1  0.66666700  0.33333300  0.25000000  1
  Cs  Cs1  1  0.33333300  0.66666700  0.75000000  1
  Er  Er2  1  0.66666700  0.33333300  0.75000000  1
  Er  Er3  1  0.33333300  0.66666700  0.25000000  1
  Ta  Ta4  1  0.85280915  0.81525356  0.93590135  1
  Ta  Ta5  1  0.81525356  0.85280915  0.43590135  1
  Ta  Ta6  1  0.03755559  0.18474644  0.43590135  1
  Ta  Ta7  1  0.85280915  0.03755559  0.56409865  1
  Ta  Ta8  1  0.96244441  0.81525356  0.56409865  1
  Ta  Ta9  1  0.03755559  0.85280915  0.06409865  1
  Ta  Ta10  1  0.96244441  0.14719085  0.93590135  1
  Ta  Ta11  1  0.18474644  0.14719085  0.56409865  1
  Ta  Ta12  1  0.14719085  0.96244441  0.43590135  1
  Ta  Ta13  1  0.18474644  0.03755559  0.93590135  1
  Ta  Ta14  1  0.81525356  0.96244441  0.06409865  1
  Ta  Ta15  1  0.14719085  0.18474644  0.06409865  1
  Br  Br16  1  0.08780112  0.44805250  0.33772666  1
  Br  Br17  1  0.58564155  0.72514820  0.99907464  1
  Br  Br18  1  0.23033664  0.18444022  0.34053801  1
  Br  Br19  1  0.27485180  0.41435845  0.50092536  1
  Br  Br20  1  0.27485180  0.86049335  0.99907464  1
  Br  Br21  1  0.55194750  0.91219888  0.16227334  1
  Br  Br22  1  0.55194750  0.63974861  0.33772666  1
  Br  Br23  1  0.86049335  0.27485180  0.49907464  1
  Br  Br24  1  0.13950665  0.41435845  0.99907464  1
  Br  Br25  1  0.72514820  0.58564155  0.49907464  1
  Br  Br26  1  0.81555978  0.76966336  0.15946199  1
  Br  Br27  1  0.76966336  0.81555978  0.65946199  1
  Br  Br28  1  0.04589642  0.81555978  0.84053801  1
  Br  Br29  1  0.63974861  0.08780112  0.66227334  1
  Br  Br30  1  0.18444022  0.95410358  0.65946199  1
  Br  Br31  1  0.23033664  0.04589642  0.15946199  1
  Br  Br32  1  0.36025139  0.91219888  0.33772666  1
  Br  Br33  1  0.41435845  0.27485180  0.00092536  1
  Br  Br34  1  0.41435845  0.13950665  0.49907464  1
  Br  Br35  1  0.13950665  0.72514820  0.50092536  1
  Br  Br36  1  0.63974861  0.55194750  0.83772666  1
  Br  Br37  1  0.44805250  0.08780112  0.83772666  1
  Br  Br38  1  0.72514820  0.13950665  0.00092536  1
  Br  Br39  1  0.91219888  0.55194750  0.66227334  1
  Br  Br40  1  0.36025139  0.44805250  0.16227334  1
  Br  Br41  1  0.44805250  0.36025139  0.66227334  1
  Br  Br42  1  0.95410358  0.76966336  0.34053801  1
  Br  Br43  1  0.04589642  0.23033664  0.65946199  1
  Br  Br44  1  0.86049335  0.58564155  0.00092536  1
  Br  Br45  1  0.95410358  0.18444022  0.15946199  1
  Br  Br46  1  0.76966336  0.95410358  0.84053801  1
  Br  Br47  1  0.18444022  0.23033664  0.84053801  1
  Br  Br48  1  0.08780112  0.63974861  0.16227334  1
  Br  Br49  1  0.81555978  0.04589642  0.34053801  1
  Br  Br50  1  0.91219888  0.36025139  0.83772666  1
  Br  Br51  1  0.58564155  0.86049335  0.50092536  1
