# generated using pymatgen
data_Ba3La2C5O15F2
_symmetry_space_group_name_H-M   'P 1'
_cell_length_a   5.16351781
_cell_length_b   11.15740573
_cell_length_c   13.45679944
_cell_angle_alpha   94.66282087
_cell_angle_beta   90.00000000
_cell_angle_gamma   103.37916770
_symmetry_Int_Tables_number   1
_chemical_formula_structural   Ba3La2C5O15F2
_chemical_formula_sum   'Ba6 La4 C10 O30 F4'
_cell_volume   751.58755836
_cell_formula_units_Z   2
loop_
 _symmetry_equiv_pos_site_id
 _symmetry_equiv_pos_as_xyz
  1  'x, y, z'
loop_
 _atom_site_type_symbol
 _atom_site_label
 _atom_site_symmetry_multiplicity
 _atom_site_fract_x
 _atom_site_fract_y
 _atom_site_fract_z
 _atom_site_occupancy
  Ba  Ba0  1  0.31370899  0.62741798  0.90464565  1
  Ba  Ba1  1  0.00000000  0.00000000  0.00000000  1
  Ba  Ba2  1  0.68629101  0.37258202  0.09535435  1
  Ba  Ba3  1  0.80755297  0.61510594  0.39998694  1
  Ba  Ba4  1  0.19244703  0.38489406  0.60001306  1
  Ba  Ba5  1  0.50000000  0.00000000  0.50000000  1
  La  La6  1  0.89439339  0.78878677  0.71184896  1
  La  La7  1  0.10560661  0.21121323  0.28815104  1
  La  La8  1  0.39996412  0.79992824  0.18506310  1
  La  La9  1  0.60003588  0.20007176  0.81493690  1
  C  C10  1  0.45852044  0.91704088  0.80010601  1
  C  C11  1  0.95182473  0.90364947  0.35377408  1
  C  C12  1  0.75362124  0.50724247  0.72483067  1
  C  C13  1  0.34966153  0.69932306  0.53991775  1
  C  C14  1  0.04817527  0.09635053  0.64622592  1
  C  C15  1  0.54147956  0.08295912  0.19989399  1
  C  C16  1  0.65033847  0.30067694  0.46008225  1
  C  C17  1  0.83908617  0.67817234  0.09708222  1
  C  C18  1  0.16091383  0.32182766  0.90291778  1
  C  C19  1  0.24637876  0.49275753  0.27516933  1
  O  O20  1  0.99938345  0.43130469  0.27515543  1
  O  O21  1  0.70558005  0.41116010  0.50342890  1
  O  O22  1  0.00061655  0.56869531  0.72484457  1
  O  O23  1  0.00971190  0.01942381  0.38601327  1
  O  O24  1  0.10278594  0.20557189  0.86867689  1
  O  O25  1  0.29475577  0.02513802  0.18613292  1
  O  O26  1  0.59941697  0.19883394  0.23354526  1
  O  O27  1  0.14033785  0.84451577  0.34110659  1
  O  O28  1  0.73038225  0.02513802  0.18613292  1
  O  O29  1  0.70417792  0.84451577  0.34110659  1
  O  O30  1  0.16091619  0.75723619  0.55891798  1
  O  O31  1  0.56807876  0.56869531  0.72484457  1
  O  O32  1  0.85966215  0.15548423  0.65889341  1
  O  O33  1  0.83908381  0.24276381  0.44108202  1
  O  O34  1  0.89721406  0.79442811  0.13132311  1
  O  O35  1  0.40834507  0.37875713  0.91684359  1
  O  O36  1  0.70524423  0.97486198  0.81386708  1
  O  O37  1  0.59165493  0.62124287  0.08315641  1
  O  O38  1  0.40368000  0.24276381  0.44108202  1
  O  O39  1  0.99028810  0.98057619  0.61398673  1
  O  O40  1  0.69394087  0.38788173  0.72017891  1
  O  O41  1  0.26961775  0.97486198  0.81386708  1
  O  O42  1  0.40058303  0.80116606  0.76645474  1
  O  O43  1  0.29441995  0.58883990  0.49657110  1
  O  O44  1  0.29582208  0.15548423  0.65889341  1
  O  O45  1  0.43192124  0.43130469  0.27515543  1
  O  O46  1  0.02958794  0.62124287  0.08315641  1
  O  O47  1  0.59632000  0.75723619  0.55891798  1
  O  O48  1  0.30605913  0.61211827  0.27982109  1
  O  O49  1  0.97041206  0.37875713  0.91684359  1
  F  F50  1  0.42637427  0.85274854  0.01664266  1
  F  F51  1  0.87466398  0.74932796  0.88543338  1
  F  F52  1  0.57362573  0.14725146  0.98335734  1
  F  F53  1  0.12533602  0.25067204  0.11456662  1
