# generated using pymatgen
data_Ag4Mo2Se3O16
_symmetry_space_group_name_H-M   'P 1'
_cell_length_a   5.78497932
_cell_length_b   16.10779658
_cell_length_c   16.16141470
_cell_angle_alpha   90.00000000
_cell_angle_beta   90.00000000
_cell_angle_gamma   90.00000000
_symmetry_Int_Tables_number   1
_chemical_formula_structural   Ag4Mo2Se3O16
_chemical_formula_sum   'Ag16 Mo8 Se12 O64'
_cell_volume   1505.97347129
_cell_formula_units_Z   4
loop_
 _symmetry_equiv_pos_site_id
 _symmetry_equiv_pos_as_xyz
  1  'x, y, z'
loop_
 _atom_site_type_symbol
 _atom_site_label
 _atom_site_symmetry_multiplicity
 _atom_site_fract_x
 _atom_site_fract_y
 _atom_site_fract_z
 _atom_site_occupancy
  Ag  Ag0  1  0.82164584  0.25000000  0.83973272  1
  Ag  Ag1  1  0.16792981  0.07685113  0.50267849  1
  Ag  Ag2  1  0.83207019  0.07685113  0.00267849  1
  Ag  Ag3  1  0.16792981  0.42314887  0.50267849  1
  Ag  Ag4  1  0.69471845  0.75000000  0.99934761  1
  Ag  Ag5  1  0.69471845  0.25000000  0.50065239  1
  Ag  Ag6  1  0.83207019  0.42314887  0.00267849  1
  Ag  Ag7  1  0.30528155  0.75000000  0.49934761  1
  Ag  Ag8  1  0.82164584  0.75000000  0.66026728  1
  Ag  Ag9  1  0.83207019  0.57685113  0.49732151  1
  Ag  Ag10  1  0.30528155  0.25000000  0.00065239  1
  Ag  Ag11  1  0.16792981  0.57685113  0.99732151  1
  Ag  Ag12  1  0.17835416  0.75000000  0.16026728  1
  Ag  Ag13  1  0.83207019  0.92314887  0.49732151  1
  Ag  Ag14  1  0.16792981  0.92314887  0.99732151  1
  Ag  Ag15  1  0.17835416  0.25000000  0.33973272  1
  Mo  Mo16  1  0.35974407  0.41163775  0.17271987  1
  Mo  Mo17  1  0.64025593  0.91163775  0.82728013  1
  Mo  Mo18  1  0.35974407  0.58836225  0.32728013  1
  Mo  Mo19  1  0.35974407  0.91163775  0.32728013  1
  Mo  Mo20  1  0.64025593  0.58836225  0.82728013  1
  Mo  Mo21  1  0.35974407  0.08836225  0.17271987  1
  Mo  Mo22  1  0.64025593  0.08836225  0.67271987  1
  Mo  Mo23  1  0.64025593  0.41163775  0.67271987  1
  Se  Se24  1  0.24532359  0.75000000  0.86411697  1
  Se  Se25  1  0.75467641  0.25000000  0.13588303  1
  Se  Se26  1  0.24532359  0.25000000  0.63588303  1
  Se  Se27  1  0.33039560  0.60108278  0.63948102  1
  Se  Se28  1  0.66960440  0.89891722  0.13948102  1
  Se  Se29  1  0.33039560  0.10108278  0.86051898  1
  Se  Se30  1  0.66960440  0.39891722  0.36051898  1
  Se  Se31  1  0.75467641  0.75000000  0.36411697  1
  Se  Se32  1  0.66960440  0.60108278  0.13948102  1
  Se  Se33  1  0.66960440  0.10108278  0.36051898  1
  Se  Se34  1  0.33039560  0.39891722  0.86051898  1
  Se  Se35  1  0.33039560  0.89891722  0.63948102  1
  O  O36  1  0.17842641  0.16218946  0.21686881  1
  O  O37  1  0.45306656  0.85064722  0.08890690  1
  O  O38  1  0.56055565  0.66733862  0.39556020  1
  O  O39  1  0.79906389  0.55416775  0.91381151  1
  O  O40  1  0.56055565  0.83266138  0.39556020  1
  O  O41  1  0.20093611  0.44583225  0.08618849  1
  O  O42  1  0.79906389  0.94583225  0.91381151  1
  O  O43  1  0.65185345  0.12178694  0.25813853  1
  O  O44  1  0.34814655  0.37821306  0.75813853  1
  O  O45  1  0.17842641  0.66218946  0.28313119  1
  O  O46  1  0.31052102  0.00000000  0.25000000  1
  O  O47  1  0.45306656  0.64935278  0.08890690  1
  O  O48  1  0.92119498  0.13800460  0.39585539  1
  O  O49  1  0.82157359  0.16218946  0.71686881  1
  O  O50  1  0.07880502  0.86199540  0.60414461  1
  O  O51  1  0.45306656  0.35064722  0.41109310  1
  O  O52  1  0.65897135  0.49717305  0.12347088  1
  O  O53  1  0.92119498  0.86199540  0.10414461  1
  O  O54  1  0.92119498  0.36199540  0.39585539  1
  O  O55  1  0.65185345  0.87821306  0.24186147  1
  O  O56  1  0.43944435  0.33266138  0.60443980  1
  O  O57  1  0.65897135  0.99717305  0.37652912  1
  O  O58  1  0.43944435  0.16733862  0.60443980  1
  O  O59  1  0.34814655  0.87821306  0.74186147  1
  O  O60  1  0.65185345  0.37821306  0.25813853  1
  O  O61  1  0.45306656  0.14935278  0.41109310  1
  O  O62  1  0.20093611  0.94583225  0.41381151  1
  O  O63  1  0.79906389  0.05416775  0.58618849  1
  O  O64  1  0.17842641  0.83781054  0.28313119  1
  O  O65  1  0.31052102  0.50000000  0.25000000  1
  O  O66  1  0.20093611  0.55416775  0.41381151  1
  O  O67  1  0.68947898  0.50000000  0.75000000  1
  O  O68  1  0.54693344  0.85064722  0.58890690  1
  O  O69  1  0.34102865  0.99717305  0.87652912  1
  O  O70  1  0.43944435  0.66733862  0.89556020  1
  O  O71  1  0.65897135  0.50282695  0.37652912  1
  O  O72  1  0.92085375  0.25000000  0.05173434  1
  O  O73  1  0.92085375  0.75000000  0.44826566  1
  O  O74  1  0.82157359  0.66218946  0.78313119  1
  O  O75  1  0.54693344  0.35064722  0.91109310  1
  O  O76  1  0.56055565  0.33266138  0.10443980  1
  O  O77  1  0.07880502  0.13800460  0.89585539  1
  O  O78  1  0.20093611  0.05416775  0.08618849  1
  O  O79  1  0.56055565  0.16733862  0.10443980  1
  O  O80  1  0.07914625  0.25000000  0.55173434  1
  O  O81  1  0.34102865  0.00282695  0.62347088  1
  O  O82  1  0.79906389  0.44583225  0.58618849  1
  O  O83  1  0.82157359  0.83781054  0.78313119  1
  O  O84  1  0.07880502  0.63800460  0.60414461  1
  O  O85  1  0.34102865  0.49717305  0.62347088  1
  O  O86  1  0.07880502  0.36199540  0.89585539  1
  O  O87  1  0.34102865  0.50282695  0.87652912  1
  O  O88  1  0.92119498  0.63800460  0.10414461  1
  O  O89  1  0.54693344  0.64935278  0.58890690  1
  O  O90  1  0.68947898  0.00000000  0.75000000  1
  O  O91  1  0.43944435  0.83266138  0.89556020  1
  O  O92  1  0.34814655  0.12178694  0.75813853  1
  O  O93  1  0.65897135  0.00282695  0.12347088  1
  O  O94  1  0.65185345  0.62178694  0.24186147  1
  O  O95  1  0.07914625  0.75000000  0.94826566  1
  O  O96  1  0.34814655  0.62178694  0.74186147  1
  O  O97  1  0.54693344  0.14935278  0.91109310  1
  O  O98  1  0.82157359  0.33781054  0.71686881  1
  O  O99  1  0.17842641  0.33781054  0.21686881  1
