# generated using pymatgen
data_Ag5Te2Cl
_symmetry_space_group_name_H-M   'P 1'
_cell_length_a   7.79781083
_cell_length_b   14.01648595
_cell_length_c   14.10085187
_cell_angle_alpha   89.96087066
_cell_angle_beta   90.00000000
_cell_angle_gamma   90.00000000
_symmetry_Int_Tables_number   1
_chemical_formula_structural   Ag5Te2Cl
_chemical_formula_sum   'Ag40 Te16 Cl8'
_cell_volume   1541.19322096
_cell_formula_units_Z   8
loop_
 _symmetry_equiv_pos_site_id
 _symmetry_equiv_pos_as_xyz
  1  'x, y, z'
loop_
 _atom_site_type_symbol
 _atom_site_label
 _atom_site_symmetry_multiplicity
 _atom_site_fract_x
 _atom_site_fract_y
 _atom_site_fract_z
 _atom_site_occupancy
  Ag  Ag0  1  0.37116358  0.92859179  0.92122401  1
  Ag  Ag1  1  0.50889995  0.64152871  0.10793794  1
  Ag  Ag2  1  0.62883642  0.07140821  0.07877599  1
  Ag  Ag3  1  0.99128133  0.35849346  0.60786832  1
  Ag  Ag4  1  0.12442503  0.89959419  0.07961448  1
  Ag  Ag5  1  0.12883642  0.42859179  0.42122401  1
  Ag  Ag6  1  0.62442503  0.60040581  0.42038552  1
  Ag  Ag7  1  0.37557497  0.39959419  0.57961448  1
  Ag  Ag8  1  0.12831880  0.07142243  0.42131616  1
  Ag  Ag9  1  0.87557497  0.10040581  0.92038552  1
  Ag  Ag10  1  0.87168120  0.92857757  0.57868384  1
  Ag  Ag11  1  0.06495362  0.74993650  0.57341795  1
  Ag  Ag12  1  0.00871867  0.64150654  0.39213168  1
  Ag  Ag13  1  0.20718890  0.35368579  0.20330933  1
  Ag  Ag14  1  0.56495362  0.75006350  0.92658205  1
  Ag  Ag15  1  0.79140794  0.85457714  0.79650988  1
  Ag  Ag16  1  0.93504638  0.25006350  0.42658205  1
  Ag  Ag17  1  0.43504638  0.24993650  0.07341795  1
  Ag  Ag18  1  0.64256129  0.24984552  0.61950314  1
  Ag  Ag19  1  0.37168120  0.57142243  0.92131616  1
  Ag  Ag20  1  0.14256129  0.25015448  0.88049686  1
  Ag  Ag21  1  0.29281110  0.85368579  0.70330933  1
  Ag  Ag22  1  0.12448309  0.60058676  0.07938111  1
  Ag  Ag23  1  0.50871867  0.85849346  0.10786832  1
  Ag  Ag24  1  0.62831880  0.42857757  0.07868384  1
  Ag  Ag25  1  0.85743871  0.74984552  0.11950314  1
  Ag  Ag26  1  0.79281110  0.64631421  0.79669067  1
  Ag  Ag27  1  0.87551691  0.39941324  0.92061889  1
  Ag  Ag28  1  0.70718890  0.14631421  0.29669067  1
  Ag  Ag29  1  0.35743871  0.75015448  0.38049686  1
  Ag  Ag30  1  0.49110005  0.35847129  0.89206206  1
  Ag  Ag31  1  0.20859206  0.14542286  0.20349012  1
  Ag  Ag32  1  0.99110005  0.14152871  0.60793794  1
  Ag  Ag33  1  0.87116358  0.57140821  0.57877599  1
  Ag  Ag34  1  0.00889995  0.85847129  0.39206206  1
  Ag  Ag35  1  0.62448309  0.89941324  0.42061889  1
  Ag  Ag36  1  0.29140794  0.64542286  0.70349012  1
  Ag  Ag37  1  0.37551691  0.10058676  0.57938111  1
  Ag  Ag38  1  0.49128133  0.14150654  0.89213168  1
  Ag  Ag39  1  0.70859206  0.35457714  0.29650988  1
  Te  Te40  1  0.25446848  0.24997889  0.68978743  1
  Te  Te41  1  0.71142612  0.41058818  0.49065071  1
  Te  Te42  1  0.78529301  0.25008374  0.13242044  1
  Te  Te43  1  0.28857078  0.91060043  0.50948221  1
  Te  Te44  1  0.28529301  0.24991626  0.36757956  1
  Te  Te45  1  0.75446848  0.25002111  0.81021257  1
  Te  Te46  1  0.21142612  0.08941182  0.00934929  1
  Te  Te47  1  0.71470699  0.75008374  0.63242044  1
  Te  Te48  1  0.78857078  0.58939957  0.99051779  1
  Te  Te49  1  0.78857388  0.91058818  0.99065071  1
  Te  Te50  1  0.21142922  0.41060043  0.00948221  1
  Te  Te51  1  0.21470699  0.74991626  0.86757956  1
  Te  Te52  1  0.71142922  0.08939957  0.49051779  1
  Te  Te53  1  0.24553152  0.74997889  0.18978743  1
  Te  Te54  1  0.74553152  0.75002111  0.31021257  1
  Te  Te55  1  0.28857388  0.58941182  0.50934929  1
  Cl  Cl56  1  0.01114712  0.50324940  0.74531019  1
  Cl  Cl57  1  0.48869981  0.49677210  0.24523152  1
  Cl  Cl58  1  0.48885288  0.00324940  0.24531019  1
  Cl  Cl59  1  0.51114712  0.99675060  0.75468981  1
  Cl  Cl60  1  0.51130019  0.50322790  0.75476848  1
  Cl  Cl61  1  0.98885288  0.49675060  0.25468981  1
  Cl  Cl62  1  0.98869981  0.00322790  0.25476848  1
  Cl  Cl63  1  0.01130019  0.99677210  0.74523152  1
