# generated using pymatgen
data_Nd2Ge2O7
_symmetry_space_group_name_H-M   'P 1'
_cell_length_a   7.00172546
_cell_length_b   7.00797707
_cell_length_c   38.14687011
_cell_angle_alpha   90.86732549
_cell_angle_beta   95.27542189
_cell_angle_gamma   91.41316439
_symmetry_Int_Tables_number   1
_chemical_formula_structural   Nd2Ge2O7
_chemical_formula_sum   'Nd24 Ge24 O84'
_cell_volume   1863.00783631
_cell_formula_units_Z   12
loop_
 _symmetry_equiv_pos_site_id
 _symmetry_equiv_pos_as_xyz
  1  'x, y, z'
loop_
 _atom_site_type_symbol
 _atom_site_label
 _atom_site_symmetry_multiplicity
 _atom_site_fract_x
 _atom_site_fract_y
 _atom_site_fract_z
 _atom_site_occupancy
  Nd  Nd0  1  0.36850495  0.37785156  0.04638877  1
  Nd  Nd1  1  0.82137329  0.55657327  0.20605092  1
  Nd  Nd2  1  0.17223767  0.14345527  0.29944922  1
  Nd  Nd3  1  0.66024233  0.88876508  0.04478961  1
  Nd  Nd4  1  0.65978607  0.45549709  0.62937017  1
  Nd  Nd5  1  0.84092198  0.80563627  0.36829343  1
  Nd  Nd6  1  0.88504134  0.38154212  0.54667513  1
  Nd  Nd7  1  0.82776233  0.85654473  0.70055078  1
  Nd  Nd8  1  0.35593582  0.80825007  0.86942351  1
  Nd  Nd9  1  0.15907802  0.19436373  0.63170657  1
  Nd  Nd10  1  0.17862671  0.44342673  0.79394908  1
  Nd  Nd11  1  0.82043555  0.10885369  0.45576740  1
  Nd  Nd12  1  0.67488236  0.40738821  0.29353716  1
  Nd  Nd13  1  0.71190229  0.11958594  0.80284005  1
  Nd  Nd14  1  0.28809771  0.88041406  0.19715995  1
  Nd  Nd15  1  0.17956445  0.89114631  0.54423260  1
  Nd  Nd16  1  0.84637527  0.54918827  0.86919693  1
  Nd  Nd17  1  0.33975767  0.11123492  0.95521039  1
  Nd  Nd18  1  0.34021393  0.54450291  0.37062983  1
  Nd  Nd19  1  0.64406418  0.19174993  0.13057649  1
  Nd  Nd20  1  0.32511764  0.59261179  0.70646284  1
  Nd  Nd21  1  0.15362473  0.45081173  0.13080307  1
  Nd  Nd22  1  0.11495866  0.61845788  0.45332487  1
  Nd  Nd23  1  0.63149505  0.62214844  0.95361123  1
  Ge  Ge24  1  0.33769064  0.34881013  0.21070541  1
  Ge  Ge25  1  0.86684602  0.33376963  0.37248072  1
  Ge  Ge26  1  0.13217891  0.99572969  0.10626396  1
  Ge  Ge27  1  0.64715390  0.99669371  0.60786450  1
  Ge  Ge28  1  0.19025766  0.86723473  0.03052399  1
  Ge  Ge29  1  0.14872130  0.62200817  0.95898686  1
  Ge  Ge30  1  0.64026086  0.62654176  0.45974772  1
  Ge  Ge31  1  0.86782109  0.00427031  0.89373604  1
  Ge  Ge32  1  0.13315398  0.66623037  0.62751928  1
  Ge  Ge33  1  0.62262431  0.66550797  0.12951453  1
  Ge  Ge34  1  0.84331980  0.34952542  0.70937362  1
  Ge  Ge35  1  0.82532023  0.04756890  0.22348682  1
  Ge  Ge36  1  0.66230936  0.65118987  0.78929459  1
  Ge  Ge37  1  0.29594528  0.12715361  0.46820034  1
  Ge  Ge38  1  0.17467977  0.95243110  0.77651318  1
  Ge  Ge39  1  0.35973914  0.37345824  0.54025228  1
  Ge  Ge40  1  0.44544628  0.09684643  0.72063973  1
  Ge  Ge41  1  0.37737569  0.33449203  0.87048547  1
  Ge  Ge42  1  0.80974234  0.13276527  0.96947601  1
  Ge  Ge43  1  0.85127870  0.37799183  0.04101314  1
  Ge  Ge44  1  0.70405472  0.87284639  0.53179966  1
  Ge  Ge45  1  0.35284610  0.00330629  0.39213550  1
  Ge  Ge46  1  0.55455372  0.90315357  0.27936027  1
  Ge  Ge47  1  0.15668020  0.65047458  0.29062638  1
  O  O48  1  0.31753499  0.25170651  0.69322548  1
  O  O49  1  0.97611069  0.48661097  0.60666322  1
  O  O50  1  0.67413162  0.86870334  0.10570866  1
  O  O51  1  0.62787903  0.28595898  0.95520119  1
  O  O52  1  0.46576657  0.08762343  0.43682186  1
  O  O53  1  0.29983564  0.81461849  0.26644952  1
  O  O54  1  0.49036944  0.88264793  0.69977298  1
  O  O55  1  0.17862592  0.48874599  0.85950072  1
  O  O56  1  0.53423343  0.91237657  0.56317814  1
  O  O57  1  0.17706401  0.53302598  0.19446980  1
  O  O58  1  0.23310143  0.17026143  0.23496923  1
  O  O59  1  0.20716996  0.55428289  0.52269571  1
  O  O60  1  0.36986326  0.22374410  0.16958947  1
  O  O61  1  0.55854880  0.72500351  0.17159711  1
  O  O62  1  0.18349600  0.87366904  0.60513341  1
  O  O63  1  0.31263941  0.46706326  0.30705200  1
  O  O64  1  0.02039760  0.90876202  0.06199341  1
  O  O65  1  0.63013674  0.77625590  0.83041053  1
  O  O66  1  0.57206276  0.44734664  0.56470374  1
  O  O67  1  0.68226480  0.22717851  0.06076203  1
  O  O68  1  0.11143973  0.79147276  0.32814624  1
  O  O69  1  0.19493565  0.22644317  0.56181546  1
  O  O70  1  0.02388931  0.51338903  0.39333678  1
  O  O71  1  0.11243833  0.28043422  0.45501125  1
  O  O72  1  0.42793724  0.55265336  0.43529626  1
  O  O73  1  0.97960240  0.09123798  0.93800659  1
  O  O74  1  0.78073942  0.21654875  0.19075495  1
  O  O75  1  0.66997679  0.86472467  0.90584159  1
  O  O76  1  0.44145120  0.27499649  0.82840289  1
  O  O77  1  0.68736059  0.53293674  0.69294800  1
  O  O78  1  0.05121391  0.76923112  0.99270783  1
  O  O79  1  0.53391602  0.51184532  0.89284488  1
  O  O80  1  0.95724541  0.54977885  0.26563417  1
  O  O81  1  0.70363305  0.79990967  0.63349126  1
  O  O82  1  0.81650400  0.12633096  0.39486659  1
  O  O83  1  0.06130649  0.44994051  0.06643874  1
  O  O84  1  0.70139991  0.55911074  0.02284281  1
  O  O85  1  0.50963056  0.11735207  0.30022702  1
  O  O86  1  0.82293599  0.46697402  0.80553020  1
  O  O87  1  0.37212097  0.71404102  0.04479881  1
  O  O88  1  0.93489903  0.28133882  0.33050435  1
  O  O89  1  0.29636695  0.20009033  0.36650874  1
  O  O90  1  0.66647848  0.93717359  0.98239216  1
  O  O91  1  0.88856027  0.20852724  0.67185376  1
  O  O92  1  0.81302062  0.19478872  0.86588428  1
  O  O93  1  0.06510097  0.71866118  0.66949565  1
  O  O94  1  0.54516280  0.45412664  0.23436662  1
  O  O95  1  0.46608398  0.48815468  0.10715512  1
  O  O96  1  0.96333436  0.86476626  0.20782689  1
  O  O97  1  0.84211762  0.07094773  0.51859267  1
  O  O98  1  0.44045445  0.21728468  0.50618512  1
  O  O99  1  0.45483720  0.54587336  0.76563338  1
  O  O100  1  0.94878609  0.23076888  0.00729217  1
  O  O101  1  0.97707309  0.15797280  0.12320774  1
  O  O102  1  0.60249345  0.90923003  0.23341807  1
  O  O103  1  0.84165254  0.14125936  0.59580940  1
  O  O104  1  0.31773520  0.77282149  0.93923797  1
  O  O105  1  0.15788238  0.92905227  0.48140733  1
  O  O106  1  0.48884067  0.15829559  0.62430631  1
  O  O107  1  0.76689857  0.82973857  0.76503077  1
  O  O108  1  0.13041218  0.86419755  0.73345341  1
  O  O109  1  0.32586838  0.13129666  0.89429134  1
  O  O110  1  0.33227636  0.51604255  0.63881844  1
  O  O111  1  0.04275459  0.45022115  0.73436583  1
  O  O112  1  0.51115933  0.84170441  0.37569369  1
  O  O113  1  0.70016436  0.18538151  0.73355048  1
  O  O114  1  0.66772364  0.48395745  0.36118156  1
  O  O115  1  0.33002321  0.13527533  0.09415841  1
  O  O116  1  0.80506435  0.77355683  0.43818454  1
  O  O117  1  0.21926058  0.78345125  0.80924505  1
  O  O118  1  0.29860009  0.44088926  0.97715719  1
  O  O119  1  0.39750655  0.09076997  0.76658193  1
  O  O120  1  0.93869351  0.55005949  0.93356126  1
  O  O121  1  0.82137408  0.51125401  0.14049928  1
  O  O122  1  0.15834746  0.85874064  0.40419060  1
  O  O123  1  0.79283004  0.44571711  0.47730429  1
  O  O124  1  0.68246501  0.74829349  0.30677452  1
  O  O125  1  0.33352152  0.06282641  0.01760784  1
  O  O126  1  0.88756167  0.71956578  0.54498875  1
  O  O127  1  0.55954555  0.78271532  0.49381488  1
  O  O128  1  0.03666564  0.13523374  0.79217311  1
  O  O129  1  0.86958782  0.13580245  0.26654659  1
  O  O130  1  0.02292691  0.84202720  0.87679226  1
  O  O131  1  0.18697938  0.80521128  0.13411572  1
