# generated using pymatgen
data_NaNi(PO3)3
_symmetry_space_group_name_H-M   'P 1'
_cell_length_a   10.01237087
_cell_length_b   10.71403516
_cell_length_c   13.97174543
_cell_angle_alpha   90.00000000
_cell_angle_beta   90.00000000
_cell_angle_gamma   90.00000000
_symmetry_Int_Tables_number   1
_chemical_formula_structural   NaNi(PO3)3
_chemical_formula_sum   'Na8 Ni8 P24 O72'
_cell_volume   1498.78956003
_cell_formula_units_Z   8
loop_
 _symmetry_equiv_pos_site_id
 _symmetry_equiv_pos_as_xyz
  1  'x, y, z'
loop_
 _atom_site_type_symbol
 _atom_site_label
 _atom_site_symmetry_multiplicity
 _atom_site_fract_x
 _atom_site_fract_y
 _atom_site_fract_z
 _atom_site_occupancy
  Na  Na0  1  0.98794217  0.75200062  0.62472533  1
  Na  Na1  1  0.48794217  0.24799938  0.62472533  1
  Na  Na2  1  0.01205783  0.75200062  0.12472533  1
  Na  Na3  1  0.01205783  0.24799938  0.37527467  1
  Na  Na4  1  0.51205783  0.75200062  0.37527467  1
  Na  Na5  1  0.51205783  0.24799938  0.12472533  1
  Na  Na6  1  0.98794217  0.24799938  0.87527467  1
  Na  Na7  1  0.48794217  0.75200062  0.87527467  1
  Ni  Ni8  1  0.97175165  0.50000000  0.25000000  1
  Ni  Ni9  1  0.50000000  0.00000000  0.50000000  1
  Ni  Ni10  1  0.00000000  0.00000000  0.50000000  1
  Ni  Ni11  1  0.02824835  0.50000000  0.75000000  1
  Ni  Ni12  1  0.50000000  0.00000000  0.00000000  1
  Ni  Ni13  1  0.47175165  0.50000000  0.25000000  1
  Ni  Ni14  1  0.00000000  0.00000000  0.00000000  1
  Ni  Ni15  1  0.52824835  0.50000000  0.75000000  1
  P  P16  1  0.23641007  0.04407522  0.14756670  1
  P  P17  1  0.71486888  0.47463699  0.39812550  1
  P  P18  1  0.71486888  0.52536301  0.10187450  1
  P  P19  1  0.21486888  0.52536301  0.39812550  1
  P  P20  1  0.54635390  0.74751586  0.12532169  1
  P  P21  1  0.76358993  0.95592478  0.85243330  1
  P  P22  1  0.95364610  0.74751586  0.87467831  1
  P  P23  1  0.78513112  0.52536301  0.89812550  1
  P  P24  1  0.95364610  0.25248414  0.62532169  1
  P  P25  1  0.45364610  0.25248414  0.87467831  1
  P  P26  1  0.45364610  0.74751586  0.62532169  1
  P  P27  1  0.54635390  0.25248414  0.37467831  1
  P  P28  1  0.04635390  0.25248414  0.12532169  1
  P  P29  1  0.23641007  0.95592478  0.35243330  1
  P  P30  1  0.21486888  0.47463699  0.10187450  1
  P  P31  1  0.28513112  0.52536301  0.60187450  1
  P  P32  1  0.76358993  0.04407522  0.64756670  1
  P  P33  1  0.26358993  0.04407522  0.85243330  1
  P  P34  1  0.28513112  0.47463699  0.89812550  1
  P  P35  1  0.26358993  0.95592478  0.64756670  1
  P  P36  1  0.78513112  0.47463699  0.60187450  1
  P  P37  1  0.73641007  0.95592478  0.14756670  1
  P  P38  1  0.73641007  0.04407522  0.35243330  1
  P  P39  1  0.04635390  0.74751586  0.37467831  1
  O  O40  1  0.65958256  0.56811352  0.85018895  1
  O  O41  1  0.85624250  0.08235653  0.40993366  1
  O  O42  1  0.13342518  0.35227268  0.06521271  1
  O  O43  1  0.36657482  0.35227268  0.93478729  1
  O  O44  1  0.02762492  0.82278743  0.94802548  1
  O  O45  1  0.84255761  0.83049548  0.81991303  1
  O  O46  1  0.86657482  0.35227268  0.56521271  1
  O  O47  1  0.52762492  0.82278743  0.55197452  1
  O  O48  1  0.13796313  0.95149473  0.10800444  1
  O  O49  1  0.84041744  0.56811352  0.14981105  1
  O  O50  1  0.86203687  0.04850527  0.89199556  1
  O  O51  1  0.34255761  0.16950452  0.81991303  1
  O  O52  1  0.34255761  0.83049548  0.68008697  1
  O  O53  1  0.13796313  0.04850527  0.39199556  1
  O  O54  1  0.47237508  0.17721257  0.44802548  1
  O  O55  1  0.13342518  0.64772732  0.43478729  1
  O  O56  1  0.97237508  0.82278743  0.44802548  1
  O  O57  1  0.03036441  0.31715716  0.70295385  1
  O  O58  1  0.14375750  0.08235653  0.90993366  1
  O  O59  1  0.34041744  0.56811352  0.35018895  1
  O  O60  1  0.96963559  0.68284284  0.29704615  1
  O  O61  1  0.84041744  0.43188648  0.35018895  1
  O  O62  1  0.36203687  0.95149473  0.89199556  1
  O  O63  1  0.37890583  0.56167088  0.84725321  1
  O  O64  1  0.15744239  0.83049548  0.31991303  1
  O  O65  1  0.15958256  0.56811352  0.64981105  1
  O  O66  1  0.64375750  0.08235653  0.59006634  1
  O  O67  1  0.86203687  0.95149473  0.60800444  1
  O  O68  1  0.85624250  0.91764347  0.09006634  1
  O  O69  1  0.12109417  0.56167088  0.15274679  1
  O  O70  1  0.53036441  0.68284284  0.70295385  1
  O  O71  1  0.46963559  0.68284284  0.20295385  1
  O  O72  1  0.63796313  0.95149473  0.39199556  1
  O  O73  1  0.35624250  0.91764347  0.40993366  1
  O  O74  1  0.15958256  0.43188648  0.85018895  1
  O  O75  1  0.63796313  0.04850527  0.10800444  1
  O  O76  1  0.14375750  0.91764347  0.59006634  1
  O  O77  1  0.84255761  0.16950452  0.68008697  1
  O  O78  1  0.79312036  0.00000000  0.25000000  1
  O  O79  1  0.20687964  0.00000000  0.75000000  1
  O  O80  1  0.25000000  0.53786049  0.00000000  1
  O  O81  1  0.65958256  0.43188648  0.64981105  1
  O  O82  1  0.34041744  0.43188648  0.14981105  1
  O  O83  1  0.86657482  0.64772732  0.93478729  1
  O  O84  1  0.87890583  0.56167088  0.65274679  1
  O  O85  1  0.63342518  0.35227268  0.43478729  1
  O  O86  1  0.62109417  0.43832912  0.15274679  1
  O  O87  1  0.53036441  0.31715716  0.79704615  1
  O  O88  1  0.36203687  0.04850527  0.60800444  1
  O  O89  1  0.97237508  0.17721257  0.05197452  1
  O  O90  1  0.87890583  0.43832912  0.84725321  1
  O  O91  1  0.96963559  0.31715716  0.20295385  1
  O  O92  1  0.25000000  0.46213951  0.50000000  1
  O  O93  1  0.37890583  0.43832912  0.65274679  1
  O  O94  1  0.64375750  0.91764347  0.90993366  1
  O  O95  1  0.70687964  0.00000000  0.75000000  1
  O  O96  1  0.63342518  0.64772732  0.06521271  1
  O  O97  1  0.03036441  0.68284284  0.79704615  1
  O  O98  1  0.75000000  0.53786049  0.50000000  1
  O  O99  1  0.29312036  0.00000000  0.25000000  1
  O  O100  1  0.35624250  0.08235653  0.09006634  1
  O  O101  1  0.02762492  0.17721257  0.55197452  1
  O  O102  1  0.65744239  0.16950452  0.31991303  1
  O  O103  1  0.36657482  0.64772732  0.56521271  1
  O  O104  1  0.65744239  0.83049548  0.18008697  1
  O  O105  1  0.12109417  0.43832912  0.34725321  1
  O  O106  1  0.75000000  0.46213951  0.00000000  1
  O  O107  1  0.15744239  0.16950452  0.18008697  1
  O  O108  1  0.46963559  0.31715716  0.29704615  1
  O  O109  1  0.62109417  0.56167088  0.34725321  1
  O  O110  1  0.52762492  0.17721257  0.94802548  1
  O  O111  1  0.47237508  0.82278743  0.05197452  1
