# generated using pymatgen
data_CsCeCdSe3
_symmetry_space_group_name_H-M   'P 1'
_cell_length_a   4.44670513
_cell_length_b   8.39333822
_cell_length_c   11.56323640
_cell_angle_alpha   90.00000000
_cell_angle_beta   90.00000000
_cell_angle_gamma   105.36070841
_symmetry_Int_Tables_number   1
_chemical_formula_structural   CsCeCdSe3
_chemical_formula_sum   'Cs2 Ce2 Cd2 Se6'
_cell_volume   416.15431042
_cell_formula_units_Z   2
loop_
 _symmetry_equiv_pos_site_id
 _symmetry_equiv_pos_as_xyz
  1  'x, y, z'
loop_
 _atom_site_type_symbol
 _atom_site_label
 _atom_site_symmetry_multiplicity
 _atom_site_fract_x
 _atom_site_fract_y
 _atom_site_fract_z
 _atom_site_occupancy
  Cs  Cs0  1  0.25756885  0.51513769  0.25000000  1
  Cs  Cs1  1  0.74243115  0.48486231  0.75000000  1
  Ce  Ce2  1  -0.00000000  -0.00000000  0.00000000  1
  Ce  Ce3  1  -0.00000000  -0.00000000  0.50000000  1
  Cd  Cd4  1  0.53934023  0.07868047  0.25000000  1
  Cd  Cd5  1  0.46065977  0.92131953  0.75000000  1
  Se  Se6  1  0.94031284  0.88062569  0.25000000  1
  Se  Se7  1  0.62043592  0.24087183  0.44739337  1
  Se  Se8  1  0.37956408  0.75912817  0.94739337  1
  Se  Se9  1  0.37956408  0.75912817  0.55260663  1
  Se  Se10  1  0.62043592  0.24087183  0.05260663  1
  Se  Se11  1  0.05968716  0.11937431  0.75000000  1
