# generated using pymatgen
data_Mg2TiNb2O8
_symmetry_space_group_name_H-M   'P 1'
_cell_length_a   5.22821294
_cell_length_b   5.96638270
_cell_length_c   9.99020355
_cell_angle_alpha   107.34675177
_cell_angle_beta   90.20259487
_cell_angle_gamma   90.07372883
_symmetry_Int_Tables_number   1
_chemical_formula_structural   Mg2TiNb2O8
_chemical_formula_sum   'Mg4 Ti2 Nb4 O16'
_cell_volume   297.45326240
_cell_formula_units_Z   2
loop_
 _symmetry_equiv_pos_site_id
 _symmetry_equiv_pos_as_xyz
  1  'x, y, z'
loop_
 _atom_site_type_symbol
 _atom_site_label
 _atom_site_symmetry_multiplicity
 _atom_site_fract_x
 _atom_site_fract_y
 _atom_site_fract_z
 _atom_site_occupancy
  Mg  Mg0  1  0.76075699  0.41242949  0.54740411  1
  Mg  Mg1  1  0.74009553  0.86431822  0.45318767  1
  Mg  Mg2  1  0.23966478  0.58532297  0.45323199  1
  Mg  Mg3  1  0.26046763  0.13122633  0.54788067  1
  Ti  Ti4  1  0.75476102  0.63163219  0.00208595  1
  Ti  Ti5  1  0.25287914  0.36690028  0.00273517  1
  Nb  Nb6  1  0.74479173  0.25869315  0.23362684  1
  Nb  Nb7  1  0.75567518  0.03169599  0.76899109  1
  Nb  Nb8  1  0.25774575  0.73264304  0.76873226  1
  Nb  Nb9  1  0.24750669  0.97153389  0.23352874  1
  O  O10  1  0.10068289  0.20226299  0.13344153  1
  O  O11  1  0.40282767  0.06691687  0.86649090  1
  O  O12  1  0.90343563  0.79671772  0.86588404  1
  O  O13  1  0.60061822  0.92553642  0.13254126  1
  O  O14  1  0.58623999  0.42797732  0.11162777  1
  O  O15  1  0.91655667  0.31667143  0.88964430  1
  O  O16  1  0.41719544  0.56835743  0.88912142  1
  O  O17  1  0.08587134  0.68019442  0.11113500  1
  O  O18  1  0.44154908  0.28597657  0.37342712  1
  O  O19  1  0.05694681  0.91407393  0.63048252  1
  O  O20  1  0.37804558  0.83885226  0.38265151  1
  O  O21  1  0.12309997  0.45604163  0.61951334  1
  O  O22  1  0.62331754  0.15953222  0.61962396  1
  O  O23  1  0.87805484  0.54044261  0.38251388  1
  O  O24  1  0.94114598  0.08328201  0.37247115  1
  O  O25  1  0.55649991  0.71217762  0.62964681  1
