# generated using pymatgen
data_MoP2NCl12
_symmetry_space_group_name_H-M   'P 1'
_cell_length_a   8.44579356
_cell_length_b   10.60266989
_cell_length_c   21.82542515
_cell_angle_alpha   90.00000000
_cell_angle_beta   90.00000000
_cell_angle_gamma   101.31847589
_symmetry_Int_Tables_number   1
_chemical_formula_structural   MoP2NCl12
_chemical_formula_sum   'Mo4 P8 N4 Cl48'
_cell_volume   1916.41158563
_cell_formula_units_Z   4
loop_
 _symmetry_equiv_pos_site_id
 _symmetry_equiv_pos_as_xyz
  1  'x, y, z'
loop_
 _atom_site_type_symbol
 _atom_site_label
 _atom_site_symmetry_multiplicity
 _atom_site_fract_x
 _atom_site_fract_y
 _atom_site_fract_z
 _atom_site_occupancy
  Mo  Mo0  1  0.84373331  0.80473181  0.89161839  1
  Mo  Mo1  1  0.84373331  0.30473181  0.60838161  1
  Mo  Mo2  1  0.15626669  0.19526819  0.10838161  1
  Mo  Mo3  1  0.15626669  0.69526819  0.39161839  1
  P  P4  1  0.68860021  0.12918353  0.33044358  1
  P  P5  1  0.31139979  0.87081647  0.66955642  1
  P  P6  1  0.55556756  0.26189683  0.89789646  1
  P  P7  1  0.44443244  0.23810317  0.39789646  1
  P  P8  1  0.68860021  0.62918353  0.16955642  1
  P  P9  1  0.55556756  0.76189683  0.60210354  1
  P  P10  1  0.31139979  0.37081647  0.83044358  1
  P  P11  1  0.44443244  0.73810317  0.10210354  1
  N  N12  1  0.44372245  0.85802839  0.62081894  1
  N  N13  1  0.55627755  0.14197161  0.37918106  1
  N  N14  1  0.44372245  0.35802839  0.87918106  1
  N  N15  1  0.55627755  0.64197161  0.12081894  1
  Cl  Cl16  1  0.31506604  0.28327091  0.32828537  1
  Cl  Cl17  1  0.40197741  0.41432428  0.74738751  1
  Cl  Cl18  1  0.29000378  0.66271988  0.03832844  1
  Cl  Cl19  1  0.87423470  0.91476597  0.79684382  1
  Cl  Cl20  1  0.12484725  0.81860062  0.89521063  1
  Cl  Cl21  1  0.12484725  0.31860062  0.60478937  1
  Cl  Cl22  1  0.18765939  0.89021519  0.33555856  1
  Cl  Cl23  1  0.43379569  0.59763108  0.56876630  1
  Cl  Cl24  1  0.40197741  0.91432428  0.75261249  1
  Cl  Cl25  1  0.56620431  0.40236892  0.43123370  1
  Cl  Cl26  1  0.43809691  0.21863658  0.11017363  1
  Cl  Cl27  1  0.14274753  0.71253345  0.68021307  1
  Cl  Cl28  1  0.81234061  0.60978481  0.83555856  1
  Cl  Cl29  1  0.68493396  0.21672909  0.82828537  1
  Cl  Cl30  1  0.17020064  0.30573867  0.01433636  1
  Cl  Cl31  1  0.87423470  0.41476597  0.70315618  1
  Cl  Cl32  1  0.86347205  0.00244368  0.94116341  1
  Cl  Cl33  1  0.19659745  0.00888605  0.64663180  1
  Cl  Cl34  1  0.85725247  0.78746655  0.18021307  1
  Cl  Cl35  1  0.82979936  0.19426133  0.51433636  1
  Cl  Cl36  1  0.87515275  0.18139938  0.10478937  1
  Cl  Cl37  1  0.68493396  0.71672909  0.67171463  1
  Cl  Cl38  1  0.56190309  0.28136342  0.61017363  1
  Cl  Cl39  1  0.81234061  0.10978481  0.66444144  1
  Cl  Cl40  1  0.14274753  0.21253345  0.81978693  1
  Cl  Cl41  1  0.80340255  0.99111395  0.35336820  1
  Cl  Cl42  1  0.70999622  0.33728012  0.96167156  1
  Cl  Cl43  1  0.12576530  0.08523403  0.20315618  1
  Cl  Cl44  1  0.86347205  0.50244368  0.55883659  1
  Cl  Cl45  1  0.29000378  0.16271988  0.46167156  1
  Cl  Cl46  1  0.18765939  0.39021519  0.16444144  1
  Cl  Cl47  1  0.87515275  0.68139938  0.39521063  1
  Cl  Cl48  1  0.13652795  0.99755632  0.05883659  1
  Cl  Cl49  1  0.17020064  0.80573867  0.48566364  1
  Cl  Cl50  1  0.12576530  0.58523403  0.29684382  1
  Cl  Cl51  1  0.82979936  0.69426133  0.98566364  1
  Cl  Cl52  1  0.59802259  0.58567572  0.25261249  1
  Cl  Cl53  1  0.43379569  0.09763108  0.93123370  1
  Cl  Cl54  1  0.80340255  0.49111395  0.14663180  1
  Cl  Cl55  1  0.56190309  0.78136342  0.88982637  1
  Cl  Cl56  1  0.85725247  0.28746655  0.31978693  1
  Cl  Cl57  1  0.56620431  0.90236892  0.06876630  1
  Cl  Cl58  1  0.31506604  0.78327091  0.17171463  1
  Cl  Cl59  1  0.13652795  0.49755632  0.44116341  1
  Cl  Cl60  1  0.19659745  0.50888605  0.85336820  1
  Cl  Cl61  1  0.59802259  0.08567572  0.24738751  1
  Cl  Cl62  1  0.70999622  0.83728012  0.53832844  1
  Cl  Cl63  1  0.43809691  0.71863658  0.38982637  1
