# generated using pymatgen
data_Dy12Co7
_symmetry_space_group_name_H-M   'P 1'
_cell_length_a   8.27900681
_cell_length_b   9.19665124
_cell_length_c   11.21546212
_cell_angle_alpha   90.00000000
_cell_angle_beta   90.00000000
_cell_angle_gamma   102.07447512
_symmetry_Int_Tables_number   1
_chemical_formula_structural   Dy12Co7
_chemical_formula_sum   'Dy24 Co14'
_cell_volume   835.04359661
_cell_formula_units_Z   2
loop_
 _symmetry_equiv_pos_site_id
 _symmetry_equiv_pos_as_xyz
  1  'x, y, z'
loop_
 _atom_site_type_symbol
 _atom_site_label
 _atom_site_symmetry_multiplicity
 _atom_site_fract_x
 _atom_site_fract_y
 _atom_site_fract_z
 _atom_site_occupancy
  Dy  Dy0  1  0.84070077  0.34267637  0.15865553  1
  Dy  Dy1  1  0.30008083  0.14693708  0.50544005  1
  Dy  Dy2  1  0.34070077  0.84267637  0.34134447  1
  Dy  Dy3  1  0.42534444  0.17564379  0.19977308  1
  Dy  Dy4  1  0.64387457  0.41425419  0.42768943  1
  Dy  Dy5  1  0.42762699  0.69477798  0.07006629  1
  Dy  Dy6  1  0.92762699  0.19477798  0.42993371  1
  Dy  Dy7  1  0.77205617  0.53831606  0.70498026  1
  Dy  Dy8  1  0.07465556  0.32435621  0.69977308  1
  Dy  Dy9  1  0.07237301  0.80522202  0.57006629  1
  Dy  Dy10  1  0.35612543  0.58574581  0.57231057  1
  Dy  Dy11  1  0.69991917  0.85306292  0.49455995  1
  Dy  Dy12  1  0.65929923  0.15732363  0.65865553  1
  Dy  Dy13  1  0.80008083  0.64693708  0.99455995  1
  Dy  Dy14  1  0.57237301  0.30522202  0.92993371  1
  Dy  Dy15  1  0.14387457  0.91425419  0.07231057  1
  Dy  Dy16  1  0.27205617  0.03831606  0.79501974  1
  Dy  Dy17  1  0.72794383  0.96168394  0.20498026  1
  Dy  Dy18  1  0.22794383  0.46168394  0.29501974  1
  Dy  Dy19  1  0.19991917  0.35306292  0.00544005  1
  Dy  Dy20  1  0.92534444  0.67564379  0.30022692  1
  Dy  Dy21  1  0.57465556  0.82435621  0.80022692  1
  Dy  Dy22  1  0.15929923  0.65732363  0.84134447  1
  Dy  Dy23  1  0.85612543  0.08574581  0.92768943  1
  Co  Co24  1  0.00000000  0.50000000  0.50000000  1
  Co  Co25  1  0.94035380  0.03108566  0.67257698  1
  Co  Co26  1  0.94065456  0.84329538  0.80930174  1
  Co  Co27  1  0.55964620  0.46891434  0.17257698  1
  Co  Co28  1  0.40718317  0.90059529  0.59794364  1
  Co  Co29  1  0.90718317  0.40059529  0.90205636  1
  Co  Co30  1  0.05964620  0.96891434  0.32742302  1
  Co  Co31  1  0.59281683  0.09940471  0.40205636  1
  Co  Co32  1  0.50000000  0.00000000  0.00000000  1
  Co  Co33  1  0.55934544  0.65670462  0.30930174  1
  Co  Co34  1  0.44035380  0.53108566  0.82742302  1
  Co  Co35  1  0.44065456  0.34329538  0.69069826  1
  Co  Co36  1  0.09281683  0.59940471  0.09794364  1
  Co  Co37  1  0.05934544  0.15670462  0.19069826  1
