# generated using pymatgen
data_Mg2TaNb2O8
_symmetry_space_group_name_H-M   'P 1'
_cell_length_a   5.23012334
_cell_length_b   5.98244738
_cell_length_c   10.00458635
_cell_angle_alpha   103.85833615
_cell_angle_beta   93.27404217
_cell_angle_gamma   91.71952734
_symmetry_Int_Tables_number   1
_chemical_formula_structural   Mg2TaNb2O8
_chemical_formula_sum   'Mg4 Ta2 Nb4 O16'
_cell_volume   303.11638727
_cell_formula_units_Z   2
loop_
 _symmetry_equiv_pos_site_id
 _symmetry_equiv_pos_as_xyz
  1  'x, y, z'
loop_
 _atom_site_type_symbol
 _atom_site_label
 _atom_site_symmetry_multiplicity
 _atom_site_fract_x
 _atom_site_fract_y
 _atom_site_fract_z
 _atom_site_occupancy
  Mg  Mg0  1  0.76716387  0.41889261  0.55262743  1
  Mg  Mg1  1  0.74524637  0.86085474  0.46033872  1
  Mg  Mg2  1  0.23177659  0.58336110  0.44877919  1
  Mg  Mg3  1  0.25357548  0.14169059  0.54156135  1
  Ta  Ta4  1  0.75463248  0.65648418  0.99359890  1
  Ta  Ta5  1  0.24242581  0.34749922  0.00650347  1
  Nb  Nb6  1  0.71866209  0.24739249  0.24765618  1
  Nb  Nb7  1  0.71575236  0.00803322  0.76778260  1
  Nb  Nb8  1  0.28033012  0.75594410  0.75353948  1
  Nb  Nb9  1  0.28232542  0.99393676  0.23359470  1
  O  O10  1  0.06734080  0.20532850  0.13632055  1
  O  O11  1  0.38967842  0.09118791  0.88530607  1
  O  O12  1  0.93319005  0.79815363  0.86514522  1
  O  O13  1  0.60651284  0.91236070  0.11551464  1
  O  O14  1  0.58670687  0.44754175  0.11293248  1
  O  O15  1  0.90413829  0.32948636  0.89819155  1
  O  O16  1  0.41021709  0.55456608  0.88814687  1
  O  O17  1  0.09237553  0.67459888  0.10291568  1
  O  O18  1  0.42726074  0.29890275  0.38045192  1
  O  O19  1  0.06562668  0.92024461  0.63232628  1
  O  O20  1  0.37578471  0.84624882  0.38311955  1
  O  O21  1  0.13435211  0.45658199  0.61679161  1
  O  O22  1  0.62256688  0.15618495  0.61796078  1
  O  O23  1  0.86449960  0.54580154  0.38421399  1
  O  O24  1  0.93217786  0.08177065  0.36821002  1
  O  O25  1  0.57180495  0.70340388  0.62057578  1
