# generated using pymatgen
data_TmMn6(GaSn2)2
_symmetry_space_group_name_H-M   'P 1'
_cell_length_a   5.35960983
_cell_length_b   5.35960983
_cell_length_c   8.77953221
_cell_angle_alpha   90.00000000
_cell_angle_beta   90.00000000
_cell_angle_gamma   119.99999994
_symmetry_Int_Tables_number   1
_chemical_formula_structural   TmMn6(GaSn2)2
_chemical_formula_sum   'Tm1 Mn6 Ga2 Sn4'
_cell_volume   218.40790770
_cell_formula_units_Z   1
loop_
 _symmetry_equiv_pos_site_id
 _symmetry_equiv_pos_as_xyz
  1  'x, y, z'
loop_
 _atom_site_type_symbol
 _atom_site_label
 _atom_site_symmetry_multiplicity
 _atom_site_fract_x
 _atom_site_fract_y
 _atom_site_fract_z
 _atom_site_occupancy
  Mn  Mn0  1  0.00000000  0.50000000  0.76450616  1
  Mn  Mn1  1  0.50000000  0.00000000  0.23549384  1
  Mn  Mn2  1  0.50000000  0.50000000  0.23549384  1
  Mn  Mn3  1  0.50000000  0.50000000  0.76450616  1
  Mn  Mn4  1  0.50000000  0.00000000  0.76450616  1
  Mn  Mn5  1  0.00000000  0.50000000  0.23549384  1
  Ga  Ga6  1  0.33333333  0.66666667  0.00000000  1
  Ga  Ga7  1  0.66666667  0.33333333  0.00000000  1
  Sn  Sn8  1  0.00000000  0.00000000  0.66850333  1
  Sn  Sn9  1  0.00000000  0.00000000  0.33149667  1
  Sn  Sn10  1  0.66666667  0.33333333  0.50000000  1
  Sn  Sn11  1  0.33333333  0.66666667  0.50000000  1
  Tm  Tm12  1  0.00000000  0.00000000  0.00000000  1
