# generated using pymatgen
data_NaSn2
_symmetry_space_group_name_H-M   'P 1'
_cell_length_a   6.94098311
_cell_length_b   7.64430175
_cell_length_c   15.80982916
_cell_angle_alpha   101.26706743
_cell_angle_beta   90.00000000
_cell_angle_gamma   117.00043053
_symmetry_Int_Tables_number   1
_chemical_formula_structural   NaSn2
_chemical_formula_sum   'Na8 Sn16'
_cell_volume   729.22947369
_cell_formula_units_Z   8
loop_
 _symmetry_equiv_pos_site_id
 _symmetry_equiv_pos_as_xyz
  1  'x, y, z'
loop_
 _atom_site_type_symbol
 _atom_site_label
 _atom_site_symmetry_multiplicity
 _atom_site_fract_x
 _atom_site_fract_y
 _atom_site_fract_z
 _atom_site_occupancy
  Na  Na0  1  0.38502964  0.77005928  0.56393382  1
  Na  Na1  1  0.09502712  0.19005424  0.41894947  1
  Na  Na2  1  0.25061579  0.00000000  0.00000000  1
  Na  Na3  1  0.72815118  0.45630236  0.91305380  1
  Na  Na4  1  0.61497036  0.22994072  0.43606618  1
  Na  Na5  1  0.90497288  0.80994576  0.58105053  1
  Na  Na6  1  0.74938421  0.00000000  0.00000000  1
  Na  Na7  1  0.27184882  0.54369764  0.08694620  1
  Sn  Sn8  1  0.61208549  0.65709337  0.74786472  1
  Sn  Sn9  1  0.33040445  0.08971220  0.74698539  1
  Sn  Sn10  1  0.04500787  0.65709337  0.74786472  1
  Sn  Sn11  1  0.32650327  0.65300653  0.88473601  1
  Sn  Sn12  1  0.66959555  0.91028780  0.25301461  1
  Sn  Sn13  1  0.11469300  0.22938600  0.88373955  1
  Sn  Sn14  1  0.63053847  0.69577061  0.39386294  1
  Sn  Sn15  1  0.95499213  0.34290663  0.25213528  1
  Sn  Sn16  1  0.75930775  0.08971220  0.74698539  1
  Sn  Sn17  1  0.38791451  0.34290663  0.25213528  1
  Sn  Sn18  1  0.67349673  0.34699347  0.11526399  1
  Sn  Sn19  1  0.93476786  0.30422939  0.60613706  1
  Sn  Sn20  1  0.06523214  0.69577061  0.39386294  1
  Sn  Sn21  1  0.88530700  0.77061400  0.11626045  1
  Sn  Sn22  1  0.36946153  0.30422939  0.60613706  1
  Sn  Sn23  1  0.24069225  0.91028780  0.25301461  1
