# generated using pymatgen
data_RbMnO2
_symmetry_space_group_name_H-M   'P 1'
_cell_length_a   6.62603197
_cell_length_b   7.92172298
_cell_length_c   8.68034615
_cell_angle_alpha   77.28196021
_cell_angle_beta   88.48196144
_cell_angle_gamma   78.99975191
_symmetry_Int_Tables_number   1
_chemical_formula_structural   RbMnO2
_chemical_formula_sum   'Rb6 Mn6 O12'
_cell_volume   436.22567185
_cell_formula_units_Z   6
loop_
 _symmetry_equiv_pos_site_id
 _symmetry_equiv_pos_as_xyz
  1  'x, y, z'
loop_
 _atom_site_type_symbol
 _atom_site_label
 _atom_site_symmetry_multiplicity
 _atom_site_fract_x
 _atom_site_fract_y
 _atom_site_fract_z
 _atom_site_occupancy
  Rb  Rb0  1  0.15434574  0.10949764  0.11779662  1
  Rb  Rb1  1  0.84565426  0.89050236  0.88220338  1
  Rb  Rb2  1  0.82531773  0.87279681  0.46729533  1
  Rb  Rb3  1  0.01877392  0.45844964  0.76630577  1
  Rb  Rb4  1  0.17468227  0.12720319  0.53270467  1
  Rb  Rb5  1  0.98122608  0.54155036  0.23369423  1
  Mn  Mn6  1  0.41538225  0.67848825  0.21566767  1
  Mn  Mn7  1  0.40105477  0.67274275  0.55023761  1
  Mn  Mn8  1  0.59894523  0.32725725  0.44976239  1
  Mn  Mn9  1  0.59670760  0.32376709  0.11685346  1
  Mn  Mn10  1  0.58461775  0.32151175  0.78433233  1
  Mn  Mn11  1  0.40329240  0.67623291  0.88314654  1
  O  O12  1  0.22827401  0.77899540  0.36353372  1
  O  O13  1  0.78863427  0.23616281  0.29821988  1
  O  O14  1  0.22676532  0.77071032  0.03729365  1
  O  O15  1  0.61077434  0.61736159  0.39334856  1
  O  O16  1  0.38847299  0.38031529  0.94538910  1
  O  O17  1  0.60359749  0.62809235  0.72137057  1
  O  O18  1  0.77172599  0.22100460  0.63646628  1
  O  O19  1  0.77323468  0.22928968  0.96270635  1
  O  O20  1  0.39640251  0.37190765  0.27862943  1
  O  O21  1  0.21136573  0.76383719  0.70178012  1
  O  O22  1  0.38922566  0.38263841  0.60665144  1
  O  O23  1  0.61152701  0.61968471  0.05461090  1
