# generated using pymatgen
data_SrCo2As2(H2O5)2
_symmetry_space_group_name_H-M   'P 1'
_cell_length_a   7.59070058
_cell_length_b   9.20142414
_cell_length_c   13.10928804
_cell_angle_alpha   90.00000000
_cell_angle_beta   90.00000000
_cell_angle_gamma   114.09065953
_symmetry_Int_Tables_number   1
_chemical_formula_structural   SrCo2As2(H2O5)2
_chemical_formula_sum   'Sr4 Co8 As8 H16 O40'
_cell_volume   835.87160465
_cell_formula_units_Z   4
loop_
 _symmetry_equiv_pos_site_id
 _symmetry_equiv_pos_as_xyz
  1  'x, y, z'
loop_
 _atom_site_type_symbol
 _atom_site_label
 _atom_site_symmetry_multiplicity
 _atom_site_fract_x
 _atom_site_fract_y
 _atom_site_fract_z
 _atom_site_occupancy
  Sr  Sr0  1  0.74891477  0.74369815  0.87014124  1
  Sr  Sr1  1  0.25108523  0.25630185  0.12985876  1
  Sr  Sr2  1  0.24891477  0.24369815  0.62985876  1
  Sr  Sr3  1  0.75108523  0.75630185  0.37014124  1
  Co  Co4  1  0.49625034  0.00374801  0.74889633  1
  Co  Co5  1  0.50374966  0.99625199  0.25110367  1
  Co  Co6  1  0.50000000  0.00000000  0.50000000  1
  Co  Co7  1  0.99625034  0.50374801  0.75110367  1
  Co  Co8  1  0.00374966  0.49625199  0.24889633  1
  Co  Co9  1  0.00000000  0.50000000  0.00000000  1
  Co  Co10  1  0.00000000  0.50000000  0.50000000  1
  Co  Co11  1  0.50000000  0.00000000  0.00000000  1
  As  As12  1  0.95086820  0.16967151  0.86733762  1
  As  As13  1  0.54913180  0.33032849  0.36733762  1
  As  As14  1  0.46035505  0.68157462  0.11847592  1
  As  As15  1  0.45086820  0.66967151  0.63266238  1
  As  As16  1  0.53964495  0.31842538  0.88152408  1
  As  As17  1  0.04913180  0.83032849  0.13266238  1
  As  As18  1  0.96035505  0.18157462  0.38152408  1
  As  As19  1  0.03964495  0.81842538  0.61847592  1
  H  H20  1  0.78997555  0.89718366  0.58491358  1
  H  H21  1  0.76722778  0.20940745  0.12510638  1
  H  H22  1  0.71002445  0.60281634  0.08491358  1
  H  H23  1  0.71487231  0.39329662  0.12744619  1
  H  H24  1  0.79630855  0.03820552  0.12773403  1
  H  H25  1  0.21002445  0.10281634  0.41508642  1
  H  H26  1  0.20369145  0.96179448  0.87226597  1
  H  H27  1  0.23277222  0.79059255  0.87489362  1
  H  H28  1  0.78512769  0.10670338  0.62744619  1
  H  H29  1  0.29630855  0.53820552  0.37226597  1
  H  H30  1  0.21487231  0.89329662  0.37255381  1
  H  H31  1  0.70369145  0.46179448  0.62773403  1
  H  H32  1  0.28997555  0.39718366  0.91508642  1
  H  H33  1  0.73277222  0.29059255  0.62510638  1
  H  H34  1  0.26722778  0.70940745  0.37489362  1
  H  H35  1  0.28512769  0.60670338  0.87255381  1
  O  O36  1  0.98197926  0.98562150  0.13846250  1
  O  O37  1  0.01802074  0.01437850  0.86153750  1
  O  O38  1  0.95513620  0.71190973  0.72757225  1
  O  O39  1  0.65959177  0.11199008  0.62343186  1
  O  O40  1  0.34040823  0.88800992  0.37656814  1
  O  O41  1  0.51895491  0.78614325  0.74178164  1
  O  O42  1  0.57382016  0.54481476  0.11201124  1
  O  O43  1  0.48197926  0.48562150  0.36153750  1
  O  O44  1  0.93360337  0.70364990  0.03162380  1
  O  O45  1  0.53120020  0.78764298  0.00722755  1
  O  O46  1  0.77650844  0.45365036  0.87720067  1
  O  O47  1  0.20025440  0.58671558  0.62313036  1
  O  O48  1  0.27650844  0.95365036  0.62279933  1
  O  O49  1  0.72349156  0.04634964  0.37720067  1
  O  O50  1  0.30270327  0.91496786  0.87519090  1
  O  O51  1  0.01895491  0.28614325  0.75821836  1
  O  O52  1  0.96879980  0.71235702  0.50722755  1
  O  O53  1  0.84040823  0.38800992  0.12343186  1
  O  O54  1  0.19729673  0.58503214  0.37519090  1
  O  O55  1  0.69729673  0.08503214  0.12480910  1
  O  O56  1  0.42617984  0.45518524  0.88798876  1
  O  O57  1  0.70025440  0.08671558  0.87686964  1
  O  O58  1  0.98104509  0.71385675  0.24178164  1
  O  O59  1  0.07382016  0.04481476  0.38798876  1
  O  O60  1  0.22349156  0.54634964  0.12279933  1
  O  O61  1  0.92617984  0.95518524  0.61201124  1
  O  O62  1  0.80270327  0.41496786  0.62480910  1
  O  O63  1  0.46879980  0.21235702  0.99277245  1
  O  O64  1  0.54486380  0.78809027  0.22757225  1
  O  O65  1  0.29974560  0.91328442  0.12313036  1
  O  O66  1  0.04486380  0.28809027  0.27242775  1
  O  O67  1  0.45513620  0.21190973  0.77242775  1
  O  O68  1  0.51802074  0.51437850  0.63846250  1
  O  O69  1  0.48104509  0.21385675  0.25821836  1
  O  O70  1  0.79974560  0.41328442  0.37686964  1
  O  O71  1  0.06639663  0.29635010  0.96837620  1
  O  O72  1  0.03120020  0.28764298  0.49277245  1
  O  O73  1  0.15959177  0.61199008  0.87656814  1
  O  O74  1  0.43360337  0.20364990  0.46837620  1
  O  O75  1  0.56639663  0.79635010  0.53162380  1
