# generated using pymatgen
data_Ce8C8Cl5
_symmetry_space_group_name_H-M   'P 1'
_cell_length_a   6.65433384
_cell_length_b   7.58883458
_cell_length_c   16.54815229
_cell_angle_alpha   90.00000000
_cell_angle_beta   90.00000000
_cell_angle_gamma   104.54289709
_symmetry_Int_Tables_number   1
_chemical_formula_structural   Ce8C8Cl5
_chemical_formula_sum   'Ce16 C16 Cl10'
_cell_volume   808.88457047
_cell_formula_units_Z   2
loop_
 _symmetry_equiv_pos_site_id
 _symmetry_equiv_pos_as_xyz
  1  'x, y, z'
loop_
 _atom_site_type_symbol
 _atom_site_label
 _atom_site_symmetry_multiplicity
 _atom_site_fract_x
 _atom_site_fract_y
 _atom_site_fract_z
 _atom_site_occupancy
  Ce  Ce0  1  0.62919746  0.07623901  0.69384034  1
  Ce  Ce1  1  0.62002147  0.15030306  0.93238509  1
  Ce  Ce2  1  0.11211963  0.21952885  0.05120092  1
  Ce  Ce3  1  0.88788037  0.78047115  0.94879908  1
  Ce  Ce4  1  0.37080254  0.92376099  0.30615966  1
  Ce  Ce5  1  0.38788037  0.78047115  0.55120092  1
  Ce  Ce6  1  0.37997853  0.84969694  0.06761491  1
  Ce  Ce7  1  0.12919746  0.07623901  0.80615966  1
  Ce  Ce8  1  0.10307911  0.29361240  0.32676042  1
  Ce  Ce9  1  0.61211963  0.21952885  0.44879908  1
  Ce  Ce10  1  0.12002147  0.15030306  0.56761491  1
  Ce  Ce11  1  0.89692089  0.70638760  0.67323958  1
  Ce  Ce12  1  0.87997853  0.84969694  0.43238509  1
  Ce  Ce13  1  0.87080254  0.92376099  0.19384034  1
  Ce  Ce14  1  0.39692089  0.70638760  0.82676042  1
  Ce  Ce15  1  0.60307911  0.29361240  0.17323958  1
  C  C16  1  0.76666565  0.03805706  0.34007140  1
  C  C17  1  0.28397487  0.84488124  0.71634920  1
  C  C18  1  0.26666565  0.03805706  0.15992860  1
  C  C19  1  0.71602513  0.15511876  0.28365080  1
  C  C20  1  0.27664454  0.97033878  0.46148333  1
  C  C21  1  0.23333435  0.96194294  0.65992860  1
  C  C22  1  0.78397487  0.84488124  0.78365080  1
  C  C23  1  0.72335546  0.02966122  0.53851667  1
  C  C24  1  0.27876062  0.89748344  0.91417865  1
  C  C25  1  0.22335546  0.02966122  0.96148333  1
  C  C26  1  0.72123938  0.10251656  0.08582135  1
  C  C27  1  0.22123938  0.10251656  0.41417865  1
  C  C28  1  0.21602513  0.15511876  0.21634920  1
  C  C29  1  0.73333435  0.96194294  0.84007140  1
  C  C30  1  0.77664454  0.97033878  0.03851667  1
  C  C31  1  0.77876062  0.89748344  0.58582135  1
  Cl  Cl32  1  0.02076223  0.41531102  0.90261558  1
  Cl  Cl33  1  0.02465370  0.35737012  0.70290308  1
  Cl  Cl34  1  0.52465370  0.35737012  0.79709692  1
  Cl  Cl35  1  0.97923777  0.58468898  0.09738442  1
  Cl  Cl36  1  0.52076223  0.41531102  0.59738442  1
  Cl  Cl37  1  0.47534630  0.64262988  0.20290308  1
  Cl  Cl38  1  -0.00000000  0.50000000  0.50000000  1
  Cl  Cl39  1  0.47923777  0.58468898  0.40261558  1
  Cl  Cl40  1  0.50000000  0.50000000  -0.00000000  1
  Cl  Cl41  1  0.97534630  0.64262988  0.29709692  1
