# generated using pymatgen
data_Ba2U2O7
_symmetry_space_group_name_H-M   'P 1'
_cell_length_a   8.15982331
_cell_length_b   8.15982359
_cell_length_c   8.15982398
_cell_angle_alpha   91.25582208
_cell_angle_beta   118.97306298
_cell_angle_gamma   119.58308655
_symmetry_Int_Tables_number   1
_chemical_formula_structural   Ba2U2O7
_chemical_formula_sum   'Ba4 U4 O14'
_cell_volume   388.25114565
_cell_formula_units_Z   2
loop_
 _symmetry_equiv_pos_site_id
 _symmetry_equiv_pos_as_xyz
  1  'x, y, z'
loop_
 _atom_site_type_symbol
 _atom_site_label
 _atom_site_symmetry_multiplicity
 _atom_site_fract_x
 _atom_site_fract_y
 _atom_site_fract_z
 _atom_site_occupancy
  Ba  Ba0  1  -0.00000000  -0.00000000  -0.00000000  1
  Ba  Ba1  1  -0.00000000  0.50000000  0.50000000  1
  Ba  Ba2  1  -0.00000000  0.50000000  -0.00000000  1
  Ba  Ba3  1  0.50000000  -0.00000000  -0.00000000  1
  U  U4  1  0.50000000  0.50000000  0.50000000  1
  U  U5  1  0.50000000  0.50000000  -0.00000000  1
  U  U6  1  -0.00000000  -0.00000000  0.50000000  1
  U  U7  1  0.50000000  -0.00000000  0.50000000  1
  O  O8  1  0.83714255  0.75000000  0.58714255  1
  O  O9  1  0.63521891  0.32286267  0.54966696  1
  O  O10  1  0.28600422  0.90613547  0.19213969  1
  O  O11  1  0.22680430  0.91444806  0.54966696  1
  O  O12  1  0.77319570  0.08555194  0.45033304  1
  O  O13  1  0.36478109  0.67713733  0.45033304  1
  O  O14  1  0.71399577  0.40613547  0.12013124  1
  O  O15  1  0.36478109  0.41444806  0.18764376  1
  O  O16  1  0.77319570  0.82286267  0.18764376  1
  O  O17  1  0.16285745  0.25000000  0.41285745  1
  O  O18  1  0.71399578  0.09386453  0.80786031  1
  O  O19  1  0.63521891  0.58555194  0.81235624  1
  O  O20  1  0.22680430  0.17713733  0.81235624  1
  O  O21  1  0.28600423  0.59386453  0.87986876  1
