# generated using pymatgen
data_EuCd11
_symmetry_space_group_name_H-M   'P 1'
_cell_length_a   7.82189514
_cell_length_b   9.43733668
_cell_length_c   9.43733620
_cell_angle_alpha   80.11114632
_cell_angle_beta   65.51769799
_cell_angle_gamma   65.51769686
_symmetry_Int_Tables_number   1
_chemical_formula_structural   EuCd11
_chemical_formula_sum   'Eu2 Cd22'
_cell_volume   577.00409917
_cell_formula_units_Z   2
loop_
 _symmetry_equiv_pos_site_id
 _symmetry_equiv_pos_as_xyz
  1  'x, y, z'
loop_
 _atom_site_type_symbol
 _atom_site_label
 _atom_site_symmetry_multiplicity
 _atom_site_fract_x
 _atom_site_fract_y
 _atom_site_fract_z
 _atom_site_occupancy
  Eu  Eu0  1  0.37500000  0.25000000  0.75000000  1
  Eu  Eu1  1  0.62500000  0.75000000  0.25000000  1
  Cd  Cd2  1  0.87058554  0.57493074  0.83494170  1
  Cd  Cd3  1  0.00000000  -0.00000000  -0.00000000  1
  Cd  Cd4  1  0.44551628  0.83494170  0.92506926  1
  Cd  Cd5  1  0.87058554  0.33494170  0.07493074  1
  Cd  Cd6  1  0.44551628  0.42506926  0.33494170  1
  Cd  Cd7  1  0.79447276  0.92506926  0.83494170  1
  Cd  Cd8  1  0.79447276  0.33494170  0.42506926  1
  Cd  Cd9  1  0.71954202  0.83494170  0.57493074  1
  Cd  Cd10  1  0.12941446  0.66505830  0.92506926  1
  Cd  Cd11  1  0.12500000  0.75000000  0.25000000  1
  Cd  Cd12  1  0.55448372  0.57493074  0.66505830  1
  Cd  Cd13  1  0.87500000  0.25000000  0.75000000  1
  Cd  Cd14  1  0.50000000  0.50000000  -0.00000000  1
  Cd  Cd15  1  0.55448372  0.16505830  0.07493074  1
  Cd  Cd16  1  0.28045798  0.92506926  0.66505830  1
  Cd  Cd17  1  0.12941446  0.42506926  0.16505830  1
  Cd  Cd18  1  0.20552724  0.66505830  0.57493074  1
  Cd  Cd19  1  0.20552724  0.07493074  0.16505830  1
  Cd  Cd20  1  0.71954202  0.07493074  0.33494170  1
  Cd  Cd21  1  0.28045798  0.16505830  0.42506926  1
  Cd  Cd22  1  0.00000000  -0.00000000  0.50000000  1
  Cd  Cd23  1  0.00000000  0.50000000  0.50000000  1
