# generated using pymatgen
data_Sr2AlGaFe2O7
_symmetry_space_group_name_H-M   'P 1'
_cell_length_a   5.51008443
_cell_length_b   5.76017416
_cell_length_c   11.78484727
_cell_angle_alpha   104.16633707
_cell_angle_beta   103.60848087
_cell_angle_gamma   89.97582500
_symmetry_Int_Tables_number   1
_chemical_formula_structural   Sr2AlGaFe2O7
_chemical_formula_sum   'Sr4 Al2 Ga2 Fe4 O14'
_cell_volume   351.83456724
_cell_formula_units_Z   2
loop_
 _symmetry_equiv_pos_site_id
 _symmetry_equiv_pos_as_xyz
  1  'x, y, z'
loop_
 _atom_site_type_symbol
 _atom_site_label
 _atom_site_symmetry_multiplicity
 _atom_site_fract_x
 _atom_site_fract_y
 _atom_site_fract_z
 _atom_site_occupancy
  Sr  Sr0  1  0.14453599  0.18131705  0.29979940  1
  Sr  Sr1  1  0.84181271  0.82250227  0.69645736  1
  Sr  Sr2  1  0.64491540  0.62333659  0.30001339  1
  Sr  Sr3  1  0.34450135  0.37763395  0.69649826  1
  Al  Al4  1  0.50568879  0.49713059  0.00236805  1
  Al  Al5  1  0.00243057  0.00045544  0.00232026  1
  Ga  Ga6  1  0.21317835  0.82372428  0.49704260  1
  Ga  Ga7  1  0.71339246  0.17850315  0.49699692  1
  Fe  Fe8  1  0.44117077  0.94313771  0.88102555  1
  Fe  Fe9  1  0.06884213  0.57642280  0.13521259  1
  Fe  Fe10  1  0.94264870  0.43240413  0.88055311  1
  Fe  Fe11  1  0.56729246  0.05979773  0.13527115  1
  O  O12  1  0.86345391  0.21371541  0.10559654  1
  O  O13  1  0.87212859  0.88568934  0.49802136  1
  O  O14  1  0.36533104  0.39231249  0.10666574  1
  O  O15  1  0.84927753  0.37968022  0.64671030  1
  O  O16  1  0.61071646  0.27545323  0.88384637  1
  O  O17  1  0.11081619  0.10418909  0.88514087  1
  O  O18  1  0.37203223  0.11721943  0.49761357  1
  O  O19  1  0.27332080  0.61731506  0.89459094  1
  O  O20  1  0.77204543  0.77198800  0.89361958  1
  O  O21  1  0.34957074  0.77208212  0.64661614  1
  O  O22  1  0.19073667  0.62657468  0.34240237  1
  O  O23  1  0.69143966  0.22016587  0.34235343  1
  O  O24  1  0.73227620  0.71134466  0.11732448  1
  O  O25  1  0.23159284  0.90625172  0.11805169  1
