# generated using pymatgen
data_KEuPS4
_symmetry_space_group_name_H-M   'P 1'
_cell_length_a   6.54061410
_cell_length_b   6.64549767
_cell_length_c   16.85893933
_cell_angle_alpha   90.00000000
_cell_angle_beta   90.00000000
_cell_angle_gamma   90.00000000
_symmetry_Int_Tables_number   1
_chemical_formula_structural   KEuPS4
_chemical_formula_sum   'K4 Eu4 P4 S16'
_cell_volume   732.78451625
_cell_formula_units_Z   4
loop_
 _symmetry_equiv_pos_site_id
 _symmetry_equiv_pos_as_xyz
  1  'x, y, z'
loop_
 _atom_site_type_symbol
 _atom_site_label
 _atom_site_symmetry_multiplicity
 _atom_site_fract_x
 _atom_site_fract_y
 _atom_site_fract_z
 _atom_site_occupancy
  Eu  Eu0  1  0.29195608  0.25000000  0.47796777  1
  Eu  Eu1  1  0.70804392  0.75000000  0.52203223  1
  Eu  Eu2  1  0.79195608  0.75000000  0.02203223  1
  Eu  Eu3  1  0.20804392  0.25000000  0.97796777  1
  K  K4  1  0.98144821  0.75000000  0.28828020  1
  K  K5  1  0.51855179  0.75000000  0.78828020  1
  K  K6  1  0.01855179  0.25000000  0.71171980  1
  K  K7  1  0.48144821  0.25000000  0.21171980  1
  P  P8  1  0.77914499  0.25000000  0.40192114  1
  P  P9  1  0.27914499  0.75000000  0.09807886  1
  P  P10  1  0.72085501  0.25000000  0.90192114  1
  P  P11  1  0.22085501  0.75000000  0.59807886  1
  S  S12  1  0.03468673  0.25000000  0.33229814  1
  S  S13  1  0.46531327  0.25000000  0.83229814  1
  S  S14  1  0.60042766  0.00167340  0.37861385  1
  S  S15  1  0.39957234  0.50167340  0.62138615  1
  S  S16  1  0.89957234  0.00167340  0.87861385  1
  S  S17  1  0.84424213  0.25000000  0.52197899  1
  S  S18  1  0.34424213  0.75000000  0.97802101  1
  S  S19  1  0.39957234  0.99832660  0.62138615  1
  S  S20  1  0.15575787  0.75000000  0.47802101  1
  S  S21  1  0.60042766  0.49832660  0.37861385  1
  S  S22  1  0.10042766  0.99832660  0.12138615  1
  S  S23  1  0.89957234  0.49832660  0.87861385  1
  S  S24  1  0.65575787  0.25000000  0.02197899  1
  S  S25  1  0.96531327  0.75000000  0.66770186  1
  S  S26  1  0.10042766  0.50167340  0.12138615  1
  S  S27  1  0.53468673  0.75000000  0.16770186  1
