# generated using pymatgen
data_PrMnGeO5
_symmetry_space_group_name_H-M   'P 1'
_cell_length_a   5.72688060
_cell_length_b   5.79754168
_cell_length_c   7.04705921
_cell_angle_alpha   106.29111468
_cell_angle_beta   99.31602682
_cell_angle_gamma   107.21377431
_symmetry_Int_Tables_number   1
_chemical_formula_structural   PrMnGeO5
_chemical_formula_sum   'Pr2 Mn2 Ge2 O10'
_cell_volume   206.72721336
_cell_formula_units_Z   2
loop_
 _symmetry_equiv_pos_site_id
 _symmetry_equiv_pos_as_xyz
  1  'x, y, z'
loop_
 _atom_site_type_symbol
 _atom_site_label
 _atom_site_symmetry_multiplicity
 _atom_site_fract_x
 _atom_site_fract_y
 _atom_site_fract_z
 _atom_site_occupancy
  Pr  Pr0  1  0.35019859  0.18835381  0.72055945  1
  Pr  Pr1  1  0.64980141  0.81164619  0.27944055  1
  Mn  Mn2  1  0.00000000  0.50000000  0.00000000  1
  Mn  Mn3  1  0.00000000  0.50000000  0.50000000  1
  Ge  Ge4  1  0.69614831  0.83619869  0.76650022  1
  Ge  Ge5  1  0.30385169  0.16380131  0.23349978  1
  O  O6  1  0.93483264  0.58604441  0.26187357  1
  O  O7  1  0.27066317  0.85200986  0.07636486  1
  O  O8  1  0.06221167  0.16903583  0.36635033  1
  O  O9  1  0.72933683  0.14799014  0.92363514  1
  O  O10  1  0.57628354  0.24125742  0.43970832  1
  O  O11  1  0.32425233  0.36902157  0.08991529  1
  O  O12  1  0.67574767  0.63097843  0.91008471  1
  O  O13  1  0.93778833  0.83096417  0.63364967  1
  O  O14  1  0.06516736  0.41395559  0.73812643  1
  O  O15  1  0.42371646  0.75874258  0.56029168  1
