# generated using pymatgen
data_K2Mg2(SO4)3
_symmetry_space_group_name_H-M   'P 1'
_cell_length_a   10.07214039
_cell_length_b   10.07214039
_cell_length_c   10.07214039
_cell_angle_alpha   90.00000000
_cell_angle_beta   90.00000000
_cell_angle_gamma   90.00000000
_symmetry_Int_Tables_number   1
_chemical_formula_structural   K2Mg2(SO4)3
_chemical_formula_sum   'K8 Mg8 S12 O48'
_cell_volume   1021.79861951
_cell_formula_units_Z   4
loop_
 _symmetry_equiv_pos_site_id
 _symmetry_equiv_pos_as_xyz
  1  'x, y, z'
loop_
 _atom_site_type_symbol
 _atom_site_label
 _atom_site_symmetry_multiplicity
 _atom_site_fract_x
 _atom_site_fract_y
 _atom_site_fract_z
 _atom_site_occupancy
  O  O0  1  0.50375215  0.59138287  0.84836249  1
  O  O1  1  0.00375215  0.90861713  0.15163751  1
  O  O2  1  0.49624785  0.09138287  0.65163751  1
  O  O3  1  0.90861713  0.15163751  0.00375215  1
  O  O4  1  0.65163751  0.49624785  0.09138287  1
  O  O5  1  0.15163751  0.00375215  0.90861713  1
  O  O6  1  0.59138287  0.84836249  0.50375215  1
  O  O7  1  0.84836249  0.50375215  0.59138287  1
  O  O8  1  0.09138287  0.65163751  0.49624785  1
  O  O9  1  0.40861713  0.34836249  0.99624785  1
  O  O10  1  0.34836249  0.99624785  0.40861713  1
  O  O11  1  0.99624785  0.40861713  0.34836249  1
  O  O12  1  0.47527764  0.94590643  0.20768545  1
  O  O13  1  0.97527764  0.55409357  0.79231455  1
  O  O14  1  0.52472236  0.44590643  0.29231455  1
  O  O15  1  0.55409357  0.79231455  0.97527764  1
  O  O16  1  0.29231455  0.52472236  0.44590643  1
  O  O17  1  0.79231455  0.97527764  0.55409357  1
  O  O18  1  0.57924401  0.67395706  0.23943891  1
  O  O19  1  0.94590643  0.20768545  0.47527764  1
  O  O20  1  0.44590643  0.29231455  0.52472236  1
  O  O21  1  0.05409357  0.70768545  0.02472236  1
  O  O22  1  0.70768545  0.02472236  0.05409357  1
  O  O23  1  0.02472236  0.05409357  0.70768545  1
  O  O24  1  0.32604294  0.73943891  0.92075599  1
  O  O25  1  0.82604294  0.76056109  0.07924401  1
  O  O26  1  0.67395706  0.23943891  0.57924401  1
  O  O27  1  0.76056109  0.07924401  0.82604294  1
  O  O28  1  0.01568079  0.19255101  0.24895288  1
  O  O29  1  0.24895288  0.01568079  0.19255101  1
  O  O30  1  0.19255101  0.24895288  0.01568079  1
  O  O31  1  0.30744899  0.75104712  0.51568079  1
  O  O32  1  0.74895288  0.48431921  0.80744899  1
  O  O33  1  0.80744899  0.74895288  0.48431921  1
  O  O34  1  0.25104712  0.98431921  0.69255101  1
  O  O35  1  0.75104712  0.51568079  0.30744899  1
  O  O36  1  0.69255101  0.25104712  0.98431921  1
  O  O37  1  0.51568079  0.30744899  0.75104712  1
  O  O38  1  0.98431921  0.69255101  0.25104712  1
  O  O39  1  0.48431921  0.80744899  0.74895288  1
  O  O40  1  0.17395706  0.26056109  0.42075599  1
  O  O41  1  0.42075599  0.17395706  0.26056109  1
  O  O42  1  0.26056109  0.42075599  0.17395706  1
  O  O43  1  0.23943891  0.57924401  0.67395706  1
  O  O44  1  0.92075599  0.32604294  0.73943891  1
  O  O45  1  0.73943891  0.92075599  0.32604294  1
  O  O46  1  0.07924401  0.82604294  0.76056109  1
  O  O47  1  0.20768545  0.47527764  0.94590643  1
  Mg  Mg48  1  0.15097081  0.65097081  0.84902919  1
  Mg  Mg49  1  0.08557552  0.08557552  0.08557552  1
  Mg  Mg50  1  0.41442448  0.91442448  0.58557552  1
  Mg  Mg51  1  0.58557552  0.41442448  0.91442448  1
  Mg  Mg52  1  0.91442448  0.58557552  0.41442448  1
  Mg  Mg53  1  0.34902919  0.34902919  0.34902919  1
  Mg  Mg54  1  0.84902919  0.15097081  0.65097081  1
  Mg  Mg55  1  0.65097081  0.84902919  0.15097081  1
  S  S56  1  0.46624078  0.73099963  0.87395800  1
  S  S57  1  0.26900037  0.37395800  0.03375922  1
  S  S58  1  0.37395800  0.03375922  0.26900037  1
  S  S59  1  0.03375922  0.26900037  0.37395800  1
  S  S60  1  0.87395800  0.46624078  0.73099963  1
  S  S61  1  0.73099963  0.87395800  0.46624078  1
  S  S62  1  0.23099963  0.62604200  0.53375922  1
  S  S63  1  0.12604200  0.96624078  0.76900037  1
  S  S64  1  0.62604200  0.53375922  0.23099963  1
  S  S65  1  0.76900037  0.12604200  0.96624078  1
  S  S66  1  0.96624078  0.76900037  0.12604200  1
  S  S67  1  0.53375922  0.23099963  0.62604200  1
  K  K68  1  0.20060737  0.29939263  0.70060737  1
  K  K69  1  0.29939263  0.70060737  0.20060737  1
  K  K70  1  0.70060737  0.20060737  0.29939263  1
  K  K71  1  0.79939263  0.79939263  0.79939263  1
  K  K72  1  0.43311727  0.06688273  0.93311727  1
  K  K73  1  0.06688273  0.93311727  0.43311727  1
  K  K74  1  0.93311727  0.43311727  0.06688273  1
  K  K75  1  0.56688273  0.56688273  0.56688273  1
