# generated using pymatgen
data_Cs4Fe3F10
_symmetry_space_group_name_H-M   'P 1'
_cell_length_a   6.47659044
_cell_length_b   8.01943911
_cell_length_c   14.29057729
_cell_angle_alpha   90.00000000
_cell_angle_beta   90.00000000
_cell_angle_gamma   113.81630774
_symmetry_Int_Tables_number   1
_chemical_formula_structural   Cs4Fe3F10
_chemical_formula_sum   'Cs8 Fe6 F20'
_cell_volume   679.02789023
_cell_formula_units_Z   2
loop_
 _symmetry_equiv_pos_site_id
 _symmetry_equiv_pos_as_xyz
  1  'x, y, z'
loop_
 _atom_site_type_symbol
 _atom_site_label
 _atom_site_symmetry_multiplicity
 _atom_site_fract_x
 _atom_site_fract_y
 _atom_site_fract_z
 _atom_site_occupancy
  Cs  Cs0  1  0.74568890  0.49137780  0.39094753  1
  Cs  Cs1  1  0.75431110  0.50862220  0.89094753  1
  Cs  Cs2  1  0.45729234  0.91458469  0.86148732  1
  Cs  Cs3  1  0.25431110  0.50862220  0.60905247  1
  Cs  Cs4  1  0.95729234  0.91458469  0.63851268  1
  Cs  Cs5  1  0.04270766  0.08541531  0.36148732  1
  Cs  Cs6  1  0.24568890  0.49137780  0.10905247  1
  Cs  Cs7  1  0.54270766  0.08541531  0.13851268  1
  Fe  Fe8  1  0.62150927  0.24301855  0.65365009  1
  Fe  Fe9  1  0.37849073  0.75698145  0.34634991  1
  Fe  Fe10  1  0.87849073  0.75698145  0.15365009  1
  Fe  Fe11  1  0.50000000  0.00000000  0.50000000  1
  Fe  Fe12  1  0.12150927  0.24301855  0.84634991  1
  Fe  Fe13  1  0.00000000  0.00000000  0.00000000  1
  F  F14  1  0.24415177  0.48830355  0.35691172  1
  F  F15  1  0.02328989  0.04657978  0.14741353  1
  F  F16  1  0.31639327  0.19788458  0.96597741  1
  F  F17  1  0.38149131  0.19788458  0.53402259  1
  F  F18  1  0.75584823  0.51169645  0.64308828  1
  F  F19  1  0.61850869  0.80211542  0.46597741  1
  F  F20  1  0.25584823  0.51169645  0.85691172  1
  F  F21  1  0.68360673  0.80211542  0.03402259  1
  F  F22  1  0.11850869  0.80211542  0.03402259  1
  F  F23  1  0.63419234  0.76838469  0.25000000  1
  F  F24  1  0.86580766  0.23161531  0.75000000  1
  F  F25  1  0.97671011  0.95342022  0.85258647  1
  F  F26  1  0.88149131  0.19788458  0.96597741  1
  F  F27  1  0.18360673  0.80211542  0.46597741  1
  F  F28  1  0.81639327  0.19788458  0.53402259  1
  F  F29  1  0.52328989  0.04657978  0.35258647  1
  F  F30  1  0.74415177  0.48830355  0.14308828  1
  F  F31  1  0.47671011  0.95342022  0.64741353  1
  F  F32  1  0.36580766  0.23161531  0.75000000  1
  F  F33  1  0.13419234  0.76838469  0.25000000  1
