# generated using pymatgen
data_NaCoPO4
_symmetry_space_group_name_H-M   'P 1'
_cell_length_a   5.29741847
_cell_length_b   7.47522285
_cell_length_c   10.13521097
_cell_angle_alpha   90.00000000
_cell_angle_beta   90.00000000
_cell_angle_gamma   90.22631178
_symmetry_Int_Tables_number   1
_chemical_formula_structural   NaCoPO4
_chemical_formula_sum   'Na4 Co4 P4 O16'
_cell_volume   401.34497601
_cell_formula_units_Z   4
loop_
 _symmetry_equiv_pos_site_id
 _symmetry_equiv_pos_as_xyz
  1  'x, y, z'
loop_
 _atom_site_type_symbol
 _atom_site_label
 _atom_site_symmetry_multiplicity
 _atom_site_fract_x
 _atom_site_fract_y
 _atom_site_fract_z
 _atom_site_occupancy
  Na  Na0  1  0.71577964  0.51579631  0.11891891  1
  Na  Na1  1  0.21577964  0.01579631  0.38108109  1
  Na  Na2  1  0.28422036  0.48420369  0.88108109  1
  Na  Na3  1  0.78422036  0.98420369  0.61891891  1
  Co  Co4  1  0.79687521  0.49206723  0.66934781  1
  Co  Co5  1  0.70312479  0.00793277  0.16934781  1
  Co  Co6  1  0.29687521  0.99206723  0.83065219  1
  Co  Co7  1  0.20312479  0.50793277  0.33065219  1
  P  P8  1  0.30017451  0.72015689  0.59884003  1
  P  P9  1  0.19982549  0.77984311  0.09884003  1
  P  P10  1  0.69982549  0.27984311  0.40115997  1
  P  P11  1  0.80017451  0.22015689  0.90115997  1
  O  O12  1  0.74931084  0.21422183  0.05179979  1
  O  O13  1  0.91379483  0.79782217  0.13014810  1
  O  O14  1  0.78240371  0.08793107  0.35585581  1
  O  O15  1  0.24931084  0.71422183  0.44820021  1
  O  O16  1  0.34713876  0.92825355  0.17301240  1
  O  O17  1  0.41379483  0.29782217  0.36985190  1
  O  O18  1  0.65286124  0.07174645  0.82698760  1
  O  O19  1  0.28240371  0.58793107  0.14414419  1
  O  O20  1  0.58620517  0.70217783  0.63014810  1
  O  O21  1  0.15286124  0.57174645  0.67301240  1
  O  O22  1  0.08620517  0.20217783  0.86985190  1
  O  O23  1  0.25068916  0.78577817  0.94820021  1
  O  O24  1  0.75068916  0.28577817  0.55179979  1
  O  O25  1  0.21759629  0.91206893  0.64414419  1
  O  O26  1  0.84713876  0.42825355  0.32698760  1
  O  O27  1  0.71759629  0.41206893  0.85585581  1
