# generated using pymatgen
data_Ba3Y(BO3)3
_symmetry_space_group_name_H-M   'P 1'
_cell_length_a   9.50763560
_cell_length_b   9.50763560
_cell_length_c   18.11366402
_cell_angle_alpha   90.00000000
_cell_angle_beta   90.00000000
_cell_angle_gamma   120.00000000
_symmetry_Int_Tables_number   1
_chemical_formula_structural   Ba3Y(BO3)3
_chemical_formula_sum   'Ba18 Y6 B18 O54'
_cell_volume   1418.01882368
_cell_formula_units_Z   6
loop_
 _symmetry_equiv_pos_site_id
 _symmetry_equiv_pos_as_xyz
  1  'x, y, z'
loop_
 _atom_site_type_symbol
 _atom_site_label
 _atom_site_symmetry_multiplicity
 _atom_site_fract_x
 _atom_site_fract_y
 _atom_site_fract_z
 _atom_site_occupancy
  B  B0  1  0.65967021  0.65967021  0.42107107  1
  B  B1  1  0.00000000  0.65967021  0.92107107  1
  B  B2  1  0.65967021  0.00000000  0.92107107  1
  B  B3  1  0.34032979  0.00000000  0.42107107  1
  B  B4  1  0.00000000  0.34032979  0.42107107  1
  B  B5  1  0.34032979  0.34032979  0.92107107  1
  B  B6  1  0.66739929  0.66739929  0.24983732  1
  B  B7  1  0.00000000  0.66739929  0.74983732  1
  B  B8  1  0.66739929  0.00000000  0.74983732  1
  B  B9  1  0.33260071  0.00000000  0.24983732  1
  B  B10  1  0.00000000  0.33260071  0.24983732  1
  B  B11  1  0.33260071  0.33260071  0.74983732  1
  B  B12  1  0.67397353  0.67397353  0.07513188  1
  B  B13  1  0.00000000  0.67397353  0.57513188  1
  B  B14  1  0.67397353  0.00000000  0.57513188  1
  B  B15  1  0.32602647  0.00000000  0.07513188  1
  B  B16  1  0.00000000  0.32602647  0.07513188  1
  B  B17  1  0.32602647  0.32602647  0.57513188  1
  O  O18  1  0.85313668  0.66728452  0.75028929  1
  O  O19  1  0.00000000  0.80538250  0.93092975  1
  O  O20  1  0.80538250  0.00000000  0.93092975  1
  O  O21  1  0.19461750  0.00000000  0.43092975  1
  O  O22  1  0.00000000  0.19461750  0.43092975  1
  O  O23  1  0.66084007  0.14660023  0.91571846  1
  O  O24  1  0.18110440  0.18110440  0.58511441  1
  O  O25  1  0.00000000  0.18110440  0.08511441  1
  O  O26  1  0.18110440  0.00000000  0.08511441  1
  O  O27  1  0.81889560  0.00000000  0.58511441  1
  O  O28  1  0.00000000  0.81889560  0.58511441  1
  O  O29  1  0.81889560  0.81889560  0.08511441  1
  O  O30  1  0.32584084  0.47184549  0.57041996  1
  O  O31  1  0.85399535  0.32584084  0.07041996  1
  O  O32  1  0.47184549  0.14600465  0.07041996  1
  O  O33  1  0.52815451  0.85399535  0.57041996  1
  O  O34  1  0.14600465  0.67415916  0.57041996  1
  O  O35  1  0.67415916  0.52815451  0.07041996  1
  O  O36  1  0.14600465  0.47184549  0.07041996  1
  O  O37  1  0.32584084  0.85399535  0.07041996  1
  O  O38  1  0.52815451  0.67415916  0.07041996  1
  O  O39  1  0.47184549  0.32584084  0.57041996  1
  O  O40  1  0.85399535  0.52815451  0.57041996  1
  O  O41  1  0.67415916  0.14600465  0.57041996  1
  O  O42  1  0.18585217  0.33271548  0.75028929  1
  O  O43  1  0.85313668  0.18585217  0.25028929  1
  O  O44  1  0.33271548  0.14686332  0.25028929  1
  O  O45  1  0.66728452  0.85313668  0.75028929  1
  O  O46  1  0.14686332  0.81414783  0.75028929  1
  O  O47  1  0.81414783  0.66728452  0.25028929  1
  O  O48  1  0.14686332  0.33271548  0.25028929  1
  O  O49  1  0.18585217  0.85313668  0.25028929  1
  O  O50  1  0.66728452  0.81414783  0.25028929  1
  O  O51  1  0.33271548  0.18585217  0.75028929  1
  O  O52  1  0.80538250  0.80538250  0.43092975  1
  O  O53  1  0.81414783  0.14686332  0.75028929  1
  O  O54  1  0.47946676  0.47946676  0.74963410  1
  O  O55  1  0.00000000  0.47946676  0.24963410  1
  O  O56  1  0.47946676  0.00000000  0.24963410  1
  O  O57  1  0.52053324  0.00000000  0.74963410  1
  O  O58  1  0.00000000  0.52053324  0.74963410  1
  O  O59  1  0.52053324  0.52053324  0.24963410  1
  O  O60  1  0.33915993  0.48576017  0.91571846  1
  O  O61  1  0.85339977  0.33915993  0.41571846  1
  O  O62  1  0.48576017  0.14660023  0.41571846  1
  O  O63  1  0.51423983  0.85339977  0.91571846  1
  O  O64  1  0.14660023  0.66084007  0.91571846  1
  O  O65  1  0.66084007  0.51423983  0.41571846  1
  O  O66  1  0.14660023  0.48576017  0.41571846  1
  O  O67  1  0.33915993  0.85339977  0.41571846  1
  O  O68  1  0.51423983  0.66084007  0.41571846  1
  O  O69  1  0.48576017  0.33915993  0.91571846  1
  O  O70  1  0.85339977  0.51423983  0.91571846  1
  O  O71  1  0.19461750  0.19461750  0.93092975  1
  Y  Y72  1  0.00000000  0.00000000  0.00359612  1
  Y  Y73  1  0.00000000  0.00000000  0.50359612  1
  Y  Y74  1  0.66666667  0.33333333  0.99768682  1
  Y  Y75  1  0.33333333  0.66666667  0.49768682  1
  Y  Y76  1  0.66666667  0.33333333  0.49768682  1
  Y  Y77  1  0.33333333  0.66666667  0.99768682  1
  Ba  Ba78  1  0.33333333  0.66666667  0.27810193  1
  Ba  Ba79  1  0.00000000  0.65130922  0.13211716  1
  Ba  Ba80  1  0.65130922  0.00000000  0.13211716  1
  Ba  Ba81  1  0.34869078  0.00000000  0.63211716  1
  Ba  Ba82  1  0.00000000  0.34869078  0.63211716  1
  Ba  Ba83  1  0.34869078  0.34869078  0.13211716  1
  Ba  Ba84  1  0.65130922  0.65130922  0.63211716  1
  Ba  Ba85  1  0.66666667  0.33333333  0.77810193  1
  Ba  Ba86  1  0.33333333  0.66666667  0.77810193  1
  Ba  Ba87  1  0.66666667  0.33333333  0.27810193  1
  Ba  Ba88  1  0.00000000  0.00000000  0.71707842  1
  Ba  Ba89  1  0.00000000  0.00000000  0.21707842  1
  Ba  Ba90  1  0.31700122  0.31700122  0.36925820  1
  Ba  Ba91  1  0.00000000  0.31700122  0.86925820  1
  Ba  Ba92  1  0.31700122  0.00000000  0.86925820  1
  Ba  Ba93  1  0.68299878  0.00000000  0.36925820  1
  Ba  Ba94  1  0.00000000  0.68299878  0.36925820  1
  Ba  Ba95  1  0.68299878  0.68299878  0.86925820  1
