# generated using pymatgen
data_Na2ZnCl4
_symmetry_space_group_name_H-M   'P 1'
_cell_length_a   6.47085303
_cell_length_b   8.14488852
_cell_length_c   13.93000948
_cell_angle_alpha   90.00000000
_cell_angle_beta   90.00000000
_cell_angle_gamma   90.00000000
_symmetry_Int_Tables_number   1
_chemical_formula_structural   Na2ZnCl4
_chemical_formula_sum   'Na8 Zn4 Cl16'
_cell_volume   734.17246510
_cell_formula_units_Z   4
loop_
 _symmetry_equiv_pos_site_id
 _symmetry_equiv_pos_as_xyz
  1  'x, y, z'
loop_
 _atom_site_type_symbol
 _atom_site_label
 _atom_site_symmetry_multiplicity
 _atom_site_fract_x
 _atom_site_fract_y
 _atom_site_fract_z
 _atom_site_occupancy
  Na  Na0  1  0.50000000  0.00000000  0.50000000  1
  Na  Na1  1  0.50000000  0.50000000  0.50000000  1
  Na  Na2  1  0.49615657  0.75000000  0.23171267  1
  Na  Na3  1  0.99615657  0.25000000  0.26828733  1
  Na  Na4  1  0.00384343  0.75000000  0.73171267  1
  Na  Na5  1  0.00000000  0.00000000  0.00000000  1
  Na  Na6  1  0.50384343  0.25000000  0.76828733  1
  Na  Na7  1  0.00000000  0.50000000  0.00000000  1
  Zn  Zn8  1  0.08635567  0.25000000  0.59065006  1
  Zn  Zn9  1  0.58635567  0.75000000  0.90934994  1
  Zn  Zn10  1  0.91364433  0.75000000  0.40934994  1
  Zn  Zn11  1  0.41364433  0.25000000  0.09065006  1
  Cl  Cl12  1  0.26431367  0.75000000  0.40765767  1
  Cl  Cl13  1  0.23104373  0.25000000  0.43826846  1
  Cl  Cl14  1  0.76169706  0.97330973  0.33524900  1
  Cl  Cl15  1  0.73104373  0.75000000  0.06173154  1
  Cl  Cl16  1  0.76431367  0.25000000  0.09234233  1
  Cl  Cl17  1  0.73568633  0.25000000  0.59234233  1
  Cl  Cl18  1  0.26169706  0.47330973  0.16475100  1
  Cl  Cl19  1  0.26895627  0.25000000  0.93826846  1
  Cl  Cl20  1  0.73830294  0.97330973  0.83524900  1
  Cl  Cl21  1  0.23830294  0.47330973  0.66475100  1
  Cl  Cl22  1  0.23830294  0.02669027  0.66475100  1
  Cl  Cl23  1  0.26169706  0.02669027  0.16475100  1
  Cl  Cl24  1  0.76169706  0.52669027  0.33524900  1
  Cl  Cl25  1  0.23568633  0.75000000  0.90765767  1
  Cl  Cl26  1  0.76895627  0.75000000  0.56173154  1
  Cl  Cl27  1  0.73830294  0.52669027  0.83524900  1
