# generated using pymatgen
data_Rb4V5CdClO15
_symmetry_space_group_name_H-M   'P 1'
_cell_length_a   5.78633265
_cell_length_b   9.28674294
_cell_length_c   9.28674294
_cell_angle_alpha   90.00000000
_cell_angle_beta   90.00000000
_cell_angle_gamma   90.00000000
_symmetry_Int_Tables_number   1
_chemical_formula_structural   Rb4V5CdClO15
_chemical_formula_sum   'Rb4 V5 Cd1 Cl1 O15'
_cell_volume   499.03412632
_cell_formula_units_Z   1
loop_
 _symmetry_equiv_pos_site_id
 _symmetry_equiv_pos_as_xyz
  1  'x, y, z'
loop_
 _atom_site_type_symbol
 _atom_site_label
 _atom_site_symmetry_multiplicity
 _atom_site_fract_x
 _atom_site_fract_y
 _atom_site_fract_z
 _atom_site_occupancy
  Rb  Rb0  1  0.93796562  0.83523856  0.67648635  1
  Rb  Rb1  1  0.93796562  0.67648635  0.16476144  1
  Rb  Rb2  1  0.93796562  0.16476144  0.32351365  1
  Rb  Rb3  1  0.93796562  0.32351365  0.83523856  1
  V  V4  1  0.46111480  0.14266255  0.61763782  1
  V  V5  1  0.46111480  0.38236218  0.14266255  1
  V  V6  1  0.46111480  0.85733745  0.38236218  1
  V  V7  1  0.48879332  0.50000000  0.50000000  1
  V  V8  1  0.46111480  0.61763782  0.85733745  1
  Cd  Cd9  1  0.48957493  0.00000000  0.00000000  1
  Cl  Cl10  1  0.04385807  0.00000000  0.00000000  1
  O  O11  1  0.17268724  0.38528051  0.14302819  1
  O  O12  1  0.57203256  0.50000000  0.00000000  1
  O  O13  1  0.56235069  0.11229087  0.78735055  1
  O  O14  1  0.56235069  0.21264945  0.11229087  1
  O  O15  1  0.17268724  0.14302819  0.61471949  1
  O  O16  1  0.20819559  0.50000000  0.50000000  1
  O  O17  1  0.56235069  0.88770913  0.21264945  1
  O  O18  1  0.57563489  0.68982623  0.44575495  1
  O  O19  1  0.57563489  0.55424505  0.68982623  1
  O  O20  1  0.57563489  0.44575495  0.31017377  1
  O  O21  1  0.57203256  0.00000000  0.50000000  1
  O  O22  1  0.17268724  0.85697181  0.38528051  1
  O  O23  1  0.56235069  0.78735055  0.88770913  1
  O  O24  1  0.17268724  0.61471949  0.85697181  1
  O  O25  1  0.57563489  0.31017377  0.55424505  1
