# generated using pymatgen
data_Ba2NbCrO6
_symmetry_space_group_name_H-M   'P 1'
_cell_length_a   5.83300656
_cell_length_b   5.83300656
_cell_length_c   19.19067285
_cell_angle_alpha   90.00000000
_cell_angle_beta   90.00000000
_cell_angle_gamma   120.00000001
_symmetry_Int_Tables_number   1
_chemical_formula_structural   Ba2NbCrO6
_chemical_formula_sum   'Ba8 Nb4 Cr4 O24'
_cell_volume   565.46504452
_cell_formula_units_Z   4
loop_
 _symmetry_equiv_pos_site_id
 _symmetry_equiv_pos_as_xyz
  1  'x, y, z'
loop_
 _atom_site_type_symbol
 _atom_site_label
 _atom_site_symmetry_multiplicity
 _atom_site_fract_x
 _atom_site_fract_y
 _atom_site_fract_z
 _atom_site_occupancy
  O  O0  1  0.16966175  0.83033825  0.87927516  1
  O  O1  1  0.16966175  0.33932350  0.87927516  1
  O  O2  1  0.66067650  0.83033825  0.87927516  1
  O  O3  1  0.33932350  0.16966175  0.37927516  1
  O  O4  1  0.83033825  0.66067650  0.12072484  1
  O  O5  1  0.83033825  0.16966175  0.37927516  1
  O  O6  1  0.83033825  0.66067650  0.37927516  1
  O  O7  1  0.16966175  0.83033825  0.62072484  1
  O  O8  1  0.66067650  0.83033825  0.62072484  1
  O  O9  1  0.33932350  0.16966175  0.12072484  1
  O  O10  1  0.83033825  0.16966175  0.12072484  1
  O  O11  1  0.16966175  0.33932350  0.62072484  1
  O  O12  1  0.84973188  0.69946376  0.75000000  1
  O  O13  1  0.15026812  0.84973188  0.25000000  1
  O  O14  1  0.69946376  0.84973188  0.25000000  1
  O  O15  1  0.30053624  0.15026812  0.75000000  1
  O  O16  1  0.50000000  0.00000000  0.00000000  1
  O  O17  1  0.50000000  0.50000000  0.50000000  1
  O  O18  1  0.00000000  0.50000000  0.50000000  1
  O  O19  1  0.00000000  0.50000000  0.00000000  1
  O  O20  1  0.50000000  0.50000000  0.00000000  1
  O  O21  1  0.50000000  0.00000000  0.50000000  1
  O  O22  1  0.15026812  0.30053624  0.25000000  1
  O  O23  1  0.84973188  0.15026812  0.75000000  1
  Cr  Cr24  1  0.00000000  0.00000000  0.18168528  1
  Cr  Cr25  1  0.00000000  0.00000000  0.68168528  1
  Cr  Cr26  1  0.00000000  0.00000000  0.81831472  1
  Cr  Cr27  1  0.00000000  0.00000000  0.31831472  1
  Nb  Nb28  1  0.33333333  0.66666667  0.56399601  1
  Nb  Nb29  1  0.66666667  0.33333333  0.06399601  1
  Nb  Nb30  1  0.66666667  0.33333333  0.43600399  1
  Nb  Nb31  1  0.33333333  0.66666667  0.93600399  1
  Ba  Ba32  1  0.33333333  0.66666667  0.35818407  1
  Ba  Ba33  1  0.66666667  0.33333333  0.85818407  1
  Ba  Ba34  1  0.66666667  0.33333333  0.64181593  1
  Ba  Ba35  1  0.33333333  0.66666667  0.14181593  1
  Ba  Ba36  1  0.66666667  0.33333333  0.25000000  1
  Ba  Ba37  1  0.33333333  0.66666667  0.75000000  1
  Ba  Ba38  1  0.00000000  0.00000000  0.50000000  1
  Ba  Ba39  1  0.00000000  0.00000000  0.00000000  1
