# generated using pymatgen
data_NdHO2
_symmetry_space_group_name_H-M   'P 1'
_cell_length_a   4.35718156
_cell_length_b   3.85262857
_cell_length_c   6.56001437
_cell_angle_alpha   90.00000000
_cell_angle_beta   113.08302035
_cell_angle_gamma   90.00000000
_symmetry_Int_Tables_number   1
_chemical_formula_structural   NdHO2
_chemical_formula_sum   'Nd2 H2 O4'
_cell_volume   101.30386576
_cell_formula_units_Z   2
loop_
 _symmetry_equiv_pos_site_id
 _symmetry_equiv_pos_as_xyz
  1  'x, y, z'
loop_
 _atom_site_type_symbol
 _atom_site_label
 _atom_site_symmetry_multiplicity
 _atom_site_fract_x
 _atom_site_fract_y
 _atom_site_fract_z
 _atom_site_occupancy
  Nd  Nd0  1  0.63700432  0.23829141  0.30746347  1
  Nd  Nd1  1  0.36299568  0.73829141  0.69253653  1
  H  H2  1  0.07290649  0.60470949  0.02831680  1
  H  H3  1  0.92709351  0.10470949  0.97168320  1
  O  O4  1  0.77598473  0.74027861  0.53273206  1
  O  O5  1  0.22401527  0.24027861  0.46726794  1
  O  O6  1  0.27632830  0.73733349  0.04500568  1
  O  O7  1  0.72367170  0.23733349  0.95499432  1
