# generated using pymatgen
data_U(PbO2)3
_symmetry_space_group_name_H-M   'P 1'
_cell_length_a   8.32780229
_cell_length_b   12.55993915
_cell_length_c   13.90176774
_cell_angle_alpha   90.00000000
_cell_angle_beta   90.00000000
_cell_angle_gamma   90.00000000
_symmetry_Int_Tables_number   1
_chemical_formula_structural   U(PbO2)3
_chemical_formula_sum   'U8 Pb24 O48'
_cell_volume   1454.07889097
_cell_formula_units_Z   8
loop_
 _symmetry_equiv_pos_site_id
 _symmetry_equiv_pos_as_xyz
  1  'x, y, z'
loop_
 _atom_site_type_symbol
 _atom_site_label
 _atom_site_symmetry_multiplicity
 _atom_site_fract_x
 _atom_site_fract_y
 _atom_site_fract_z
 _atom_site_occupancy
  U  U0  1  0.50207440  0.75968398  0.91373133  1
  U  U1  1  0.99792560  0.74031602  0.41373133  1
  U  U2  1  0.00207440  0.25968398  0.58626867  1
  U  U3  1  0.49792560  0.25968398  0.58626867  1
  U  U4  1  0.99792560  0.75968398  0.91373133  1
  U  U5  1  0.50207440  0.74031602  0.41373133  1
  U  U6  1  0.00207440  0.24031602  0.08626867  1
  U  U7  1  0.49792560  0.24031602  0.08626867  1
  Pb  Pb8  1  0.53187896  0.50475558  0.76831920  1
  Pb  Pb9  1  0.75000000  0.23116407  0.85185330  1
  Pb  Pb10  1  0.25000000  0.98461288  0.49636142  1
  Pb  Pb11  1  0.96812104  0.99524442  0.26831920  1
  Pb  Pb12  1  0.25000000  0.23790067  0.31731007  1
  Pb  Pb13  1  0.46812104  0.49524442  0.23168080  1
  Pb  Pb14  1  0.25000000  0.76883593  0.14814670  1
  Pb  Pb15  1  0.75000000  0.26883593  0.35185330  1
  Pb  Pb16  1  0.75000000  0.52859459  0.53318479  1
  Pb  Pb17  1  0.03187896  0.00475558  0.73168080  1
  Pb  Pb18  1  0.53187896  0.99524442  0.26831920  1
  Pb  Pb19  1  0.96812104  0.50475558  0.76831920  1
  Pb  Pb20  1  0.25000000  0.02859459  0.96681521  1
  Pb  Pb21  1  0.25000000  0.26209933  0.81731007  1
  Pb  Pb22  1  0.46812104  0.00475558  0.73168080  1
  Pb  Pb23  1  0.25000000  0.47140541  0.46681521  1
  Pb  Pb24  1  0.75000000  0.97140541  0.03318479  1
  Pb  Pb25  1  0.03187896  0.49524442  0.23168080  1
  Pb  Pb26  1  0.75000000  0.01538712  0.50363858  1
  Pb  Pb27  1  0.75000000  0.73790067  0.18268993  1
  Pb  Pb28  1  0.25000000  0.51538712  0.99636142  1
  Pb  Pb29  1  0.25000000  0.73116407  0.64814670  1
  Pb  Pb30  1  0.75000000  0.48461288  0.00363858  1
  Pb  Pb31  1  0.75000000  0.76209933  0.68268993  1
  O  O32  1  0.53835689  0.22647591  0.72874687  1
  O  O33  1  0.46164311  0.72647591  0.77125313  1
  O  O34  1  0.94218082  0.70584754  0.55179732  1
  O  O35  1  0.25000000  0.41550144  0.29899996  1
  O  O36  1  0.55179301  0.41847436  0.60848930  1
  O  O37  1  0.96164311  0.22647591  0.72874687  1
  O  O38  1  0.25000000  0.72508338  0.96113209  1
  O  O39  1  0.04964362  0.09910455  0.56785697  1
  O  O40  1  0.75000000  0.79172542  0.87051217  1
  O  O41  1  0.94820699  0.41847436  0.60848930  1
  O  O42  1  0.05781918  0.20584754  0.94820268  1
  O  O43  1  0.44820699  0.91847436  0.89151070  1
  O  O44  1  0.95035638  0.59910455  0.93214303  1
  O  O45  1  0.44218082  0.20584754  0.94820268  1
  O  O46  1  0.75000000  0.22508338  0.53886791  1
  O  O47  1  0.55781918  0.70584754  0.55179732  1
  O  O48  1  0.45035638  0.09910455  0.56785697  1
  O  O49  1  0.54964362  0.59910455  0.93214303  1
  O  O50  1  0.03835689  0.77352409  0.27125313  1
  O  O51  1  0.75000000  0.08545463  0.34675304  1
  O  O52  1  0.05179301  0.91847436  0.89151070  1
  O  O53  1  0.46164311  0.77352409  0.27125313  1
  O  O54  1  0.44218082  0.29415246  0.44820268  1
  O  O55  1  0.94820699  0.08152564  0.10848930  1
  O  O56  1  0.25000000  0.08449856  0.79899996  1
  O  O57  1  0.25000000  0.91454537  0.65324696  1
  O  O58  1  0.25000000  0.77491662  0.46113209  1
  O  O59  1  0.53835689  0.27352409  0.22874687  1
  O  O60  1  0.25000000  0.29172542  0.62948783  1
  O  O61  1  0.75000000  0.27491662  0.03886791  1
  O  O62  1  0.05781918  0.29415246  0.44820268  1
  O  O63  1  0.75000000  0.41454537  0.84675304  1
  O  O64  1  0.04964362  0.40089545  0.06785697  1
  O  O65  1  0.55781918  0.79415246  0.05179732  1
  O  O66  1  0.75000000  0.58449856  0.70100004  1
  O  O67  1  0.25000000  0.20827458  0.12948783  1
  O  O68  1  0.44820699  0.58152564  0.39151070  1
  O  O69  1  0.75000000  0.70827458  0.37051217  1
  O  O70  1  0.96164311  0.27352409  0.22874687  1
  O  O71  1  0.75000000  0.91550144  0.20100004  1
  O  O72  1  0.03835689  0.72647591  0.77125313  1
  O  O73  1  0.55179301  0.08152564  0.10848930  1
  O  O74  1  0.45035638  0.40089545  0.06785697  1
  O  O75  1  0.94218082  0.79415246  0.05179732  1
  O  O76  1  0.95035638  0.90089545  0.43214303  1
  O  O77  1  0.05179301  0.58152564  0.39151070  1
  O  O78  1  0.25000000  0.58545463  0.15324696  1
  O  O79  1  0.54964362  0.90089545  0.43214303  1
