# generated using pymatgen
data_Ca3ScCoO6
_symmetry_space_group_name_H-M   'P 1'
_cell_length_a   6.39639905
_cell_length_b   6.39639973
_cell_length_c   6.39639978
_cell_angle_alpha   92.46592075
_cell_angle_beta   92.46592105
_cell_angle_gamma   92.46591546
_symmetry_Int_Tables_number   1
_chemical_formula_structural   Ca3ScCoO6
_chemical_formula_sum   'Ca6 Sc2 Co2 O12'
_cell_volume   260.95322939
_cell_formula_units_Z   2
loop_
 _symmetry_equiv_pos_site_id
 _symmetry_equiv_pos_as_xyz
  1  'x, y, z'
loop_
 _atom_site_type_symbol
 _atom_site_label
 _atom_site_symmetry_multiplicity
 _atom_site_fract_x
 _atom_site_fract_y
 _atom_site_fract_z
 _atom_site_occupancy
  Ca  Ca0  1  0.75000000  0.38162867  0.11837133  1
  Ca  Ca1  1  0.11837133  0.75000000  0.38162867  1
  Ca  Ca2  1  0.38162867  0.11837133  0.75000000  1
  Ca  Ca3  1  0.61837133  0.88162867  0.25000000  1
  Ca  Ca4  1  0.88162867  0.25000000  0.61837133  1
  Ca  Ca5  1  0.25000000  0.61837133  0.88162867  1
  Sc  Sc6  1  0.25000000  0.25000000  0.25000000  1
  Sc  Sc7  1  0.75000000  0.75000000  0.75000000  1
  Co  Co8  1  0.50000000  0.50000000  0.50000000  1
  Co  Co9  1  0.00000000  0.00000000  0.00000000  1
  O  O10  1  0.95761192  0.08838292  0.29044480  1
  O  O11  1  0.04238808  0.91161708  0.70955520  1
  O  O12  1  0.91161708  0.70955520  0.04238808  1
  O  O13  1  0.29044480  0.95761192  0.08838292  1
  O  O14  1  0.54238808  0.20955520  0.41161708  1
  O  O15  1  0.70955520  0.04238808  0.91161708  1
  O  O16  1  0.58838292  0.45761192  0.79044480  1
  O  O17  1  0.20955520  0.41161708  0.54238808  1
  O  O18  1  0.41161708  0.54238808  0.20955520  1
  O  O19  1  0.45761192  0.79044480  0.58838292  1
  O  O20  1  0.08838292  0.29044480  0.95761192  1
  O  O21  1  0.79044480  0.58838292  0.45761192  1
