# generated using pymatgen
data_Ti2Co(PO5)2
_symmetry_space_group_name_H-M   'P 1'
_cell_length_a   7.43598497
_cell_length_b   7.45316225
_cell_length_c   7.43649918
_cell_angle_alpha   90.00000000
_cell_angle_beta   119.46194867
_cell_angle_gamma   90.00000000
_symmetry_Int_Tables_number   1
_chemical_formula_structural   Ti2Co(PO5)2
_chemical_formula_sum   'Ti4 Co2 P4 O20'
_cell_volume   358.84545074
_cell_formula_units_Z   2
loop_
 _symmetry_equiv_pos_site_id
 _symmetry_equiv_pos_as_xyz
  1  'x, y, z'
loop_
 _atom_site_type_symbol
 _atom_site_label
 _atom_site_symmetry_multiplicity
 _atom_site_fract_x
 _atom_site_fract_y
 _atom_site_fract_z
 _atom_site_occupancy
  Ti  Ti0  1  0.76519999  0.22284965  0.79230649  1
  Ti  Ti1  1  0.76519999  0.27715035  0.29230649  1
  Ti  Ti2  1  0.23480001  0.72284965  0.70769351  1
  Ti  Ti3  1  0.23480001  0.77715035  0.20769351  1
  Co  Co4  1  0.50000000  0.00000000  0.00000000  1
  Co  Co5  1  0.50000000  0.50000000  0.50000000  1
  P  P6  1  0.74658340  0.87834661  0.49608213  1
  P  P7  1  0.25341660  0.12165339  0.50391787  1
  P  P8  1  0.74658340  0.62165339  0.99608213  1
  P  P9  1  0.25341660  0.37834661  0.00391787  1
  O  O10  1  0.73063864  0.34125349  0.49955140  1
  O  O11  1  0.94340148  0.76475946  0.57337295  1
  O  O12  1  0.28153691  0.50399602  0.18315344  1
  O  O13  1  0.73063864  0.15874651  0.99955140  1
  O  O14  1  0.55929639  0.74969384  0.41230583  1
  O  O15  1  0.55929639  0.75030616  0.91230583  1
  O  O16  1  0.76029678  0.99234808  0.67573324  1
  O  O17  1  0.05659852  0.26475946  0.92662705  1
  O  O18  1  0.94340148  0.73524054  0.07337295  1
  O  O19  1  0.44070361  0.24969384  0.08769417  1
  O  O20  1  0.26936136  0.65874651  0.50044860  1
  O  O21  1  0.26936136  0.84125349  0.00044860  1
  O  O22  1  0.76029678  0.50765192  0.17573324  1
  O  O23  1  0.71846309  0.49600398  0.81684656  1
  O  O24  1  0.23970322  0.00765192  0.32426676  1
  O  O25  1  0.28153691  0.99600398  0.68315344  1
  O  O26  1  0.23970322  0.49234808  0.82426676  1
  O  O27  1  0.05659852  0.23524054  0.42662705  1
  O  O28  1  0.71846309  0.00399602  0.31684656  1
  O  O29  1  0.44070361  0.25030616  0.58769417  1
