# generated using pymatgen
data_HPbBrO
_symmetry_space_group_name_H-M   'P 1'
_cell_length_a   7.50472271
_cell_length_b   4.14855016
_cell_length_c   10.17900233
_cell_angle_alpha   90.00000000
_cell_angle_beta   90.00000000
_cell_angle_gamma   90.00000000
_symmetry_Int_Tables_number   1
_chemical_formula_structural   HPbBrO
_chemical_formula_sum   'H4 Pb4 Br4 O4'
_cell_volume   316.91019416
_cell_formula_units_Z   4
loop_
 _symmetry_equiv_pos_site_id
 _symmetry_equiv_pos_as_xyz
  1  'x, y, z'
loop_
 _atom_site_type_symbol
 _atom_site_label
 _atom_site_symmetry_multiplicity
 _atom_site_fract_x
 _atom_site_fract_y
 _atom_site_fract_z
 _atom_site_occupancy
  H  H0  1  0.79806718  0.25000000  0.11419281  1
  H  H1  1  0.29806718  0.25000000  0.38580719  1
  H  H2  1  0.20193282  0.75000000  0.88580719  1
  H  H3  1  0.70193282  0.75000000  0.61419281  1
  Pb  Pb4  1  0.69559556  0.25000000  0.41581470  1
  Pb  Pb5  1  0.19559556  0.25000000  0.08418530  1
  Pb  Pb6  1  0.30440444  0.75000000  0.58418530  1
  Pb  Pb7  1  0.80440444  0.75000000  0.91581470  1
  Br  Br8  1  0.55437223  0.75000000  0.17984652  1
  Br  Br9  1  0.05437223  0.75000000  0.32015348  1
  Br  Br10  1  0.44562777  0.25000000  0.82015348  1
  Br  Br11  1  0.94562777  0.25000000  0.67984652  1
  O  O12  1  0.87765172  0.25000000  0.03834703  1
  O  O13  1  0.37765172  0.25000000  0.46165297  1
  O  O14  1  0.12234828  0.75000000  0.96165297  1
  O  O15  1  0.62234828  0.75000000  0.53834703  1
