# generated using pymatgen
data_Gd10S19
_symmetry_space_group_name_H-M   'P 1'
_cell_length_a   8.74634801
_cell_length_b   8.74634801
_cell_length_c   15.87897922
_cell_angle_alpha   90.00000000
_cell_angle_beta   90.00000000
_cell_angle_gamma   90.00000000
_symmetry_Int_Tables_number   1
_chemical_formula_structural   Gd10S19
_chemical_formula_sum   'Gd20 S38'
_cell_volume   1214.71973553
_cell_formula_units_Z   2
loop_
 _symmetry_equiv_pos_site_id
 _symmetry_equiv_pos_as_xyz
  1  'x, y, z'
loop_
 _atom_site_type_symbol
 _atom_site_label
 _atom_site_symmetry_multiplicity
 _atom_site_fract_x
 _atom_site_fract_y
 _atom_site_fract_z
 _atom_site_occupancy
  Gd  Gd0  1  0.55443615  0.85444358  0.39704979  1
  Gd  Gd1  1  0.25000000  0.75000000  0.11420875  1
  Gd  Gd2  1  0.15129466  0.04100245  0.37811846  1
  Gd  Gd3  1  0.05443615  0.35444358  0.60295021  1
  Gd  Gd4  1  0.95899755  0.65129466  0.87811846  1
  Gd  Gd5  1  0.34870534  0.45899755  0.37811846  1
  Gd  Gd6  1  0.84870534  0.95899755  0.62188154  1
  Gd  Gd7  1  0.75000000  0.25000000  0.38579125  1
  Gd  Gd8  1  0.65129466  0.54100245  0.62188154  1
  Gd  Gd9  1  0.44556385  0.14555642  0.60295021  1
  Gd  Gd10  1  0.45899755  0.15129466  0.12188154  1
  Gd  Gd11  1  0.25000000  0.75000000  0.61420875  1
  Gd  Gd12  1  0.75000000  0.25000000  0.88579125  1
  Gd  Gd13  1  0.54100245  0.84870534  0.87811846  1
  Gd  Gd14  1  0.04100245  0.34870534  0.12188154  1
  Gd  Gd15  1  0.85444358  0.94556385  0.10295021  1
  Gd  Gd16  1  0.64555642  0.55443615  0.10295021  1
  Gd  Gd17  1  0.94556385  0.64555642  0.39704979  1
  Gd  Gd18  1  0.14555642  0.05443615  0.89704979  1
  Gd  Gd19  1  0.35444358  0.44556385  0.89704979  1
  S  S20  1  0.54855581  0.84843511  0.57310187  1
  S  S21  1  0.94620613  0.64875742  0.06215514  1
  S  S22  1  0.84843511  0.95144419  0.92689813  1
  S  S23  1  0.04855581  0.34843511  0.42689813  1
  S  S24  1  0.11514732  0.57429926  0.24989614  1
  S  S25  1  0.85124258  0.94620613  0.43784486  1
  S  S26  1  0.38485268  0.92570074  0.24989614  1
  S  S27  1  0.25000000  0.75000000  0.93428593  1
  S  S28  1  0.14875742  0.05379387  0.56215514  1
  S  S29  1  0.57429926  0.38485268  0.25010386  1
  S  S30  1  0.92570074  0.11514732  0.25010386  1
  S  S31  1  0.64875742  0.55379387  0.43784486  1
  S  S32  1  0.69523451  0.02840688  0.25029089  1
  S  S33  1  0.34843511  0.45144419  0.07310187  1
  S  S34  1  0.52840688  0.30476549  0.75029089  1
  S  S35  1  0.19523451  0.52840688  0.74970911  1
  S  S36  1  0.80476549  0.47159312  0.25029089  1
  S  S37  1  0.05379387  0.35124258  0.93784486  1
  S  S38  1  0.02840688  0.80476549  0.24970911  1
  S  S39  1  0.35124258  0.44620613  0.56215514  1
  S  S40  1  0.55379387  0.85124258  0.06215514  1
  S  S41  1  0.44620613  0.14875742  0.93784486  1
  S  S42  1  0.15156489  0.04855581  0.07310187  1
  S  S43  1  0.65156489  0.54855581  0.92689813  1
  S  S44  1  0.30476549  0.97159312  0.74970911  1
  S  S45  1  0.75000000  0.75000000  0.75000000  1
  S  S46  1  0.75000000  0.25000000  0.56571407  1
  S  S47  1  0.75000000  0.25000000  0.06571407  1
  S  S48  1  0.61514732  0.07429926  0.75010386  1
  S  S49  1  0.95144419  0.65156489  0.57310187  1
  S  S50  1  0.88485268  0.42570074  0.75010386  1
  S  S51  1  0.42570074  0.61514732  0.74989614  1
  S  S52  1  0.07429926  0.88485268  0.74989614  1
  S  S53  1  0.47159312  0.69523451  0.24970911  1
  S  S54  1  0.97159312  0.19523451  0.75029089  1
  S  S55  1  0.25000000  0.75000000  0.43428593  1
  S  S56  1  0.45144419  0.15156489  0.42689813  1
  S  S57  1  0.25000000  0.25000000  0.25000000  1
