# generated using pymatgen
data_K3Nd2(NO3)9
_symmetry_space_group_name_H-M   'P 1'
_cell_length_a   13.71011609
_cell_length_b   13.71011609
_cell_length_c   13.71011609
_cell_angle_alpha   90.00000000
_cell_angle_beta   90.00000000
_cell_angle_gamma   90.00000000
_symmetry_Int_Tables_number   1
_chemical_formula_structural   K3Nd2(NO3)9
_chemical_formula_sum   'K12 Nd8 N36 O108'
_cell_volume   2577.05327381
_cell_formula_units_Z   4
loop_
 _symmetry_equiv_pos_site_id
 _symmetry_equiv_pos_as_xyz
  1  'x, y, z'
loop_
 _atom_site_type_symbol
 _atom_site_label
 _atom_site_symmetry_multiplicity
 _atom_site_fract_x
 _atom_site_fract_y
 _atom_site_fract_z
 _atom_site_occupancy
  K  K0  1  0.87500000  0.81181616  0.56181616  1
  K  K1  1  0.43818384  0.37500000  0.68818384  1
  K  K2  1  0.37500000  0.68818384  0.43818384  1
  K  K3  1  0.31181616  0.93818384  0.12500000  1
  K  K4  1  0.56181616  0.87500000  0.81181616  1
  K  K5  1  0.18818384  0.06181616  0.62500000  1
  K  K6  1  0.06181616  0.62500000  0.18818384  1
  K  K7  1  0.12500000  0.31181616  0.93818384  1
  K  K8  1  0.68818384  0.43818384  0.37500000  1
  K  K9  1  0.62500000  0.18818384  0.06181616  1
  K  K10  1  0.81181616  0.56181616  0.87500000  1
  K  K11  1  0.93818384  0.12500000  0.31181616  1
  Nd  Nd12  1  0.05010780  0.44989220  0.55010780  1
  Nd  Nd13  1  0.55010780  0.05010780  0.44989220  1
  Nd  Nd14  1  0.44989220  0.55010780  0.05010780  1
  Nd  Nd15  1  0.30010780  0.30010780  0.30010780  1
  Nd  Nd16  1  0.94989220  0.94989220  0.94989220  1
  Nd  Nd17  1  0.80010780  0.19989220  0.69989220  1
  Nd  Nd18  1  0.19989220  0.69989220  0.80010780  1
  Nd  Nd19  1  0.69989220  0.80010780  0.19989220  1
  N  N20  1  0.09863459  0.08668127  0.86115587  1
  N  N21  1  0.40136541  0.91331873  0.36115587  1
  N  N22  1  0.90136541  0.58668127  0.63884413  1
  N  N23  1  0.41331873  0.13884413  0.59863459  1
  N  N24  1  0.48615356  0.76384644  0.12500000  1
  N  N25  1  0.87500000  0.98615356  0.73615356  1
  N  N26  1  0.11115587  0.83668127  0.65136541  1
  N  N27  1  0.38884413  0.16331873  0.15136541  1
  N  N28  1  0.65136541  0.11115587  0.83668127  1
  N  N29  1  0.16331873  0.15136541  0.38884413  1
  N  N30  1  0.61115587  0.66331873  0.34863459  1
  N  N31  1  0.83668127  0.65136541  0.11115587  1
  N  N32  1  0.73615356  0.87500000  0.98615356  1
  N  N33  1  0.08668127  0.86115587  0.09863459  1
  N  N34  1  0.37500000  0.51384644  0.26384644  1
  N  N35  1  0.98615356  0.73615356  0.87500000  1
  N  N36  1  0.26384644  0.37500000  0.51384644  1
  N  N37  1  0.36115587  0.40136541  0.91331873  1
  N  N38  1  0.91331873  0.36115587  0.40136541  1
  N  N39  1  0.88884413  0.33668127  0.84863459  1
  N  N40  1  0.23615356  0.62500000  0.01384644  1
  N  N41  1  0.76384644  0.12500000  0.48615356  1
  N  N42  1  0.59863459  0.41331873  0.13884413  1
  N  N43  1  0.62500000  0.01384644  0.23615356  1
  N  N44  1  0.51384644  0.26384644  0.37500000  1
  N  N45  1  0.86115587  0.09863459  0.08668127  1
  N  N46  1  0.01384644  0.23615356  0.62500000  1
  N  N47  1  0.12500000  0.48615356  0.76384644  1
  N  N48  1  0.13884413  0.59863459  0.41331873  1
  N  N49  1  0.33668127  0.84863459  0.88884413  1
  N  N50  1  0.63884413  0.90136541  0.58668127  1
  N  N51  1  0.84863459  0.88884413  0.33668127  1
  N  N52  1  0.66331873  0.34863459  0.61115587  1
  N  N53  1  0.34863459  0.61115587  0.66331873  1
  N  N54  1  0.15136541  0.38884413  0.16331873  1
  N  N55  1  0.58668127  0.63884413  0.90136541  1
  O  O56  1  0.50256273  0.67507849  0.91882203  1
  O  O57  1  0.99254834  0.15310053  0.65690587  1
  O  O58  1  0.19721641  0.37500000  0.44721641  1
  O  O59  1  0.14040294  0.19782309  0.31099837  1
  O  O60  1  0.40802929  0.57252561  0.60628732  1
  O  O61  1  0.09197071  0.42747439  0.10628732  1
  O  O62  1  0.84689947  0.15690587  0.50745166  1
  O  O63  1  0.59689947  0.24254834  0.40690587  1
  O  O64  1  0.94782309  0.60959706  0.56099837  1
  O  O65  1  0.31099837  0.14040294  0.19782309  1
  O  O66  1  0.06099837  0.55217691  0.39040294  1
  O  O67  1  0.33117797  0.57492151  0.74743727  1
  O  O68  1  0.17747439  0.65802929  0.35628732  1
  O  O69  1  0.81099837  0.35959706  0.80217691  1
  O  O70  1  0.05217691  0.10959706  0.93900163  1
  O  O71  1  0.17507849  0.58117797  0.49743727  1
  O  O72  1  0.80217691  0.81099837  0.35959706  1
  O  O73  1  0.49254834  0.34689947  0.34309413  1
  O  O74  1  0.84309413  0.00745166  0.65310053  1
  O  O75  1  0.84197071  0.64371268  0.67747439  1
  O  O76  1  0.05278359  0.80278359  0.87500000  1
  O  O77  1  0.15802929  0.14371268  0.82252561  1
  O  O78  1  0.30278359  0.62500000  0.94721641  1
  O  O79  1  0.82252561  0.15802929  0.14371268  1
  O  O80  1  0.68900163  0.64040294  0.30217691  1
  O  O81  1  0.60959706  0.56099837  0.94782309  1
  O  O82  1  0.56099837  0.94782309  0.60959706  1
  O  O83  1  0.83117797  0.92507849  0.25256273  1
  O  O84  1  0.80278359  0.87500000  0.05278359  1
  O  O85  1  0.92747439  0.39371268  0.90802929  1
  O  O86  1  0.50745166  0.84689947  0.15690587  1
  O  O87  1  0.89371268  0.59197071  0.07252561  1
  O  O88  1  0.49743727  0.17507849  0.58117797  1
  O  O89  1  0.44721641  0.19721641  0.37500000  1
  O  O90  1  0.57252561  0.60628732  0.40802929  1
  O  O91  1  0.74254834  0.09309413  0.40310053  1
  O  O92  1  0.10628732  0.09197071  0.42747439  1
  O  O93  1  0.25745166  0.59309413  0.09689947  1
  O  O94  1  0.91882203  0.50256273  0.67507849  1
  O  O95  1  0.59309413  0.09689947  0.25745166  1
  O  O96  1  0.69782309  0.18900163  0.85959706  1
  O  O97  1  0.94721641  0.30278359  0.62500000  1
  O  O98  1  0.34689947  0.34309413  0.49254834  1
  O  O99  1  0.55278359  0.69721641  0.12500000  1
  O  O100  1  0.92507849  0.25256273  0.83117797  1
  O  O101  1  0.09689947  0.25745166  0.59309413  1
  O  O102  1  0.90690587  0.90310053  0.75745166  1
  O  O103  1  0.40690587  0.59689947  0.24254834  1
  O  O104  1  0.32252561  0.34197071  0.85628732  1
  O  O105  1  0.64040294  0.30217691  0.68900163  1
  O  O106  1  0.75256273  0.66882203  0.07492151  1
  O  O107  1  0.62500000  0.94721641  0.30278359  1
  O  O108  1  0.24254834  0.40690587  0.59689947  1
  O  O109  1  0.08117797  0.00256273  0.82492151  1
  O  O110  1  0.15310053  0.65690587  0.99254834  1
  O  O111  1  0.14371268  0.82252561  0.15802929  1
  O  O112  1  0.85628732  0.32252561  0.34197071  1
  O  O113  1  0.15690587  0.50745166  0.84689947  1
  O  O114  1  0.59197071  0.07252561  0.89371268  1
  O  O115  1  0.07252561  0.89371268  0.59197071  1
  O  O116  1  0.65802929  0.35628732  0.17747439  1
  O  O117  1  0.40310053  0.74254834  0.09309413  1
  O  O118  1  0.66882203  0.07492151  0.75256273  1
  O  O119  1  0.25256273  0.83117797  0.92507849  1
  O  O120  1  0.19782309  0.31099837  0.14040294  1
  O  O121  1  0.93900163  0.05217691  0.10959706  1
  O  O122  1  0.30217691  0.68900163  0.64040294  1
  O  O123  1  0.44782309  0.89040294  0.43900163  1
  O  O124  1  0.07492151  0.75256273  0.66882203  1
  O  O125  1  0.35959706  0.80217691  0.81099837  1
  O  O126  1  0.82492151  0.08117797  0.00256273  1
  O  O127  1  0.34197071  0.85628732  0.32252561  1
  O  O128  1  0.60628732  0.40802929  0.57252561  1
  O  O129  1  0.58117797  0.49743727  0.17507849  1
  O  O130  1  0.39040294  0.06099837  0.55217691  1
  O  O131  1  0.64371268  0.67747439  0.84197071  1
  O  O132  1  0.12500000  0.55278359  0.69721641  1
  O  O133  1  0.39371268  0.90802929  0.92747439  1
  O  O134  1  0.42507849  0.24743727  0.16882203  1
  O  O135  1  0.41882203  0.99743727  0.32492151  1
  O  O136  1  0.65690587  0.99254834  0.15310053  1
  O  O137  1  0.10959706  0.93900163  0.05217691  1
  O  O138  1  0.90802929  0.92747439  0.39371268  1
  O  O139  1  0.75745166  0.90690587  0.90310053  1
  O  O140  1  0.57492151  0.74743727  0.33117797  1
  O  O141  1  0.99743727  0.32492151  0.41882203  1
  O  O142  1  0.32492151  0.41882203  0.99743727  1
  O  O143  1  0.90310053  0.75745166  0.90690587  1
  O  O144  1  0.67747439  0.84197071  0.64371268  1
  O  O145  1  0.42747439  0.10628732  0.09197071  1
  O  O146  1  0.00745166  0.65310053  0.84309413  1
  O  O147  1  0.00256273  0.82492151  0.08117797  1
  O  O148  1  0.67507849  0.91882203  0.50256273  1
  O  O149  1  0.16882203  0.42507849  0.24743727  1
  O  O150  1  0.34309413  0.49254834  0.34689947  1
  O  O151  1  0.65310053  0.84309413  0.00745166  1
  O  O152  1  0.24743727  0.16882203  0.42507849  1
  O  O153  1  0.37500000  0.44721641  0.19721641  1
  O  O154  1  0.18900163  0.85959706  0.69782309  1
  O  O155  1  0.87500000  0.05278359  0.80278359  1
  O  O156  1  0.55217691  0.39040294  0.06099837  1
  O  O157  1  0.89040294  0.43900163  0.44782309  1
  O  O158  1  0.43900163  0.44782309  0.89040294  1
  O  O159  1  0.09309413  0.40310053  0.74254834  1
  O  O160  1  0.69721641  0.12500000  0.55278359  1
  O  O161  1  0.74743727  0.33117797  0.57492151  1
  O  O162  1  0.35628732  0.17747439  0.65802929  1
  O  O163  1  0.85959706  0.69782309  0.18900163  1
