# generated using pymatgen
data_Ba2CaCr2CuF14
_symmetry_space_group_name_H-M   'P 1'
_cell_length_a   5.42302596
_cell_length_b   7.55176823
_cell_length_c   15.03463640
_cell_angle_alpha   91.25790714
_cell_angle_beta   90.00000000
_cell_angle_gamma   111.04227603
_symmetry_Int_Tables_number   1
_chemical_formula_structural   Ba2CaCr2CuF14
_chemical_formula_sum   'Ba4 Ca2 Cr4 Cu2 F28'
_cell_volume   574.50219034
_cell_formula_units_Z   2
loop_
 _symmetry_equiv_pos_site_id
 _symmetry_equiv_pos_as_xyz
  1  'x, y, z'
loop_
 _atom_site_type_symbol
 _atom_site_label
 _atom_site_symmetry_multiplicity
 _atom_site_fract_x
 _atom_site_fract_y
 _atom_site_fract_z
 _atom_site_occupancy
  Ba  Ba0  1  0.11753619  0.37418577  0.62186015  1
  Ba  Ba1  1  0.25664958  0.37418577  0.12186015  1
  Ba  Ba2  1  0.88246381  0.62581423  0.37813985  1
  Ba  Ba3  1  0.74335042  0.62581423  0.87813985  1
  Ca  Ca4  1  0.57808598  0.00000000  0.25000000  1
  Ca  Ca5  1  0.42191402  0.00000000  0.75000000  1
  Cr  Cr6  1  0.14433305  0.24349976  0.37490543  1
  Cr  Cr7  1  0.09916671  0.24349976  0.87490543  1
  Cr  Cr8  1  0.85566695  0.75650024  0.62509457  1
  Cr  Cr9  1  0.90083329  0.75650024  0.12509457  1
  Cu  Cu10  1  0.50000000  0.00000000  0.00000000  1
  Cu  Cu11  1  0.50000000  0.00000000  0.50000000  1
  F  F12  1  0.84464488  0.49524879  0.09796169  1
  F  F13  1  0.15535512  0.50475121  0.90203831  1
  F  F14  1  0.08467078  0.01469743  0.65463966  1
  F  F15  1  0.06997334  0.98530257  0.84536034  1
  F  F16  1  0.29888534  0.17004469  0.48040655  1
  F  F17  1  0.58637016  0.76239671  0.70977094  1
  F  F18  1  0.82397346  0.23760329  0.79022906  1
  F  F19  1  0.65060390  0.49524879  0.59796169  1
  F  F20  1  0.93002666  0.01469743  0.15463966  1
  F  F21  1  0.88015177  0.27883546  0.45458974  1
  F  F22  1  0.39868370  0.27883546  0.95458974  1
  F  F23  1  0.61523514  0.10665163  0.61472129  1
  F  F24  1  0.91532922  0.98530257  0.34536034  1
  F  F25  1  0.17602654  0.76239671  0.20977094  1
  F  F26  1  0.64388244  0.67910104  0.22199937  1
  F  F27  1  0.34939610  0.50475121  0.40203831  1
  F  F28  1  0.87115934  0.17004469  0.98040655  1
  F  F29  1  0.60131630  0.72116454  0.04541026  1
  F  F30  1  0.96478140  0.32089896  0.27800063  1
  F  F31  1  0.03521860  0.67910104  0.72199937  1
  F  F32  1  0.50858351  0.89334837  0.88527871  1
  F  F33  1  0.49141649  0.10665163  0.11472129  1
  F  F34  1  0.11984823  0.72116454  0.54541026  1
  F  F35  1  0.70111466  0.82995531  0.51959345  1
  F  F36  1  0.12884066  0.82995531  0.01959345  1
  F  F37  1  0.35611756  0.32089896  0.77800063  1
  F  F38  1  0.41362984  0.23760329  0.29022906  1
  F  F39  1  0.38476486  0.89334837  0.38527871  1
