# generated using pymatgen
data_Cu(NO3)2
_symmetry_space_group_name_H-M   'P 1'
_cell_length_a   7.62413193
_cell_length_b   13.10025248
_cell_length_c   14.33757070
_cell_angle_alpha   90.00000000
_cell_angle_beta   90.00000000
_cell_angle_gamma   90.00000000
_symmetry_Int_Tables_number   1
_chemical_formula_structural   Cu(NO3)2
_chemical_formula_sum   'Cu12 N24 O72'
_cell_volume   1432.00864948
_cell_formula_units_Z   12
loop_
 _symmetry_equiv_pos_site_id
 _symmetry_equiv_pos_as_xyz
  1  'x, y, z'
loop_
 _atom_site_type_symbol
 _atom_site_label
 _atom_site_symmetry_multiplicity
 _atom_site_fract_x
 _atom_site_fract_y
 _atom_site_fract_z
 _atom_site_occupancy
  Cu  Cu0  1  0.17513719  0.70308861  0.18574300  1
  Cu  Cu1  1  0.82486281  0.20308861  0.18574300  1
  Cu  Cu2  1  0.67513719  0.79691139  0.68574300  1
  Cu  Cu3  1  0.00000000  0.00000000  0.50000000  1
  Cu  Cu4  1  0.17513719  0.79691139  0.81425700  1
  Cu  Cu5  1  0.67513719  0.70308861  0.31425700  1
  Cu  Cu6  1  0.32486281  0.29691139  0.68574300  1
  Cu  Cu7  1  0.50000000  0.50000000  0.00000000  1
  Cu  Cu8  1  0.00000000  0.50000000  0.50000000  1
  Cu  Cu9  1  0.50000000  0.00000000  0.00000000  1
  Cu  Cu10  1  0.82486281  0.29691139  0.81425700  1
  Cu  Cu11  1  0.32486281  0.20308861  0.31425700  1
  N  N12  1  0.25458426  0.99290967  0.85872058  1
  N  N13  1  0.65630817  0.19521507  0.36090379  1
  N  N14  1  0.75458426  0.50709033  0.35872058  1
  N  N15  1  0.25458426  0.50709033  0.14127942  1
  N  N16  1  0.29239279  0.88092427  0.11259225  1
  N  N17  1  0.24541574  0.00709033  0.35872058  1
  N  N18  1  0.75458426  0.99290967  0.64127942  1
  N  N19  1  0.79239279  0.88092427  0.38740775  1
  N  N20  1  0.70760721  0.38092427  0.11259225  1
  N  N21  1  0.34369183  0.69521507  0.36090379  1
  N  N22  1  0.15630817  0.19521507  0.13909621  1
  N  N23  1  0.65630817  0.30478493  0.63909621  1
  N  N24  1  0.20760721  0.11907573  0.61259225  1
  N  N25  1  0.24541574  0.49290967  0.64127942  1
  N  N26  1  0.34369183  0.80478493  0.63909621  1
  N  N27  1  0.74541574  0.00709033  0.14127942  1
  N  N28  1  0.79239279  0.61907573  0.61259225  1
  N  N29  1  0.84369183  0.80478493  0.86090379  1
  N  N30  1  0.29239279  0.61907573  0.88740775  1
  N  N31  1  0.15630817  0.30478493  0.86090379  1
  N  N32  1  0.70760721  0.11907573  0.88740775  1
  N  N33  1  0.74541574  0.49290967  0.85872058  1
  N  N34  1  0.84369183  0.69521507  0.13909621  1
  N  N35  1  0.20760721  0.38092427  0.38740775  1
  O  O36  1  0.19559942  0.68846889  0.39204499  1
  O  O37  1  0.24269261  0.58487042  0.62618695  1
  O  O38  1  0.98297580  0.68983721  0.08913621  1
  O  O39  1  0.69421696  0.47662247  0.09303886  1
  O  O40  1  0.30440058  0.18846889  0.10795501  1
  O  O41  1  0.80578304  0.97662247  0.40696114  1
  O  O42  1  0.37614369  0.79075187  0.72858081  1
  O  O43  1  0.48297580  0.68983721  0.41086379  1
  O  O44  1  0.85380855  0.57078006  0.40511100  1
  O  O45  1  0.24269261  0.91512958  0.37381305  1
  O  O46  1  0.01702420  0.31016279  0.91086379  1
  O  O47  1  0.30440058  0.31153111  0.89204499  1
  O  O48  1  0.19421696  0.02337753  0.59303886  1
  O  O49  1  0.69559942  0.81153111  0.89204499  1
  O  O50  1  0.14619145  0.42921994  0.59488900  1
  O  O51  1  0.33063282  0.14338182  0.66965781  1
  O  O52  1  0.15536298  0.95152854  0.79737818  1
  O  O53  1  0.39120723  0.68373901  0.92146487  1
  O  O54  1  0.69421696  0.02337753  0.90696114  1
  O  O55  1  0.51702420  0.31016279  0.58913621  1
  O  O56  1  0.30578304  0.52337753  0.90696114  1
  O  O57  1  0.66936718  0.85661818  0.33034219  1
  O  O58  1  0.12385631  0.29075187  0.77141919  1
  O  O59  1  0.10879277  0.31626099  0.42146487  1
  O  O60  1  0.25730739  0.08487042  0.87381305  1
  O  O61  1  0.64619145  0.42921994  0.90511100  1
  O  O62  1  0.75730739  0.08487042  0.62618695  1
  O  O63  1  0.80440058  0.31153111  0.60795501  1
  O  O64  1  0.89120723  0.81626099  0.42146487  1
  O  O65  1  0.16936718  0.64338182  0.83034219  1
  O  O66  1  0.37614369  0.70924813  0.27141919  1
  O  O67  1  0.60879277  0.18373901  0.92146487  1
  O  O68  1  0.19421696  0.47662247  0.40696114  1
  O  O69  1  0.66936718  0.64338182  0.66965781  1
  O  O70  1  0.39120723  0.81626099  0.07853513  1
  O  O71  1  0.84463702  0.04847146  0.20262182  1
  O  O72  1  0.19559942  0.81153111  0.60795501  1
  O  O73  1  0.89120723  0.68373901  0.57853513  1
  O  O74  1  0.65536298  0.54847146  0.29737818  1
  O  O75  1  0.60879277  0.31626099  0.07853513  1
  O  O76  1  0.12385631  0.20924813  0.22858081  1
  O  O77  1  0.98297580  0.81016279  0.91086379  1
  O  O78  1  0.14619145  0.07078006  0.40511100  1
  O  O79  1  0.64619145  0.07078006  0.09488900  1
  O  O80  1  0.10879277  0.18373901  0.57853513  1
  O  O81  1  0.48297580  0.81016279  0.58913621  1
  O  O82  1  0.51702420  0.18983721  0.41086379  1
  O  O83  1  0.30578304  0.97662247  0.09303886  1
  O  O84  1  0.25730739  0.41512958  0.12618695  1
  O  O85  1  0.62385631  0.20924813  0.27141919  1
  O  O86  1  0.35380855  0.57078006  0.09488900  1
  O  O87  1  0.62385631  0.29075187  0.72858081  1
  O  O88  1  0.33063282  0.35661818  0.33034219  1
  O  O89  1  0.75730739  0.41512958  0.37381305  1
  O  O90  1  0.80440058  0.18846889  0.39204499  1
  O  O91  1  0.87614369  0.79075187  0.77141919  1
  O  O92  1  0.65536298  0.95152854  0.70262182  1
  O  O93  1  0.34463702  0.04847146  0.29737818  1
  O  O94  1  0.74269261  0.58487042  0.87381305  1
  O  O95  1  0.34463702  0.45152854  0.70262182  1
  O  O96  1  0.80578304  0.52337753  0.59303886  1
  O  O97  1  0.74269261  0.91512958  0.12618695  1
  O  O98  1  0.16936718  0.85661818  0.16965781  1
  O  O99  1  0.87614369  0.70924813  0.22858081  1
  O  O100  1  0.35380855  0.92921994  0.90511100  1
  O  O101  1  0.15536298  0.54847146  0.20262182  1
  O  O102  1  0.69559942  0.68846889  0.10795501  1
  O  O103  1  0.84463702  0.45152854  0.79737818  1
  O  O104  1  0.01702420  0.18983721  0.08913621  1
  O  O105  1  0.85380855  0.92921994  0.59488900  1
  O  O106  1  0.83063282  0.35661818  0.16965781  1
  O  O107  1  0.83063282  0.14338182  0.83034219  1
