# generated using pymatgen
data_Cs2Tb6Te7N2
_symmetry_space_group_name_H-M   'P 1'
_cell_length_a   4.21531682
_cell_length_b   11.51682047
_cell_length_c   12.31409731
_cell_angle_alpha   103.48655813
_cell_angle_beta   99.87177401
_cell_angle_gamma   89.79329951
_symmetry_Int_Tables_number   1
_chemical_formula_structural   Cs2Tb6Te7N2
_chemical_formula_sum   'Cs2 Tb6 Te7 N2'
_cell_volume   572.30796835
_cell_formula_units_Z   1
loop_
 _symmetry_equiv_pos_site_id
 _symmetry_equiv_pos_as_xyz
  1  'x, y, z'
loop_
 _atom_site_type_symbol
 _atom_site_label
 _atom_site_symmetry_multiplicity
 _atom_site_fract_x
 _atom_site_fract_y
 _atom_site_fract_z
 _atom_site_occupancy
  Tb  Tb0  1  0.16344795  0.38908484  0.33076889  1
  Tb  Tb1  1  0.84047109  0.61193667  0.66870062  1
  Tb  Tb2  1  0.59398197  0.13834767  0.18226266  1
  Tb  Tb3  1  0.41393786  0.86310914  0.81742296  1
  Tb  Tb4  1  0.78587660  0.87032430  0.56962682  1
  Tb  Tb5  1  0.21514505  0.12953631  0.42904907  1
  Cs  Cs6  1  0.06493351  0.69694014  0.12860792  1
  Cs  Cs7  1  0.93780264  0.30033893  0.86898885  1
  Te  Te8  1  0.66614264  0.94225287  0.32739622  1
  Te  Te9  1  0.33356201  0.05762052  0.67138937  1
  Te  Te10  1  0.00473452  0.00008311  0.00043442  1
  Te  Te11  1  0.75644867  0.33778428  0.51942074  1
  Te  Te12  1  0.57404340  0.40549935  0.15272785  1
  Te  Te13  1  0.42804920  0.59590116  0.84666427  1
  Te  Te14  1  0.24251000  0.66260753  0.47972246  1
  N  N15  1  0.13808977  0.19522369  0.27494738  1
  N  N16  1  0.86635814  0.80585850  0.72440951  1
