# generated using pymatgen
data_Sm10Pd21
_symmetry_space_group_name_H-M   'P 1'
_cell_length_a   5.86175423
_cell_length_b   12.97063437
_cell_length_c   16.77219875
_cell_angle_alpha   90.86526615
_cell_angle_beta   90.00000000
_cell_angle_gamma   103.05948376
_symmetry_Int_Tables_number   1
_chemical_formula_structural   Sm10Pd21
_chemical_formula_sum   'Sm20 Pd42'
_cell_volume   1242.07043732
_cell_formula_units_Z   2
loop_
 _symmetry_equiv_pos_site_id
 _symmetry_equiv_pos_as_xyz
  1  'x, y, z'
loop_
 _atom_site_type_symbol
 _atom_site_label
 _atom_site_symmetry_multiplicity
 _atom_site_fract_x
 _atom_site_fract_y
 _atom_site_fract_z
 _atom_site_occupancy
  Sm  Sm0  1  0.53401496  0.06802991  0.27961194  1
  Sm  Sm1  1  0.31450473  0.62900946  0.19794311  1
  Sm  Sm2  1  0.46598504  0.93197009  0.72038806  1
  Sm  Sm3  1  0.42898669  0.85797338  0.01944770  1
  Sm  Sm4  1  0.72437615  0.44875231  0.07851859  1
  Sm  Sm5  1  0.23696671  0.47393343  0.64805844  1
  Sm  Sm6  1  0.27562385  0.55124769  0.92148141  1
  Sm  Sm7  1  0.14448976  0.28897952  0.35555243  1
  Sm  Sm8  1  0.64796529  0.29593059  0.51920289  1
  Sm  Sm9  1  0.88145191  0.76290382  0.86990882  1
  Sm  Sm10  1  0.04159183  0.08318367  0.59327749  1
  Sm  Sm11  1  0.35203471  0.70406941  0.48079711  1
  Sm  Sm12  1  0.92610254  0.85220508  0.18628547  1
  Sm  Sm13  1  0.57101331  0.14202662  0.98055230  1
  Sm  Sm14  1  0.07389746  0.14779492  0.81371453  1
  Sm  Sm15  1  0.95840817  0.91681633  0.40672251  1
  Sm  Sm16  1  0.11854809  0.23709618  0.13009118  1
  Sm  Sm17  1  0.76303329  0.52606657  0.35194156  1
  Sm  Sm18  1  0.68549527  0.37099054  0.80205689  1
  Sm  Sm19  1  0.85551024  0.71102048  0.64444757  1
  Pd  Pd20  1  0.06938109  0.66875561  0.04626246  1
  Pd  Pd21  1  0.15068401  0.30136801  0.52426696  1
  Pd  Pd22  1  0.38357477  0.76714955  0.83974357  1
  Pd  Pd23  1  0.03755846  0.07511692  0.27215227  1
  Pd  Pd24  1  0.31228782  0.11347084  0.43932875  1
  Pd  Pd25  1  0.64114851  0.28229702  0.33538680  1
  Pd  Pd26  1  0.61642523  0.23285045  0.16025643  1
  Pd  Pd27  1  0.73832628  0.47665256  0.64492890  1
  Pd  Pd28  1  0.96244154  0.92488308  0.72784773  1
  Pd  Pd29  1  0.37729501  0.25505221  0.67607166  1
  Pd  Pd30  1  0.26167372  0.52334744  0.35507110  1
  Pd  Pd31  1  0.05939361  0.11878722  0.98313280  1
  Pd  Pd32  1  0.81257799  0.62515599  0.19756085  1
  Pd  Pd33  1  0.84931599  0.69863199  0.47573304  1
  Pd  Pd34  1  0.76923875  0.53847750  0.92077986  1
  Pd  Pd35  1  0.27062438  0.03200880  0.11694170  1
  Pd  Pd36  1  0.59937452  0.66875561  0.04626246  1
  Pd  Pd37  1  0.45000053  0.40723245  0.22694551  1
  Pd  Pd38  1  0.35885149  0.71770298  0.66461320  1
  Pd  Pd39  1  0.76138443  0.03200880  0.11694170  1
  Pd  Pd40  1  0.56745400  0.13490799  0.78986171  1
  Pd  Pd41  1  0.54374717  0.08749433  0.59210034  1
  Pd  Pd42  1  0.18742201  0.37484401  0.80243915  1
  Pd  Pd43  1  0.87775720  0.25505221  0.67607166  1
  Pd  Pd44  1  0.23861557  0.96799120  0.88305830  1
  Pd  Pd45  1  -0.00000000  0.50000000  0.50000000  1
  Pd  Pd46  1  0.19881698  0.88652916  0.56067125  1
  Pd  Pd47  1  0.62270499  0.74494779  0.32392834  1
  Pd  Pd48  1  0.95723192  0.40723245  0.22694551  1
  Pd  Pd49  1  0.40062548  0.33124439  0.95373754  1
  Pd  Pd50  1  0.23076125  0.46152250  0.07922014  1
  Pd  Pd51  1  0.94060639  0.88121278  0.01686720  1
  Pd  Pd52  1  0.43254600  0.86509201  0.21013829  1
  Pd  Pd53  1  0.12224280  0.74494779  0.32392834  1
  Pd  Pd54  1  0.45625283  0.91250567  0.40789966  1
  Pd  Pd55  1  0.80118302  0.11347084  0.43932875  1
  Pd  Pd56  1  0.93061891  0.33124439  0.95373754  1
  Pd  Pd57  1  0.72937562  0.96799120  0.88305830  1
  Pd  Pd58  1  0.50000000  0.50000000  0.50000000  1
  Pd  Pd59  1  0.04276808  0.59276755  0.77305449  1
  Pd  Pd60  1  0.54999947  0.59276755  0.77305449  1
  Pd  Pd61  1  0.68771218  0.88652916  0.56067125  1
