# generated using pymatgen
data_LiB13C2
_symmetry_space_group_name_H-M   'P 1'
_cell_length_a   5.67520403
_cell_length_b   7.32563193
_cell_length_c   7.30287702
_cell_angle_alpha   66.70683551
_cell_angle_beta   67.29672388
_cell_angle_gamma   67.35123190
_symmetry_Int_Tables_number   1
_chemical_formula_structural   LiB13C2
_chemical_formula_sum   'Li2 B26 C4'
_cell_volume   247.38835811
_cell_formula_units_Z   2
loop_
 _symmetry_equiv_pos_site_id
 _symmetry_equiv_pos_as_xyz
  1  'x, y, z'
loop_
 _atom_site_type_symbol
 _atom_site_label
 _atom_site_symmetry_multiplicity
 _atom_site_fract_x
 _atom_site_fract_y
 _atom_site_fract_z
 _atom_site_occupancy
  Li  Li0  1  0.75493850  0.94149376  0.55833416  1
  Li  Li1  1  0.25304040  0.06462722  0.43440190  1
  B  B2  1  0.66677077  0.32050283  0.34705274  1
  B  B3  1  0.82434011  0.47983627  0.37831808  1
  B  B4  1  0.18250061  0.12205422  0.02208257  1
  B  B5  1  0.17622265  0.51898443  0.62480132  1
  B  B6  1  0.90911900  0.09039244  0.77279627  1
  B  B7  1  0.27200355  0.72692082  0.41093643  1
  B  B8  1  0.68176545  0.51958116  0.62552155  1
  B  B9  1  0.67673142  0.12225096  0.02191122  1
  B  B10  1  0.40857841  0.27136598  0.59193933  1
  B  B11  1  0.33398839  0.67819640  0.65620147  1
  B  B12  1  0.42682009  0.39585240  0.75300127  1
  B  B13  1  0.59218859  0.72729351  0.41123079  1
  B  B14  1  0.81901637  0.87679194  0.98087055  1
  B  B15  1  0.83473812  0.15310828  0.18114501  1
  B  B16  1  0.31891597  0.47914075  0.37759465  1
  B  B17  1  0.75101304  0.61341564  0.88794635  1
  B  B18  1  0.77196313  0.90840208  0.22997771  1
  B  B19  1  0.16677340  0.84562944  0.82177227  1
  B  B20  1  0.92751005  0.25000402  0.89846858  1
  B  B21  1  0.72897917  0.27187295  0.59230889  1
  B  B22  1  0.22943226  0.09021169  0.77292328  1
  B  B23  1  0.07384612  0.74894439  0.10453373  1
  B  B24  1  0.32496812  0.87655813  0.98105280  1
  B  B25  1  0.57405349  0.60277166  0.25002461  1
  B  B26  1  0.24964674  0.38686173  0.11391801  1
  B  B27  1  0.09263065  0.90834656  0.22998559  1
  C  C28  1  0.11830930  0.51060484  0.25167138  1
  C  C29  1  0.38253287  0.24702876  0.99206456  1
  C  C30  1  0.61904720  0.75166781  0.01121032  1
  C  C31  1  0.88230808  0.48820491  0.75132361  1
