# generated using pymatgen
data_TbAl9(Fe2Si3)2
_symmetry_space_group_name_H-M   'P 1'
_cell_length_a   8.66952016
_cell_length_b   8.66952016
_cell_length_c   15.18435939
_cell_angle_alpha   90.00000000
_cell_angle_beta   90.00000000
_cell_angle_gamma   90.00000000
_symmetry_Int_Tables_number   1
_chemical_formula_structural   TbAl9(Fe2Si3)2
_chemical_formula_sum   'Tb4 Al36 Fe16 Si24'
_cell_volume   1141.26525571
_cell_formula_units_Z   4
loop_
 _symmetry_equiv_pos_site_id
 _symmetry_equiv_pos_as_xyz
  1  'x, y, z'
loop_
 _atom_site_type_symbol
 _atom_site_label
 _atom_site_symmetry_multiplicity
 _atom_site_fract_x
 _atom_site_fract_y
 _atom_site_fract_z
 _atom_site_occupancy
  Al  Al0  1  0.06686768  0.25000000  0.33906625  1
  Al  Al1  1  0.25000000  0.75000000  0.52296311  1
  Al  Al2  1  0.75000000  0.25000000  0.02296311  1
  Al  Al3  1  0.75000000  0.25000000  0.47703689  1
  Al  Al4  1  0.25000000  0.75000000  0.97703689  1
  Al  Al5  1  0.25000000  0.90535286  0.14739919  1
  Al  Al6  1  0.25000000  0.59464714  0.14739919  1
  Al  Al7  1  0.40535286  0.75000000  0.35260081  1
  Al  Al8  1  0.90535286  0.25000000  0.64739919  1
  Al  Al9  1  0.59464714  0.25000000  0.64739919  1
  Al  Al10  1  0.75000000  0.40535286  0.85260081  1
  Al  Al11  1  0.75000000  0.09464714  0.85260081  1
  Al  Al12  1  0.09464714  0.75000000  0.35260081  1
  Al  Al13  1  0.45261900  0.50441383  0.58079655  1
  Al  Al14  1  0.04738100  0.99558617  0.58079655  1
  Al  Al15  1  0.00441383  0.95261900  0.91920345  1
  Al  Al16  1  0.50441383  0.04738100  0.08079655  1
  Al  Al17  1  0.99558617  0.45261900  0.08079655  1
  Al  Al18  1  0.54738100  0.00441383  0.41920345  1
  Al  Al19  1  0.95261900  0.49558617  0.41920345  1
  Al  Al20  1  0.49558617  0.54738100  0.91920345  1
  Al  Al21  1  0.25000000  0.06686768  0.83906625  1
  Al  Al22  1  0.25000000  0.43313232  0.83906625  1
  Al  Al23  1  0.56686768  0.75000000  0.66093375  1
  Al  Al24  1  0.93313232  0.75000000  0.66093375  1
  Al  Al25  1  0.43313232  0.25000000  0.33906625  1
  Al  Al26  1  0.75000000  0.56686768  0.16093375  1
  Al  Al27  1  0.75000000  0.93313232  0.16093375  1
  Al  Al28  1  0.50441383  0.45261900  0.08079655  1
  Al  Al29  1  0.54738100  0.49558617  0.41920345  1
  Al  Al30  1  0.45261900  0.99558617  0.58079655  1
  Al  Al31  1  0.00441383  0.54738100  0.91920345  1
  Al  Al32  1  0.49558617  0.95261900  0.91920345  1
  Al  Al33  1  0.99558617  0.04738100  0.08079655  1
  Al  Al34  1  0.95261900  0.00441383  0.41920345  1
  Al  Al35  1  0.04738100  0.50441383  0.58079655  1
  Si  Si36  1  0.09274023  0.75000000  0.80633140  1
  Si  Si37  1  0.40725977  0.75000000  0.80633140  1
  Si  Si38  1  0.90725977  0.25000000  0.19366860  1
  Si  Si39  1  0.75000000  0.09274023  0.30633140  1
  Si  Si40  1  0.75000000  0.40725977  0.30633140  1
  Si  Si41  1  0.25000000  0.48898908  0.31146765  1
  Si  Si42  1  0.01101092  0.25000000  0.81146765  1
  Si  Si43  1  0.48898908  0.25000000  0.81146765  1
  Si  Si44  1  0.75000000  0.51101092  0.68853235  1
  Si  Si45  1  0.75000000  0.98898908  0.68853235  1
  Si  Si46  1  0.25000000  0.01101092  0.31146765  1
  Si  Si47  1  0.98898908  0.75000000  0.18853235  1
  Si  Si48  1  0.51101092  0.75000000  0.18853235  1
  Si  Si49  1  0.38777135  0.25000000  0.97022962  1
  Si  Si50  1  0.25000000  0.38777135  0.47022962  1
  Si  Si51  1  0.25000000  0.11222865  0.47022962  1
  Si  Si52  1  0.88777135  0.75000000  0.02977038  1
  Si  Si53  1  0.61222865  0.75000000  0.02977038  1
  Si  Si54  1  0.11222865  0.25000000  0.97022962  1
  Si  Si55  1  0.75000000  0.88777135  0.52977038  1
  Si  Si56  1  0.59274023  0.25000000  0.19366860  1
  Si  Si57  1  0.25000000  0.59274023  0.69366860  1
  Si  Si58  1  0.25000000  0.90725977  0.69366860  1
  Si  Si59  1  0.75000000  0.61222865  0.52977038  1
  Fe  Fe60  1  0.00529190  0.99470810  0.75000000  1
  Fe  Fe61  1  0.50529190  0.00529190  0.25000000  1
  Fe  Fe62  1  0.99470810  0.49470810  0.25000000  1
  Fe  Fe63  1  0.49470810  0.50529190  0.75000000  1
  Fe  Fe64  1  0.99470810  0.00529190  0.25000000  1
  Fe  Fe65  1  0.49470810  0.99470810  0.75000000  1
  Fe  Fe66  1  0.00529190  0.50529190  0.75000000  1
  Fe  Fe67  1  0.50529190  0.49470810  0.25000000  1
  Fe  Fe68  1  0.52763356  0.75000000  0.50055881  1
  Fe  Fe69  1  0.97236644  0.75000000  0.50055881  1
  Fe  Fe70  1  0.25000000  0.47236644  0.99944119  1
  Fe  Fe71  1  0.75000000  0.97236644  0.00055881  1
  Fe  Fe72  1  0.75000000  0.52763356  0.00055881  1
  Fe  Fe73  1  0.47236644  0.25000000  0.49944119  1
  Fe  Fe74  1  0.02763356  0.25000000  0.49944119  1
  Fe  Fe75  1  0.25000000  0.02763356  0.99944119  1
  Tb  Tb76  1  0.75000000  0.75000000  0.33584243  1
  Tb  Tb77  1  0.75000000  0.75000000  0.83584243  1
  Tb  Tb78  1  0.25000000  0.25000000  0.66415757  1
  Tb  Tb79  1  0.25000000  0.25000000  0.16415757  1
