# generated using pymatgen
data_Ba11(Cd4Bi7)2
_symmetry_space_group_name_H-M   'P 1'
_cell_length_a   5.02523404
_cell_length_b   14.60726400
_cell_length_c   17.20853013
_cell_angle_alpha   91.38140407
_cell_angle_beta   90.00794779
_cell_angle_gamma   99.90640549
_symmetry_Int_Tables_number   1
_chemical_formula_structural   Ba11(Cd4Bi7)2
_chemical_formula_sum   'Ba11 Cd8 Bi14'
_cell_volume   1243.98329931
_cell_formula_units_Z   1
loop_
 _symmetry_equiv_pos_site_id
 _symmetry_equiv_pos_as_xyz
  1  'x, y, z'
loop_
 _atom_site_type_symbol
 _atom_site_label
 _atom_site_symmetry_multiplicity
 _atom_site_fract_x
 _atom_site_fract_y
 _atom_site_fract_z
 _atom_site_occupancy
  Ba  Ba0  1  0.75008270  0.49365081  0.70186856  1
  Ba  Ba1  1  0.38514829  0.76273019  0.84029077  1
  Ba  Ba2  1  0.14500009  0.28813789  0.53442935  1
  Ba  Ba3  1  0.65375274  0.30918062  0.90067898  1
  Ba  Ba4  1  0.99065968  0.98100474  0.63377685  1
  Ba  Ba5  1  0.50135534  0.99904278  0.99940984  1
  Ba  Ba6  1  0.24932182  0.50620736  0.29855363  1
  Ba  Ba7  1  0.34253862  0.68834444  0.09904700  1
  Ba  Ba8  1  0.85507596  0.70859577  0.46532768  1
  Ba  Ba9  1  0.62026734  0.23446427  0.16055097  1
  Ba  Ba10  1  0.00659428  0.01573908  0.36679261  1
  Cd  Cd11  1  0.79525683  0.59426216  0.95932236  1
  Cd  Cd12  1  0.37550835  0.74314834  0.61178730  1
  Cd  Cd13  1  0.20044324  0.40229420  0.04079116  1
  Cd  Cd14  1  0.58990319  0.18765957  0.68543220  1
  Cd  Cd15  1  0.62565922  0.25246632  0.38854403  1
  Cd  Cd16  1  0.93877843  0.87908460  0.15742243  1
  Cd  Cd17  1  0.05600353  0.11913330  0.84155009  1
  Cd  Cd18  1  0.40835356  0.81077331  0.31468107  1
  Bi  Bi19  1  0.55891549  0.11381764  0.51756473  1
  Bi  Bi20  1  0.90600574  0.81099063  0.98740725  1
  Bi  Bi21  1  0.14663616  0.29785772  0.73878602  1
  Bi  Bi22  1  0.09606935  0.18611442  0.01270449  1
  Bi  Bi23  1  0.85162512  0.70072648  0.26092768  1
  Bi  Bi24  1  0.87393229  0.73952067  0.69949377  1
  Bi  Bi25  1  0.25494851  0.51336916  0.88283292  1
  Bi  Bi26  1  0.44072556  0.88237708  0.48313489  1
  Bi  Bi27  1  0.72588542  0.45711758  0.46052053  1
  Bi  Bi28  1  0.48933529  0.98005182  0.20902265  1
  Bi  Bi29  1  0.26799838  0.53969043  0.53984998  1
  Bi  Bi30  1  0.13007974  0.25976756  0.30117257  1
  Bi  Bi31  1  0.50550983  0.01726645  0.79054899  1
  Bi  Bi32  1  0.74131392  0.48403060  0.11670262  1
