# generated using pymatgen
data_Dy3Ge4
_symmetry_space_group_name_H-M   'P 1'
_cell_length_a   4.06013818
_cell_length_b   5.73372395
_cell_length_c   14.34947294
_cell_angle_alpha   89.97663368
_cell_angle_beta   89.99940716
_cell_angle_gamma   110.76249183
_symmetry_Int_Tables_number   1
_chemical_formula_structural   Dy3Ge4
_chemical_formula_sum   'Dy6 Ge8'
_cell_volume   312.35756355
_cell_formula_units_Z   2
loop_
 _symmetry_equiv_pos_site_id
 _symmetry_equiv_pos_as_xyz
  1  'x, y, z'
loop_
 _atom_site_type_symbol
 _atom_site_label
 _atom_site_symmetry_multiplicity
 _atom_site_fract_x
 _atom_site_fract_y
 _atom_site_fract_z
 _atom_site_occupancy
  Dy  Dy0  1  0.65817653  0.32245048  0.09614438  1
  Dy  Dy1  1  0.33343381  0.67427451  0.90291093  1
  Dy  Dy2  1  0.66105399  0.32687074  0.40386874  1
  Dy  Dy3  1  0.33684498  0.67886284  0.59668772  1
  Dy  Dy4  1  0.94357096  0.88794986  0.25003498  1
  Dy  Dy5  1  0.05434515  0.11189178  0.75058670  1
  Ge  Ge6  1  0.21170062  0.43002538  0.24982076  1
  Ge  Ge7  1  0.78234298  0.57080654  0.75012731  1
  Ge  Ge8  1  0.36896350  0.74036205  0.10893075  1
  Ge  Ge9  1  0.99340453  0.99634833  0.00009553  1
  Ge  Ge10  1  0.37208974  0.74372204  0.39060988  1
  Ge  Ge11  1  0.62518667  0.25710339  0.89059716  1
  Ge  Ge12  1  0.99991048  0.00611017  0.50129954  1
  Ge  Ge13  1  0.62879507  0.26075287  0.61008462  1
