# generated using pymatgen
data_SrIn
_symmetry_space_group_name_H-M   'P 1'
_cell_length_a   6.62115182
_cell_length_b   6.61939229
_cell_length_c   13.72551985
_cell_angle_alpha   101.09503422
_cell_angle_beta   101.10443436
_cell_angle_gamma   100.74422597
_symmetry_Int_Tables_number   1
_chemical_formula_structural   SrIn
_chemical_formula_sum   'Sr8 In8'
_cell_volume   563.44917364
_cell_formula_units_Z   8
loop_
 _symmetry_equiv_pos_site_id
 _symmetry_equiv_pos_as_xyz
  1  'x, y, z'
loop_
 _atom_site_type_symbol
 _atom_site_label
 _atom_site_symmetry_multiplicity
 _atom_site_fract_x
 _atom_site_fract_y
 _atom_site_fract_z
 _atom_site_occupancy
  Sr  Sr0  1  0.71750951  0.42282535  0.64337454  1
  Sr  Sr1  1  0.21058107  0.91329862  0.15503752  1
  Sr  Sr2  1  0.78051517  0.07808676  0.36005398  1
  Sr  Sr3  1  0.30782429  0.51206668  0.34589269  1
  Sr  Sr4  1  0.33010859  0.52980134  0.85720101  1
  Sr  Sr5  1  0.76096639  0.05916221  0.84680584  1
  Sr  Sr6  1  0.16052741  0.95820149  0.65546120  1
  Sr  Sr7  1  0.67120933  0.46906038  0.14206547  1
  In  In8  1  0.87191930  0.62866263  0.42646207  1
  In  In9  1  0.28520276  0.03634665  0.92964307  1
  In  In10  1  0.10931596  0.35670575  0.07172525  1
  In  In11  1  0.20047143  0.44405834  0.57466161  1
  In  In12  1  0.69339793  0.95199661  0.07387487  1
  In  In13  1  0.88179724  0.62196188  0.92571056  1
  In  In14  1  0.60389560  0.85907986  0.57166593  1
  In  In15  1  0.28887003  0.04031343  0.43061540  1
