# generated using pymatgen
data_EuTlPS4
_symmetry_space_group_name_H-M   'P 1'
_cell_length_a   6.63959511
_cell_length_b   9.00625504
_cell_length_c   12.15170808
_cell_angle_alpha   89.97135586
_cell_angle_beta   89.90254049
_cell_angle_gamma   90.03971354
_symmetry_Int_Tables_number   1
_chemical_formula_structural   EuTlPS4
_chemical_formula_sum   'Eu4 Tl4 P4 S16'
_cell_volume   726.64514897
_cell_formula_units_Z   4
loop_
 _symmetry_equiv_pos_site_id
 _symmetry_equiv_pos_as_xyz
  1  'x, y, z'
loop_
 _atom_site_type_symbol
 _atom_site_label
 _atom_site_symmetry_multiplicity
 _atom_site_fract_x
 _atom_site_fract_y
 _atom_site_fract_z
 _atom_site_occupancy
  Eu  Eu0  1  0.74926673  0.10485856  0.85657501  1
  Eu  Eu1  1  0.25064835  0.89506597  0.14330963  1
  Eu  Eu2  1  0.25045115  0.60493651  0.64339419  1
  Eu  Eu3  1  0.74937417  0.39519780  0.35672612  1
  Tl  Tl4  1  0.74995092  0.63145552  0.89625494  1
  Tl  Tl5  1  0.25019908  0.13144155  0.60382088  1
  Tl  Tl6  1  0.74985129  0.86861607  0.39620227  1
  Tl  Tl7  1  0.25005956  0.36842820  0.10372387  1
  P  P8  1  0.74981394  0.37734750  0.65357146  1
  P  P9  1  0.25021512  0.62274660  0.34645640  1
  P  P10  1  0.25006344  0.87725142  0.84644408  1
  P  P11  1  0.74994261  0.12269994  0.15351792  1
  S  S12  1  0.99811760  0.13350281  0.25590153  1
  S  S13  1  0.74936533  0.92659203  0.06689466  1
  S  S14  1  0.25012614  0.42660270  0.43328607  1
  S  S15  1  0.75007529  0.57357038  0.56687394  1
  S  S16  1  0.25070082  0.07333942  0.93301111  1
  S  S17  1  0.75042195  0.30379979  0.05101411  1
  S  S18  1  0.00214210  0.63337497  0.24395256  1
  S  S19  1  0.99787713  0.36657145  0.75609260  1
  S  S20  1  0.74992161  0.19630204  0.55129321  1
  S  S21  1  0.00181907  0.86644312  0.74409674  1
  S  S22  1  0.24957379  0.69609199  0.94895111  1
  S  S23  1  0.49850721  0.63363316  0.24370319  1
  S  S24  1  0.50144385  0.36639976  0.75628112  1
  S  S25  1  0.49818740  0.86636617  0.74362384  1
  S  S26  1  0.25007110  0.80383505  0.44868667  1
  S  S27  1  0.50181224  0.13353154  0.25634176  1
