# generated using pymatgen
data_K3La2(NO3)9
_symmetry_space_group_name_H-M   'P 1'
_cell_length_a   13.73332741
_cell_length_b   13.73332741
_cell_length_c   13.73332741
_cell_angle_alpha   90.00000000
_cell_angle_beta   90.00000000
_cell_angle_gamma   90.00000000
_symmetry_Int_Tables_number   1
_chemical_formula_structural   K3La2(NO3)9
_chemical_formula_sum   'K12 La8 N36 O108'
_cell_volume   2590.16435220
_cell_formula_units_Z   4
loop_
 _symmetry_equiv_pos_site_id
 _symmetry_equiv_pos_as_xyz
  1  'x, y, z'
loop_
 _atom_site_type_symbol
 _atom_site_label
 _atom_site_symmetry_multiplicity
 _atom_site_fract_x
 _atom_site_fract_y
 _atom_site_fract_z
 _atom_site_occupancy
  K  K0  1  0.31322398  0.43677602  0.87500000  1
  K  K1  1  0.43677602  0.87500000  0.31322398  1
  K  K2  1  0.93677602  0.62500000  0.68677602  1
  K  K3  1  0.37500000  0.18677602  0.56322398  1
  K  K4  1  0.68677602  0.93677602  0.62500000  1
  K  K5  1  0.56322398  0.37500000  0.18677602  1
  K  K6  1  0.12500000  0.81322398  0.06322398  1
  K  K7  1  0.06322398  0.12500000  0.81322398  1
  K  K8  1  0.87500000  0.31322398  0.43677602  1
  K  K9  1  0.62500000  0.68677602  0.93677602  1
  K  K10  1  0.81322398  0.06322398  0.12500000  1
  K  K11  1  0.18677602  0.56322398  0.37500000  1
  La  La12  1  0.79820150  0.70179850  0.29820150  1
  La  La13  1  0.45179850  0.04820150  0.95179850  1
  La  La14  1  0.29820150  0.79820150  0.70179850  1
  La  La15  1  0.20179850  0.20179850  0.20179850  1
  La  La16  1  0.95179850  0.45179850  0.04820150  1
  La  La17  1  0.54820150  0.54820150  0.54820150  1
  La  La18  1  0.70179850  0.29820150  0.79820150  1
  La  La19  1  0.04820150  0.95179850  0.45179850  1
  N  N20  1  0.76225392  0.62500000  0.51225392  1
  N  N21  1  0.89887799  0.08891621  0.36032177  1
  N  N22  1  0.66108379  0.85112201  0.38967823  1
  N  N23  1  0.60112201  0.91108379  0.86032177  1
  N  N24  1  0.14887799  0.88967823  0.83891621  1
  N  N25  1  0.10112201  0.58891621  0.13967823  1
  N  N26  1  0.86032177  0.60112201  0.91108379  1
  N  N27  1  0.62500000  0.51225392  0.76225392  1
  N  N28  1  0.12500000  0.98774608  0.23774608  1
  N  N29  1  0.58891621  0.13967823  0.10112201  1
  N  N30  1  0.38967823  0.66108379  0.85112201  1
  N  N31  1  0.87500000  0.48774608  0.26225392  1
  N  N32  1  0.41108379  0.63967823  0.39887799  1
  N  N33  1  0.88967823  0.83891621  0.14887799  1
  N  N34  1  0.61032177  0.16108379  0.64887799  1
  N  N35  1  0.48774608  0.26225392  0.87500000  1
  N  N36  1  0.85112201  0.38967823  0.66108379  1
  N  N37  1  0.37500000  0.01225392  0.73774608  1
  N  N38  1  0.33891621  0.35112201  0.11032177  1
  N  N39  1  0.23774608  0.12500000  0.98774608  1
  N  N40  1  0.36032177  0.89887799  0.08891621  1
  N  N41  1  0.51225392  0.76225392  0.62500000  1
  N  N42  1  0.91108379  0.86032177  0.60112201  1
  N  N43  1  0.13967823  0.10112201  0.58891621  1
  N  N44  1  0.73774608  0.37500000  0.01225392  1
  N  N45  1  0.64887799  0.61032177  0.16108379  1
  N  N46  1  0.16108379  0.64887799  0.61032177  1
  N  N47  1  0.63967823  0.39887799  0.41108379  1
  N  N48  1  0.39887799  0.41108379  0.63967823  1
  N  N49  1  0.83891621  0.14887799  0.88967823  1
  N  N50  1  0.11032177  0.33891621  0.35112201  1
  N  N51  1  0.98774608  0.23774608  0.12500000  1
  N  N52  1  0.01225392  0.73774608  0.37500000  1
  N  N53  1  0.35112201  0.11032177  0.33891621  1
  N  N54  1  0.08891621  0.36032177  0.89887799  1
  N  N55  1  0.26225392  0.87500000  0.48774608  1
  O  O56  1  0.00879119  0.15508177  0.15729994  1
  O  O57  1  0.40508177  0.24120881  0.90729994  1
  O  O58  1  0.15729994  0.00879119  0.15508177  1
  O  O59  1  0.84491823  0.65729994  0.49120881  1
  O  O60  1  0.24482302  0.66645661  0.57381994  1
  O  O61  1  0.41645661  0.49482302  0.67618006  1
  O  O62  1  0.90729994  0.40508177  0.24120881  1
  O  O63  1  0.49120881  0.84491823  0.65729994  1
  O  O64  1  0.36118968  0.30721639  0.18963794  1
  O  O65  1  0.87500000  0.55433069  0.19566931  1
  O  O66  1  0.25517698  0.33354339  0.07381994  1
  O  O67  1  0.31036206  0.63881032  0.80721639  1
  O  O68  1  0.74120881  0.59270006  0.59491823  1
  O  O69  1  0.40729994  0.09491823  0.75879119  1
  O  O70  1  0.42980269  0.60319065  0.90839443  1
  O  O71  1  0.06036206  0.05721639  0.61118968  1
  O  O72  1  0.07381994  0.25517698  0.33354339  1
  O  O73  1  0.75517698  0.16645661  0.92618006  1
  O  O74  1  0.34160557  0.35319065  0.67980269  1
  O  O75  1  0.90839443  0.42980269  0.60319065  1
  O  O76  1  0.38881032  0.56036206  0.44278361  1
  O  O77  1  0.34491823  0.84270006  0.50879119  1
  O  O78  1  0.37500000  0.94566931  0.80433069  1
  O  O79  1  0.74482302  0.83354339  0.42618006  1
  O  O80  1  0.09491823  0.75879119  0.40729994  1
  O  O81  1  0.43963794  0.94278361  0.11118968  1
  O  O82  1  0.18963794  0.36118968  0.30721639  1
  O  O83  1  0.12500000  0.05433069  0.30433069  1
  O  O84  1  0.57381994  0.24482302  0.66645661  1
  O  O85  1  0.00517698  0.32381994  0.91645661  1
  O  O86  1  0.35319065  0.67980269  0.34160557  1
  O  O87  1  0.92618006  0.75517698  0.16645661  1
  O  O88  1  0.89680935  0.09160557  0.92980269  1
  O  O89  1  0.61118968  0.06036206  0.05721639  1
  O  O90  1  0.09160557  0.92980269  0.89680935  1
  O  O91  1  0.50879119  0.34491823  0.84270006  1
  O  O92  1  0.59160557  0.57019731  0.10319065  1
  O  O93  1  0.99120881  0.65508177  0.34270006  1
  O  O94  1  0.82019731  0.65839443  0.85319065  1
  O  O95  1  0.64680935  0.17980269  0.15839443  1
  O  O96  1  0.55433069  0.19566931  0.87500000  1
  O  O97  1  0.82381994  0.58354339  0.99482302  1
  O  O98  1  0.88881032  0.93963794  0.55721639  1
  O  O99  1  0.84160557  0.14680935  0.32019731  1
  O  O100  1  0.59270006  0.59491823  0.74120881  1
  O  O101  1  0.69566931  0.62500000  0.44566931  1
  O  O102  1  0.42618006  0.74482302  0.83354339  1
  O  O103  1  0.40839443  0.07019731  0.39680935  1
  O  O104  1  0.10319065  0.59160557  0.57019731  1
  O  O105  1  0.67618006  0.41645661  0.49482302  1
  O  O106  1  0.19566931  0.87500000  0.55433069  1
  O  O107  1  0.30433069  0.12500000  0.05433069  1
  O  O108  1  0.32019731  0.84160557  0.14680935  1
  O  O109  1  0.56036206  0.44278361  0.38881032  1
  O  O110  1  0.50517698  0.17618006  0.08354339  1
  O  O111  1  0.59491823  0.74120881  0.59270006  1
  O  O112  1  0.30721639  0.18963794  0.36118968  1
  O  O113  1  0.92980269  0.89680935  0.09160557  1
  O  O114  1  0.05721639  0.61118968  0.06036206  1
  O  O115  1  0.25879119  0.09270006  0.90508177  1
  O  O116  1  0.66645661  0.57381994  0.24482302  1
  O  O117  1  0.80721639  0.31036206  0.63881032  1
  O  O118  1  0.94566931  0.80433069  0.37500000  1
  O  O119  1  0.05433069  0.30433069  0.12500000  1
  O  O120  1  0.19278361  0.81036206  0.86118968  1
  O  O121  1  0.91645661  0.00517698  0.32381994  1
  O  O122  1  0.34270006  0.99120881  0.65508177  1
  O  O123  1  0.90508177  0.25879119  0.09270006  1
  O  O124  1  0.11118968  0.43963794  0.94278361  1
  O  O125  1  0.13881032  0.69278361  0.68963794  1
  O  O126  1  0.14680935  0.32019731  0.84160557  1
  O  O127  1  0.99482302  0.82381994  0.58354339  1
  O  O128  1  0.75879119  0.40729994  0.09491823  1
  O  O129  1  0.16645661  0.92618006  0.75517698  1
  O  O130  1  0.17980269  0.15839443  0.64680935  1
  O  O131  1  0.63881032  0.80721639  0.31036206  1
  O  O132  1  0.84270006  0.50879119  0.34491823  1
  O  O133  1  0.33354339  0.07381994  0.25517698  1
  O  O134  1  0.08354339  0.50517698  0.17618006  1
  O  O135  1  0.15839443  0.64680935  0.17980269  1
  O  O136  1  0.69278361  0.68963794  0.13881032  1
  O  O137  1  0.07019731  0.39680935  0.40839443  1
  O  O138  1  0.44566931  0.69566931  0.62500000  1
  O  O139  1  0.58354339  0.99482302  0.82381994  1
  O  O140  1  0.94278361  0.11118968  0.43963794  1
  O  O141  1  0.39680935  0.40839443  0.07019731  1
  O  O142  1  0.55721639  0.88881032  0.93963794  1
  O  O143  1  0.93963794  0.55721639  0.88881032  1
  O  O144  1  0.60319065  0.90839443  0.42980269  1
  O  O145  1  0.83354339  0.42618006  0.74482302  1
  O  O146  1  0.15508177  0.15729994  0.00879119  1
  O  O147  1  0.81036206  0.86118968  0.19278361  1
  O  O148  1  0.32381994  0.91645661  0.00517698  1
  O  O149  1  0.68963794  0.13881032  0.69278361  1
  O  O150  1  0.44278361  0.38881032  0.56036206  1
  O  O151  1  0.17618006  0.08354339  0.50517698  1
  O  O152  1  0.62500000  0.44566931  0.69566931  1
  O  O153  1  0.49482302  0.67618006  0.41645661  1
  O  O154  1  0.80433069  0.37500000  0.94566931  1
  O  O155  1  0.86118968  0.19278361  0.81036206  1
  O  O156  1  0.24120881  0.90729994  0.40508177  1
  O  O157  1  0.65508177  0.34270006  0.99120881  1
  O  O158  1  0.65729994  0.49120881  0.84491823  1
  O  O159  1  0.65839443  0.85319065  0.82019731  1
  O  O160  1  0.67980269  0.34160557  0.35319065  1
  O  O161  1  0.85319065  0.82019731  0.65839443  1
  O  O162  1  0.09270006  0.90508177  0.25879119  1
  O  O163  1  0.57019731  0.10319065  0.59160557  1
