# generated using pymatgen
data_Na3Nd2(NO3)9
_symmetry_space_group_name_H-M   'P 1'
_cell_length_a   13.25704859
_cell_length_b   13.25704859
_cell_length_c   13.25704859
_cell_angle_alpha   90.00000000
_cell_angle_beta   90.00000000
_cell_angle_gamma   90.00000000
_symmetry_Int_Tables_number   1
_chemical_formula_structural   Na3Nd2(NO3)9
_chemical_formula_sum   'Na12 Nd8 N36 O108'
_cell_volume   2329.91750448
_cell_formula_units_Z   4
loop_
 _symmetry_equiv_pos_site_id
 _symmetry_equiv_pos_as_xyz
  1  'x, y, z'
loop_
 _atom_site_type_symbol
 _atom_site_label
 _atom_site_symmetry_multiplicity
 _atom_site_fract_x
 _atom_site_fract_y
 _atom_site_fract_z
 _atom_site_occupancy
  Na  Na0  1  0.67005887  0.07994113  0.87500000  1
  Na  Na1  1  0.62500000  0.32994113  0.57994113  1
  Na  Na2  1  0.12500000  0.17005887  0.42005887  1
  Na  Na3  1  0.17005887  0.42005887  0.12500000  1
  Na  Na4  1  0.87500000  0.67005887  0.07994113  1
  Na  Na5  1  0.57994113  0.62500000  0.32994113  1
  Na  Na6  1  0.82994113  0.92005887  0.37500000  1
  Na  Na7  1  0.07994113  0.87500000  0.67005887  1
  Na  Na8  1  0.32994113  0.57994113  0.62500000  1
  Na  Na9  1  0.92005887  0.37500000  0.82994113  1
  Na  Na10  1  0.37500000  0.82994113  0.92005887  1
  Na  Na11  1  0.42005887  0.12500000  0.17005887  1
  Nd  Nd12  1  0.21195661  0.78804339  0.28804339  1
  Nd  Nd13  1  0.03804339  0.03804339  0.03804339  1
  Nd  Nd14  1  0.78804339  0.28804339  0.21195661  1
  Nd  Nd15  1  0.71195661  0.71195661  0.71195661  1
  Nd  Nd16  1  0.53804339  0.46195661  0.96195661  1
  Nd  Nd17  1  0.28804339  0.21195661  0.78804339  1
  Nd  Nd18  1  0.96195661  0.53804339  0.46195661  1
  Nd  Nd19  1  0.46195661  0.96195661  0.53804339  1
  N  N20  1  0.61186804  0.86755310  0.39800963  1
  N  N21  1  0.24501738  0.87500000  0.50498262  1
  N  N22  1  0.11755310  0.63813196  0.14800963  1
  N  N23  1  0.00498262  0.25498262  0.12500000  1
  N  N24  1  0.39800963  0.61186804  0.86755310  1
  N  N25  1  0.38244690  0.36186804  0.64800963  1
  N  N26  1  0.63244690  0.60199037  0.11186804  1
  N  N27  1  0.13813196  0.35199037  0.88244690  1
  N  N28  1  0.11186804  0.63244690  0.60199037  1
  N  N29  1  0.50498262  0.24501738  0.87500000  1
  N  N30  1  0.36755310  0.10199037  0.38813196  1
  N  N31  1  0.63813196  0.14800963  0.11755310  1
  N  N32  1  0.37500000  0.99501738  0.75498262  1
  N  N33  1  0.88244690  0.13813196  0.35199037  1
  N  N34  1  0.49501738  0.74501738  0.62500000  1
  N  N35  1  0.12500000  0.00498262  0.25498262  1
  N  N36  1  0.85199037  0.61755310  0.86186804  1
  N  N37  1  0.62500000  0.49501738  0.74501738  1
  N  N38  1  0.88813196  0.13244690  0.89800963  1
  N  N39  1  0.38813196  0.36755310  0.10199037  1
  N  N40  1  0.10199037  0.38813196  0.36755310  1
  N  N41  1  0.87500000  0.50498262  0.24501738  1
  N  N42  1  0.14800963  0.11755310  0.63813196  1
  N  N43  1  0.35199037  0.88244690  0.13813196  1
  N  N44  1  0.74501738  0.62500000  0.49501738  1
  N  N45  1  0.89800963  0.88813196  0.13244690  1
  N  N46  1  0.99501738  0.75498262  0.37500000  1
  N  N47  1  0.86186804  0.85199037  0.61755310  1
  N  N48  1  0.61755310  0.86186804  0.85199037  1
  N  N49  1  0.36186804  0.64800963  0.38244690  1
  N  N50  1  0.64800963  0.38244690  0.36186804  1
  N  N51  1  0.13244690  0.89800963  0.88813196  1
  N  N52  1  0.25498262  0.12500000  0.00498262  1
  N  N53  1  0.86755310  0.39800963  0.61186804  1
  N  N54  1  0.75498262  0.37500000  0.99501738  1
  N  N55  1  0.60199037  0.11186804  0.63244690  1
  O  O56  1  0.02265822  0.66777717  0.59167713  1
  O  O57  1  0.94410933  0.86746352  0.05008651  1
  O  O58  1  0.82306305  0.34551860  0.67606338  1
  O  O59  1  0.42693695  0.42606338  0.59551860  1
  O  O60  1  0.19410933  0.19991349  0.61746352  1
  O  O61  1  0.88253648  0.80589067  0.69991349  1
  O  O62  1  0.69410933  0.30008651  0.38253648  1
  O  O63  1  0.76431828  0.58563818  0.41138304  1
  O  O64  1  0.94991349  0.44410933  0.63253648  1
  O  O65  1  0.43600940  0.31399060  0.87500000  1
  O  O66  1  0.51431828  0.66138304  0.66436182  1
  O  O67  1  0.40832287  0.52265822  0.83222283  1
  O  O68  1  0.32306305  0.15448140  0.32393662  1
  O  O69  1  0.38253648  0.69410933  0.30008651  1
  O  O70  1  0.52265822  0.83222283  0.40832287  1
  O  O71  1  0.27265822  0.65832287  0.41777717  1
  O  O72  1  0.41138304  0.76431828  0.58563818  1
  O  O73  1  0.32393662  0.32306305  0.15448140  1
  O  O74  1  0.81399060  0.62500000  0.56399060  1
  O  O75  1  0.12500000  0.93600940  0.18600940  1
  O  O76  1  0.41777717  0.27265822  0.65832287  1
  O  O77  1  0.08563818  0.08861696  0.23568172  1
  O  O78  1  0.40448140  0.92693695  0.07393662  1
  O  O79  1  0.16436182  0.98568172  0.33861696  1
  O  O80  1  0.83861696  0.33563818  0.01431828  1
  O  O81  1  0.59551860  0.42693695  0.42606338  1
  O  O82  1  0.16777717  0.90832287  0.97734178  1
  O  O83  1  0.11746352  0.30589067  0.80008651  1
  O  O84  1  0.05008651  0.94410933  0.86746352  1
  O  O85  1  0.44410933  0.63253648  0.94991349  1
  O  O86  1  0.90832287  0.97734178  0.16777717  1
  O  O87  1  0.83222283  0.40832287  0.52265822  1
  O  O88  1  0.08222283  0.72734178  0.15832287  1
  O  O89  1  0.92693695  0.07393662  0.40448140  1
  O  O90  1  0.17693695  0.84551860  0.82393662  1
  O  O91  1  0.69991349  0.88253648  0.80589067  1
  O  O92  1  0.08861696  0.23568172  0.08563818  1
  O  O93  1  0.66436182  0.51431828  0.66138304  1
  O  O94  1  0.65448140  0.17606338  0.67693695  1
  O  O95  1  0.58222283  0.77265822  0.84167713  1
  O  O96  1  0.30589067  0.80008651  0.11746352  1
  O  O97  1  0.84167713  0.58222283  0.77265822  1
  O  O98  1  0.98568172  0.33861696  0.16436182  1
  O  O99  1  0.66777717  0.59167713  0.02265822  1
  O  O100  1  0.59167713  0.02265822  0.66777717  1
  O  O101  1  0.57393662  0.09551860  0.07306305  1
  O  O102  1  0.23568172  0.08563818  0.08861696  1
  O  O103  1  0.34167713  0.91777717  0.22734178  1
  O  O104  1  0.67606338  0.82306305  0.34551860  1
  O  O105  1  0.41436182  0.91138304  0.73568172  1
  O  O106  1  0.73568172  0.41436182  0.91138304  1
  O  O107  1  0.63253648  0.94991349  0.44410933  1
  O  O108  1  0.09551860  0.07306305  0.57393662  1
  O  O109  1  0.16138304  0.83563818  0.48568172  1
  O  O110  1  0.55589067  0.13253648  0.55008651  1
  O  O111  1  0.80008651  0.11746352  0.30589067  1
  O  O112  1  0.66138304  0.66436182  0.51431828  1
  O  O113  1  0.37500000  0.06399060  0.68600940  1
  O  O114  1  0.33861696  0.16436182  0.98568172  1
  O  O115  1  0.57306305  0.92606338  0.90448140  1
  O  O116  1  0.91138304  0.73568172  0.41436182  1
  O  O117  1  0.15832287  0.08222283  0.72734178  1
  O  O118  1  0.77265822  0.84167713  0.58222283  1
  O  O119  1  0.07393662  0.40448140  0.92693695  1
  O  O120  1  0.55008651  0.55589067  0.13253648  1
  O  O121  1  0.86746352  0.05008651  0.94410933  1
  O  O122  1  0.13253648  0.55008651  0.55589067  1
  O  O123  1  0.15448140  0.32393662  0.32306305  1
  O  O124  1  0.58563818  0.41138304  0.76431828  1
  O  O125  1  0.82393662  0.17693695  0.84551860  1
  O  O126  1  0.61746352  0.19410933  0.19991349  1
  O  O127  1  0.87500000  0.43600940  0.31399060  1
  O  O128  1  0.01431828  0.83861696  0.33563818  1
  O  O129  1  0.48568172  0.16138304  0.83563818  1
  O  O130  1  0.91436182  0.58861696  0.26431828  1
  O  O131  1  0.58861696  0.26431828  0.91436182  1
  O  O132  1  0.84551860  0.82393662  0.17693695  1
  O  O133  1  0.72734178  0.15832287  0.08222283  1
  O  O134  1  0.31399060  0.87500000  0.43600940  1
  O  O135  1  0.36746352  0.44991349  0.05589067  1
  O  O136  1  0.97734178  0.16777717  0.90832287  1
  O  O137  1  0.05589067  0.36746352  0.44991349  1
  O  O138  1  0.47734178  0.33222283  0.09167713  1
  O  O139  1  0.92606338  0.90448140  0.57306305  1
  O  O140  1  0.44991349  0.05589067  0.36746352  1
  O  O141  1  0.83563818  0.48568172  0.16138304  1
  O  O142  1  0.09167713  0.47734178  0.33222283  1
  O  O143  1  0.90448140  0.57306305  0.92606338  1
  O  O144  1  0.80589067  0.69991349  0.88253648  1
  O  O145  1  0.42606338  0.59551860  0.42693695  1
  O  O146  1  0.67693695  0.65448140  0.17606338  1
  O  O147  1  0.17606338  0.67693695  0.65448140  1
  O  O148  1  0.65832287  0.41777717  0.27265822  1
  O  O149  1  0.07306305  0.57393662  0.09551860  1
  O  O150  1  0.06399060  0.68600940  0.37500000  1
  O  O151  1  0.30008651  0.38253648  0.69410933  1
  O  O152  1  0.91777717  0.22734178  0.34167713  1
  O  O153  1  0.68600940  0.37500000  0.06399060  1
  O  O154  1  0.62500000  0.56399060  0.81399060  1
  O  O155  1  0.33222283  0.09167713  0.47734178  1
  O  O156  1  0.19991349  0.61746352  0.19410933  1
  O  O157  1  0.93600940  0.18600940  0.12500000  1
  O  O158  1  0.26431828  0.91436182  0.58861696  1
  O  O159  1  0.34551860  0.67606338  0.82306305  1
  O  O160  1  0.56399060  0.81399060  0.62500000  1
  O  O161  1  0.18600940  0.12500000  0.93600940  1
  O  O162  1  0.33563818  0.01431828  0.83861696  1
  O  O163  1  0.22734178  0.34167713  0.91777717  1
