# generated using pymatgen
data_La2Ni2O5
_symmetry_space_group_name_H-M   'P 1'
_cell_length_a   5.46826746
_cell_length_b   5.69676872
_cell_length_c   8.84920596
_cell_angle_alpha   108.77667080
_cell_angle_beta   107.99713188
_cell_angle_gamma   90.00000000
_symmetry_Int_Tables_number   1
_chemical_formula_structural   La2Ni2O5
_chemical_formula_sum   'La4 Ni4 O10'
_cell_volume   246.70627877
_cell_formula_units_Z   2
loop_
 _symmetry_equiv_pos_site_id
 _symmetry_equiv_pos_as_xyz
  1  'x, y, z'
loop_
 _atom_site_type_symbol
 _atom_site_label
 _atom_site_symmetry_multiplicity
 _atom_site_fract_x
 _atom_site_fract_y
 _atom_site_fract_z
 _atom_site_occupancy
  La  La0  1  0.61511586  0.12455587  0.21761546  1
  La  La1  1  0.39750040  0.87544413  0.78238454  1
  La  La2  1  0.11511586  0.59305960  0.21761546  1
  La  La3  1  0.89750040  0.40694040  0.78238454  1
  Ni  Ni4  1  0.01136009  -0.00000000  0.00000000  1
  Ni  Ni5  1  0.51136009  0.50000000  0.00000000  1
  Ni  Ni6  1  0.21806500  0.19112968  0.50000000  1
  Ni  Ni7  1  0.71806500  0.80887032  0.50000000  1
  O  O8  1  0.24214413  0.24098106  0.97196621  1
  O  O9  1  0.27017792  0.75901894  0.02803379  1
  O  O10  1  0.74214413  0.23098515  0.97196621  1
  O  O11  1  0.77017792  0.76901485  0.02803379  1
  O  O12  1  0.16825670  0.20560649  0.27500947  1
  O  O13  1  0.89324723  0.79439351  0.72499053  1
  O  O14  1  0.66825670  0.56940299  0.27500947  1
  O  O15  1  0.39324723  0.43059701  0.72499053  1
  O  O16  1  0.84813267  0.14002067  0.50000000  1
  O  O17  1  0.34813267  0.85997933  0.50000000  1
