# generated using pymatgen
data_Na21S7Cl(O14F3)2
_symmetry_space_group_name_H-M   'P 1'
_cell_length_a   12.33823022
_cell_length_b   12.33823035
_cell_length_c   19.57227998
_cell_angle_alpha   90.00000000
_cell_angle_beta   90.00000000
_cell_angle_gamma   119.99999965
_symmetry_Int_Tables_number   1
_chemical_formula_structural   Na21S7Cl(O14F3)2
_chemical_formula_sum   'Na63 S21 Cl3 O84 F18'
_cell_volume   2580.34512025
_cell_formula_units_Z   3
loop_
 _symmetry_equiv_pos_site_id
 _symmetry_equiv_pos_as_xyz
  1  'x, y, z'
loop_
 _atom_site_type_symbol
 _atom_site_label
 _atom_site_symmetry_multiplicity
 _atom_site_fract_x
 _atom_site_fract_y
 _atom_site_fract_z
 _atom_site_occupancy
  Na  Na0  1  0.66432101  0.51076830  0.93402982  1
  Na  Na1  1  0.00000000  0.82340683  0.09597243  1
  Na  Na2  1  1.00000000  0.18912858  0.92885426  1
  Na  Na3  1  0.52134511  0.85247975  0.10308089  1
  Na  Na4  1  0.00000000  0.17771112  0.64759051  1
  Na  Na5  1  0.84090891  0.17444396  0.51537408  1
  Na  Na6  1  0.82555604  0.66646495  0.51537408  1
  Na  Na7  1  0.82228888  0.82228888  0.64759051  1
  Na  Na8  1  1.00000000  0.48762432  0.79227804  1
  Na  Na9  1  0.33353505  0.15909109  0.51537408  1
  Na  Na10  1  0.66886536  0.14752025  0.10308089  1
  Na  Na11  1  0.48661424  0.15285094  0.65339463  1
  Na  Na12  1  0.51843139  0.85029667  0.38488868  1
  Na  Na13  1  0.84948161  0.18323340  0.79404629  1
  Na  Na14  1  0.51338576  0.66623670  0.65339463  1
  Na  Na15  1  0.17659317  0.17659317  0.09597243  1
  Na  Na16  1  0.82340683  0.00000000  0.09597243  1
  Na  Na17  1  0.14752025  0.66886536  0.10308089  1
  Na  Na18  1  0.33268289  0.18034508  0.23867310  1
  Na  Na19  1  0.66813472  0.14970333  0.38488868  1
  Na  Na20  1  0.15909109  0.33353505  0.51537408  1
  Na  Na21  1  0.18034508  0.33268289  0.23867310  1
  Na  Na22  1  0.15355270  0.48923170  0.93402982  1
  Na  Na23  1  0.18912858  0.00000000  0.92885426  1
  Na  Na24  1  0.51733395  0.00000000  0.23574510  1
  Na  Na25  1  0.85029667  0.51843139  0.38488868  1
  Na  Na26  1  0.00000000  0.81584072  0.37905249  1
  Na  Na27  1  0.18323340  0.84948161  0.79404629  1
  Na  Na28  1  0.51076830  0.66432101  0.93402982  1
  Na  Na29  1  0.66624821  0.81676660  0.79404629  1
  Na  Na30  1  0.51568826  0.00000000  0.51732865  1
  Na  Na31  1  0.17771112  0.00000000  0.64759051  1
  Na  Na32  1  0.81676660  0.66624821  0.79404629  1
  Na  Na33  1  0.15051839  0.33375179  0.79404629  1
  Na  Na34  1  0.84714906  0.33376330  0.65339463  1
  Na  Na35  1  0.85247975  0.52134511  0.10308089  1
  Na  Na36  1  0.00000000  0.51568826  0.51732865  1
  Na  Na37  1  0.33376330  0.84714906  0.65339463  1
  Na  Na38  1  0.48431174  0.48431174  0.51732865  1
  Na  Na39  1  0.51237568  0.51237568  0.79227804  1
  Na  Na40  1  0.14970333  0.66813472  0.38488868  1
  Na  Na41  1  0.47865489  0.33113464  0.10308089  1
  Na  Na42  1  0.18415928  0.18415928  0.37905249  1
  Na  Na43  1  0.66646495  0.82555604  0.51537408  1
  Na  Na44  1  0.15233781  0.81965492  0.23867310  1
  Na  Na45  1  0.84644730  0.33567899  0.93402982  1
  Na  Na46  1  0.33186528  0.48156861  0.38488868  1
  Na  Na47  1  0.81965492  0.15233781  0.23867310  1
  Na  Na48  1  0.66731711  0.84766219  0.23867310  1
  Na  Na49  1  0.81584072  0.00000000  0.37905249  1
  Na  Na50  1  0.33375179  0.15051839  0.79404629  1
  Na  Na51  1  0.33567899  0.84644730  0.93402982  1
  Na  Na52  1  0.33113464  0.47865489  0.10308089  1
  Na  Na53  1  0.66623670  0.51338576  0.65339463  1
  Na  Na54  1  0.81087142  0.81087142  0.92885426  1
  Na  Na55  1  0.84766219  0.66731711  0.23867310  1
  Na  Na56  1  0.17444396  0.84090891  0.51537408  1
  Na  Na57  1  0.48923170  0.15355270  0.93402982  1
  Na  Na58  1  0.48266605  0.48266605  0.23574510  1
  Na  Na59  1  1.00000000  0.51733395  0.23574510  1
  Na  Na60  1  0.48156861  0.33186528  0.38488868  1
  Na  Na61  1  0.15285094  0.48661424  0.65339463  1
  Na  Na62  1  0.48762432  0.00000000  0.79227804  1
  S  S63  1  0.00000000  0.66696644  0.93893009  1
  S  S64  1  1.00000000  0.33452327  0.09390125  1
  S  S65  1  0.66666700  0.33333300  0.52677932  1
  S  S66  1  0.33333300  0.66666700  0.25550434  1
  S  S67  1  0.66350552  0.66350552  0.36834824  1
  S  S68  1  0.66666700  0.33333300  0.25550434  1
  S  S69  1  0.00000000  0.00000000  0.78056744  1
  S  S70  1  0.00000000  0.00000000  0.50684418  1
  S  S71  1  0.33025714  0.33025714  0.66647995  1
  S  S72  1  0.66974286  0.00000000  0.66647995  1
  S  S73  1  0.33649448  0.00000000  0.36834824  1
  S  S74  1  0.33333300  0.66666700  0.52677932  1
  S  S75  1  1.00000000  0.66974286  0.66647995  1
  S  S76  1  0.66696644  0.00000000  0.93893009  1
  S  S77  1  0.33303356  0.33303356  0.93893009  1
  S  S78  1  1.00000000  0.33649448  0.36834824  1
  S  S79  1  0.33452327  0.00000000  0.09390125  1
  S  S80  1  0.33333300  0.66666700  0.79541254  1
  S  S81  1  0.66666700  0.33333300  0.79541254  1
  S  S82  1  0.00000000  0.00000000  0.23831715  1
  S  S83  1  0.66547673  0.66547673  0.09390125  1
  Cl  Cl84  1  0.33333300  0.66666700  0.03008523  1
  Cl  Cl85  1  0.66666700  0.33333300  0.03008523  1
  Cl  Cl86  1  0.00000000  0.00000000  0.00043373  1
  O  O87  1  1.00000000  0.88567918  0.26371584  1
  O  O88  1  0.88624504  0.21988384  0.11957616  1
  O  O89  1  0.55256861  0.00000000  0.91362549  1
  O  O90  1  0.33333300  0.66666700  0.87197404  1
  O  O91  1  0.77843384  0.45015904  0.50195082  1
  O  O92  1  0.55059146  0.55059146  0.39574987  1
  O  O93  1  0.44940854  0.00000000  0.39574987  1
  O  O94  1  0.22107892  0.88582190  0.39239682  1
  O  O95  1  0.00000000  0.00000000  0.16180943  1
  O  O96  1  0.67606880  0.00000000  0.74312304  1
  O  O97  1  0.66583904  0.88545649  0.91302906  1
  O  O98  1  0.11435131  0.00000000  0.80546641  1
  O  O99  1  0.55176293  0.33174388  0.23019088  1
  O  O100  1  0.32827479  0.54984096  0.50195082  1
  O  O101  1  0.33187466  0.33187466  0.01549079  1
  O  O102  1  0.54984096  0.32827479  0.50195082  1
  O  O103  1  0.44823707  0.77998095  0.23019088  1
  O  O104  1  0.88567918  0.00000000  0.26371584  1
  O  O105  1  0.78152229  0.11423060  0.63902750  1
  O  O106  1  0.21961744  0.33416096  0.91302906  1
  O  O107  1  0.00000000  0.11423509  0.53215346  1
  O  O108  1  0.66058048  0.66058048  0.29158747  1
  O  O109  1  0.88582190  0.22107892  0.39239682  1
  O  O110  1  1.00000000  0.67606880  0.74312304  1
  O  O111  1  0.00000000  0.44875813  0.11992325  1
  O  O112  1  0.00000000  0.66812534  0.01549079  1
  O  O113  1  0.33333300  0.66666700  0.60359567  1
  O  O114  1  0.33416096  0.21961744  0.91302906  1
  O  O115  1  0.66666700  0.33333300  0.33263203  1
  O  O116  1  0.44875813  0.00000000  0.11992325  1
  O  O117  1  0.11432082  0.11432082  0.26371584  1
  O  O118  1  0.55362269  0.00000000  0.64502329  1
  O  O119  1  0.67172521  0.22156616  0.50195082  1
  O  O120  1  0.88576940  0.66729169  0.63902750  1
  O  O121  1  0.11423060  0.78152229  0.63902750  1
  O  O122  1  0.11417810  0.33525702  0.39239682  1
  O  O123  1  0.44743139  0.44743139  0.91362549  1
  O  O124  1  0.33522176  0.00000000  0.01770185  1
  O  O125  1  0.00000000  0.44940854  0.39574987  1
  O  O126  1  0.55304415  0.21853377  0.76994462  1
  O  O127  1  0.22156616  0.67172521  0.50195082  1
  O  O128  1  1.00000000  0.55256861  0.91362549  1
  O  O129  1  0.78011616  0.66636120  0.11957616  1
  O  O130  1  0.33270831  0.21847771  0.63902750  1
  O  O131  1  0.33525702  0.11417810  0.39239682  1
  O  O132  1  0.11375496  0.33363880  0.11957616  1
  O  O133  1  0.00000000  0.11435131  0.80546641  1
  O  O134  1  0.00000000  0.33941952  0.29158747  1
  O  O135  1  0.66666700  0.33333300  0.87197404  1
  O  O136  1  0.33941952  0.00000000  0.29158747  1
  O  O137  1  0.33451038  0.78146623  0.76994462  1
  O  O138  1  0.77892108  0.66474298  0.39239682  1
  O  O139  1  0.00000000  0.55362269  0.64502329  1
  O  O140  1  0.78146623  0.33451038  0.76994462  1
  O  O141  1  0.66666700  0.33333300  0.60359567  1
  O  O142  1  0.00000000  0.00000000  0.70353874  1
  O  O143  1  0.88564869  0.88564869  0.80546641  1
  O  O144  1  0.11423509  0.00000000  0.53215346  1
  O  O145  1  0.66636120  0.78011616  0.11957616  1
  O  O146  1  0.11454351  0.78038256  0.91302906  1
  O  O147  1  0.88576491  0.88576491  0.53215346  1
  O  O148  1  0.44637731  0.44637731  0.64502329  1
  O  O149  1  0.66477824  0.66477824  0.01770185  1
  O  O150  1  0.66812534  0.00000000  0.01549079  1
  O  O151  1  0.55124187  0.55124187  0.11992325  1
  O  O152  1  0.33333300  0.66666700  0.33263203  1
  O  O153  1  0.66825612  0.22001905  0.23019088  1
  O  O154  1  0.77998095  0.44823707  0.23019088  1
  O  O155  1  0.66729169  0.88576940  0.63902750  1
  O  O156  1  0.45015904  0.77843384  0.50195082  1
  O  O157  1  0.22001905  0.66825612  0.23019088  1
  O  O158  1  0.66474298  0.77892108  0.39239682  1
  O  O159  1  0.33174388  0.55176293  0.23019088  1
  O  O160  1  0.21853377  0.55304415  0.76994462  1
  O  O161  1  0.88545649  0.66583904  0.91302906  1
  O  O162  1  0.66548962  0.44695585  0.76994462  1
  O  O163  1  0.32393120  0.32393120  0.74312304  1
  O  O164  1  0.00000000  0.00000000  0.43022249  1
  O  O165  1  0.21847771  0.33270831  0.63902750  1
  O  O166  1  0.21988384  0.88624504  0.11957616  1
  O  O167  1  0.44695585  0.66548962  0.76994462  1
  O  O168  1  0.78038256  0.11454351  0.91302906  1
  O  O169  1  1.00000000  0.33522176  0.01770185  1
  O  O170  1  0.33363880  0.11375496  0.11957616  1
  F  F171  1  1.00000000  0.66146859  0.31311488  1
  F  F172  1  0.65981270  0.65981270  0.86396099  1
  F  F173  1  0.00000000  0.34943697  0.56649563  1
  F  F174  1  0.32604121  0.00000000  0.71755124  1
  F  F175  1  0.00000000  0.67537046  0.16739218  1
  F  F176  1  0.65056303  0.65056303  0.56649563  1
  F  F177  1  0.67537046  0.00000000  0.16739218  1
  F  F178  1  0.67395879  0.67395879  0.71755124  1
  F  F179  1  0.33853141  0.33853141  0.31311488  1
  F  F180  1  0.31482999  0.31482999  0.46530346  1
  F  F181  1  0.66146859  0.00000000  0.31311488  1
  F  F182  1  0.32462954  0.32462954  0.16739218  1
  F  F183  1  0.68517001  0.00000000  0.46530346  1
  F  F184  1  1.00000000  0.32604121  0.71755124  1
  F  F185  1  1.00000000  0.68517001  0.46530346  1
  F  F186  1  0.34018730  0.00000000  0.86396099  1
  F  F187  1  0.34943697  0.00000000  0.56649563  1
  F  F188  1  0.00000000  0.34018730  0.86396099  1
