# generated using pymatgen
data_Rb3Pr2(NO3)9
_symmetry_space_group_name_H-M   'P 1'
_cell_length_a   13.91594938
_cell_length_b   13.91594938
_cell_length_c   13.91594938
_cell_angle_alpha   90.00000000
_cell_angle_beta   90.00000000
_cell_angle_gamma   90.00000000
_symmetry_Int_Tables_number   1
_chemical_formula_structural   Rb3Pr2(NO3)9
_chemical_formula_sum   'Rb12 Pr8 N36 O108'
_cell_volume   2694.87435095
_cell_formula_units_Z   4
loop_
 _symmetry_equiv_pos_site_id
 _symmetry_equiv_pos_as_xyz
  1  'x, y, z'
loop_
 _atom_site_type_symbol
 _atom_site_label
 _atom_site_symmetry_multiplicity
 _atom_site_fract_x
 _atom_site_fract_y
 _atom_site_fract_z
 _atom_site_occupancy
  Rb  Rb0  1  0.30433411  0.94566589  0.12500000  1
  Rb  Rb1  1  0.62500000  0.19566589  0.05433411  1
  Rb  Rb2  1  0.55433411  0.87500000  0.80433411  1
  Rb  Rb3  1  0.69566589  0.44566589  0.37500000  1
  Rb  Rb4  1  0.44566589  0.37500000  0.69566589  1
  Rb  Rb5  1  0.37500000  0.69566589  0.44566589  1
  Rb  Rb6  1  0.80433411  0.55433411  0.87500000  1
  Rb  Rb7  1  0.12500000  0.30433411  0.94566589  1
  Rb  Rb8  1  0.19566589  0.05433411  0.62500000  1
  Rb  Rb9  1  0.05433411  0.62500000  0.19566589  1
  Rb  Rb10  1  0.87500000  0.80433411  0.55433411  1
  Rb  Rb11  1  0.94566589  0.12500000  0.30433411  1
  Pr  Pr12  1  0.55540349  0.05540349  0.44459651  1
  Pr  Pr13  1  0.05540349  0.44459651  0.55540349  1
  Pr  Pr14  1  0.94459651  0.94459651  0.94459651  1
  Pr  Pr15  1  0.30540349  0.30540349  0.30540349  1
  Pr  Pr16  1  0.19459651  0.69459651  0.80540349  1
  Pr  Pr17  1  0.80540349  0.19459651  0.69459651  1
  Pr  Pr18  1  0.44459651  0.55540349  0.05540349  1
  Pr  Pr19  1  0.69459651  0.80540349  0.19459651  1
  N  N20  1  0.86142136  0.09577824  0.07604044  1
  N  N21  1  0.09577824  0.07604044  0.86142136  1
  N  N22  1  0.07604044  0.86142136  0.09577824  1
  N  N23  1  0.15422176  0.38857864  0.17395956  1
  N  N24  1  0.17395956  0.15422176  0.38857864  1
  N  N25  1  0.32604044  0.84577824  0.88857864  1
  N  N26  1  0.87500000  0.98367498  0.73367498  1
  N  N27  1  0.01632502  0.23367498  0.62500000  1
  N  N28  1  0.84577824  0.88857864  0.32604044  1
  N  N29  1  0.48367498  0.76632502  0.12500000  1
  N  N30  1  0.62500000  0.01632502  0.23367498  1
  N  N31  1  0.42395956  0.13857864  0.59577824  1
  N  N32  1  0.34577824  0.61142136  0.67395956  1
  N  N33  1  0.57604044  0.63857864  0.90422176  1
  N  N34  1  0.23367498  0.62500000  0.01632502  1
  N  N35  1  0.73367498  0.87500000  0.98367498  1
  N  N36  1  0.90422176  0.57604044  0.63857864  1
  N  N37  1  0.61142136  0.67395956  0.34577824  1
  N  N38  1  0.65422176  0.11142136  0.82604044  1
  N  N39  1  0.98367498  0.73367498  0.87500000  1
  N  N40  1  0.12500000  0.48367498  0.76632502  1
  N  N41  1  0.11142136  0.82604044  0.65422176  1
  N  N42  1  0.37500000  0.51632502  0.26632502  1
  N  N43  1  0.51632502  0.26632502  0.37500000  1
  N  N44  1  0.76632502  0.12500000  0.48367498  1
  N  N45  1  0.40422176  0.92395956  0.36142136  1
  N  N46  1  0.63857864  0.90422176  0.57604044  1
  N  N47  1  0.38857864  0.17395956  0.15422176  1
  N  N48  1  0.13857864  0.59577824  0.42395956  1
  N  N49  1  0.67395956  0.34577824  0.61142136  1
  N  N50  1  0.26632502  0.37500000  0.51632502  1
  N  N51  1  0.59577824  0.42395956  0.13857864  1
  N  N52  1  0.82604044  0.65422176  0.11142136  1
  N  N53  1  0.36142136  0.40422176  0.92395956  1
  N  N54  1  0.88857864  0.32604044  0.84577824  1
  N  N55  1  0.92395956  0.36142136  0.40422176  1
  O  O56  1  0.17330457  0.65833823  0.36949592  1
  O  O57  1  0.67219732  0.07400917  0.74403340  1
  O  O58  1  0.65833823  0.36949592  0.17330457  1
  O  O59  1  0.09683179  0.40065580  0.74447561  1
  O  O60  1  0.25552439  0.59683179  0.09934420  1
  O  O61  1  0.11949592  0.09166177  0.42330457  1
  O  O62  1  0.70076328  0.12500000  0.54923672  1
  O  O63  1  0.17219732  0.42599083  0.25596660  1
  O  O64  1  0.84934420  0.15316821  0.50552439  1
  O  O65  1  0.42219732  0.00596660  0.32400917  1
  O  O66  1  0.84166177  0.63050408  0.67330457  1
  O  O67  1  0.86949592  0.32669543  0.34166177  1
  O  O68  1  0.65065580  0.84683179  0.00552439  1
  O  O69  1  0.57400917  0.75596660  0.32780268  1
  O  O70  1  0.95076328  0.29923672  0.62500000  1
  O  O71  1  0.93579346  0.04705716  0.09999225  1
  O  O72  1  0.00552439  0.65065580  0.84683179  1
  O  O73  1  0.59934420  0.24447561  0.40316821  1
  O  O74  1  0.92219732  0.49403340  0.67599083  1
  O  O75  1  0.75596660  0.32780268  0.57400917  1
  O  O76  1  0.15833823  0.13050408  0.82669543  1
  O  O77  1  0.42599083  0.25596660  0.17219732  1
  O  O78  1  0.40065580  0.74447561  0.09683179  1
  O  O79  1  0.90065580  0.75552439  0.90316821  1
  O  O80  1  0.12500000  0.54923672  0.70076328  1
  O  O81  1  0.13050408  0.82669543  0.15833823  1
  O  O82  1  0.42330457  0.11949592  0.09166177  1
  O  O83  1  0.43579346  0.45294284  0.90000775  1
  O  O84  1  0.29923672  0.62500000  0.95076328  1
  O  O85  1  0.87500000  0.04923672  0.79923672  1
  O  O86  1  0.63050408  0.67330457  0.84166177  1
  O  O87  1  0.74403340  0.67219732  0.07400917  1
  O  O88  1  0.04923672  0.79923672  0.87500000  1
  O  O89  1  0.99447561  0.15065580  0.65316821  1
  O  O90  1  0.25596660  0.17219732  0.42599083  1
  O  O91  1  0.92330457  0.38050408  0.90833823  1
  O  O92  1  0.82400917  0.07780268  0.99403340  1
  O  O93  1  0.81420654  0.34999225  0.79705716  1
  O  O94  1  0.17599083  0.57780268  0.50596660  1
  O  O95  1  0.59999225  0.56420654  0.95294284  1
  O  O96  1  0.82669543  0.15833823  0.13050408  1
  O  O97  1  0.84683179  0.00552439  0.65065580  1
  O  O98  1  0.95294284  0.59999225  0.56420654  1
  O  O99  1  0.04705716  0.09999225  0.93579346  1
  O  O100  1  0.54705716  0.40000775  0.06420654  1
  O  O101  1  0.40316821  0.59934420  0.24447561  1
  O  O102  1  0.50552439  0.84934420  0.15316821  1
  O  O103  1  0.65316821  0.99447561  0.15065580  1
  O  O104  1  0.36949592  0.17330457  0.65833823  1
  O  O105  1  0.56420654  0.95294284  0.59999225  1
  O  O106  1  0.34934420  0.34683179  0.49447561  1
  O  O107  1  0.65000775  0.29705716  0.68579346  1
  O  O108  1  0.49447561  0.34934420  0.34683179  1
  O  O109  1  0.45294284  0.90000775  0.43579346  1
  O  O110  1  0.34683179  0.49447561  0.34934420  1
  O  O111  1  0.61949592  0.40833823  0.57669543  1
  O  O112  1  0.34999225  0.79705716  0.81420654  1
  O  O113  1  0.18579346  0.84999225  0.70294284  1
  O  O114  1  0.32780268  0.57400917  0.75596660  1
  O  O115  1  0.34166177  0.86949592  0.32669543  1
  O  O116  1  0.99403340  0.82400917  0.07780268  1
  O  O117  1  0.74447561  0.09683179  0.40065580  1
  O  O118  1  0.68579346  0.65000775  0.29705716  1
  O  O119  1  0.32669543  0.34166177  0.86949592  1
  O  O120  1  0.40833823  0.57669543  0.61949592  1
  O  O121  1  0.29705716  0.68579346  0.65000775  1
  O  O122  1  0.15065580  0.65316821  0.99447561  1
  O  O123  1  0.90000775  0.43579346  0.45294284  1
  O  O124  1  0.49403340  0.67599083  0.92219732  1
  O  O125  1  0.67599083  0.92219732  0.49403340  1
  O  O126  1  0.32400917  0.42219732  0.00596660  1
  O  O127  1  0.70294284  0.18579346  0.84999225  1
  O  O128  1  0.07400917  0.74403340  0.67219732  1
  O  O129  1  0.15000775  0.20294284  0.31420654  1
  O  O130  1  0.75552439  0.90316821  0.90065580  1
  O  O131  1  0.40000775  0.06420654  0.54705716  1
  O  O132  1  0.88050408  0.59166177  0.07669543  1
  O  O133  1  0.31420654  0.15000775  0.20294284  1
  O  O134  1  0.24403340  0.82780268  0.92599083  1
  O  O135  1  0.67330457  0.84166177  0.63050408  1
  O  O136  1  0.15316821  0.50552439  0.84934420  1
  O  O137  1  0.59166177  0.07669543  0.88050408  1
  O  O138  1  0.57780268  0.50596660  0.17599083  1
  O  O139  1  0.84999225  0.70294284  0.18579346  1
  O  O140  1  0.82780268  0.92599083  0.24403340  1
  O  O141  1  0.92599083  0.24403340  0.82780268  1
  O  O142  1  0.09166177  0.42330457  0.11949592  1
  O  O143  1  0.50596660  0.17599083  0.57780268  1
  O  O144  1  0.06420654  0.54705716  0.40000775  1
  O  O145  1  0.20076328  0.37500000  0.45076328  1
  O  O146  1  0.00596660  0.32400917  0.42219732  1
  O  O147  1  0.38050408  0.90833823  0.92330457  1
  O  O148  1  0.79923672  0.87500000  0.04923672  1
  O  O149  1  0.09934420  0.25552439  0.59683179  1
  O  O150  1  0.57669543  0.61949592  0.40833823  1
  O  O151  1  0.79705716  0.81420654  0.34999225  1
  O  O152  1  0.07780268  0.99403340  0.82400917  1
  O  O153  1  0.54923672  0.70076328  0.12500000  1
  O  O154  1  0.90316821  0.90065580  0.75552439  1
  O  O155  1  0.24447561  0.40316821  0.59934420  1
  O  O156  1  0.62500000  0.95076328  0.29923672  1
  O  O157  1  0.07669543  0.88050408  0.59166177  1
  O  O158  1  0.90833823  0.92330457  0.38050408  1
  O  O159  1  0.37500000  0.45076328  0.20076328  1
  O  O160  1  0.20294284  0.31420654  0.15000775  1
  O  O161  1  0.45076328  0.20076328  0.37500000  1
  O  O162  1  0.59683179  0.09934420  0.25552439  1
  O  O163  1  0.09999225  0.93579346  0.04705716  1
