# generated using pymatgen
data_Tb2Zr8O19
_symmetry_space_group_name_H-M   'P 1'
_cell_length_a   3.64772743
_cell_length_b   36.46208677
_cell_length_c   34.78118115
_cell_angle_alpha   5.21038439
_cell_angle_beta   58.37332801
_cell_angle_gamma   59.98622103
_symmetry_Int_Tables_number   1
_chemical_formula_structural   Tb2Zr8O19
_chemical_formula_sum   'Tb2 Zr8 O19'
_cell_volume   342.91799969
_cell_formula_units_Z   1
loop_
 _symmetry_equiv_pos_site_id
 _symmetry_equiv_pos_as_xyz
  1  'x, y, z'
loop_
 _atom_site_type_symbol
 _atom_site_label
 _atom_site_symmetry_multiplicity
 _atom_site_fract_x
 _atom_site_fract_y
 _atom_site_fract_z
 _atom_site_occupancy
  Tb  Tb0  1  0.03274146  0.82619317  0.96725854  1
  Tb  Tb1  1  0.96725854  0.87380683  0.03274146  1
  Zr  Zr2  1  0.98435619  0.98748495  0.01564381  1
  Zr  Zr3  1  0.98923176  0.09138541  0.01076824  1
  Zr  Zr4  1  0.99385488  0.19508391  0.00614512  1
  Zr  Zr5  1  0.99812389  0.29849911  0.00187611  1
  Zr  Zr6  1  0.00187611  0.40150089  0.99812389  1
  Zr  Zr7  1  0.00614512  0.50491609  0.99385488  1
  Zr  Zr8  1  0.01076824  0.60861459  0.98923176  1
  Zr  Zr9  1  0.01564381  0.71251505  0.98435619  1
  O  O10  1  0.25820271  0.00656217  0.24179729  1
  O  O11  1  0.25000000  0.10000000  0.25000000  1
  O  O12  1  0.24179729  0.19343783  0.25820271  1
  O  O13  1  0.27766388  0.32213110  0.22233612  1
  O  O14  1  0.23678724  0.38942979  0.26321276  1
  O  O15  1  0.29686272  0.53749018  0.20313728  1
  O  O16  1  0.75000000  0.10000000  0.75000000  1
  O  O17  1  0.20313728  0.66250982  0.29686272  1
  O  O18  1  0.75954227  0.20763382  0.74045773  1
  O  O19  1  0.26321276  0.81057021  0.23678724  1
  O  O20  1  0.71198256  0.26958605  0.78801744  1
  O  O21  1  0.22233612  0.87786890  0.27766388  1
  O  O22  1  0.76225632  0.40980506  0.73774368  1
  O  O23  1  0.73533303  0.48826643  0.76466697  1
  O  O24  1  0.75000000  0.60000000  0.75000000  1
  O  O25  1  0.76466697  0.71173357  0.73533303  1
  O  O26  1  0.73774368  0.79019494  0.76225632  1
  O  O27  1  0.78801744  0.93041395  0.71198256  1
  O  O28  1  0.74045773  0.99236618  0.75954227  1
