# generated using pymatgen
data_K2LuZr(PO4)3
_symmetry_space_group_name_H-M   'P 1'
_cell_length_a   10.43577438
_cell_length_b   10.43577438
_cell_length_c   10.43577438
_cell_angle_alpha   90.00000000
_cell_angle_beta   90.00000000
_cell_angle_gamma   90.00000000
_symmetry_Int_Tables_number   1
_chemical_formula_structural   K2LuZr(PO4)3
_chemical_formula_sum   'K8 Lu4 Zr4 P12 O48'
_cell_volume   1136.51204656
_cell_formula_units_Z   4
loop_
 _symmetry_equiv_pos_site_id
 _symmetry_equiv_pos_as_xyz
  1  'x, y, z'
loop_
 _atom_site_type_symbol
 _atom_site_label
 _atom_site_symmetry_multiplicity
 _atom_site_fract_x
 _atom_site_fract_y
 _atom_site_fract_z
 _atom_site_occupancy
  K  K0  1  0.06694539  0.43305461  0.56694539  1
  K  K1  1  0.20102744  0.79897256  0.29897256  1
  K  K2  1  0.29897256  0.20102744  0.79897256  1
  K  K3  1  0.43305461  0.56694539  0.06694539  1
  K  K4  1  0.56694539  0.06694539  0.43305461  1
  K  K5  1  0.70102744  0.70102744  0.70102744  1
  K  K6  1  0.79897256  0.29897256  0.20102744  1
  K  K7  1  0.93305461  0.93305461  0.93305461  1
  Lu  Lu8  1  0.14647283  0.14647283  0.14647283  1
  Lu  Lu9  1  0.35352717  0.85352717  0.64647283  1
  Lu  Lu10  1  0.64647283  0.35352717  0.85352717  1
  Lu  Lu11  1  0.85352717  0.64647283  0.35352717  1
  Zr  Zr12  1  0.08351038  0.58351038  0.91648962  1
  Zr  Zr13  1  0.41648962  0.41648962  0.41648962  1
  Zr  Zr14  1  0.58351038  0.91648962  0.08351038  1
  Zr  Zr15  1  0.91648962  0.08351038  0.58351038  1
  P  P16  1  0.03832543  0.76535988  0.62626374  1
  P  P17  1  0.12626374  0.46167457  0.23464012  1
  P  P18  1  0.23464012  0.12626374  0.46167457  1
  P  P19  1  0.26535988  0.87373626  0.96167457  1
  P  P20  1  0.37373626  0.53832543  0.73464012  1
  P  P21  1  0.46167457  0.23464012  0.12626374  1
  P  P22  1  0.53832543  0.73464012  0.37373626  1
  P  P23  1  0.62626374  0.03832543  0.76535988  1
  P  P24  1  0.73464012  0.37373626  0.53832543  1
  P  P25  1  0.76535988  0.62626374  0.03832543  1
  P  P26  1  0.87373626  0.96167457  0.26535988  1
  P  P27  1  0.96167457  0.26535988  0.87373626  1
  O  O28  1  0.00775937  0.40660153  0.85209407  1
  O  O29  1  0.02740788  0.54930963  0.30024661  1
  O  O30  1  0.02231763  0.69042463  0.75497777  1
  O  O31  1  0.04930963  0.19975339  0.97259212  1
  O  O32  1  0.08064970  0.32228316  0.23827144  1
  O  O33  1  0.09339847  0.14790593  0.50775937  1
  O  O34  1  0.14790593  0.50775937  0.09339847  1
  O  O35  1  0.17771684  0.76172856  0.58064970  1
  O  O36  1  0.19042463  0.74502223  0.97768237  1
  O  O37  1  0.19975339  0.97259212  0.04930963  1
  O  O38  1  0.24502223  0.52231763  0.80957537  1
  O  O39  1  0.23827144  0.08064970  0.32228316  1
  O  O40  1  0.26172856  0.91935030  0.82228316  1
  O  O41  1  0.25497777  0.47768237  0.30957537  1
  O  O42  1  0.30024661  0.02740788  0.54930963  1
  O  O43  1  0.30957537  0.25497777  0.47768237  1
  O  O44  1  0.32228316  0.23827144  0.08064970  1
  O  O45  1  0.35209407  0.49224063  0.59339847  1
  O  O46  1  0.40660153  0.85209407  0.00775937  1
  O  O47  1  0.41935030  0.67771684  0.73827144  1
  O  O48  1  0.45069037  0.80024661  0.47259212  1
  O  O49  1  0.47768237  0.30957537  0.25497777  1
  O  O50  1  0.47259212  0.45069037  0.80024661  1
  O  O51  1  0.49224063  0.59339847  0.35209407  1
  O  O52  1  0.50775937  0.09339847  0.14790593  1
  O  O53  1  0.52740788  0.95069037  0.69975339  1
  O  O54  1  0.52231763  0.80957537  0.24502223  1
  O  O55  1  0.54930963  0.30024661  0.02740788  1
  O  O56  1  0.58064970  0.17771684  0.76172856  1
  O  O57  1  0.59339847  0.35209407  0.49224063  1
  O  O58  1  0.64790593  0.99224063  0.90660153  1
  O  O59  1  0.67771684  0.73827144  0.41935030  1
  O  O60  1  0.69042463  0.75497777  0.02231763  1
  O  O61  1  0.69975339  0.52740788  0.95069037  1
  O  O62  1  0.74502223  0.97768237  0.19042463  1
  O  O63  1  0.73827144  0.41935030  0.67771684  1
  O  O64  1  0.76172856  0.58064970  0.17771684  1
  O  O65  1  0.75497777  0.02231763  0.69042463  1
  O  O66  1  0.80024661  0.47259212  0.45069037  1
  O  O67  1  0.80957537  0.24502223  0.52231763  1
  O  O68  1  0.82228316  0.26172856  0.91935030  1
  O  O69  1  0.85209407  0.00775937  0.40660153  1
  O  O70  1  0.90660153  0.64790593  0.99224063  1
  O  O71  1  0.91935030  0.82228316  0.26172856  1
  O  O72  1  0.95069037  0.69975339  0.52740788  1
  O  O73  1  0.97768237  0.19042463  0.74502223  1
  O  O74  1  0.97259212  0.04930963  0.19975339  1
  O  O75  1  0.99224063  0.90660153  0.64790593  1
