# generated using pymatgen
data_TlSnF3
_symmetry_space_group_name_H-M   'P 1'
_cell_length_a   8.66113958
_cell_length_b   10.22689169
_cell_length_c   10.22689108
_cell_angle_alpha   80.38286848
_cell_angle_beta   71.96903268
_cell_angle_gamma   71.96903764
_symmetry_Int_Tables_number   1
_chemical_formula_structural   TlSnF3
_chemical_formula_sum   'Tl8 Sn8 F24'
_cell_volume   816.52520597
_cell_formula_units_Z   8
loop_
 _symmetry_equiv_pos_site_id
 _symmetry_equiv_pos_as_xyz
  1  'x, y, z'
loop_
 _atom_site_type_symbol
 _atom_site_label
 _atom_site_symmetry_multiplicity
 _atom_site_fract_x
 _atom_site_fract_y
 _atom_site_fract_z
 _atom_site_occupancy
  Tl  Tl0  1  0.25173119  0.02880302  0.48966374  1
  Tl  Tl1  1  0.45350171  0.15268810  0.10503429  1
  Tl  Tl2  1  0.04110698  0.89026746  0.85440560  1
  Tl  Tl3  1  0.24571362  0.51975527  0.98362477  1
  Tl  Tl4  1  0.75173119  0.48966374  0.02880302  1
  Tl  Tl5  1  0.95350171  0.10503429  0.15268810  1
  Tl  Tl6  1  0.54110698  0.85440560  0.89026746  1
  Tl  Tl7  1  0.74571362  0.98362477  0.51975527  1
  Sn  Sn8  1  0.04439907  0.61627118  0.62569810  1
  Sn  Sn9  1  0.22278916  0.26337682  0.78349463  1
  Sn  Sn10  1  0.24976789  0.74153259  0.26039515  1
  Sn  Sn11  1  0.45654386  0.36366631  0.38380602  1
  Sn  Sn12  1  0.54439907  0.62569810  0.61627118  1
  Sn  Sn13  1  0.74976789  0.26039515  0.74153259  1
  Sn  Sn14  1  0.72278916  0.78349463  0.26337681  1
  Sn  Sn15  1  0.95654386  0.38380602  0.36366631  1
  F  F16  1  0.08084634  0.31308751  0.16724377  1
  F  F17  1  0.04604622  0.17640385  0.72088253  1
  F  F18  1  0.23260533  0.29567351  0.37960368  1
  F  F19  1  0.04877806  0.82134932  0.56392420  1
  F  F20  1  0.27325884  0.75582706  0.04845243  1
  F  F21  1  0.25301805  0.08323904  0.91281990  1
  F  F22  1  0.24064102  0.94975577  0.23602810  1
  F  F23  1  0.45181502  0.43404241  0.17611708  1
  F  F24  1  0.39838698  0.16365487  0.61750186  1
  F  F25  1  0.27376078  0.61240273  0.69921383  1
  F  F26  1  0.58084634  0.16724377  0.31308751  1
  F  F27  1  0.46905930  0.27394889  0.82558344  1
  F  F28  1  0.54604622  0.72088253  0.17640385  1
  F  F29  1  0.42833057  0.82599100  0.67437015  1
  F  F30  1  0.73260533  0.37960368  0.29567351  1
  F  F31  1  0.54877807  0.56392420  0.82134932  1
  F  F32  1  0.77325884  0.04845243  0.75582706  1
  F  F33  1  0.75301804  0.91281990  0.08323905  1
  F  F34  1  0.74064102  0.23602810  0.94975576  1
  F  F35  1  0.95181502  0.17611708  0.43404241  1
  F  F36  1  0.89838698  0.61750186  0.16365488  1
  F  F37  1  0.77376078  0.69921383  0.61240273  1
  F  F38  1  0.96905930  0.82558344  0.27394889  1
  F  F39  1  0.92833057  0.67437015  0.82599100  1
