# generated using pymatgen
data_Na2ZnGe2(HO2)4
_symmetry_space_group_name_H-M   'P 1'
_cell_length_a   13.26304835
_cell_length_b   8.83870830
_cell_length_c   13.14453328
_cell_angle_alpha   90.00000000
_cell_angle_beta   90.00000000
_cell_angle_gamma   90.00000000
_symmetry_Int_Tables_number   1
_chemical_formula_structural   Na2ZnGe2(HO2)4
_chemical_formula_sum   'Na16 Zn8 Ge16 H32 O64'
_cell_volume   1540.91018045
_cell_formula_units_Z   8
loop_
 _symmetry_equiv_pos_site_id
 _symmetry_equiv_pos_as_xyz
  1  'x, y, z'
loop_
 _atom_site_type_symbol
 _atom_site_label
 _atom_site_symmetry_multiplicity
 _atom_site_fract_x
 _atom_site_fract_y
 _atom_site_fract_z
 _atom_site_occupancy
  Na  Na0  1  0.14722827  0.74433192  0.87444105  1
  Na  Na1  1  0.35277173  0.75566808  0.37444105  1
  Na  Na2  1  0.64722827  0.75566808  0.12555895  1
  Na  Na3  1  0.85277173  0.74433192  0.62555895  1
  Na  Na4  1  0.85277173  0.25566808  0.12555895  1
  Na  Na5  1  0.64722827  0.24433192  0.62555895  1
  Na  Na6  1  0.35277173  0.24433192  0.87444105  1
  Na  Na7  1  0.14722827  0.25566808  0.37444105  1
  Na  Na8  1  0.00000000  0.00000000  0.00000000  1
  Na  Na9  1  0.50000000  0.50000000  0.50000000  1
  Na  Na10  1  0.50000000  0.50000000  0.00000000  1
  Na  Na11  1  0.00000000  0.00000000  0.50000000  1
  Na  Na12  1  0.00000000  0.49440169  0.75000000  1
  Na  Na13  1  0.50000000  0.00559831  0.25000000  1
  Na  Na14  1  0.00000000  0.50559831  0.25000000  1
  Na  Na15  1  0.50000000  0.99440169  0.75000000  1
  Zn  Zn16  1  0.25132841  0.87620625  0.62707235  1
  Zn  Zn17  1  0.24867159  0.62379375  0.12707235  1
  Zn  Zn18  1  0.75132841  0.62379375  0.37292765  1
  Zn  Zn19  1  0.74867159  0.87620625  0.87292765  1
  Zn  Zn20  1  0.74867159  0.12379375  0.37292765  1
  Zn  Zn21  1  0.75132841  0.37620625  0.87292765  1
  Zn  Zn22  1  0.24867159  0.37620625  0.62707235  1
  Zn  Zn23  1  0.25132841  0.12379375  0.12707235  1
  Ge  Ge24  1  0.37753467  0.87403874  0.00066390  1
  Ge  Ge25  1  0.12246533  0.62596126  0.50066390  1
  Ge  Ge26  1  0.87753467  0.62596126  0.99933610  1
  Ge  Ge27  1  0.62246533  0.87403874  0.49933610  1
  Ge  Ge28  1  0.62246533  0.12596126  0.99933610  1
  Ge  Ge29  1  0.87753467  0.37403874  0.49933610  1
  Ge  Ge30  1  0.12246533  0.37403874  0.00066390  1
  Ge  Ge31  1  0.37753467  0.12596126  0.50066390  1
  Ge  Ge32  1  0.12069232  0.12038238  0.75226793  1
  Ge  Ge33  1  0.37930768  0.37961762  0.25226793  1
  Ge  Ge34  1  0.62069232  0.37961762  0.24773207  1
  Ge  Ge35  1  0.87930768  0.12038238  0.74773207  1
  Ge  Ge36  1  0.87930768  0.87961762  0.24773207  1
  Ge  Ge37  1  0.62069232  0.62038238  0.74773207  1
  Ge  Ge38  1  0.37930768  0.62038238  0.75226793  1
  Ge  Ge39  1  0.12069232  0.87961762  0.25226793  1
  H  H40  1  0.16923774  0.09053294  0.92049486  1
  H  H41  1  0.33076226  0.40946706  0.42049486  1
  H  H42  1  0.66923774  0.40946706  0.07950514  1
  H  H43  1  0.83076226  0.09053294  0.57950514  1
  H  H44  1  0.83076226  0.90946706  0.07950514  1
  H  H45  1  0.66923774  0.59053294  0.57950514  1
  H  H46  1  0.33076226  0.59053294  0.92049486  1
  H  H47  1  0.16923774  0.90946706  0.42049486  1
  H  H48  1  0.32948983  0.90283764  0.83272222  1
  H  H49  1  0.17051017  0.59716236  0.33272222  1
  H  H50  1  0.82948983  0.59716236  0.16727778  1
  H  H51  1  0.67051017  0.90283764  0.66727778  1
  H  H52  1  0.67051017  0.09716236  0.16727778  1
  H  H53  1  0.82948983  0.40283764  0.66727778  1
  H  H54  1  0.17051017  0.40283764  0.83272222  1
  H  H55  1  0.32948983  0.09716236  0.33272222  1
  H  H56  1  0.54596395  0.84950920  0.95793838  1
  H  H57  1  0.95403605  0.65049080  0.45793838  1
  H  H58  1  0.04596395  0.65049080  0.04206162  1
  H  H59  1  0.45403605  0.84950920  0.54206162  1
  H  H60  1  0.45403605  0.15049080  0.04206162  1
  H  H61  1  0.04596395  0.34950920  0.54206162  1
  H  H62  1  0.95403605  0.34950920  0.95793838  1
  H  H63  1  0.54596395  0.15049080  0.45793838  1
  H  H64  1  0.04482767  0.84618230  0.70917473  1
  H  H65  1  0.45517233  0.65381770  0.20917473  1
  H  H66  1  0.54482767  0.65381770  0.29082527  1
  H  H67  1  0.95517233  0.84618230  0.79082527  1
  H  H68  1  0.95517233  0.15381770  0.29082527  1
  H  H69  1  0.54482767  0.34618230  0.79082527  1
  H  H70  1  0.45517233  0.34618230  0.70917473  1
  H  H71  1  0.04482767  0.15381770  0.20917473  1
  O  O72  1  0.13154994  0.02130549  0.87329187  1
  O  O73  1  0.36845006  0.47869451  0.37329187  1
  O  O74  1  0.63154994  0.47869451  0.12670813  1
  O  O75  1  0.86845006  0.02130549  0.62670813  1
  O  O76  1  0.86845006  0.97869451  0.12670813  1
  O  O77  1  0.63154994  0.52130549  0.62670813  1
  O  O78  1  0.36845006  0.52130549  0.87329187  1
  O  O79  1  0.13154994  0.97869451  0.37329187  1
  O  O80  1  0.36758148  0.97217893  0.87929967  1
  O  O81  1  0.13241852  0.52782107  0.37929967  1
  O  O82  1  0.86758148  0.52782107  0.12070033  1
  O  O83  1  0.63241852  0.97217893  0.62070033  1
  O  O84  1  0.63241852  0.02782107  0.12070033  1
  O  O85  1  0.86758148  0.47217893  0.62070033  1
  O  O86  1  0.13241852  0.47217893  0.87929967  1
  O  O87  1  0.36758148  0.02782107  0.37929967  1
  O  O88  1  0.50056498  0.78370560  0.00055513  1
  O  O89  1  0.99943502  0.71629440  0.50055513  1
  O  O90  1  0.00056498  0.71629440  0.99944487  1
  O  O91  1  0.49943502  0.78370560  0.49944487  1
  O  O92  1  0.49943502  0.21629440  0.99944487  1
  O  O93  1  0.00056498  0.28370560  0.49944487  1
  O  O94  1  0.99943502  0.28370560  0.00055513  1
  O  O95  1  0.50056498  0.21629440  0.50055513  1
  O  O96  1  0.12278868  0.98295317  0.65622711  1
  O  O97  1  0.37721132  0.51704683  0.15622711  1
  O  O98  1  0.62278868  0.51704683  0.34377289  1
  O  O99  1  0.87721132  0.98295317  0.84377289  1
  O  O100  1  0.87721132  0.01704683  0.34377289  1
  O  O101  1  0.62278868  0.48295317  0.84377289  1
  O  O102  1  0.37721132  0.48295317  0.65622711  1
  O  O103  1  0.12278868  0.01704683  0.15622711  1
  O  O104  1  0.00000000  0.21481212  0.75000000  1
  O  O105  1  0.50000000  0.28518788  0.25000000  1
  O  O106  1  0.00000000  0.78518788  0.25000000  1
  O  O107  1  0.50000000  0.71481212  0.75000000  1
  O  O108  1  0.37699963  0.01128609  0.09702348  1
  O  O109  1  0.12300037  0.48871391  0.59702348  1
  O  O110  1  0.87699963  0.48871391  0.90297652  1
  O  O111  1  0.62300037  0.01128609  0.40297652  1
  O  O112  1  0.62300037  0.98871391  0.90297652  1
  O  O113  1  0.87699963  0.51128609  0.40297652  1
  O  O114  1  0.12300037  0.51128609  0.09702348  1
  O  O115  1  0.37699963  0.98871391  0.59702348  1
  O  O116  1  0.28434499  0.73320061  0.00037880  1
  O  O117  1  0.21565501  0.76679939  0.50037880  1
  O  O118  1  0.78434499  0.76679939  0.99962120  1
  O  O119  1  0.71565501  0.73320061  0.49962120  1
  O  O120  1  0.71565501  0.26679939  0.99962120  1
  O  O121  1  0.78434499  0.23320061  0.49962120  1
  O  O122  1  0.21565501  0.23320061  0.00037880  1
  O  O123  1  0.28434499  0.26679939  0.50037880  1
  O  O124  1  0.28569245  0.76059384  0.75180664  1
  O  O125  1  0.21430755  0.73940616  0.25180664  1
  O  O126  1  0.78569245  0.73940616  0.24819336  1
  O  O127  1  0.71430755  0.76059384  0.74819336  1
  O  O128  1  0.71430755  0.23940616  0.24819336  1
  O  O129  1  0.78569245  0.26059384  0.74819336  1
  O  O130  1  0.21430755  0.26059384  0.75180664  1
  O  O131  1  0.28569245  0.23940616  0.25180664  1
  O  O132  1  0.00000000  0.77720903  0.75000000  1
  O  O133  1  0.50000000  0.72279097  0.25000000  1
  O  O134  1  0.00000000  0.22279097  0.25000000  1
  O  O135  1  0.50000000  0.27720903  0.75000000  1
