# generated using pymatgen
data_Cu2P8Se3Br2
_symmetry_space_group_name_H-M   'P 1'
_cell_length_a   8.95478427
_cell_length_b   12.24628124
_cell_length_c   13.94853539
_cell_angle_alpha   90.00000000
_cell_angle_beta   90.00000000
_cell_angle_gamma   90.00000000
_symmetry_Int_Tables_number   1
_chemical_formula_structural   Cu2P8Se3Br2
_chemical_formula_sum   'Cu8 P32 Se12 Br8'
_cell_volume   1529.63553902
_cell_formula_units_Z   4
loop_
 _symmetry_equiv_pos_site_id
 _symmetry_equiv_pos_as_xyz
  1  'x, y, z'
loop_
 _atom_site_type_symbol
 _atom_site_label
 _atom_site_symmetry_multiplicity
 _atom_site_fract_x
 _atom_site_fract_y
 _atom_site_fract_z
 _atom_site_occupancy
  Cu  Cu0  1  0.79402276  0.07496668  0.25000000  1
  Cu  Cu1  1  0.01141233  0.62702442  0.75000000  1
  Cu  Cu2  1  0.79402276  0.42503332  0.75000000  1
  Cu  Cu3  1  0.98858767  0.12702442  0.75000000  1
  Cu  Cu4  1  0.01141233  0.87297558  0.25000000  1
  Cu  Cu5  1  0.98858767  0.37297558  0.25000000  1
  Cu  Cu6  1  0.20597724  0.92503332  0.75000000  1
  Cu  Cu7  1  0.20597724  0.57496668  0.25000000  1
  P  P8  1  0.09000594  0.69533419  0.60902075  1
  P  P9  1  0.90999406  0.19533419  0.60902075  1
  P  P10  1  0.25301202  0.66237610  0.11179376  1
  P  P11  1  0.20168889  0.56738767  0.52252774  1
  P  P12  1  0.52640973  0.25823915  0.57911066  1
  P  P13  1  0.20168889  0.93261233  0.02252774  1
  P  P14  1  0.52640973  0.25823915  0.92088934  1
  P  P15  1  0.47359027  0.75823915  0.92088934  1
  P  P16  1  0.52640973  0.24176085  0.42088934  1
  P  P17  1  0.25301202  0.66237610  0.38820624  1
  P  P18  1  0.90999406  0.30466581  0.39097925  1
  P  P19  1  0.47359027  0.74176085  0.42088934  1
  P  P20  1  0.74698798  0.33762390  0.61179376  1
  P  P21  1  0.90999406  0.19533419  0.89097925  1
  P  P22  1  0.79831111  0.06738767  0.97747226  1
  P  P23  1  0.79831111  0.43261233  0.02252774  1
  P  P24  1  0.74698798  0.16237610  0.11179376  1
  P  P25  1  0.47359027  0.75823915  0.57911066  1
  P  P26  1  0.09000594  0.80466581  0.39097925  1
  P  P27  1  0.47359027  0.74176085  0.07911066  1
  P  P28  1  0.74698798  0.33762390  0.88820624  1
  P  P29  1  0.52640973  0.24176085  0.07911066  1
  P  P30  1  0.09000594  0.80466581  0.10902075  1
  P  P31  1  0.90999406  0.30466581  0.10902075  1
  P  P32  1  0.20168889  0.93261233  0.47747226  1
  P  P33  1  0.79831111  0.06738767  0.52252774  1
  P  P34  1  0.25301202  0.83762390  0.61179376  1
  P  P35  1  0.25301202  0.83762390  0.88820624  1
  P  P36  1  0.20168889  0.56738767  0.97747226  1
  P  P37  1  0.74698798  0.16237610  0.38820624  1
  P  P38  1  0.09000594  0.69533419  0.89097925  1
  P  P39  1  0.79831111  0.43261233  0.47747226  1
  Se  Se40  1  0.41969621  0.92092846  0.39032997  1
  Se  Se41  1  0.91479365  0.75000000  0.50000000  1
  Se  Se42  1  0.58030379  0.42092846  0.10967003  1
  Se  Se43  1  0.91479365  0.75000000  0.00000000  1
  Se  Se44  1  0.58030379  0.07907154  0.60967003  1
  Se  Se45  1  0.41969621  0.57907154  0.60967003  1
  Se  Se46  1  0.41969621  0.57907154  0.89032997  1
  Se  Se47  1  0.58030379  0.42092846  0.39032997  1
  Se  Se48  1  0.08520635  0.25000000  0.50000000  1
  Se  Se49  1  0.41969621  0.92092846  0.10967003  1
  Se  Se50  1  0.58030379  0.07907154  0.89032997  1
  Se  Se51  1  0.08520635  0.25000000  0.00000000  1
  Br  Br52  1  0.26745815  0.37787612  0.25000000  1
  Br  Br53  1  0.92128775  0.92861622  0.75000000  1
  Br  Br54  1  0.92128775  0.57138378  0.25000000  1
  Br  Br55  1  0.07871225  0.42861622  0.75000000  1
  Br  Br56  1  0.07871225  0.07138378  0.25000000  1
  Br  Br57  1  0.73254185  0.62212388  0.75000000  1
  Br  Br58  1  0.73254185  0.87787612  0.25000000  1
  Br  Br59  1  0.26745815  0.12212388  0.75000000  1
