# generated using pymatgen
data_Ba5SrNd2Fe4O15
_symmetry_space_group_name_H-M   'P 1'
_cell_length_a   11.89981903
_cell_length_b   11.89981904
_cell_length_c   14.24861109
_cell_angle_alpha   89.77673117
_cell_angle_beta   90.22326883
_cell_angle_gamma   120.11207283
_symmetry_Int_Tables_number   1
_chemical_formula_structural   Ba5SrNd2Fe4O15
_chemical_formula_sum   'Ba20 Sr4 Nd8 Fe16 O60'
_cell_volume   1745.37166227
_cell_formula_units_Z   4
loop_
 _symmetry_equiv_pos_site_id
 _symmetry_equiv_pos_as_xyz
  1  'x, y, z'
loop_
 _atom_site_type_symbol
 _atom_site_label
 _atom_site_symmetry_multiplicity
 _atom_site_fract_x
 _atom_site_fract_y
 _atom_site_fract_z
 _atom_site_occupancy
  Ba  Ba0  1  0.00137594  0.99930832  0.49679315  1
  Ba  Ba1  1  0.00118147  0.00110027  0.74665449  1
  Ba  Ba2  1  0.17281399  0.82463011  0.08145209  1
  Ba  Ba3  1  0.17536989  0.82718601  0.58145209  1
  Ba  Ba4  1  0.00069168  0.99862406  0.99679315  1
  Ba  Ba5  1  0.17496237  0.34852986  0.08087962  1
  Ba  Ba6  1  0.17624058  0.34831090  0.58472757  1
  Ba  Ba7  1  0.33351616  0.66498695  0.74021691  1
  Ba  Ba8  1  0.33501305  0.66648384  0.24021691  1
  Ba  Ba9  1  0.65168910  0.82375942  0.08472757  1
  Ba  Ba10  1  0.65147014  0.82503763  0.58087962  1
  Ba  Ba11  1  0.34868536  0.17452124  0.33179537  1
  Ba  Ba12  1  0.34875553  0.17713079  0.83219226  1
  Ba  Ba13  1  0.82286921  0.65124447  0.33219226  1
  Ba  Ba14  1  0.82547876  0.65131464  0.83179537  1
  Ba  Ba15  1  0.99889973  0.99881853  0.24665449  1
  Ba  Ba16  1  0.66464737  0.33092729  0.49110332  1
  Ba  Ba17  1  0.66907271  0.33535263  0.99110332  1
  Ba  Ba18  1  0.82292636  0.17135679  0.33439010  1
  Ba  Ba19  1  0.82864321  0.17707364  0.83439010  1
  Sr  Sr20  1  0.04399700  0.52305453  0.91843421  1
  Sr  Sr21  1  0.47694547  0.95600300  0.41843421  1
  Sr  Sr22  1  0.52045637  0.47726916  0.16780247  1
  Sr  Sr23  1  0.52273084  0.47954363  0.66780247  1
  Nd  Nd24  1  0.04265391  0.52145729  0.41876052  1
  Nd  Nd25  1  0.47854271  0.95734609  0.91876052  1
  Nd  Nd26  1  0.47726660  0.52095638  0.41730257  1
  Nd  Nd27  1  0.47904362  0.52273340  0.91730257  1
  Nd  Nd28  1  0.52118971  0.04305053  0.16966724  1
  Nd  Nd29  1  0.52223608  0.04379781  0.66653612  1
  Nd  Nd30  1  0.95620219  0.47776392  0.16653612  1
  Nd  Nd31  1  0.95694947  0.47881029  0.66966724  1
  Fe  Fe32  1  0.17989272  0.81897724  0.32846965  1
  Fe  Fe33  1  0.18102276  0.82010728  0.82846965  1
  Fe  Fe34  1  0.33214464  0.66766200  0.01305715  1
  Fe  Fe35  1  0.33233800  0.66785536  0.51305715  1
  Fe  Fe36  1  0.17820131  0.36055871  0.83148026  1
  Fe  Fe37  1  0.17568087  0.35732037  0.33198060  1
  Fe  Fe38  1  0.63944129  0.82179869  0.33148026  1
  Fe  Fe39  1  0.64267963  0.82431913  0.83198060  1
  Fe  Fe40  1  0.36024443  0.18004997  0.07884621  1
  Fe  Fe41  1  0.36005196  0.18151710  0.58144386  1
  Fe  Fe42  1  0.66690708  0.33476531  0.26390701  1
  Fe  Fe43  1  0.66523469  0.33309292  0.76390701  1
  Fe  Fe44  1  0.81995003  0.63975557  0.57884621  1
  Fe  Fe45  1  0.81848290  0.63994804  0.08144386  1
  Fe  Fe46  1  0.81937625  0.17740524  0.08234816  1
  Fe  Fe47  1  0.82259476  0.18062375  0.58234816  1
  O  O48  1  0.09771326  0.90331211  0.37892611  1
  O  O49  1  0.09668789  0.90228674  0.87892611  1
  O  O50  1  0.06275256  0.66489153  0.26312776  1
  O  O51  1  0.06848787  0.67229401  0.75738329  1
  O  O52  1  0.33510847  0.93724744  0.76312776  1
  O  O53  1  0.32770599  0.93151213  0.25738329  1
  O  O54  1  0.06101090  0.39656098  0.26518334  1
  O  O55  1  0.06496235  0.39365351  0.75780164  1
  O  O56  1  0.24117452  0.74320683  0.42057566  1
  O  O57  1  0.25679317  0.75882548  0.92057566  1
  O  O58  1  0.17012242  0.58624972  0.08917258  1
  O  O59  1  0.16344856  0.58262305  0.58348306  1
  O  O60  1  0.08999494  0.18888033  0.37842456  1
  O  O61  1  0.09194136  0.19308453  0.88186184  1
  O  O62  1  0.41737695  0.83655144  0.08348306  1
  O  O63  1  0.25535858  0.50115654  0.92070282  1
  O  O64  1  0.24365828  0.49574078  0.42221944  1
  O  O65  1  0.41375028  0.82987758  0.58917258  1
  O  O66  1  0.41595514  0.58588626  0.08105770  1
  O  O67  1  0.41411374  0.58404486  0.58105770  1
  O  O68  1  0.50425922  0.75634172  0.92221944  1
  O  O69  1  0.49884346  0.74464142  0.42070282  1
  O  O70  1  0.33066999  0.39752370  0.27092500  1
  O  O71  1  0.33036689  0.39566952  0.76839435  1
  O  O72  1  0.19386590  0.09835822  0.13012319  1
  O  O73  1  0.19324706  0.10008251  0.63057449  1
  O  O74  1  0.60343902  0.93898910  0.76518334  1
  O  O75  1  0.60634649  0.93503765  0.25780164  1
  O  O76  1  0.39356224  0.32797276  0.00696134  1
  O  O77  1  0.39495916  0.33025921  0.50802942  1
  O  O78  1  0.60247630  0.66933001  0.77092500  1
  O  O79  1  0.60433048  0.66963311  0.26839435  1
  O  O80  1  0.39748674  0.06461117  0.01284839  1
  O  O81  1  0.39751277  0.06603724  0.52055955  1
  O  O82  1  0.80691547  0.90805864  0.38186184  1
  O  O83  1  0.81111967  0.91000506  0.87842456  1
  O  O84  1  0.66974079  0.60504084  0.00802942  1
  O  O85  1  0.67202724  0.60643776  0.50696134  1
  O  O86  1  0.49764199  0.24220274  0.17052822  1
  O  O87  1  0.50165040  0.24569607  0.67255317  1
  O  O88  1  0.58462241  0.41469051  0.83861232  1
  O  O89  1  0.58530949  0.41537759  0.33861232  1
  O  O90  1  0.58240765  0.16427116  0.83464159  1
  O  O91  1  0.58547903  0.16950175  0.33183005  1
  O  O92  1  0.89991749  0.80675294  0.13057449  1
  O  O93  1  0.90164178  0.80613410  0.63012319  1
  O  O94  1  0.75430393  0.49834960  0.17255317  1
  O  O95  1  0.75779726  0.50235801  0.67052822  1
  O  O96  1  0.83049825  0.41452097  0.83183005  1
  O  O97  1  0.83572884  0.41759235  0.33464159  1
  O  O98  1  0.75093766  0.24710784  0.17337481  1
  O  O99  1  0.75289216  0.24906234  0.67337481  1
  O  O100  1  0.93396276  0.60248723  0.02055955  1
  O  O101  1  0.93538883  0.60251326  0.51284839  1
  O  O102  1  0.66419816  0.06475196  0.01607223  1
  O  O103  1  0.66851431  0.06555068  0.52132248  1
  O  O104  1  0.93444932  0.33148569  0.02132248  1
  O  O105  1  0.93524804  0.33580184  0.51607223  1
  O  O106  1  0.90363474  0.09227046  0.12798870  1
  O  O107  1  0.90772954  0.09636526  0.62798870  1
