# generated using pymatgen
data_BaRe2H2O9
_symmetry_space_group_name_H-M   'P 1'
_cell_length_a   7.40922260
_cell_length_b   7.63831101
_cell_length_c   15.77096285
_cell_angle_alpha   89.71317171
_cell_angle_beta   95.50554529
_cell_angle_gamma   90.24255887
_symmetry_Int_Tables_number   1
_chemical_formula_structural   BaRe2H2O9
_chemical_formula_sum   'Ba4 Re8 H8 O36'
_cell_volume   888.40621521
_cell_formula_units_Z   4
loop_
 _symmetry_equiv_pos_site_id
 _symmetry_equiv_pos_as_xyz
  1  'x, y, z'
loop_
 _atom_site_type_symbol
 _atom_site_label
 _atom_site_symmetry_multiplicity
 _atom_site_fract_x
 _atom_site_fract_y
 _atom_site_fract_z
 _atom_site_occupancy
  Ba  Ba0  1  0.72105284  0.67834445  0.86325350  1
  Ba  Ba1  1  0.27894716  0.32165555  0.13674650  1
  Ba  Ba2  1  0.28264774  0.68663549  0.63725559  1
  Ba  Ba3  1  0.71735226  0.31336451  0.36274441  1
  Re  Re4  1  0.21717696  0.36944398  0.85430892  1
  Re  Re5  1  0.78282304  0.63055602  0.14569108  1
  Re  Re6  1  0.79807194  0.36208128  0.64776583  1
  Re  Re7  1  0.20192806  0.63791872  0.35223417  1
  Re  Re8  1  0.73989343  0.19505142  0.98725053  1
  Re  Re9  1  0.26010657  0.80494858  0.01274947  1
  Re  Re10  1  0.26270838  0.19885919  0.50957476  1
  Re  Re11  1  0.73729162  0.80114081  0.49042524  1
  H  H12  1  0.42845065  0.99193633  0.78669854  1
  H  H13  1  0.57154935  0.00806367  0.21330146  1
  H  H14  1  0.57836734  0.99737470  0.72367291  1
  H  H15  1  0.42163266  0.00262530  0.27632709  1
  H  H16  1  0.92267392  0.92222257  0.70760303  1
  H  H17  1  0.07732608  0.07777743  0.29239697  1
  H  H18  1  0.08661045  0.95235604  0.77443055  1
  H  H19  1  0.91338955  0.04764396  0.22556945  1
  O  O20  1  0.28305394  0.37956834  0.96353796  1
  O  O21  1  0.71694606  0.62043166  0.03646204  1
  O  O22  1  0.98563516  0.41596685  0.83922679  1
  O  O23  1  0.01436484  0.58403315  0.16077321  1
  O  O24  1  0.25272526  0.15606972  0.81730998  1
  O  O25  1  0.74727474  0.84393028  0.18269002  1
  O  O26  1  0.33957160  0.52866264  0.80154517  1
  O  O27  1  0.66042840  0.47133736  0.19845483  1
  O  O28  1  0.73309726  0.35135088  0.53877561  1
  O  O29  1  0.26690274  0.64864912  0.46122439  1
  O  O30  1  0.03173076  0.40752999  0.66162747  1
  O  O31  1  0.96826924  0.59247001  0.33837253  1
  O  O32  1  0.76124086  0.15665575  0.69410218  1
  O  O33  1  0.23875914  0.84334425  0.30589782  1
  O  O34  1  0.67511877  0.52909524  0.69338266  1
  O  O35  1  0.32488123  0.47090476  0.30661734  1
  O  O36  1  0.58474216  0.16550753  0.06347978  1
  O  O37  1  0.41525784  0.83449247  0.93652022  1
  O  O38  1  0.93667499  0.28929315  0.03802208  1
  O  O39  1  0.06332501  0.71070685  0.96197792  1
  O  O40  1  0.79534022  0.99556868  0.94188565  1
  O  O41  1  0.20465978  0.00443132  0.05811435  1
  O  O42  1  0.64131209  0.33103589  0.90543578  1
  O  O43  1  0.35868791  0.66896411  0.09456422  1
  O  O44  1  0.41731104  0.14242697  0.43673224  1
  O  O45  1  0.58268896  0.85757303  0.56326776  1
  O  O46  1  0.07174569  0.28956659  0.45168209  1
  O  O47  1  0.92825431  0.71043341  0.54831791  1
  O  O48  1  0.19816477  0.01478815  0.56670117  1
  O  O49  1  0.80183523  0.98521185  0.43329883  1
  O  O50  1  0.36478056  0.35245170  0.58144506  1
  O  O51  1  0.63521944  0.64754830  0.41855494  1
  O  O52  1  0.50232964  0.91558900  0.75354933  1
  O  O53  1  0.49767036  0.08441100  0.24645067  1
  O  O54  1  0.01021844  0.85892216  0.74700156  1
  O  O55  1  0.98978156  0.14107784  0.25299844  1
