# generated using pymatgen
data_CsB9O14
_symmetry_space_group_name_H-M   'P 1'
_cell_length_a   8.86131492
_cell_length_b   8.91726536
_cell_length_c   15.99534404
_cell_angle_alpha   90.00000000
_cell_angle_beta   90.00000000
_cell_angle_gamma   90.00000000
_symmetry_Int_Tables_number   1
_chemical_formula_structural   CsB9O14
_chemical_formula_sum   'Cs4 B36 O56'
_cell_volume   1263.93123739
_cell_formula_units_Z   4
loop_
 _symmetry_equiv_pos_site_id
 _symmetry_equiv_pos_as_xyz
  1  'x, y, z'
loop_
 _atom_site_type_symbol
 _atom_site_label
 _atom_site_symmetry_multiplicity
 _atom_site_fract_x
 _atom_site_fract_y
 _atom_site_fract_z
 _atom_site_occupancy
  Cs  Cs0  1  0.99272419  0.00000000  0.50000000  1
  Cs  Cs1  1  0.50000000  0.52674717  0.25000000  1
  Cs  Cs2  1  0.50000000  0.47325283  0.75000000  1
  Cs  Cs3  1  0.00727581  0.00000000  0.00000000  1
  B  B4  1  0.11538219  0.44168966  0.11692439  1
  B  B5  1  0.63324298  0.66655705  0.56070934  1
  B  B6  1  0.15094868  0.35995358  0.37510625  1
  B  B7  1  0.32309846  0.95785536  0.18470945  1
  B  B8  1  0.84905132  0.64004642  0.87510625  1
  B  B9  1  0.67690154  0.04214464  0.68470945  1
  B  B10  1  0.56382279  0.82798359  0.44783328  1
  B  B11  1  0.92338839  0.62615917  0.13911845  1
  B  B12  1  0.22128370  0.14688292  0.27713429  1
  B  B13  1  0.84905132  0.35995358  0.12489375  1
  B  B14  1  0.88461781  0.55831034  0.61692439  1
  B  B15  1  0.22128370  0.85311708  0.72286571  1
  B  B16  1  0.63249483  0.28531035  0.03072426  1
  B  B17  1  0.18193898  0.88042447  0.30482920  1
  B  B18  1  0.77871630  0.14688292  0.22286571  1
  B  B19  1  0.36675702  0.33344295  0.06070934  1
  B  B20  1  0.07661161  0.62615917  0.36088155  1
  B  B21  1  0.56382279  0.17201641  0.55216672  1
  B  B22  1  0.81806102  0.88042447  0.19517080  1
  B  B23  1  0.43617721  0.82798359  0.05216672  1
  B  B24  1  0.77871630  0.85311708  0.77713429  1
  B  B25  1  0.07661161  0.37384083  0.63911845  1
  B  B26  1  0.36750517  0.28531035  0.46927574  1
  B  B27  1  0.63324298  0.33344295  0.43929066  1
  B  B28  1  0.43617721  0.17201641  0.94783328  1
  B  B29  1  0.32309846  0.04214464  0.81529055  1
  B  B30  1  0.92338839  0.37384083  0.86088155  1
  B  B31  1  0.11538219  0.55831034  0.88307561  1
  B  B32  1  0.15094868  0.64004642  0.62489375  1
  B  B33  1  0.36675702  0.66655705  0.93929066  1
  B  B34  1  0.81806102  0.11957553  0.80482920  1
  B  B35  1  0.18193898  0.11957553  0.69517080  1
  B  B36  1  0.88461781  0.44168966  0.38307561  1
  B  B37  1  0.63249483  0.71468965  0.96927574  1
  B  B38  1  0.67690154  0.95785536  0.31529055  1
  B  B39  1  0.36750517  0.71468965  0.53072426  1
  O  O40  1  0.73080073  0.57876047  0.60375599  1
  O  O41  1  0.58644292  0.79923528  0.03898066  1
  O  O42  1  0.01303500  0.33010222  0.11584595  1
  O  O43  1  0.92447002  0.40971469  0.63224557  1
  O  O44  1  0.73080073  0.42123953  0.39624401  1
  O  O45  1  0.22120915  0.70670692  0.54958908  1
  O  O46  1  0.98696500  0.33010222  0.38415405  1
  O  O47  1  0.29807914  0.10604782  0.20374254  1
  O  O48  1  0.48142646  0.64645889  0.57819909  1
  O  O49  1  0.77879085  0.29329308  0.04958908  1
  O  O50  1  0.51857354  0.35354111  0.07819909  1
  O  O51  1  0.77879085  0.70670692  0.95041092  1
  O  O52  1  0.78748505  0.29127663  0.20217322  1
  O  O53  1  0.67617342  0.23441557  0.50258945  1
  O  O54  1  0.16004721  0.96999980  0.67484785  1
  O  O55  1  0.72497867  0.84293631  0.26265516  1
  O  O56  1  0.21251495  0.29127663  0.29782678  1
  O  O57  1  0.81343217  0.47745881  0.86732500  1
  O  O58  1  0.59946080  0.92863372  0.38673180  1
  O  O59  1  0.32382658  0.76558443  0.00258945  1
  O  O60  1  0.59946080  0.07136628  0.61326820  1
  O  O61  1  0.83995279  0.96999980  0.82515215  1
  O  O62  1  0.58644292  0.20076472  0.96101934  1
  O  O63  1  0.01303500  0.66989778  0.88415405  1
  O  O64  1  0.40053920  0.92863372  0.11326820  1
  O  O65  1  0.40053920  0.07136628  0.88673180  1
  O  O66  1  0.21251495  0.70872337  0.70217322  1
  O  O67  1  0.07552998  0.40971469  0.86775443  1
  O  O68  1  0.18656783  0.52254119  0.36732500  1
  O  O69  1  0.92447002  0.59028531  0.36775443  1
  O  O70  1  0.70192086  0.89395218  0.70374254  1
  O  O71  1  0.32382658  0.23441557  0.99741055  1
  O  O72  1  0.10341270  0.22118670  0.65020898  1
  O  O73  1  0.89658730  0.77881330  0.15020898  1
  O  O74  1  0.29807914  0.89395218  0.79625746  1
  O  O75  1  0.10341270  0.77881330  0.34979102  1
  O  O76  1  0.83995279  0.03000020  0.17484785  1
  O  O77  1  0.26919927  0.57876047  0.89624401  1
  O  O78  1  0.98696500  0.66989778  0.61584595  1
  O  O79  1  0.89658730  0.22118670  0.84979102  1
  O  O80  1  0.41355708  0.20076472  0.53898066  1
  O  O81  1  0.51857354  0.64645889  0.92180091  1
  O  O82  1  0.07552998  0.59028531  0.13224557  1
  O  O83  1  0.27502133  0.15706369  0.76265516  1
  O  O84  1  0.26919927  0.42123953  0.10375599  1
  O  O85  1  0.78748505  0.70872337  0.79782678  1
  O  O86  1  0.22120915  0.29329308  0.45041092  1
  O  O87  1  0.27502133  0.84293631  0.23734484  1
  O  O88  1  0.41355708  0.79923528  0.46101934  1
  O  O89  1  0.81343217  0.52254119  0.13267500  1
  O  O90  1  0.72497867  0.15706369  0.73734484  1
  O  O91  1  0.16004721  0.03000020  0.32515215  1
  O  O92  1  0.48142646  0.35354111  0.42180091  1
  O  O93  1  0.18656783  0.47745881  0.63267500  1
  O  O94  1  0.67617342  0.76558443  0.49741055  1
  O  O95  1  0.70192086  0.10604782  0.29625746  1
