# generated using pymatgen
data_Rb2ZrFe(PO4)3
_symmetry_space_group_name_H-M   'P 1'
_cell_length_a   10.25453127
_cell_length_b   10.25453127
_cell_length_c   10.25453127
_cell_angle_alpha   90.00000000
_cell_angle_beta   90.00000000
_cell_angle_gamma   90.00000000
_symmetry_Int_Tables_number   1
_chemical_formula_structural   Rb2ZrFe(PO4)3
_chemical_formula_sum   'Rb8 Zr4 Fe4 P12 O48'
_cell_volume   1078.31945613
_cell_formula_units_Z   4
loop_
 _symmetry_equiv_pos_site_id
 _symmetry_equiv_pos_as_xyz
  1  'x, y, z'
loop_
 _atom_site_type_symbol
 _atom_site_label
 _atom_site_symmetry_multiplicity
 _atom_site_fract_x
 _atom_site_fract_y
 _atom_site_fract_z
 _atom_site_occupancy
  Rb  Rb0  1  0.07059521  0.07059521  0.07059521  1
  Rb  Rb1  1  0.21103441  0.71103441  0.78896559  1
  Rb  Rb2  1  0.28896559  0.28896559  0.28896559  1
  Rb  Rb3  1  0.42940479  0.92940479  0.57059521  1
  Rb  Rb4  1  0.57059521  0.42940479  0.92940479  1
  Rb  Rb5  1  0.71103441  0.78896559  0.21103441  1
  Rb  Rb6  1  0.78896559  0.21103441  0.71103441  1
  Rb  Rb7  1  0.92940479  0.57059521  0.42940479  1
  Zr  Zr8  1  0.14273243  0.35726757  0.64273243  1
  Zr  Zr9  1  0.35726757  0.64273243  0.14273243  1
  Zr  Zr10  1  0.64273243  0.14273243  0.35726757  1
  Zr  Zr11  1  0.85726757  0.85726757  0.85726757  1
  Fe  Fe12  1  0.08681684  0.91318316  0.41318316  1
  Fe  Fe13  1  0.41318316  0.08681684  0.91318316  1
  Fe  Fe14  1  0.58681684  0.58681684  0.58681684  1
  Fe  Fe15  1  0.91318316  0.41318316  0.08681684  1
  P  P16  1  0.03846256  0.72486525  0.13195808  1
  P  P17  1  0.13195808  0.03846256  0.72486525  1
  P  P18  1  0.22486525  0.36804192  0.96153744  1
  P  P19  1  0.27513475  0.63195808  0.46153744  1
  P  P20  1  0.36804192  0.96153744  0.22486525  1
  P  P21  1  0.46153744  0.27513475  0.63195808  1
  P  P22  1  0.53846256  0.77513475  0.86804192  1
  P  P23  1  0.63195808  0.46153744  0.27513475  1
  P  P24  1  0.72486525  0.13195808  0.03846256  1
  P  P25  1  0.77513475  0.86804192  0.53846256  1
  P  P26  1  0.86804192  0.53846256  0.77513475  1
  P  P27  1  0.96153744  0.22486525  0.36804192  1
  O  O28  1  0.00328401  0.08244147  0.34951230  1
  O  O29  1  0.02644346  0.95173362  0.79346741  1
  O  O30  1  0.02084735  0.80319719  0.25882273  1
  O  O31  1  0.04826638  0.29346741  0.47355654  1
  O  O32  1  0.08279643  0.18212558  0.73208849  1
  O  O33  1  0.08244147  0.34951230  0.00328401  1
  O  O34  1  0.15048770  0.99671599  0.58244147  1
  O  O35  1  0.18212558  0.73208849  0.08279643  1
  O  O36  1  0.19680281  0.75882273  0.47915265  1
  O  O37  1  0.20653259  0.52644346  0.54826638  1
  O  O38  1  0.23208849  0.41720357  0.81787442  1
  O  O39  1  0.24117727  0.97915265  0.30319719  1
  O  O40  1  0.25882273  0.02084735  0.80319719  1
  O  O41  1  0.26791151  0.58279643  0.31787442  1
  O  O42  1  0.29346741  0.47355654  0.04826638  1
  O  O43  1  0.30319719  0.24117727  0.97915265  1
  O  O44  1  0.31787442  0.26791151  0.58279643  1
  O  O45  1  0.34951230  0.00328401  0.08244147  1
  O  O46  1  0.41755853  0.65048770  0.50328401  1
  O  O47  1  0.41720357  0.81787442  0.23208849  1
  O  O48  1  0.45173362  0.70653259  0.97355654  1
  O  O49  1  0.47915265  0.19680281  0.75882273  1
  O  O50  1  0.47355654  0.04826638  0.29346741  1
  O  O51  1  0.49671599  0.91755853  0.84951230  1
  O  O52  1  0.50328401  0.41755853  0.65048770  1
  O  O53  1  0.52644346  0.54826638  0.20653259  1
  O  O54  1  0.52084735  0.69680281  0.74117727  1
  O  O55  1  0.54826638  0.20653259  0.52644346  1
  O  O56  1  0.58279643  0.31787442  0.26791151  1
  O  O57  1  0.58244147  0.15048770  0.99671599  1
  O  O58  1  0.65048770  0.50328401  0.41755853  1
  O  O59  1  0.68212558  0.76791151  0.91720357  1
  O  O60  1  0.69680281  0.74117727  0.52084735  1
  O  O61  1  0.70653259  0.97355654  0.45173362  1
  O  O62  1  0.73208849  0.08279643  0.18212558  1
  O  O63  1  0.74117727  0.52084735  0.69680281  1
  O  O64  1  0.75882273  0.47915265  0.19680281  1
  O  O65  1  0.76791151  0.91720357  0.68212558  1
  O  O66  1  0.79346741  0.02644346  0.95173362  1
  O  O67  1  0.80319719  0.25882273  0.02084735  1
  O  O68  1  0.81787442  0.23208849  0.41720357  1
  O  O69  1  0.84951230  0.49671599  0.91755853  1
  O  O70  1  0.91755853  0.84951230  0.49671599  1
  O  O71  1  0.91720357  0.68212558  0.76791151  1
  O  O72  1  0.95173362  0.79346741  0.02644346  1
  O  O73  1  0.97915265  0.30319719  0.24117727  1
  O  O74  1  0.97355654  0.45173362  0.70653259  1
  O  O75  1  0.99671599  0.58244147  0.15048770  1
