# generated using pymatgen
data_RbC2N3
_symmetry_space_group_name_H-M   'P 1'
_cell_length_a   4.04292525
_cell_length_b   12.46866715
_cell_length_c   25.69822943
_cell_angle_alpha   90.00000000
_cell_angle_beta   97.47078069
_cell_angle_gamma   90.00000000
_symmetry_Int_Tables_number   1
_chemical_formula_structural   RbC2N3
_chemical_formula_sum   'Rb12 C24 N36'
_cell_volume   1284.44825255
_cell_formula_units_Z   12
loop_
 _symmetry_equiv_pos_site_id
 _symmetry_equiv_pos_as_xyz
  1  'x, y, z'
loop_
 _atom_site_type_symbol
 _atom_site_label
 _atom_site_symmetry_multiplicity
 _atom_site_fract_x
 _atom_site_fract_y
 _atom_site_fract_z
 _atom_site_occupancy
  Rb  Rb0  1  0.52617906  0.34754532  0.48748267  1
  Rb  Rb1  1  0.56951871  0.40727411  0.10045047  1
  Rb  Rb2  1  0.43048129  0.90727411  0.39954953  1
  Rb  Rb3  1  0.56951871  0.09272589  0.60045047  1
  Rb  Rb4  1  0.56527200  0.98879749  0.24095020  1
  Rb  Rb5  1  0.43048129  0.59272589  0.89954953  1
  Rb  Rb6  1  0.47382094  0.65245468  0.51251733  1
  Rb  Rb7  1  0.52617906  0.15245468  0.98748267  1
  Rb  Rb8  1  0.43472800  0.01120251  0.75904980  1
  Rb  Rb9  1  0.47382094  0.84754532  0.01251733  1
  Rb  Rb10  1  0.56527200  0.51120251  0.74095020  1
  Rb  Rb11  1  0.43472800  0.48879749  0.25904980  1
  C  C12  1  0.00058443  0.17310035  0.37890477  1
  C  C13  1  0.10257770  0.25726844  0.70731466  1
  C  C14  1  0.99941557  0.67310035  0.12109523  1
  C  C15  1  0.04806413  0.50172638  0.59814173  1
  C  C16  1  0.96031772  0.70902810  0.20709433  1
  C  C17  1  0.00058443  0.32689965  0.87890477  1
  C  C18  1  0.95193587  0.49827362  0.40185827  1
  C  C19  1  -0.00197962  0.36962387  0.96595375  1
  C  C20  1  0.10257770  0.24273156  0.20731466  1
  C  C21  1  -0.00197962  0.13037613  0.46595375  1
  C  C22  1  0.00148361  0.15259555  0.85054641  1
  C  C23  1  0.00148361  0.34740445  0.35054641  1
  C  C24  1  0.89742230  0.74273156  0.29268534  1
  C  C25  1  0.99941557  0.82689965  0.62109523  1
  C  C26  1  0.96031772  0.79097190  0.70709433  1
  C  C27  1  0.03968228  0.29097190  0.79290567  1
  C  C28  1  0.00197962  0.86962387  0.53404625  1
  C  C29  1  0.89742230  0.75726844  0.79268534  1
  C  C30  1  0.99851639  0.84740445  0.14945359  1
  C  C31  1  0.00197962  0.63037613  0.03404625  1
  C  C32  1  0.95193587  0.00172638  0.90185827  1
  C  C33  1  0.04806413  0.99827362  0.09814173  1
  C  C34  1  0.99851639  0.65259555  0.64945359  1
  C  C35  1  0.03968228  0.20902810  0.29290567  1
  N  N36  1  0.97404521  0.81615355  0.19918625  1
  N  N37  1  0.92628715  0.67195580  0.25625287  1
  N  N38  1  0.97827952  0.63334326  0.16957966  1
  N  N39  1  0.99271359  0.27902552  0.39144919  1
  N  N40  1  0.08045149  0.04581984  0.05899776  1
  N  N41  1  0.13571646  0.19850315  0.67202003  1
  N  N42  1  0.99192946  0.65191812  0.98870412  1
  N  N43  1  0.02172048  0.36665674  0.83042034  1
  N  N44  1  0.01433216  0.54414695  0.64309404  1
  N  N45  1  0.02595479  0.31615355  0.30081375  1
  N  N46  1  0.99025164  0.09816443  0.41785620  1
  N  N47  1  0.00974836  0.90183557  0.58214380  1
  N  N48  1  0.00807054  0.15191812  0.51129588  1
  N  N49  1  0.99025164  0.40183557  0.91785620  1
  N  N50  1  0.02595479  0.18384645  0.80081375  1
  N  N51  1  0.99192946  0.84808188  0.48870412  1
  N  N52  1  0.86428354  0.80149685  0.32797997  1
  N  N53  1  0.99271359  0.22097448  0.89144919  1
  N  N54  1  0.91954851  0.54581984  0.44100224  1
  N  N55  1  0.02172048  0.13334326  0.33042034  1
  N  N56  1  0.07371285  0.32804420  0.74374713  1
  N  N57  1  0.97404521  0.68384645  0.69918625  1
  N  N58  1  0.00728641  0.72097448  0.60855081  1
  N  N59  1  0.98566784  0.04414695  0.85690596  1
  N  N60  1  0.97827952  0.86665674  0.66957966  1
  N  N61  1  0.08045149  0.45418016  0.55899776  1
  N  N62  1  0.01433216  0.95585305  0.14309404  1
  N  N63  1  0.07371285  0.17195580  0.24374713  1
  N  N64  1  0.13571646  0.30149685  0.17202003  1
  N  N65  1  0.00807054  0.34808188  0.01129588  1
  N  N66  1  0.86428354  0.69850315  0.82797997  1
  N  N67  1  0.00728641  0.77902552  0.10855081  1
  N  N68  1  0.98566784  0.45585305  0.35690596  1
  N  N69  1  0.91954851  0.95418016  0.94100224  1
  N  N70  1  0.00974836  0.59816443  0.08214380  1
  N  N71  1  0.92628715  0.82804420  0.75625287  1
