# generated using pymatgen
data_Ga6Te10Pb
_symmetry_space_group_name_H-M   'P 1'
_cell_length_a   14.86457310
_cell_length_b   14.86457266
_cell_length_c   18.09503210
_cell_angle_alpha   90.00000000
_cell_angle_beta   90.00000000
_cell_angle_gamma   120.00000098
_symmetry_Int_Tables_number   1
_chemical_formula_structural   Ga6Te10Pb
_chemical_formula_sum   'Ga36 Te60 Pb6'
_cell_volume   3462.54044123
_cell_formula_units_Z   6
loop_
 _symmetry_equiv_pos_site_id
 _symmetry_equiv_pos_as_xyz
  1  'x, y, z'
loop_
 _atom_site_type_symbol
 _atom_site_label
 _atom_site_symmetry_multiplicity
 _atom_site_fract_x
 _atom_site_fract_y
 _atom_site_fract_z
 _atom_site_occupancy
  Ga  Ga0  1  0.07277193  0.98858706  0.41380536  1
  Ga  Ga1  1  0.08418487  0.01141294  0.91952864  1
  Ga  Ga2  1  0.21925004  0.14418383  0.73576598  1
  Ga  Ga3  1  0.07506620  0.85581617  0.59756802  1
  Ga  Ga4  1  0.52164509  0.40694429  0.73110867  1
  Ga  Ga5  1  0.11470080  0.59305571  0.60222533  1
  Ga  Ga6  1  0.81202919  0.55556994  0.59205788  1
  Ga  Ga7  1  0.25645924  0.44443006  0.74127612  1
  Ga  Ga8  1  0.74767746  0.32358446  0.74823039  1
  Ga  Ga9  1  0.42409301  0.67641554  0.58510361  1
  Ga  Ga10  1  0.18797081  0.74354076  0.07460912  1
  Ga  Ga11  1  0.44443006  0.25645924  0.25872388  1
  Ga  Ga12  1  0.25241796  0.59501505  0.41579999  1
  Ga  Ga13  1  0.25232254  0.57590699  0.91843661  1
  Ga  Ga14  1  0.67641554  0.42409301  0.41489639  1
  Ga  Ga15  1  0.34259709  0.74758204  0.74913399  1
  Ga  Ga16  1  0.47835491  0.88529920  0.93555833  1
  Ga  Ga17  1  0.59305571  0.11470080  0.39777467  1
  Ga  Ga18  1  0.40498495  0.65740291  0.08246699  1
  Ga  Ga19  1  0.78074996  0.92493380  0.93090102  1
  Ga  Ga20  1  0.85581617  0.07506620  0.40243198  1
  Ga  Ga21  1  0.57590699  0.25232254  0.08156339  1
  Ga  Ga22  1  0.32358446  0.74767746  0.25176961  1
  Ga  Ga23  1  0.91581513  0.92722807  0.74713836  1
  Ga  Ga24  1  0.98858706  0.07277193  0.58619464  1
  Ga  Ga25  1  0.65740291  0.40498495  0.91753301  1
  Ga  Ga26  1  0.59501505  0.25241796  0.58420001  1
  Ga  Ga27  1  0.92722807  0.91581513  0.25286164  1
  Ga  Ga28  1  0.01141294  0.08418487  0.08047136  1
  Ga  Ga29  1  0.92493380  0.78074996  0.06909898  1
  Ga  Ga30  1  0.14418383  0.21925004  0.26423402  1
  Ga  Ga31  1  0.74758204  0.34259709  0.25086601  1
  Ga  Ga32  1  0.88529920  0.47835491  0.06444167  1
  Ga  Ga33  1  0.40694429  0.52164509  0.26889133  1
  Ga  Ga34  1  0.55556994  0.81202919  0.40794212  1
  Ga  Ga35  1  0.74354076  0.18797081  0.92539088  1
  Te  Te36  1  0.03374140  0.13522405  0.72919354  1
  Te  Te37  1  0.89851735  0.86477595  0.60414046  1
  Te  Te38  1  0.00000000  0.84479511  0.83333300  1
  Te  Te39  1  0.32948479  0.33220898  0.66909221  1
  Te  Te40  1  0.99727581  0.66779102  0.66424179  1
  Te  Te41  1  0.27518875  0.14635753  0.87646218  1
  Te  Te42  1  0.12883122  0.85364247  0.45687182  1
  Te  Te43  1  0.24662626  0.00000000  0.66666700  1
  Te  Te44  1  0.06078827  0.53942630  0.46064748  1
  Te  Te45  1  0.52136197  0.46057370  0.87268652  1
  Te  Te46  1  0.65751608  0.57511680  0.65485958  1
  Te  Te47  1  0.08239928  0.42488320  0.67847442  1
  Te  Te48  1  0.53610615  0.23524457  0.72765133  1
  Te  Te49  1  0.30086159  0.76475543  0.60568267  1
  Te  Te50  1  0.33872159  0.51146834  0.49758404  1
  Te  Te51  1  0.82725326  0.48853166  0.83574996  1
  Te  Te52  1  0.43271999  0.62991143  0.72933334  1
  Te  Te53  1  0.80280856  0.37008857  0.60400066  1
  Te  Te54  1  0.78219400  0.17428154  0.78562741  1
  Te  Te55  1  0.60791246  0.82571846  0.54770659  1
  Te  Te56  1  0.17274674  0.66127841  0.83091704  1
  Te  Te57  1  0.51146834  0.33872159  0.50241596  1
  Te  Te58  1  0.34248392  0.91760072  0.01180742  1
  Te  Te59  1  0.42488320  0.08239928  0.32152558  1
  Te  Te60  1  0.19719144  0.56728001  0.06266634  1
  Te  Te61  1  0.62991143  0.43271999  0.27066666  1
  Te  Te62  1  0.47863803  0.93921173  0.79398048  1
  Te  Te63  1  0.53942630  0.06078827  0.53935252  1
  Te  Te64  1  0.21780600  0.39208754  0.88103959  1
  Te  Te65  1  0.82571846  0.60791246  0.45229341  1
  Te  Te66  1  0.46389385  0.69913841  0.93901567  1
  Te  Te67  1  0.76475543  0.30086159  0.39431733  1
  Te  Te68  1  0.67051521  0.00272419  0.99757479  1
  Te  Te69  1  0.66779102  0.99727581  0.33575821  1
  Te  Te70  1  0.17428154  0.78219400  0.21437259  1
  Te  Te71  1  0.39208754  0.21780600  0.11896041  1
  Te  Te72  1  0.72481125  0.87116878  0.79020482  1
  Te  Te73  1  0.85364247  0.12883122  0.54312818  1
  Te  Te74  1  0.84479511  0.00000000  0.16666700  1
  Te  Te75  1  0.75337374  0.75337374  0.00000000  1
  Te  Te76  1  0.00000000  0.24662626  0.33333300  1
  Te  Te77  1  0.96625860  0.10148265  0.93747346  1
  Te  Te78  1  0.86477595  0.89851735  0.39585954  1
  Te  Te79  1  0.69913841  0.46389385  0.06098433  1
  Te  Te80  1  0.23524457  0.53610615  0.27234867  1
  Te  Te81  1  0.56728001  0.19719144  0.93733366  1
  Te  Te82  1  0.37008857  0.80280856  0.39599934  1
  Te  Te83  1  0.87116878  0.72481125  0.20979518  1
  Te  Te84  1  0.14635753  0.27518875  0.12353782  1
  Te  Te85  1  0.66127841  0.17274674  0.16908296  1
  Te  Te86  1  0.48853166  0.82725326  0.16425004  1
  Te  Te87  1  0.15520489  0.15520489  0.50000000  1
  Te  Te88  1  0.10148265  0.96625860  0.06252654  1
  Te  Te89  1  0.13522405  0.03374140  0.27080646  1
  Te  Te90  1  0.00272419  0.67051521  0.00242521  1
  Te  Te91  1  0.33220898  0.32948479  0.33090779  1
  Te  Te92  1  0.46057370  0.52136197  0.12731348  1
  Te  Te93  1  0.93921173  0.47863803  0.20601952  1
  Te  Te94  1  0.91760072  0.34248392  0.98819258  1
  Te  Te95  1  0.57511680  0.65751608  0.34514042  1
  Pb  Pb96  1  0.26322513  0.91806114  0.84616020  1
  Pb  Pb97  1  0.08193886  0.34516399  0.51282720  1
  Pb  Pb98  1  0.65483601  0.73677487  0.17949320  1
  Pb  Pb99  1  0.34516399  0.08193886  0.48717280  1
  Pb  Pb100  1  0.73677487  0.65483601  0.82050680  1
  Pb  Pb101  1  0.91806114  0.26322513  0.15383980  1
