# generated using pymatgen
data_Ba5SrLa2Fe4O15
_symmetry_space_group_name_H-M   'P 1'
_cell_length_a   11.95786113
_cell_length_b   11.95786093
_cell_length_c   14.31294877
_cell_angle_alpha   89.73837360
_cell_angle_beta   90.26162642
_cell_angle_gamma   120.06004066
_symmetry_Int_Tables_number   1
_chemical_formula_structural   Ba5SrLa2Fe4O15
_chemical_formula_sum   'Ba20 Sr4 La8 Fe16 O60'
_cell_volume   1771.32253890
_cell_formula_units_Z   4
loop_
 _symmetry_equiv_pos_site_id
 _symmetry_equiv_pos_as_xyz
  1  'x, y, z'
loop_
 _atom_site_type_symbol
 _atom_site_label
 _atom_site_symmetry_multiplicity
 _atom_site_fract_x
 _atom_site_fract_y
 _atom_site_fract_z
 _atom_site_occupancy
  Ba  Ba0  1  0.17252224  0.82465480  0.08207767  1
  Ba  Ba1  1  0.17534520  0.82747776  0.58207767  1
  Ba  Ba2  1  0.00081732  0.99824832  0.99541725  1
  Ba  Ba3  1  0.00014227  0.00135474  0.24562765  1
  Ba  Ba4  1  0.00175168  0.99918268  0.49541725  1
  Ba  Ba5  1  0.99864526  0.99985773  0.74562765  1
  Ba  Ba6  1  0.17523587  0.34743145  0.08256140  1
  Ba  Ba7  1  0.33636122  0.66635618  0.24256098  1
  Ba  Ba8  1  0.17696275  0.34766298  0.58577686  1
  Ba  Ba9  1  0.33364382  0.66363878  0.74256098  1
  Ba  Ba10  1  0.65233702  0.82303725  0.08577686  1
  Ba  Ba11  1  0.65256855  0.82476413  0.58256140  1
  Ba  Ba12  1  0.34863776  0.17388003  0.33265802  1
  Ba  Ba13  1  0.34577416  0.17564612  0.83166614  1
  Ba  Ba14  1  0.82435388  0.65422584  0.33166614  1
  Ba  Ba15  1  0.66351612  0.33143238  0.49472574  1
  Ba  Ba16  1  0.82611997  0.65136224  0.83265802  1
  Ba  Ba17  1  0.66856762  0.33648388  0.99472574  1
  Ba  Ba18  1  0.82305010  0.17085839  0.33632447  1
  Ba  Ba19  1  0.82914161  0.17694990  0.83632447  1
  Sr  Sr20  1  0.04435364  0.52277505  0.91962726  1
  Sr  Sr21  1  0.47722495  0.95564636  0.41962726  1
  Sr  Sr22  1  0.52123392  0.47702119  0.16955972  1
  Sr  Sr23  1  0.52297881  0.47876608  0.66955972  1
  La  La24  1  0.04244493  0.52114519  0.42041305  1
  La  La25  1  0.47885481  0.95755507  0.92041305  1
  La  La26  1  0.47771524  0.52079806  0.41876456  1
  La  La27  1  0.47920194  0.52228476  0.91876456  1
  La  La28  1  0.52151338  0.04331538  0.17150622  1
  La  La29  1  0.52194020  0.04261902  0.66727109  1
  La  La30  1  0.95738098  0.47805980  0.16727109  1
  La  La31  1  0.95668462  0.47848662  0.67150622  1
  Fe  Fe32  1  0.17988467  0.81935250  0.33013366  1
  Fe  Fe33  1  0.18064750  0.82011533  0.83013366  1
  Fe  Fe34  1  0.17739097  0.35905640  0.83261059  1
  Fe  Fe35  1  0.17584392  0.35678094  0.33214396  1
  Fe  Fe36  1  0.33110927  0.66633546  0.01545554  1
  Fe  Fe37  1  0.33366454  0.66889073  0.51545554  1
  Fe  Fe38  1  0.64094360  0.82260903  0.33261059  1
  Fe  Fe39  1  0.64321906  0.82415608  0.83214396  1
  Fe  Fe40  1  0.35855367  0.18149581  0.58278590  1
  Fe  Fe41  1  0.35874400  0.17956153  0.07997058  1
  Fe  Fe42  1  0.66390298  0.33190303  0.76715386  1
  Fe  Fe43  1  0.66809697  0.33609702  0.26715386  1
  Fe  Fe44  1  0.81850419  0.64144633  0.08278590  1
  Fe  Fe45  1  0.82043847  0.64125600  0.57997058  1
  Fe  Fe46  1  0.82006701  0.17725950  0.08378753  1
  Fe  Fe47  1  0.82274050  0.17993299  0.58378753  1
  O  O48  1  0.09679684  0.90355904  0.37756896  1
  O  O49  1  0.09644096  0.90320316  0.87756896  1
  O  O50  1  0.06406060  0.66668233  0.26422354  1
  O  O51  1  0.06825413  0.67204022  0.75943348  1
  O  O52  1  0.32795978  0.93174587  0.25943348  1
  O  O53  1  0.33331767  0.93593940  0.76422354  1
  O  O54  1  0.06117831  0.39466060  0.26505775  1
  O  O55  1  0.06435038  0.39260299  0.75979399  1
  O  O56  1  0.24349857  0.74625559  0.42256351  1
  O  O57  1  0.25374441  0.75650143  0.92256351  1
  O  O58  1  0.17034155  0.58649065  0.09024087  1
  O  O59  1  0.16616452  0.58390152  0.58537418  1
  O  O60  1  0.09053435  0.18895921  0.37877645  1
  O  O61  1  0.09182655  0.19113919  0.87994839  1
  O  O62  1  0.25236051  0.49918672  0.92250961  1
  O  O63  1  0.24450616  0.49505437  0.42308962  1
  O  O64  1  0.41609848  0.83383548  0.08537418  1
  O  O65  1  0.41350935  0.82965845  0.59024087  1
  O  O66  1  0.41537209  0.58637045  0.08339778  1
  O  O67  1  0.41362955  0.58462791  0.58339778  1
  O  O68  1  0.50081328  0.74763949  0.42250961  1
  O  O69  1  0.50494563  0.75549384  0.92308962  1
  O  O70  1  0.32862212  0.39623738  0.26837680  1
  O  O71  1  0.32859303  0.39553319  0.76755969  1
  O  O72  1  0.19221833  0.09740282  0.12897309  1
  O  O73  1  0.19206780  0.09895368  0.63122431  1
  O  O74  1  0.60533940  0.93882169  0.76505775  1
  O  O75  1  0.60739701  0.93564962  0.25979399  1
  O  O76  1  0.39307802  0.32772802  0.00887065  1
  O  O77  1  0.39427021  0.32868208  0.51018327  1
  O  O78  1  0.60446681  0.67140697  0.26755969  1
  O  O79  1  0.60376262  0.67137788  0.76837680  1
  O  O80  1  0.39539375  0.06449814  0.01374210  1
  O  O81  1  0.39503545  0.06625066  0.51802745  1
  O  O82  1  0.80886081  0.90817345  0.37994839  1
  O  O83  1  0.81104079  0.90946565  0.87877645  1
  O  O84  1  0.67131792  0.60572979  0.01018327  1
  O  O85  1  0.67227198  0.60692198  0.50887065  1
  O  O86  1  0.49605072  0.24378227  0.17212047  1
  O  O87  1  0.49822069  0.24511901  0.67409429  1
  O  O88  1  0.58489026  0.41405426  0.83999734  1
  O  O89  1  0.58594574  0.41510974  0.33999734  1
  O  O90  1  0.75488099  0.50177931  0.17409429  1
  O  O91  1  0.58696998  0.17066570  0.33411681  1
  O  O92  1  0.58402814  0.16597196  0.83764399  1
  O  O93  1  0.75621773  0.50394928  0.67212047  1
  O  O94  1  0.90104632  0.80793220  0.13122431  1
  O  O95  1  0.90259718  0.80778167  0.62897309  1
  O  O96  1  0.83402804  0.41597186  0.33764399  1
  O  O97  1  0.82933430  0.41303002  0.83411681  1
  O  O98  1  0.75165859  0.24830251  0.17315659  1
  O  O99  1  0.75169749  0.24834141  0.67315659  1
  O  O100  1  0.93374934  0.60496455  0.01802745  1
  O  O101  1  0.93550186  0.60460625  0.51374210  1
  O  O102  1  0.66607631  0.06428422  0.01738591  1
  O  O103  1  0.66942562  0.06493849  0.51990620  1
  O  O104  1  0.93506151  0.33057438  0.01990620  1
  O  O105  1  0.93571578  0.33392369  0.51738591  1
  O  O106  1  0.90574045  0.09304990  0.12596321  1
  O  O107  1  0.90695010  0.09425955  0.62596321  1
