# generated using pymatgen
data_Ba6Sr2CoCu7O20
_symmetry_space_group_name_H-M   'P 1'
_cell_length_a   11.42294854
_cell_length_b   11.45006937
_cell_length_c   18.06180855
_cell_angle_alpha   108.44644655
_cell_angle_beta   108.41553228
_cell_angle_gamma   90.06381832
_symmetry_Int_Tables_number   1
_chemical_formula_structural   Ba6Sr2CoCu7O20
_chemical_formula_sum   'Ba24 Sr8 Co4 Cu28 O80'
_cell_volume   2112.77991573
_cell_formula_units_Z   4
loop_
 _symmetry_equiv_pos_site_id
 _symmetry_equiv_pos_as_xyz
  1  'x, y, z'
loop_
 _atom_site_type_symbol
 _atom_site_label
 _atom_site_symmetry_multiplicity
 _atom_site_fract_x
 _atom_site_fract_y
 _atom_site_fract_z
 _atom_site_occupancy
  Ba  Ba0  1  0.30776946  0.05883075  0.11751367  1
  Ba  Ba1  1  0.30772650  0.05833974  0.62076091  1
  Ba  Ba2  1  0.30747483  0.55164974  0.11903074  1
  Ba  Ba3  1  0.79834116  0.05691821  0.11975714  1
  Ba  Ba4  1  0.80562718  0.55146103  0.11743255  1
  Ba  Ba5  1  0.80562557  0.55263401  0.61603801  1
  Ba  Ba6  1  0.18184620  0.44530720  0.38386599  1
  Ba  Ba7  1  0.18783863  0.95178091  0.38548957  1
  Ba  Ba8  1  0.18196634  0.94392797  0.87848605  1
  Ba  Ba9  1  0.69811189  0.44531042  0.38601202  1
  Ba  Ba10  1  0.68543914  0.44403198  0.88035501  1
  Ba  Ba11  1  0.68995724  0.94879510  0.38435067  1
  Ba  Ba12  1  0.68626815  0.93874039  0.88152308  1
  Ba  Ba13  1  0.06448257  0.31865909  0.11912265  1
  Ba  Ba14  1  0.05610601  0.80778469  0.11707305  1
  Ba  Ba15  1  0.54833836  0.31646913  0.11882758  1
  Ba  Ba16  1  0.54823595  0.81251629  0.11757266  1
  Ba  Ba17  1  0.55409398  0.81189490  0.61868867  1
  Ba  Ba18  1  0.43778667  0.18450882  0.38411960  1
  Ba  Ba19  1  0.44057078  0.69527601  0.38754371  1
  Ba  Ba20  1  0.44029776  0.68942448  0.88205202  1
  Ba  Ba21  1  0.93703288  0.18641352  0.87999290  1
  Ba  Ba22  1  0.93970664  0.68826700  0.38409089  1
  Ba  Ba23  1  0.92970060  0.69073930  0.88051710  1
  Sr  Sr24  1  0.30174012  0.55475163  0.60715114  1
  Sr  Sr25  1  0.80303398  0.05842697  0.61019246  1
  Sr  Sr26  1  0.19500149  0.43998984  0.88935838  1
  Sr  Sr27  1  0.05328198  0.30830307  0.61165355  1
  Sr  Sr28  1  0.05455886  0.80033230  0.60887481  1
  Sr  Sr29  1  0.55184693  0.30120344  0.60702770  1
  Sr  Sr30  1  0.44350712  0.20013800  0.89175495  1
  Sr  Sr31  1  0.94544335  0.19445985  0.39200627  1
  Co  Co32  1  0.00596878  0.01359385  0.00821416  1
  Co  Co33  1  0.99402954  0.49631557  0.99154249  1
  Co  Co34  1  0.48912526  0.99892529  0.99338638  1
  Co  Co35  1  0.74909145  0.75194119  0.01175214  1
  Cu  Cu36  1  0.00203351  0.00632432  0.50921717  1
  Cu  Cu37  1  0.00613211  0.50524215  0.51262590  1
  Cu  Cu38  1  0.50156075  0.00527388  0.50854423  1
  Cu  Cu39  1  0.49226764  0.49571731  0.99533133  1
  Cu  Cu40  1  0.49791382  0.49930180  0.50155332  1
  Cu  Cu41  1  0.24293681  0.24711571  0.99037861  1
  Cu  Cu42  1  0.25234562  0.25620443  0.51174625  1
  Cu  Cu43  1  0.24439138  0.74225611  0.99564142  1
  Cu  Cu44  1  0.24763724  0.75399967  0.50384478  1
  Cu  Cu45  1  0.74296691  0.24939097  -0.00120323  1
  Cu  Cu46  1  0.75329926  0.25085426  0.50589849  1
  Cu  Cu47  1  0.75267220  0.75612887  0.50706464  1
  Cu  Cu48  1  0.11484965  0.10457896  0.24517362  1
  Cu  Cu49  1  0.11555844  0.10166554  0.74113612  1
  Cu  Cu50  1  0.12205580  0.60767246  0.25129263  1
  Cu  Cu51  1  0.12256347  0.59779196  0.75692614  1
  Cu  Cu52  1  0.62146464  0.10752287  0.25085267  1
  Cu  Cu53  1  0.62067803  0.11281687  0.75986927  1
  Cu  Cu54  1  0.62509536  0.60791224  0.25258586  1
  Cu  Cu55  1  0.60390290  0.58611656  0.73302213  1
  Cu  Cu56  1  0.38116610  0.40374682  0.26697224  1
  Cu  Cu57  1  0.36185003  0.39844492  0.74948126  1
  Cu  Cu58  1  0.36440184  0.89050220  0.24235319  1
  Cu  Cu59  1  0.36609979  0.90027095  0.75357868  1
  Cu  Cu60  1  0.86613281  0.38358832  0.23841665  1
  Cu  Cu61  1  0.86794302  0.39371196  0.74924125  1
  Cu  Cu62  1  0.86950776  0.89538471  0.24994869  1
  Cu  Cu63  1  0.86513829  0.89858774  0.74093332  1
  O  O64  1  0.11841427  0.13208685  0.49885820  1
  O  O65  1  0.12202615  0.12751807  0.99438579  1
  O  O66  1  0.12096454  0.62504572  0.50256482  1
  O  O67  1  0.10979689  0.61071484  0.99300869  1
  O  O68  1  0.62235335  0.12495693  0.50378081  1
  O  O69  1  0.60433356  0.11168713  0.99461658  1
  O  O70  1  0.62528999  0.62936363  0.49973359  1
  O  O71  1  0.62996057  0.63318824  0.99726244  1
  O  O72  1  0.12970088  0.37202529  0.00033815  1
  O  O73  1  0.12445096  0.38009652  0.50846887  1
  O  O74  1  0.10370294  0.88642693  0.00015627  1
  O  O75  1  0.12412473  0.87793667  0.50968508  1
  O  O76  1  0.61672131  0.37669851  0.00110210  1
  O  O77  1  0.62950270  0.36794521  0.50558420  1
  O  O78  1  0.62088263  0.87244979  0.00370146  1
  O  O79  1  0.62634549  0.88769860  0.51074069  1
  O  O80  1  0.37506024  0.12665082  0.50213167  1
  O  O81  1  0.36298390  0.12860238  0.99062451  1
  O  O82  1  0.36312269  0.62858678  0.50009519  1
  O  O83  1  0.36864041  0.61466424  0.99189906  1
  O  O84  1  0.87314948  0.12594945  0.49863480  1
  O  O85  1  0.87687071  0.10809173  0.99498860  1
  O  O86  1  0.88125445  0.62132675  0.50154283  1
  O  O87  1  0.86578358  0.62091226  0.99354899  1
  O  O88  1  0.36666621  0.37111654  0.99738660  1
  O  O89  1  0.37109702  0.37448277  0.50818906  1
  O  O90  1  0.37728451  0.88941023  0.00140906  1
  O  O91  1  0.37704064  0.88204295  0.50811125  1
  O  O92  1  0.88734055  0.38648416  0.00142533  1
  O  O93  1  0.88438888  0.37713803  0.50741793  1
  O  O94  1  0.85474750  0.86090391  0.00456933  1
  O  O95  1  0.87959523  0.88343096  0.51178008  1
  O  O96  1  0.06169640  0.08594924  0.13331862  1
  O  O97  1  0.06494427  0.09778033  0.63385738  1
  O  O98  1  0.06950583  0.58733515  0.14027333  1
  O  O99  1  0.08533506  0.59472509  0.65001738  1
  O  O100  1  0.56452709  0.09443648  0.14087999  1
  O  O101  1  0.57499407  0.10708662  0.65260363  1
  O  O102  1  0.56606829  0.59025944  0.14123283  1
  O  O103  1  0.55803541  0.57284592  0.62280292  1
  O  O104  1  0.43754823  0.42367127  0.37850835  1
  O  O105  1  0.43150250  0.40942558  0.86051540  1
  O  O106  1  0.42189846  0.90729477  0.35153796  1
  O  O107  1  0.42527818  0.91683747  0.86487801  1
  O  O108  1  0.91892593  0.38067195  0.34261760  1
  O  O109  1  0.93310108  0.41404947  0.86165976  1
  O  O110  1  0.92598116  0.90962822  0.35901523  1
  O  O111  1  0.92405718  0.90510552  0.84834640  1
  O  O112  1  0.32668828  0.30285858  0.16076792  1
  O  O113  1  0.31744673  0.30365644  0.63959929  1
  O  O114  1  0.30880076  0.79660213  0.12867855  1
  O  O115  1  0.32398350  0.79587022  0.64669068  1
  O  O116  1  0.81000302  0.29734350  0.12436067  1
  O  O117  1  0.82951710  0.29485430  0.64046523  1
  O  O118  1  0.82049784  0.79702344  0.13923970  1
  O  O119  1  0.82165602  0.79903856  0.63257566  1
  O  O120  1  0.17566048  0.20086966  0.35293551  1
  O  O121  1  0.18372561  0.20029750  0.84849785  1
  O  O122  1  0.17392515  0.70353070  0.36024081  1
  O  O123  1  0.18251934  0.69693946  0.86875920  1
  O  O124  1  0.68704902  0.19661853  0.36145590  1
  O  O125  1  0.68331419  0.20152374  0.87404151  1
  O  O126  1  0.68321063  0.70297445  0.36327433  1
  O  O127  1  0.66657987  0.68952835  0.83894018  1
  O  O128  1  0.49021890  0.00530834  0.24876643  1
  O  O129  1  0.48205557  0.02871445  0.76256717  1
  O  O130  1  0.49971668  0.50209892  0.25355161  1
  O  O131  1  0.45899795  0.52383628  0.73987040  1
  O  O132  1  0.98623826  0.02002983  0.25747611  1
  O  O133  1  0.97206215  0.02438948  0.74001990  1
  O  O134  1  0.99705796  0.49662198  0.24937326  1
  O  O135  1  0.97576552  0.52110004  0.75090699  1
  O  O136  1  0.24999337  0.50347919  0.25411461  1
  O  O137  1  0.21192214  0.45517592  0.75339507  1
  O  O138  1  0.23615027  0.99195706  0.24629498  1
  O  O139  1  0.21545838  0.96783436  0.73581148  1
  O  O140  1  0.74819887  0.49794741  0.24946991  1
  O  O141  1  0.71578431  0.46088412  0.73675163  1
  O  O142  1  0.73540566  0.98893501  0.24501362  1
  O  O143  1  0.73386187  0.99323643  0.75072974  1
