# generated using pymatgen
data_KRb2YF6
_symmetry_space_group_name_H-M   'P 1'
_cell_length_a   6.58136475
_cell_length_b   6.75063193
_cell_length_c   9.36726036
_cell_angle_alpha   90.00000000
_cell_angle_beta   89.73479935
_cell_angle_gamma   90.00000000
_symmetry_Int_Tables_number   1
_chemical_formula_structural   KRb2YF6
_chemical_formula_sum   'K2 Rb4 Y2 F12'
_cell_volume   416.16766083
_cell_formula_units_Z   2
loop_
 _symmetry_equiv_pos_site_id
 _symmetry_equiv_pos_as_xyz
  1  'x, y, z'
loop_
 _atom_site_type_symbol
 _atom_site_label
 _atom_site_symmetry_multiplicity
 _atom_site_fract_x
 _atom_site_fract_y
 _atom_site_fract_z
 _atom_site_occupancy
  F  F0  1  0.32321793  0.23288912  0.44616904  1
  F  F1  1  0.17678207  0.73288912  0.05383096  1
  F  F2  1  0.67678207  0.76711088  0.55383096  1
  F  F3  1  0.82321793  0.26711088  0.94616904  1
  F  F4  1  0.77096146  0.31814533  0.54111476  1
  F  F5  1  0.72903854  0.81814533  0.95888524  1
  F  F6  1  0.22903854  0.68185467  0.45888524  1
  F  F7  1  0.27096146  0.18185467  0.04111476  1
  F  F8  1  0.91037371  0.03881254  0.22493288  1
  F  F9  1  0.58962629  0.53881254  0.27506712  1
  F  F10  1  0.08962629  0.96118746  0.77506712  1
  F  F11  1  0.41037371  0.46118746  0.72493288  1
  K  K12  1  0.50000000  0.50000000  0.00000000  1
  K  K13  1  0.00000000  0.00000000  0.50000000  1
  Rb  Rb14  1  0.98919936  0.54377892  0.74813777  1
  Rb  Rb15  1  0.48919936  0.95622108  0.24813777  1
  Rb  Rb16  1  0.51080064  0.04377892  0.75186223  1
  Rb  Rb17  1  0.01080064  0.45622108  0.25186223  1
  Y  Y18  1  0.50000000  0.50000000  0.50000000  1
  Y  Y19  1  0.00000000  0.00000000  0.00000000  1
