# generated using pymatgen
data_K5NaP3(HO4)3
_symmetry_space_group_name_H-M   'P 1'
_cell_length_a   22.77759775
_cell_length_b   10.08055317
_cell_length_c   5.92890573
_cell_angle_alpha   90.00000000
_cell_angle_beta   90.00000000
_cell_angle_gamma   90.00000000
_symmetry_Int_Tables_number   1
_chemical_formula_structural   K5NaP3(HO4)3
_chemical_formula_sum   'K20 Na4 P12 H12 O48'
_cell_volume   1361.34070006
_cell_formula_units_Z   4
loop_
 _symmetry_equiv_pos_site_id
 _symmetry_equiv_pos_as_xyz
  1  'x, y, z'
loop_
 _atom_site_type_symbol
 _atom_site_label
 _atom_site_symmetry_multiplicity
 _atom_site_fract_x
 _atom_site_fract_y
 _atom_site_fract_z
 _atom_site_occupancy
  K  K0  1  0.45124374  0.59831973  0.74920584  1
  K  K1  1  0.54875626  0.40168027  0.24920584  1
  K  K2  1  0.04875626  0.09831973  0.24920584  1
  K  K3  1  0.95124374  0.90168027  0.74920584  1
  K  K4  1  0.09371799  0.62186858  0.74250821  1
  K  K5  1  0.90628201  0.37813142  0.24250821  1
  K  K6  1  0.40628201  0.12186858  0.24250821  1
  K  K7  1  0.59371799  0.87813142  0.74250821  1
  K  K8  1  0.33301134  0.34992641  0.74233854  1
  K  K9  1  0.66698866  0.65007359  0.24233854  1
  K  K10  1  0.16698866  0.84992641  0.24233854  1
  K  K11  1  0.83301134  0.15007359  0.74233854  1
  K  K12  1  0.15858351  0.26644083  0.78311232  1
  K  K13  1  0.84141649  0.73355917  0.28311232  1
  K  K14  1  0.34141649  0.76644083  0.28311232  1
  K  K15  1  0.65858351  0.23355917  0.78311232  1
  K  K16  1  0.28151437  0.99778895  0.80235948  1
  K  K17  1  0.71848563  0.00221105  0.30235948  1
  K  K18  1  0.21848563  0.49778895  0.30235948  1
  K  K19  1  0.78151437  0.50221105  0.80235948  1
  Na  Na20  1  0.48575383  0.25301699  0.75531615  1
  Na  Na21  1  0.51424617  0.74698301  0.25531615  1
  Na  Na22  1  0.01424617  0.75301699  0.25531615  1
  Na  Na23  1  0.98575383  0.24698301  0.75531615  1
  P  P24  1  0.08740509  0.94993736  0.74711457  1
  P  P25  1  0.91259491  0.05006264  0.24711457  1
  P  P26  1  0.41259491  0.44993736  0.24711457  1
  P  P27  1  0.58740509  0.55006264  0.74711457  1
  P  P28  1  0.42542659  0.92870010  0.74624975  1
  P  P29  1  0.57457341  0.07129990  0.24624975  1
  P  P30  1  0.07457341  0.42870010  0.24624975  1
  P  P31  1  0.92542659  0.57129990  0.74624975  1
  P  P32  1  0.24030804  0.64446791  0.80080163  1
  P  P33  1  0.75969196  0.35553209  0.30080163  1
  P  P34  1  0.25969196  0.14446791  0.30080163  1
  P  P35  1  0.74030804  0.85553209  0.80080163  1
  H  H36  1  0.17703869  0.86682519  0.70454168  1
  H  H37  1  0.82296131  0.13317481  0.20454168  1
  H  H38  1  0.32296131  0.36682519  0.20454168  1
  H  H39  1  0.67703869  0.63317481  0.70454168  1
  H  H40  1  0.49903775  0.98721992  0.97646031  1
  H  H41  1  0.50096225  0.01278008  0.47646031  1
  H  H42  1  0.00096225  0.48721992  0.47646031  1
  H  H43  1  0.99903775  0.51278008  0.97646031  1
  H  H44  1  0.33308668  0.69946147  0.75298205  1
  H  H45  1  0.66691332  0.30053853  0.25298205  1
  H  H46  1  0.16691332  0.19946147  0.25298205  1
  H  H47  1  0.83308668  0.80053853  0.75298205  1
  O  O48  1  0.15916176  0.95783801  0.73929876  1
  O  O49  1  0.84083824  0.04216199  0.23929876  1
  O  O50  1  0.34083824  0.45783801  0.23929876  1
  O  O51  1  0.65916176  0.54216199  0.73929876  1
  O  O52  1  0.06636823  0.09441088  0.75326278  1
  O  O53  1  0.93363177  0.90558912  0.25326278  1
  O  O54  1  0.43363177  0.59441088  0.25326278  1
  O  O55  1  0.56636823  0.40558912  0.75326278  1
  O  O56  1  0.06776868  0.87524112  0.53311605  1
  O  O57  1  0.93223132  0.12475888  0.03311605  1
  O  O58  1  0.43223132  0.37524112  0.03311605  1
  O  O59  1  0.56776868  0.62475888  0.53311605  1
  O  O60  1  0.07071040  0.87246477  0.96261951  1
  O  O61  1  0.92928960  0.12753523  0.46261951  1
  O  O62  1  0.42928960  0.37246477  0.46261951  1
  O  O63  1  0.57071040  0.62753523  0.96261951  1
  O  O64  1  0.47268969  0.90512155  0.95035364  1
  O  O65  1  0.52731031  0.09487845  0.45035364  1
  O  O66  1  0.02731031  0.40512155  0.45035364  1
  O  O67  1  0.97268969  0.59487845  0.95035364  1
  O  O68  1  0.40611688  0.07419781  0.75745935  1
  O  O69  1  0.59388312  0.92580219  0.25745935  1
  O  O70  1  0.09388312  0.57419781  0.25745935  1
  O  O71  1  0.90611688  0.42580219  0.75745935  1
  O  O72  1  0.37692625  0.82731684  0.79687256  1
  O  O73  1  0.62307375  0.17268316  0.29687256  1
  O  O74  1  0.12307375  0.32731684  0.29687256  1
  O  O75  1  0.87692625  0.67268316  0.79687256  1
  O  O76  1  0.45753535  0.89721032  0.52103615  1
  O  O77  1  0.54246465  0.10278968  0.02103615  1
  O  O78  1  0.04246465  0.39721032  0.02103615  1
  O  O79  1  0.95753535  0.60278968  0.52103615  1
  O  O80  1  0.30811402  0.62087897  0.71185191  1
  O  O81  1  0.69188598  0.37912103  0.21185191  1
  O  O82  1  0.19188598  0.12087897  0.21185191  1
  O  O83  1  0.80811402  0.87912103  0.71185191  1
  O  O84  1  0.21302921  0.50590142  0.80170735  1
  O  O85  1  0.78697079  0.49409858  0.30170735  1
  O  O86  1  0.28697079  0.00590142  0.30170735  1
  O  O87  1  0.71302921  0.99409858  0.80170735  1
  O  O88  1  0.21016800  0.73608878  0.62467116  1
  O  O89  1  0.78983200  0.26391122  0.12467116  1
  O  O90  1  0.28983200  0.23608878  0.12467116  1
  O  O91  1  0.71016800  0.76391122  0.62467116  1
  O  O92  1  0.24483329  0.71197505  0.03036024  1
  O  O93  1  0.75516671  0.28802495  0.53036024  1
  O  O94  1  0.25516671  0.21197505  0.53036024  1
  O  O95  1  0.74483329  0.78802495  0.03036024  1
