# generated using pymatgen
data_CsGaH24(SO10)2
_symmetry_space_group_name_H-M   'P 1'
_cell_length_a   12.43270394
_cell_length_b   12.43270394
_cell_length_c   12.43270394
_cell_angle_alpha   90.00000000
_cell_angle_beta   90.00000000
_cell_angle_gamma   90.00000000
_symmetry_Int_Tables_number   1
_chemical_formula_structural   CsGaH24(SO10)2
_chemical_formula_sum   'Cs4 Ga4 H96 S8 O80'
_cell_volume   1921.74949560
_cell_formula_units_Z   4
loop_
 _symmetry_equiv_pos_site_id
 _symmetry_equiv_pos_as_xyz
  1  'x, y, z'
loop_
 _atom_site_type_symbol
 _atom_site_label
 _atom_site_symmetry_multiplicity
 _atom_site_fract_x
 _atom_site_fract_y
 _atom_site_fract_z
 _atom_site_occupancy
  Cs  Cs0  1  0.00000000  0.00000000  0.50000000  1
  Cs  Cs1  1  0.00000000  0.50000000  0.00000000  1
  Cs  Cs2  1  0.50000000  0.00000000  0.00000000  1
  Cs  Cs3  1  0.50000000  0.50000000  0.50000000  1
  Ga  Ga4  1  0.50000000  0.50000000  0.00000000  1
  Ga  Ga5  1  0.50000000  0.00000000  0.50000000  1
  Ga  Ga6  1  0.00000000  0.50000000  0.50000000  1
  Ga  Ga7  1  0.00000000  0.00000000  0.00000000  1
  H  H8  1  0.22161927  0.50907665  0.23061259  1
  H  H9  1  0.77838073  0.00907665  0.26938741  1
  H  H10  1  0.27838073  0.49092335  0.73061259  1
  H  H11  1  0.72161927  0.99092335  0.76938741  1
  H  H12  1  0.23061259  0.22161927  0.50907665  1
  H  H13  1  0.26938741  0.77838073  0.00907665  1
  H  H14  1  0.73061259  0.27838073  0.49092335  1
  H  H15  1  0.76938741  0.72161927  0.99092335  1
  H  H16  1  0.50907665  0.23061259  0.22161927  1
  H  H17  1  0.00907665  0.26938741  0.77838073  1
  H  H18  1  0.49092335  0.73061259  0.27838073  1
  H  H19  1  0.99092335  0.76938741  0.72161927  1
  H  H20  1  0.77838073  0.49092335  0.76938741  1
  H  H21  1  0.22161927  0.99092335  0.73061259  1
  H  H22  1  0.72161927  0.50907665  0.26938741  1
  H  H23  1  0.27838073  0.00907665  0.23061259  1
  H  H24  1  0.76938741  0.77838073  0.49092335  1
  H  H25  1  0.73061259  0.22161927  0.99092335  1
  H  H26  1  0.26938741  0.72161927  0.50907665  1
  H  H27  1  0.23061259  0.27838073  0.00907665  1
  H  H28  1  0.49092335  0.76938741  0.77838073  1
  H  H29  1  0.99092335  0.73061259  0.22161927  1
  H  H30  1  0.50907665  0.26938741  0.72161927  1
  H  H31  1  0.00907665  0.23061259  0.27838073  1
  H  H32  1  0.18127671  0.62770459  0.22185165  1
  H  H33  1  0.81872329  0.12770459  0.27814835  1
  H  H34  1  0.31872329  0.37229541  0.72185165  1
  H  H35  1  0.68127671  0.87229541  0.77814835  1
  H  H36  1  0.22185165  0.18127671  0.62770459  1
  H  H37  1  0.27814835  0.81872329  0.12770459  1
  H  H38  1  0.72185165  0.31872329  0.37229541  1
  H  H39  1  0.77814835  0.68127671  0.87229541  1
  H  H40  1  0.62770459  0.22185165  0.18127671  1
  H  H41  1  0.12770459  0.27814835  0.81872329  1
  H  H42  1  0.37229541  0.72185165  0.31872329  1
  H  H43  1  0.87229541  0.77814835  0.68127671  1
  H  H44  1  0.81872329  0.37229541  0.77814835  1
  H  H45  1  0.18127671  0.87229541  0.72185165  1
  H  H46  1  0.68127671  0.62770459  0.27814835  1
  H  H47  1  0.31872329  0.12770459  0.22185165  1
  H  H48  1  0.77814835  0.81872329  0.37229541  1
  H  H49  1  0.72185165  0.18127671  0.87229541  1
  H  H50  1  0.27814835  0.68127671  0.62770459  1
  H  H51  1  0.22185165  0.31872329  0.12770459  1
  H  H52  1  0.37229541  0.77814835  0.81872329  1
  H  H53  1  0.87229541  0.72185165  0.18127671  1
  H  H54  1  0.62770459  0.27814835  0.68127671  1
  H  H55  1  0.12770459  0.22185165  0.31872329  1
  H  H56  1  0.47761051  0.70643402  0.93530309  1
  H  H57  1  0.52238949  0.20643402  0.56469691  1
  H  H58  1  0.02238949  0.29356598  0.43530309  1
  H  H59  1  0.97761051  0.79356598  0.06469691  1
  H  H60  1  0.93530309  0.47761051  0.70643402  1
  H  H61  1  0.56469691  0.52238949  0.20643402  1
  H  H62  1  0.43530309  0.02238949  0.29356598  1
  H  H63  1  0.06469691  0.97761051  0.79356598  1
  H  H64  1  0.70643402  0.93530309  0.47761051  1
  H  H65  1  0.20643402  0.56469691  0.52238949  1
  H  H66  1  0.29356598  0.43530309  0.02238949  1
  H  H67  1  0.79356598  0.06469691  0.97761051  1
  H  H68  1  0.52238949  0.29356598  0.06469691  1
  H  H69  1  0.47761051  0.79356598  0.43530309  1
  H  H70  1  0.97761051  0.70643402  0.56469691  1
  H  H71  1  0.02238949  0.20643402  0.93530309  1
  H  H72  1  0.06469691  0.52238949  0.29356598  1
  H  H73  1  0.43530309  0.47761051  0.79356598  1
  H  H74  1  0.56469691  0.97761051  0.70643402  1
  H  H75  1  0.93530309  0.02238949  0.20643402  1
  H  H76  1  0.29356598  0.06469691  0.52238949  1
  H  H77  1  0.79356598  0.43530309  0.47761051  1
  H  H78  1  0.70643402  0.56469691  0.97761051  1
  H  H79  1  0.20643402  0.93530309  0.02238949  1
  H  H80  1  0.52385031  0.70249906  0.06154341  1
  H  H81  1  0.47614969  0.20249906  0.43845659  1
  H  H82  1  0.97614969  0.29750094  0.56154341  1
  H  H83  1  0.02385031  0.79750094  0.93845659  1
  H  H84  1  0.06154341  0.52385031  0.70249906  1
  H  H85  1  0.43845659  0.47614969  0.20249906  1
  H  H86  1  0.56154341  0.97614969  0.29750094  1
  H  H87  1  0.93845659  0.02385031  0.79750094  1
  H  H88  1  0.70249906  0.06154341  0.52385031  1
  H  H89  1  0.20249906  0.43845659  0.47614969  1
  H  H90  1  0.29750094  0.56154341  0.97614969  1
  H  H91  1  0.79750094  0.93845659  0.02385031  1
  H  H92  1  0.47614969  0.29750094  0.93845659  1
  H  H93  1  0.52385031  0.79750094  0.56154341  1
  H  H94  1  0.02385031  0.70249906  0.43845659  1
  H  H95  1  0.97614969  0.20249906  0.06154341  1
  H  H96  1  0.93845659  0.47614969  0.29750094  1
  H  H97  1  0.56154341  0.52385031  0.79750094  1
  H  H98  1  0.43845659  0.02385031  0.70249906  1
  H  H99  1  0.06154341  0.97614969  0.20249906  1
  H  H100  1  0.29750094  0.93845659  0.47614969  1
  H  H101  1  0.79750094  0.56154341  0.52385031  1
  H  H102  1  0.70249906  0.43845659  0.02385031  1
  H  H103  1  0.20249906  0.06154341  0.97614969  1
  S  S104  1  0.17197977  0.82802023  0.32802023  1
  S  S105  1  0.82802023  0.32802023  0.17197977  1
  S  S106  1  0.32802023  0.17197977  0.82802023  1
  S  S107  1  0.67197977  0.67197977  0.67197977  1
  S  S108  1  0.82802023  0.17197977  0.67197977  1
  S  S109  1  0.17197977  0.67197977  0.82802023  1
  S  S110  1  0.67197977  0.82802023  0.17197977  1
  S  S111  1  0.32802023  0.32802023  0.32802023  1
  O  O112  1  0.24178032  0.75821968  0.25821968  1
  O  O113  1  0.75821968  0.25821968  0.24178032  1
  O  O114  1  0.25821968  0.24178032  0.75821968  1
  O  O115  1  0.74178032  0.74178032  0.74178032  1
  O  O116  1  0.75821968  0.24178032  0.74178032  1
  O  O117  1  0.24178032  0.74178032  0.75821968  1
  O  O118  1  0.74178032  0.75821968  0.24178032  1
  O  O119  1  0.25821968  0.25821968  0.25821968  1
  O  O120  1  0.06215192  0.78006517  0.33636122  1
  O  O121  1  0.93784808  0.28006517  0.16363878  1
  O  O122  1  0.43784808  0.21993483  0.83636122  1
  O  O123  1  0.56215192  0.71993483  0.66363878  1
  O  O124  1  0.33636122  0.06215192  0.78006517  1
  O  O125  1  0.16363878  0.93784808  0.28006517  1
  O  O126  1  0.83636122  0.43784808  0.21993483  1
  O  O127  1  0.66363878  0.56215192  0.71993483  1
  O  O128  1  0.78006517  0.33636122  0.06215192  1
  O  O129  1  0.28006517  0.16363878  0.93784808  1
  O  O130  1  0.21993483  0.83636122  0.43784808  1
  O  O131  1  0.71993483  0.66363878  0.56215192  1
  O  O132  1  0.93784808  0.21993483  0.66363878  1
  O  O133  1  0.06215192  0.71993483  0.83636122  1
  O  O134  1  0.56215192  0.78006517  0.16363878  1
  O  O135  1  0.43784808  0.28006517  0.33636122  1
  O  O136  1  0.66363878  0.93784808  0.21993483  1
  O  O137  1  0.83636122  0.06215192  0.71993483  1
  O  O138  1  0.16363878  0.56215192  0.78006517  1
  O  O139  1  0.33636122  0.43784808  0.28006517  1
  O  O140  1  0.21993483  0.66363878  0.93784808  1
  O  O141  1  0.71993483  0.83636122  0.06215192  1
  O  O142  1  0.78006517  0.16363878  0.56215192  1
  O  O143  1  0.28006517  0.33636122  0.43784808  1
  O  O144  1  0.15757103  0.55261104  0.21105860  1
  O  O145  1  0.84242897  0.05261104  0.28894140  1
  O  O146  1  0.34242897  0.44738896  0.71105860  1
  O  O147  1  0.65757103  0.94738896  0.78894140  1
  O  O148  1  0.21105860  0.15757103  0.55261104  1
  O  O149  1  0.28894140  0.84242897  0.05261104  1
  O  O150  1  0.71105860  0.34242897  0.44738896  1
  O  O151  1  0.78894140  0.65757103  0.94738896  1
  O  O152  1  0.55261104  0.21105860  0.15757103  1
  O  O153  1  0.05261104  0.28894140  0.84242897  1
  O  O154  1  0.44738896  0.71105860  0.34242897  1
  O  O155  1  0.94738896  0.78894140  0.65757103  1
  O  O156  1  0.84242897  0.44738896  0.78894140  1
  O  O157  1  0.15757103  0.94738896  0.71105860  1
  O  O158  1  0.65757103  0.55261104  0.28894140  1
  O  O159  1  0.34242897  0.05261104  0.21105860  1
  O  O160  1  0.78894140  0.84242897  0.44738896  1
  O  O161  1  0.71105860  0.15757103  0.94738896  1
  O  O162  1  0.28894140  0.65757103  0.55261104  1
  O  O163  1  0.21105860  0.34242897  0.05261104  1
  O  O164  1  0.44738896  0.78894140  0.84242897  1
  O  O165  1  0.94738896  0.71105860  0.15757103  1
  O  O166  1  0.55261104  0.28894140  0.65757103  1
  O  O167  1  0.05261104  0.21105860  0.34242897  1
  O  O168  1  0.50055334  0.65886553  0.99813197  1
  O  O169  1  0.49944666  0.15886553  0.50186803  1
  O  O170  1  0.99944666  0.34113447  0.49813197  1
  O  O171  1  0.00055334  0.84113447  0.00186803  1
  O  O172  1  0.99813197  0.50055334  0.65886553  1
  O  O173  1  0.50186803  0.49944666  0.15886553  1
  O  O174  1  0.49813197  0.99944666  0.34113447  1
  O  O175  1  0.00186803  0.00055334  0.84113447  1
  O  O176  1  0.65886553  0.99813197  0.50055334  1
  O  O177  1  0.15886553  0.50186803  0.49944666  1
  O  O178  1  0.34113447  0.49813197  0.99944666  1
  O  O179  1  0.84113447  0.00186803  0.00055334  1
  O  O180  1  0.49944666  0.34113447  0.00186803  1
  O  O181  1  0.50055334  0.84113447  0.49813197  1
  O  O182  1  0.00055334  0.65886553  0.50186803  1
  O  O183  1  0.99944666  0.15886553  0.99813197  1
  O  O184  1  0.00186803  0.49944666  0.34113447  1
  O  O185  1  0.49813197  0.50055334  0.84113447  1
  O  O186  1  0.50186803  0.00055334  0.65886553  1
  O  O187  1  0.99813197  0.99944666  0.15886553  1
  O  O188  1  0.34113447  0.00186803  0.49944666  1
  O  O189  1  0.84113447  0.49813197  0.50055334  1
  O  O190  1  0.65886553  0.50186803  0.00055334  1
  O  O191  1  0.15886553  0.99813197  0.99944666  1
