# generated using pymatgen
data_BaP2(HO2)4
_symmetry_space_group_name_H-M   'P 1'
_cell_length_a   7.78938500
_cell_length_b   10.57345269
_cell_length_c   8.62824352
_cell_angle_alpha   90.00000000
_cell_angle_beta   90.00000000
_cell_angle_gamma   90.00000000
_symmetry_Int_Tables_number   1
_chemical_formula_structural   BaP2(HO2)4
_chemical_formula_sum   'Ba4 P8 H16 O32'
_cell_volume   710.62812242
_cell_formula_units_Z   4
loop_
 _symmetry_equiv_pos_site_id
 _symmetry_equiv_pos_as_xyz
  1  'x, y, z'
loop_
 _atom_site_type_symbol
 _atom_site_label
 _atom_site_symmetry_multiplicity
 _atom_site_fract_x
 _atom_site_fract_y
 _atom_site_fract_z
 _atom_site_occupancy
  Ba  Ba0  1  0.75000000  0.25000000  0.89986594  1
  Ba  Ba1  1  0.25000000  0.75000000  0.60013406  1
  Ba  Ba2  1  0.25000000  0.75000000  0.10013406  1
  Ba  Ba3  1  0.75000000  0.25000000  0.39986594  1
  P  P4  1  0.07462544  0.42288893  0.70844354  1
  P  P5  1  0.42537456  0.07711107  0.70844354  1
  P  P6  1  0.57462544  0.57711107  0.79155646  1
  P  P7  1  0.92537456  0.92288893  0.79155646  1
  P  P8  1  0.92537456  0.57711107  0.29155646  1
  P  P9  1  0.57462544  0.92288893  0.29155646  1
  P  P10  1  0.42537456  0.42288893  0.20844354  1
  P  P11  1  0.07462544  0.07711107  0.20844354  1
  H  H12  1  0.91801369  0.57816250  0.80194918  1
  H  H13  1  0.58198631  0.92183750  0.80194918  1
  H  H14  1  0.41801369  0.42183750  0.69805082  1
  H  H15  1  0.08198631  0.07816250  0.69805082  1
  H  H16  1  0.08198631  0.42183750  0.19805082  1
  H  H17  1  0.41801369  0.07816250  0.19805082  1
  H  H18  1  0.58198631  0.57816250  0.30194918  1
  H  H19  1  0.91801369  0.92183750  0.30194918  1
  H  H20  1  0.18382832  0.38197896  0.94917204  1
  H  H21  1  0.31617168  0.11802104  0.94917204  1
  H  H22  1  0.68382832  0.61802104  0.55082796  1
  H  H23  1  0.81617168  0.88197896  0.55082796  1
  H  H24  1  0.81617168  0.61802104  0.05082796  1
  H  H25  1  0.68382832  0.88197896  0.05082796  1
  H  H26  1  0.31617168  0.38197896  0.44917204  1
  H  H27  1  0.18382832  0.11802104  0.44917204  1
  O  O28  1  0.23943127  0.42953063  0.61290664  1
  O  O29  1  0.26056873  0.07046937  0.61290664  1
  O  O30  1  0.73943127  0.57046937  0.88709336  1
  O  O31  1  0.76056873  0.92953063  0.88709336  1
  O  O32  1  0.76056873  0.57046937  0.38709336  1
  O  O33  1  0.73943127  0.92953063  0.38709336  1
  O  O34  1  0.26056873  0.42953063  0.11290664  1
  O  O35  1  0.23943127  0.07046937  0.11290664  1
  O  O36  1  0.03726041  0.56709786  0.75427794  1
  O  O37  1  0.46273959  0.93290214  0.75427794  1
  O  O38  1  0.53726041  0.43290214  0.74572206  1
  O  O39  1  0.96273959  0.06709786  0.74572206  1
  O  O40  1  0.96273959  0.43290214  0.24572206  1
  O  O41  1  0.53726041  0.06709786  0.24572206  1
  O  O42  1  0.46273959  0.56709786  0.25427794  1
  O  O43  1  0.03726041  0.93290214  0.25427794  1
  O  O44  1  0.91716878  0.36099579  0.63920647  1
  O  O45  1  0.58283122  0.13900421  0.63920647  1
  O  O46  1  0.41716878  0.63900421  0.86079353  1
  O  O47  1  0.08283122  0.86099579  0.86079353  1
  O  O48  1  0.08283122  0.63900421  0.36079353  1
  O  O49  1  0.41716878  0.86099579  0.36079353  1
  O  O50  1  0.58283122  0.36099579  0.13920647  1
  O  O51  1  0.91716878  0.13900421  0.13920647  1
  O  O52  1  0.10287021  0.34795224  0.86724788  1
  O  O53  1  0.39712979  0.15204776  0.86724788  1
  O  O54  1  0.60287021  0.65204776  0.63275212  1
  O  O55  1  0.89712979  0.84795224  0.63275212  1
  O  O56  1  0.89712979  0.65204776  0.13275212  1
  O  O57  1  0.60287021  0.84795224  0.13275212  1
  O  O58  1  0.39712979  0.34795224  0.36724788  1
  O  O59  1  0.10287021  0.15204776  0.36724788  1
