# generated using pymatgen
data_Na6Al4Fe(Si4O13)2
_symmetry_space_group_name_H-M   'P 1'
_cell_length_a   8.11594394
_cell_length_b   8.60455674
_cell_length_c   10.55704387
_cell_angle_alpha   111.00824282
_cell_angle_beta   89.99910882
_cell_angle_gamma   118.09106042
_symmetry_Int_Tables_number   1
_chemical_formula_structural   Na6Al4Fe(Si4O13)2
_chemical_formula_sum   'Na6 Al4 Fe1 Si8 O26'
_cell_volume   594.27295139
_cell_formula_units_Z   1
loop_
 _symmetry_equiv_pos_site_id
 _symmetry_equiv_pos_as_xyz
  1  'x, y, z'
loop_
 _atom_site_type_symbol
 _atom_site_label
 _atom_site_symmetry_multiplicity
 _atom_site_fract_x
 _atom_site_fract_y
 _atom_site_fract_z
 _atom_site_occupancy
  Na  Na0  1  0.15690869  0.31710066  0.89015616  1
  Na  Na1  1  0.27580715  0.54018306  0.55852700  1
  Na  Na2  1  0.47712516  0.93753880  0.16948541  1
  Na  Na3  1  0.53597598  0.06234953  0.83055897  1
  Na  Na4  1  0.73560602  0.45969196  0.44159332  1
  Na  Na5  1  0.83895915  0.68269632  0.10943323  1
  Al  Al6  1  0.15959670  0.71115344  0.34617286  1
  Al  Al7  1  0.44779261  0.28906161  0.65305583  1
  Al  Al8  1  0.74781803  0.87955542  0.65767332  1
  Al  Al9  1  0.86856468  0.12058061  0.34386206  1
  Fe  Fe10  1  0.99049548  0.99982787  0.99949895  1
  Si  Si11  1  0.13557795  0.87633794  0.65709800  1
  Si  Si12  1  0.15269717  0.70047470  0.87045735  1
  Si  Si13  1  0.25905422  0.12322164  0.34140821  1
  Si  Si14  1  0.53651156  0.69870504  0.87319922  1
  Si  Si15  1  0.55313714  0.70636820  0.34790229  1
  Si  Si16  1  0.45365318  0.29921453  0.12774570  1
  Si  Si17  1  0.84005495  0.30209840  0.12873772  1
  Si  Si18  1  0.84594896  0.29331188  0.65309738  1
  O  O19  1  0.07056485  0.80292139  0.98835245  1
  O  O20  1  0.05937338  0.71802811  0.49596277  1
  O  O21  1  0.01552392  0.46301519  0.79311920  1
  O  O22  1  0.25731862  0.92638877  0.32213015  1
  O  O23  1  0.19987045  0.78064144  0.74551264  1
  O  O24  1  0.05170198  0.08150133  0.28018161  1
  O  O25  1  0.33544362  0.65171114  0.36532806  1
  O  O26  1  0.35999505  0.73643085  0.93697568  1
  O  O27  1  0.27315373  0.19746395  0.00731131  1
  O  O28  1  0.34217793  0.28198614  0.50249496  1
  O  O29  1  0.57581696  0.78019503  0.75002183  1
  O  O30  1  0.43873573  0.46339927  0.79979696  1
  O  O31  1  0.66335708  0.90384754  0.32318423  1
  O  O32  1  0.33012850  0.07283345  0.67591808  1
  O  O33  1  0.55414781  0.53699778  0.20795952  1
  O  O34  1  0.41754228  0.21706368  0.25180962  1
  O  O35  1  0.66012340  0.71236537  0.48248153  1
  O  O36  1  0.71197591  0.80774369  0.00143178  1
  O  O37  1  0.62693919  0.26391370  0.06327658  1
  O  O38  1  0.68313012  0.34791483  0.63469579  1
  O  O39  1  0.97053717  0.91843670  0.71978596  1
  O  O40  1  0.79713767  0.22249586  0.25280828  1
  O  O41  1  0.75924919  0.09655389  0.67882743  1
  O  O42  1  0.97708644  0.53707691  0.19926384  1
  O  O43  1  0.94828981  0.28707724  0.51913502  1
  O  O44  1  0.90939443  0.19252514  0.00257175  1
