# generated using pymatgen
data_Ca3Be2Si3(HO6)2
_symmetry_space_group_name_H-M   'P 1'
_cell_length_a   9.89084123
_cell_length_b   9.89084123
_cell_length_c   9.92276126
_cell_angle_alpha   90.00000000
_cell_angle_beta   90.00000000
_cell_angle_gamma   90.00000000
_symmetry_Int_Tables_number   1
_chemical_formula_structural   Ca3Be2Si3(HO6)2
_chemical_formula_sum   'Ca12 Be8 Si12 H8 O48'
_cell_volume   970.73123374
_cell_formula_units_Z   4
loop_
 _symmetry_equiv_pos_site_id
 _symmetry_equiv_pos_as_xyz
  1  'x, y, z'
loop_
 _atom_site_type_symbol
 _atom_site_label
 _atom_site_symmetry_multiplicity
 _atom_site_fract_x
 _atom_site_fract_y
 _atom_site_fract_z
 _atom_site_occupancy
  Ca  Ca0  1  0.45600156  0.06303307  0.24118743  1
  Ca  Ca1  1  0.04399844  0.43696693  0.24118743  1
  Ca  Ca2  1  0.56303307  0.54399844  0.74118743  1
  Ca  Ca3  1  0.93696693  0.95600156  0.74118743  1
  Ca  Ca4  1  0.54399844  0.93696693  0.75881257  1
  Ca  Ca5  1  0.95600156  0.56303307  0.75881257  1
  Ca  Ca6  1  0.43696693  0.45600156  0.25881257  1
  Ca  Ca7  1  0.06303307  0.04399844  0.25881257  1
  Ca  Ca8  1  0.75000000  0.25000000  0.24033323  1
  Ca  Ca9  1  0.75000000  0.25000000  0.74033323  1
  Ca  Ca10  1  0.25000000  0.75000000  0.75966677  1
  Ca  Ca11  1  0.25000000  0.75000000  0.25966677  1
  Be  Be12  1  0.73240286  0.03697355  0.97365187  1
  Be  Be13  1  0.76759714  0.46302645  0.97365187  1
  Be  Be14  1  0.53697355  0.26759714  0.47365187  1
  Be  Be15  1  0.96302645  0.23240286  0.47365187  1
  Be  Be16  1  0.26759714  0.96302645  0.02634813  1
  Be  Be17  1  0.23240286  0.53697355  0.02634813  1
  Be  Be18  1  0.46302645  0.73240286  0.52634813  1
  Be  Be19  1  0.03697355  0.76759714  0.52634813  1
  Si  Si20  1  0.73738114  0.03817157  0.47046799  1
  Si  Si21  1  0.76261886  0.46182843  0.47046799  1
  Si  Si22  1  0.53817157  0.26261886  0.97046799  1
  Si  Si23  1  0.96182843  0.23738114  0.97046799  1
  Si  Si24  1  0.26261886  0.96182843  0.52953201  1
  Si  Si25  1  0.23738114  0.53817157  0.52953201  1
  Si  Si26  1  0.46182843  0.73738114  0.02953201  1
  Si  Si27  1  0.03817157  0.76261886  0.02953201  1
  Si  Si28  1  0.25000000  0.25000000  0.48925625  1
  Si  Si29  1  0.75000000  0.75000000  0.98925625  1
  Si  Si30  1  0.75000000  0.75000000  0.51074375  1
  Si  Si31  1  0.25000000  0.25000000  0.01074375  1
  H  H32  1  0.95298188  0.75597070  0.31935566  1
  H  H33  1  0.54701812  0.74402930  0.31935566  1
  H  H34  1  0.25597070  0.04701812  0.81935566  1
  H  H35  1  0.24402930  0.45298188  0.81935566  1
  H  H36  1  0.04701812  0.24402930  0.68064434  1
  H  H37  1  0.45298188  0.25597070  0.68064434  1
  H  H38  1  0.74402930  0.95298188  0.18064434  1
  H  H39  1  0.75597070  0.54701812  0.18064434  1
  O  O40  1  0.89060061  0.37310998  0.41265097  1
  O  O41  1  0.60939939  0.12689002  0.41265097  1
  O  O42  1  0.87310998  0.10939939  0.91265097  1
  O  O43  1  0.62689002  0.39060061  0.91265097  1
  O  O44  1  0.10939939  0.62689002  0.58734903  1
  O  O45  1  0.39060061  0.87310998  0.58734903  1
  O  O46  1  0.12689002  0.89060061  0.08734903  1
  O  O47  1  0.37310998  0.60939939  0.08734903  1
  O  O48  1  0.87600190  0.10545571  0.40645796  1
  O  O49  1  0.62399810  0.39454429  0.40645796  1
  O  O50  1  0.60545571  0.12399810  0.90645796  1
  O  O51  1  0.89454429  0.37600190  0.90645796  1
  O  O52  1  0.12399810  0.89454429  0.59354204  1
  O  O53  1  0.37600190  0.60545571  0.59354204  1
  O  O54  1  0.39454429  0.87600190  0.09354204  1
  O  O55  1  0.10545571  0.62399810  0.09354204  1
  O  O56  1  0.11299490  0.23274447  0.39861697  1
  O  O57  1  0.38700510  0.26725553  0.39861697  1
  O  O58  1  0.73274447  0.88700510  0.89861697  1
  O  O59  1  0.76725553  0.61299490  0.89861697  1
  O  O60  1  0.88700510  0.76725553  0.60138303  1
  O  O61  1  0.61299490  0.73274447  0.60138303  1
  O  O62  1  0.26725553  0.11299490  0.10138303  1
  O  O63  1  0.23274447  0.38700510  0.10138303  1
  O  O64  1  0.77294883  0.61855217  0.40863481  1
  O  O65  1  0.72705117  0.88144783  0.40863481  1
  O  O66  1  0.11855217  0.22705117  0.90863481  1
  O  O67  1  0.38144783  0.27294883  0.90863481  1
  O  O68  1  0.22705117  0.38144783  0.59136519  1
  O  O69  1  0.27294883  0.11855217  0.59136519  1
  O  O70  1  0.88144783  0.77294883  0.09136519  1
  O  O71  1  0.61855217  0.72705117  0.09136519  1
  O  O72  1  0.03371802  0.78987423  0.36403193  1
  O  O73  1  0.46628198  0.71012577  0.36403193  1
  O  O74  1  0.28987423  0.96628198  0.86403193  1
  O  O75  1  0.21012577  0.53371802  0.86403193  1
  O  O76  1  0.96628198  0.21012577  0.63596807  1
  O  O77  1  0.53371802  0.28987423  0.63596807  1
  O  O78  1  0.71012577  0.03371802  0.13596807  1
  O  O79  1  0.78987423  0.46628198  0.13596807  1
  O  O80  1  0.26617142  0.96697498  0.36550574  1
  O  O81  1  0.23382858  0.53302502  0.36550574  1
  O  O82  1  0.46697498  0.73382858  0.86550574  1
  O  O83  1  0.03302502  0.76617142  0.86550574  1
  O  O84  1  0.73382858  0.03302502  0.63449426  1
  O  O85  1  0.76617142  0.46697498  0.63449426  1
  O  O86  1  0.53302502  0.26617142  0.13449426  1
  O  O87  1  0.96697498  0.23382858  0.13449426  1
