# generated using pymatgen
data_Li3La2H6(N3O10)3
_symmetry_space_group_name_H-M   'P 1'
_cell_length_a   13.54133441
_cell_length_b   13.54133441
_cell_length_c   13.54133441
_cell_angle_alpha   90.00000000
_cell_angle_beta   90.00000000
_cell_angle_gamma   90.00000000
_symmetry_Int_Tables_number   1
_chemical_formula_structural   Li3La2H6(N3O10)3
_chemical_formula_sum   'Li12 La8 H24 N36 O120'
_cell_volume   2483.04385489
_cell_formula_units_Z   4
loop_
 _symmetry_equiv_pos_site_id
 _symmetry_equiv_pos_as_xyz
  1  'x, y, z'
loop_
 _atom_site_type_symbol
 _atom_site_label
 _atom_site_symmetry_multiplicity
 _atom_site_fract_x
 _atom_site_fract_y
 _atom_site_fract_z
 _atom_site_occupancy
  Li  Li0  1  0.20169534  0.95391114  0.77882011  1
  Li  Li1  1  0.22117989  0.70169534  0.54608886  1
  Li  Li2  1  0.45391114  0.72117989  0.79830466  1
  Li  Li3  1  0.70169534  0.54608886  0.22117989  1
  Li  Li4  1  0.72117989  0.79830466  0.45391114  1
  Li  Li5  1  0.95391114  0.77882011  0.20169534  1
  Li  Li6  1  0.79830466  0.45391114  0.72117989  1
  Li  Li7  1  0.77882011  0.20169534  0.95391114  1
  Li  Li8  1  0.54608886  0.22117989  0.70169534  1
  Li  Li9  1  0.29830466  0.04608886  0.27882011  1
  Li  Li10  1  0.27882011  0.29830466  0.04608886  1
  Li  Li11  1  0.04608886  0.27882011  0.29830466  1
  La  La12  1  0.03174212  0.53174212  0.96825788  1
  La  La13  1  0.53174212  0.96825788  0.03174212  1
  La  La14  1  0.96825788  0.03174212  0.53174212  1
  La  La15  1  0.46825788  0.46825788  0.46825788  1
  La  La16  1  0.77779961  0.77779961  0.77779961  1
  La  La17  1  0.22220039  0.27779961  0.72220039  1
  La  La18  1  0.27779961  0.72220039  0.22220039  1
  La  La19  1  0.72220039  0.22220039  0.27779961  1
  H  H20  1  0.03877992  0.64844211  0.52606556  1
  H  H21  1  0.47393444  0.53877992  0.85155789  1
  H  H22  1  0.14844211  0.97393444  0.96122008  1
  H  H23  1  0.53877992  0.85155789  0.47393444  1
  H  H24  1  0.97393444  0.96122008  0.14844211  1
  H  H25  1  0.64844211  0.52606556  0.03877992  1
  H  H26  1  0.96122008  0.14844211  0.97393444  1
  H  H27  1  0.52606556  0.03877992  0.64844211  1
  H  H28  1  0.85155789  0.47393444  0.53877992  1
  H  H29  1  0.46122008  0.35155789  0.02606556  1
  H  H30  1  0.02606556  0.46122008  0.35155789  1
  H  H31  1  0.35155789  0.02606556  0.46122008  1
  H  H32  1  0.09856392  0.56919089  0.58274907  1
  H  H33  1  0.41725093  0.59856392  0.93080911  1
  H  H34  1  0.06919089  0.91725093  0.90143608  1
  H  H35  1  0.59856392  0.93080911  0.41725093  1
  H  H36  1  0.91725093  0.90143608  0.06919089  1
  H  H37  1  0.56919089  0.58274907  0.09856392  1
  H  H38  1  0.90143608  0.06919089  0.91725093  1
  H  H39  1  0.58274907  0.09856392  0.56919089  1
  H  H40  1  0.93080911  0.41725093  0.59856392  1
  H  H41  1  0.40143608  0.43080911  0.08274907  1
  H  H42  1  0.08274907  0.40143608  0.43080911  1
  H  H43  1  0.43080911  0.08274907  0.40143608  1
  N  N44  1  0.23784485  0.62671832  0.01120757  1
  N  N45  1  0.98879243  0.73784485  0.87328168  1
  N  N46  1  0.12671832  0.48879243  0.76215515  1
  N  N47  1  0.73784485  0.87328168  0.98879243  1
  N  N48  1  0.48879243  0.76215515  0.12671832  1
  N  N49  1  0.62671832  0.01120757  0.23784485  1
  N  N50  1  0.76215515  0.12671832  0.48879243  1
  N  N51  1  0.01120757  0.23784485  0.62671832  1
  N  N52  1  0.87328168  0.98879243  0.73784485  1
  N  N53  1  0.26215515  0.37328168  0.51120757  1
  N  N54  1  0.51120757  0.26215515  0.37328168  1
  N  N55  1  0.37328168  0.51120757  0.26215515  1
  N  N56  1  0.38643639  0.60897554  0.62926210  1
  N  N57  1  0.37073790  0.88643639  0.89102446  1
  N  N58  1  0.10897554  0.87073790  0.61356361  1
  N  N59  1  0.88643639  0.89102446  0.37073790  1
  N  N60  1  0.87073790  0.61356361  0.10897554  1
  N  N61  1  0.60897554  0.62926210  0.38643639  1
  N  N62  1  0.61356361  0.10897554  0.87073790  1
  N  N63  1  0.62926210  0.38643639  0.60897554  1
  N  N64  1  0.89102446  0.37073790  0.88643639  1
  N  N65  1  0.11356361  0.39102446  0.12926210  1
  N  N66  1  0.12926210  0.11356361  0.39102446  1
  N  N67  1  0.39102446  0.12926210  0.11356361  1
  N  N68  1  0.70842500  0.57704495  0.85370465  1
  N  N69  1  0.14629535  0.20842500  0.92295505  1
  N  N70  1  0.07704495  0.64629535  0.29157500  1
  N  N71  1  0.20842500  0.92295505  0.14629535  1
  N  N72  1  0.64629535  0.29157500  0.07704495  1
  N  N73  1  0.57704495  0.85370465  0.70842500  1
  N  N74  1  0.29157500  0.07704495  0.64629535  1
  N  N75  1  0.85370465  0.70842500  0.57704495  1
  N  N76  1  0.92295505  0.14629535  0.20842500  1
  N  N77  1  0.79157500  0.42295505  0.35370465  1
  N  N78  1  0.35370465  0.79157500  0.42295505  1
  N  N79  1  0.42295505  0.35370465  0.79157500  1
  O  O80  1  0.87295378  0.92228537  0.66966550  1
  O  O81  1  0.33033450  0.37295378  0.57771463  1
  O  O82  1  0.42228537  0.83033450  0.12704622  1
  O  O83  1  0.37295378  0.57771463  0.33033450  1
  O  O84  1  0.83033450  0.12704622  0.42228537  1
  O  O85  1  0.92228537  0.66966550  0.87295378  1
  O  O86  1  0.12704622  0.42228537  0.83033450  1
  O  O87  1  0.66966550  0.87295378  0.92228537  1
  O  O88  1  0.57771463  0.33033450  0.37295378  1
  O  O89  1  0.62704622  0.07771463  0.16966550  1
  O  O90  1  0.16966550  0.62704622  0.07771463  1
  O  O91  1  0.07771463  0.16966550  0.62704622  1
  O  O92  1  0.22294179  0.58178095  0.93188075  1
  O  O93  1  0.06811925  0.72294179  0.91821905  1
  O  O94  1  0.08178095  0.56811925  0.77705821  1
  O  O95  1  0.72294179  0.91821905  0.06811925  1
  O  O96  1  0.56811925  0.77705821  0.08178095  1
  O  O97  1  0.58178095  0.93188075  0.22294179  1
  O  O98  1  0.77705821  0.08178095  0.56811925  1
  O  O99  1  0.93188075  0.22294179  0.58178095  1
  O  O100  1  0.91821905  0.06811925  0.72294179  1
  O  O101  1  0.27705821  0.41821905  0.43188075  1
  O  O102  1  0.43188075  0.27705821  0.41821905  1
  O  O103  1  0.41821905  0.43188075  0.27705821  1
  O  O104  1  0.82896692  0.97116599  0.81771050  1
  O  O105  1  0.18228950  0.32896692  0.52883401  1
  O  O106  1  0.47116599  0.68228950  0.17103308  1
  O  O107  1  0.32896692  0.52883401  0.18228950  1
  O  O108  1  0.68228950  0.17103308  0.47116599  1
  O  O109  1  0.97116599  0.81771050  0.82896692  1
  O  O110  1  0.17103308  0.47116599  0.68228950  1
  O  O111  1  0.81771050  0.82896692  0.97116599  1
  O  O112  1  0.52883401  0.18228950  0.32896692  1
  O  O113  1  0.67103308  0.02883401  0.31771050  1
  O  O114  1  0.31771050  0.67103308  0.02883401  1
  O  O115  1  0.02883401  0.31771050  0.67103308  1
  O  O116  1  0.33930352  0.59595284  0.54744706  1
  O  O117  1  0.45255294  0.83930352  0.90404716  1
  O  O118  1  0.09595284  0.95255294  0.66069648  1
  O  O119  1  0.83930352  0.90404716  0.45255294  1
  O  O120  1  0.95255294  0.66069648  0.09595284  1
  O  O121  1  0.59595284  0.54744706  0.33930352  1
  O  O122  1  0.66069648  0.09595284  0.95255294  1
  O  O123  1  0.54744706  0.33930352  0.59595284  1
  O  O124  1  0.90404716  0.45255294  0.83930352  1
  O  O125  1  0.16069648  0.40404716  0.04744706  1
  O  O126  1  0.04744706  0.16069648  0.40404716  1
  O  O127  1  0.40404716  0.04744706  0.16069648  1
  O  O128  1  0.05691967  0.85656204  0.53690822  1
  O  O129  1  0.46309178  0.55691967  0.64343796  1
  O  O130  1  0.35656204  0.96309178  0.94308033  1
  O  O131  1  0.55691967  0.64343796  0.46309178  1
  O  O132  1  0.96309178  0.94308033  0.35656204  1
  O  O133  1  0.85656204  0.53690822  0.05691967  1
  O  O134  1  0.94308033  0.35656204  0.96309178  1
  O  O135  1  0.53690822  0.05691967  0.85656204  1
  O  O136  1  0.64343796  0.46309178  0.55691967  1
  O  O137  1  0.44308033  0.14343796  0.03690822  1
  O  O138  1  0.03690822  0.44308033  0.14343796  1
  O  O139  1  0.14343796  0.03690822  0.44308033  1
  O  O140  1  0.35635632  0.67135880  0.68986434  1
  O  O141  1  0.31013566  0.85635632  0.82864120  1
  O  O142  1  0.17135880  0.81013566  0.64364368  1
  O  O143  1  0.85635632  0.82864120  0.31013566  1
  O  O144  1  0.81013566  0.64364368  0.17135880  1
  O  O145  1  0.67135880  0.68986434  0.35635632  1
  O  O146  1  0.64364368  0.17135880  0.81013566  1
  O  O147  1  0.68986434  0.35635632  0.67135880  1
  O  O148  1  0.82864120  0.31013566  0.85635632  1
  O  O149  1  0.14364368  0.32864120  0.18986434  1
  O  O150  1  0.18986434  0.14364368  0.32864120  1
  O  O151  1  0.32864120  0.18986434  0.14364368  1
  O  O152  1  0.70120861  0.65582151  0.90444555  1
  O  O153  1  0.09555445  0.20120861  0.84417849  1
  O  O154  1  0.15582151  0.59555445  0.29879139  1
  O  O155  1  0.20120861  0.84417849  0.09555445  1
  O  O156  1  0.59555445  0.29879139  0.15582151  1
  O  O157  1  0.65582151  0.90444555  0.70120861  1
  O  O158  1  0.29879139  0.15582151  0.59555445  1
  O  O159  1  0.90444555  0.70120861  0.65582151  1
  O  O160  1  0.84417849  0.09555445  0.20120861  1
  O  O161  1  0.79879139  0.34417849  0.40444555  1
  O  O162  1  0.40444555  0.79879139  0.34417849  1
  O  O163  1  0.34417849  0.40444555  0.79879139  1
  O  O164  1  0.74083354  0.58699167  0.76376410  1
  O  O165  1  0.23623590  0.24083354  0.91300833  1
  O  O166  1  0.08699167  0.73623590  0.25916646  1
  O  O167  1  0.24083354  0.91300833  0.23623590  1
  O  O168  1  0.73623590  0.25916646  0.08699167  1
  O  O169  1  0.58699167  0.76376410  0.74083354  1
  O  O170  1  0.25916646  0.08699167  0.73623590  1
  O  O171  1  0.76376410  0.74083354  0.58699167  1
  O  O172  1  0.91300833  0.23623590  0.24083354  1
  O  O173  1  0.75916646  0.41300833  0.26376410  1
  O  O174  1  0.26376410  0.75916646  0.41300833  1
  O  O175  1  0.41300833  0.26376410  0.75916646  1
  O  O176  1  0.49452174  0.88667010  0.68756731  1
  O  O177  1  0.31243269  0.99452174  0.61332990  1
  O  O178  1  0.38667010  0.81243269  0.50547826  1
  O  O179  1  0.99452174  0.61332990  0.31243269  1
  O  O180  1  0.81243269  0.50547826  0.38667010  1
  O  O181  1  0.88667010  0.68756731  0.49452174  1
  O  O182  1  0.50547826  0.38667010  0.81243269  1
  O  O183  1  0.68756731  0.49452174  0.88667010  1
  O  O184  1  0.61332990  0.31243269  0.99452174  1
  O  O185  1  0.00547826  0.11332990  0.18756731  1
  O  O186  1  0.18756731  0.00547826  0.11332990  1
  O  O187  1  0.11332990  0.18756731  0.00547826  1
  O  O188  1  0.10419219  0.61754450  0.52972242  1
  O  O189  1  0.47027758  0.60419219  0.88245550  1
  O  O190  1  0.11754450  0.97027758  0.89580781  1
  O  O191  1  0.60419219  0.88245550  0.47027758  1
  O  O192  1  0.97027758  0.89580781  0.11754450  1
  O  O193  1  0.61754450  0.52972242  0.10419219  1
  O  O194  1  0.89580781  0.11754450  0.97027758  1
  O  O195  1  0.52972242  0.10419219  0.61754450  1
  O  O196  1  0.88245550  0.47027758  0.60419219  1
  O  O197  1  0.39580781  0.38245550  0.02972242  1
  O  O198  1  0.02972242  0.39580781  0.38245550  1
  O  O199  1  0.38245550  0.02972242  0.39580781  1
