# generated using pymatgen
data_B5H7
_symmetry_space_group_name_H-M   'P 1'
_cell_length_a   12.46380596
_cell_length_b   12.47392009
_cell_length_c   5.63607924
_cell_angle_alpha   90.00000000
_cell_angle_beta   90.00000000
_cell_angle_gamma   70.06020432
_symmetry_Int_Tables_number   1
_chemical_formula_structural   B5H7
_chemical_formula_sum   'B40 H56'
_cell_volume   823.72522694
_cell_formula_units_Z   8
loop_
 _symmetry_equiv_pos_site_id
 _symmetry_equiv_pos_as_xyz
  1  'x, y, z'
loop_
 _atom_site_type_symbol
 _atom_site_label
 _atom_site_symmetry_multiplicity
 _atom_site_fract_x
 _atom_site_fract_y
 _atom_site_fract_z
 _atom_site_occupancy
  B  B0  1  0.13545672  0.20186066  0.99969588  1
  B  B1  1  0.86454328  0.79813934  0.00030412  1
  B  B2  1  0.63545672  0.70186066  0.00030412  1
  B  B3  1  0.36454328  0.29813934  0.99969588  1
  B  B4  1  0.79696967  0.36552569  0.49516309  1
  B  B5  1  0.20303033  0.63447431  0.50483691  1
  B  B6  1  0.29696967  0.86552569  0.50483691  1
  B  B7  1  0.70303033  0.13447431  0.49516309  1
  B  B8  1  0.20232516  0.39748605  0.00076807  1
  B  B9  1  0.79767484  0.60251395  0.99923193  1
  B  B10  1  0.70232516  0.89748605  0.99923193  1
  B  B11  1  0.29767484  0.10251395  0.00076807  1
  B  B12  1  0.60276593  0.29624759  0.49607120  1
  B  B13  1  0.39723407  0.70375241  0.50392880  1
  B  B14  1  0.10276593  0.79624759  0.50392880  1
  B  B15  1  0.89723407  0.20375241  0.49607120  1
  B  B16  1  0.12738491  0.32499281  0.17280472  1
  B  B17  1  0.87261509  0.67500719  0.82719528  1
  B  B18  1  0.62738491  0.82499281  0.82719528  1
  B  B19  1  0.37261509  0.17500719  0.17280472  1
  B  B20  1  0.67391149  0.37220245  0.32329392  1
  B  B21  1  0.32608851  0.62779755  0.67670608  1
  B  B22  1  0.17391149  0.87220245  0.67670608  1
  B  B23  1  0.82608851  0.12779755  0.32329392  1
  B  B24  1  0.27110735  0.31116397  0.23901751  1
  B  B25  1  0.72889265  0.68883603  0.76098249  1
  B  B26  1  0.77110735  0.81116397  0.76098249  1
  B  B27  1  0.22889265  0.18883603  0.23901751  1
  B  B28  1  0.68906802  0.22841390  0.25700120  1
  B  B29  1  0.31093198  0.77158610  0.74299880  1
  B  B30  1  0.18906802  0.72841390  0.74299880  1
  B  B31  1  0.81093198  0.27158610  0.25700120  1
  B  B32  1  0.10324421  0.33987792  0.87035496  1
  B  B33  1  0.89675579  0.66012208  0.12964504  1
  B  B34  1  0.60324421  0.83987792  0.12964504  1
  B  B35  1  0.39675579  0.16012208  0.87035496  1
  B  B36  1  0.65913701  0.39637668  0.62566709  1
  B  B37  1  0.34086299  0.60362332  0.37433291  1
  B  B38  1  0.15913701  0.89637668  0.37433291  1
  B  B39  1  0.84086299  0.10362332  0.62566709  1
  H  H40  1  0.06671683  0.15518726  0.99288094  1
  H  H41  1  0.93328317  0.84481274  0.00711906  1
  H  H42  1  0.56671683  0.65518726  0.00711906  1
  H  H43  1  0.43328317  0.34481274  0.99288094  1
  H  H44  1  0.84301385  0.43469112  0.50003874  1
  H  H45  1  0.15698615  0.56530888  0.49996126  1
  H  H46  1  0.34301385  0.93469112  0.49996126  1
  H  H47  1  0.65698615  0.06530888  0.50003874  1
  H  H48  1  0.05267217  0.37076367  0.30799178  1
  H  H49  1  0.94732783  0.62923633  0.69200822  1
  H  H50  1  0.55267217  0.87076367  0.69200822  1
  H  H51  1  0.44732783  0.12923633  0.30799178  1
  H  H52  1  0.62758512  0.44624919  0.18729673  1
  H  H53  1  0.37241488  0.55375081  0.81270327  1
  H  H54  1  0.12758512  0.94624919  0.81270327  1
  H  H55  1  0.87241488  0.05375081  0.18729673  1
  H  H56  1  0.02001067  0.39099158  0.76271569  1
  H  H57  1  0.97998933  0.60900842  0.23728431  1
  H  H58  1  0.52001067  0.89099158  0.23728431  1
  H  H59  1  0.47998933  0.10900842  0.76271569  1
  H  H60  1  0.60759746  0.47911759  0.73510723  1
  H  H61  1  0.39240254  0.52088241  0.26489277  1
  H  H62  1  0.10759746  0.97911759  0.26489277  1
  H  H63  1  0.89240254  0.02088241  0.73510723  1
  H  H64  1  0.18324906  0.49768599  0.99436403  1
  H  H65  1  0.81675094  0.50231401  0.00563597  1
  H  H66  1  0.68324906  0.99768599  0.00563597  1
  H  H67  1  0.31675094  0.00231401  0.99436403  1
  H  H68  1  0.50264909  0.31428026  0.50207212  1
  H  H69  1  0.49735091  0.68571974  0.49792788  1
  H  H70  1  0.00264909  0.81428026  0.49792788  1
  H  H71  1  0.99735091  0.18571974  0.50207212  1
  H  H72  1  0.28872668  0.36171754  0.40598961  1
  H  H73  1  0.71127332  0.63828246  0.59401039  1
  H  H74  1  0.78872668  0.86171754  0.59401039  1
  H  H75  1  0.21127332  0.13828246  0.40598961  1
  H  H76  1  0.63871695  0.21024450  0.09002289  1
  H  H77  1  0.36128305  0.78975550  0.90997711  1
  H  H78  1  0.13871695  0.71024450  0.90997711  1
  H  H79  1  0.86128305  0.28975550  0.09002289  1
  H  H80  1  0.14435814  0.23387215  0.77810106  1
  H  H81  1  0.85564186  0.76612785  0.22189894  1
  H  H82  1  0.64435814  0.73387215  0.22189894  1
  H  H83  1  0.35564186  0.26612785  0.77810106  1
  H  H84  1  0.76537287  0.35768161  0.71753956  1
  H  H85  1  0.23462713  0.64231839  0.28246044  1
  H  H86  1  0.26537287  0.85768161  0.28246044  1
  H  H87  1  0.73462713  0.14231839  0.71753956  1
  H  H88  1  0.18939127  0.36909747  0.77825566  1
  H  H89  1  0.81060873  0.63090253  0.22174434  1
  H  H90  1  0.68939127  0.86909747  0.22174434  1
  H  H91  1  0.31060873  0.13090253  0.77825566  1
  H  H92  1  0.63220104  0.30886891  0.71788540  1
  H  H93  1  0.36779896  0.69113109  0.28211460  1
  H  H94  1  0.13220104  0.80886891  0.28211460  1
  H  H95  1  0.86779896  0.19113109  0.71788540  1
