# generated using pymatgen
data_InH5(NF)2
_symmetry_space_group_name_H-M   'P 1'
_cell_length_a   7.83749296
_cell_length_b   5.47927758
_cell_length_c   8.84796966
_cell_angle_alpha   90.00000000
_cell_angle_beta   95.10802360
_cell_angle_gamma   90.00000000
_symmetry_Int_Tables_number   1
_chemical_formula_structural   InH5(NF)2
_chemical_formula_sum   'In4 H20 N8 F8'
_cell_volume   378.45644261
_cell_formula_units_Z   4
loop_
 _symmetry_equiv_pos_site_id
 _symmetry_equiv_pos_as_xyz
  1  'x, y, z'
loop_
 _atom_site_type_symbol
 _atom_site_label
 _atom_site_symmetry_multiplicity
 _atom_site_fract_x
 _atom_site_fract_y
 _atom_site_fract_z
 _atom_site_occupancy
  In  In0  1  0.64410439  0.56185512  0.36104241  1
  In  In1  1  0.14410439  0.93814488  0.86104241  1
  In  In2  1  0.35589561  0.43814488  0.63895759  1
  In  In3  1  0.85589561  0.06185512  0.13895759  1
  H  H4  1  0.95196205  0.79025967  0.39116512  1
  H  H5  1  0.45196205  0.70974033  0.89116512  1
  H  H6  1  0.04803795  0.20974033  0.60883488  1
  H  H7  1  0.54803795  0.29025967  0.10883488  1
  H  H8  1  0.80636287  0.99309501  0.42566591  1
  H  H9  1  0.30636287  0.50690499  0.92566591  1
  H  H10  1  0.19363713  0.00690499  0.57433409  1
  H  H11  1  0.69363713  0.49309501  0.07433409  1
  H  H12  1  0.43950515  0.97727996  0.33604506  1
  H  H13  1  0.93950515  0.52272004  0.83604506  1
  H  H14  1  0.56049485  0.02272004  0.66395494  1
  H  H15  1  0.06049485  0.47727996  0.16395494  1
  H  H16  1  0.31031448  0.74122076  0.31521558  1
  H  H17  1  0.81031448  0.75877924  0.81521558  1
  H  H18  1  0.68968552  0.25877924  0.68478442  1
  H  H19  1  0.18968552  0.24122076  0.18478442  1
  H  H20  1  0.41131942  0.84425680  0.16867463  1
  H  H21  1  0.91131942  0.65574320  0.66867463  1
  H  H22  1  0.58868058  0.15574320  0.83132537  1
  H  H23  1  0.08868058  0.34425680  0.33132537  1
  N  N24  1  0.83349796  0.85662432  0.35106590  1
  N  N25  1  0.33349796  0.64337568  0.85106590  1
  N  N26  1  0.16650204  0.14337568  0.64893410  1
  N  N27  1  0.66650204  0.35662432  0.14893410  1
  N  N28  1  0.42366030  0.81060687  0.28313496  1
  N  N29  1  0.92366030  0.68939313  0.78313496  1
  N  N30  1  0.57633970  0.18939313  0.71686504  1
  N  N31  1  0.07633970  0.31060687  0.21686504  1
  F  F32  1  0.56199084  0.69522011  0.58516005  1
  F  F33  1  0.06199084  0.80477989  0.08516005  1
  F  F34  1  0.43800916  0.30477989  0.41483995  1
  F  F35  1  0.93800916  0.19522011  0.91483995  1
  F  F36  1  0.81789215  0.33829507  0.50019695  1
  F  F37  1  0.31789215  0.16170493  0.00019695  1
  F  F38  1  0.18210785  0.66170493  0.49980305  1
  F  F39  1  0.68210785  0.83829507  0.99980305  1
