# generated using pymatgen
data_Sr2Ca6FeCo7O24
_symmetry_space_group_name_H-M   'P 1'
_cell_length_a   7.66043141
_cell_length_b   7.61402208
_cell_length_c   7.61402208
_cell_angle_alpha   89.93082702
_cell_angle_beta   90.00000000
_cell_angle_gamma   90.00000000
_symmetry_Int_Tables_number   1
_chemical_formula_structural   Sr2Ca6FeCo7O24
_chemical_formula_sum   'Sr2 Ca6 Fe1 Co7 O24'
_cell_volume   444.10041122
_cell_formula_units_Z   1
loop_
 _symmetry_equiv_pos_site_id
 _symmetry_equiv_pos_as_xyz
  1  'x, y, z'
loop_
 _atom_site_type_symbol
 _atom_site_label
 _atom_site_symmetry_multiplicity
 _atom_site_fract_x
 _atom_site_fract_y
 _atom_site_fract_z
 _atom_site_occupancy
  Sr  Sr0  1  0.25056223  0.25283074  0.74716926  1
  Sr  Sr1  1  0.74943777  0.25283074  0.74716926  1
  Ca  Ca2  1  0.25008613  0.25306087  0.25281159  1
  Ca  Ca3  1  0.25045068  0.74648037  0.25351963  1
  Ca  Ca4  1  0.25008613  0.74718841  0.74693913  1
  Ca  Ca5  1  0.74991387  0.25306087  0.25281159  1
  Ca  Ca6  1  0.74954932  0.74648037  0.25351963  1
  Ca  Ca7  1  0.74991387  0.74718841  0.74693913  1
  Fe  Fe8  1  -0.00000000  0.99888403  0.00111597  1
  Co  Co9  1  -0.00000000  0.99805916  0.49838138  1
  Co  Co10  1  -0.00000000  0.50161862  0.00194084  1
  Co  Co11  1  -0.00000000  0.50112487  0.49887513  1
  Co  Co12  1  0.50000000  0.99807635  0.00192365  1
  Co  Co13  1  0.50000000  0.99865565  0.49889716  1
  Co  Co14  1  0.50000000  0.50110284  0.00134435  1
  Co  Co15  1  0.50000000  0.50168828  0.49831172  1
  O  O16  1  0.26491041  0.99678220  0.00321780  1
  O  O17  1  0.24488994  0.99607836  0.49606130  1
  O  O18  1  0.24488994  0.50393870  0.00392164  1
  O  O19  1  0.25101194  0.50407442  0.49592558  1
  O  O20  1  0.73508959  0.99678220  0.00321780  1
  O  O21  1  0.75511006  0.99607836  0.49606130  1
  O  O22  1  0.75511006  0.50393870  0.00392164  1
  O  O23  1  0.74898806  0.50407442  0.49592558  1
  O  O24  1  -0.00000000  0.25169833  0.00598941  1
  O  O25  1  -0.00000000  0.24640856  0.49360521  1
  O  O26  1  -0.00000000  0.74798237  0.00187552  1
  O  O27  1  -0.00000000  0.75311584  0.49883051  1
  O  O28  1  0.50000000  0.25809871  0.00650078  1
  O  O29  1  0.50000000  0.25638080  0.49479628  1
  O  O30  1  0.50000000  0.74220661  0.00090629  1
  O  O31  1  0.50000000  0.74433096  0.49779614  1
  O  O32  1  -0.00000000  0.99812448  0.25201763  1
  O  O33  1  -0.00000000  0.99401059  0.74830167  1
  O  O34  1  -0.00000000  0.50116949  0.24688416  1
  O  O35  1  -0.00000000  0.50639479  0.75359144  1
  O  O36  1  0.50000000  0.99909371  0.25779339  1
  O  O37  1  0.50000000  0.99349922  0.74190129  1
  O  O38  1  0.50000000  0.50220386  0.25566904  1
  O  O39  1  0.50000000  0.50520372  0.74361920  1
