# generated using pymatgen
data_La7SmMn7FeO24
_symmetry_space_group_name_H-M   'P 1'
_cell_length_a   7.88115014
_cell_length_b   7.88115014
_cell_length_c   7.88115014
_cell_angle_alpha   90.00141008
_cell_angle_beta   89.99858992
_cell_angle_gamma   89.99858992
_symmetry_Int_Tables_number   1
_chemical_formula_structural   La7SmMn7FeO24
_chemical_formula_sum   'La7 Sm1 Mn7 Fe1 O24'
_cell_volume   489.51815481
_cell_formula_units_Z   1
loop_
 _symmetry_equiv_pos_site_id
 _symmetry_equiv_pos_as_xyz
  1  'x, y, z'
loop_
 _atom_site_type_symbol
 _atom_site_label
 _atom_site_symmetry_multiplicity
 _atom_site_fract_x
 _atom_site_fract_y
 _atom_site_fract_z
 _atom_site_occupancy
  La  La0  1  0.25098849  0.25095358  0.25095358  1
  La  La1  1  0.25094983  0.25096464  0.74905017  1
  La  La2  1  0.25094983  0.74905017  0.25096464  1
  La  La3  1  0.25094783  0.74905217  0.74905217  1
  La  La4  1  0.74904642  0.25095358  0.74901151  1
  La  La5  1  0.74904642  0.74901151  0.25095358  1
  La  La6  1  0.74903536  0.74905017  0.74905017  1
  Sm  Sm7  1  0.74892021  0.25107979  0.25107979  1
  Mn  Mn8  1  0.99968062  0.00031938  0.49969846  1
  Mn  Mn9  1  0.99968062  0.49969846  0.00031938  1
  Mn  Mn10  1  0.99968366  0.49966600  0.49966600  1
  Mn  Mn11  1  0.50030154  0.00031938  0.00031938  1
  Mn  Mn12  1  0.50033400  0.00031634  0.49966600  1
  Mn  Mn13  1  0.50033400  0.49966600  0.00031634  1
  Mn  Mn14  1  0.50031812  0.49968188  0.49968188  1
  Fe  Fe15  1  0.99962593  0.00037407  0.00037407  1
  O  O16  1  0.24955803  0.00008857  0.00008857  1
  O  O17  1  0.25053487  0.00009002  0.49993839  1
  O  O18  1  0.25053487  0.49993839  0.00009002  1
  O  O19  1  0.24780578  0.49991084  0.49991084  1
  O  O20  1  0.75036317  0.00140005  0.00140005  1
  O  O21  1  0.74947408  0.00147039  0.49850689  1
  O  O22  1  0.74947408  0.49850689  0.00147039  1
  O  O23  1  0.75220011  0.49848878  0.49848878  1
  O  O24  1  0.99859995  0.24963683  0.00140005  1
  O  O25  1  0.99852961  0.25052592  0.49850689  1
  O  O26  1  0.99991143  0.75044197  0.00008857  1
  O  O27  1  0.99990998  0.74946513  0.49993839  1
  O  O28  1  0.50149311  0.25052592  0.00147039  1
  O  O29  1  0.50151122  0.24779989  0.49848878  1
  O  O30  1  0.50006161  0.74946513  0.00009002  1
  O  O31  1  0.50008916  0.75219422  0.49991084  1
  O  O32  1  0.99859995  0.00140005  0.24963683  1
  O  O33  1  0.99991143  0.00008857  0.75044197  1
  O  O34  1  0.99852961  0.49850689  0.25052592  1
  O  O35  1  0.99990998  0.49993839  0.74946513  1
  O  O36  1  0.50149311  0.00147039  0.25052592  1
  O  O37  1  0.50006161  0.00009002  0.74946513  1
  O  O38  1  0.50151122  0.49848878  0.24779989  1
  O  O39  1  0.50008916  0.49991084  0.75219422  1
