# generated using pymatgen
data_Mg3Ti9O20
_symmetry_space_group_name_H-M   'P 1'
_cell_length_a   5.26478568
_cell_length_b   7.50694331
_cell_length_c   10.80395170
_cell_angle_alpha   74.66360929
_cell_angle_beta   82.70914172
_cell_angle_gamma   109.69095092
_symmetry_Int_Tables_number   1
_chemical_formula_structural   Mg3Ti9O20
_chemical_formula_sum   'Mg3 Ti9 O20'
_cell_volume   376.58033881
_cell_formula_units_Z   1
loop_
 _symmetry_equiv_pos_site_id
 _symmetry_equiv_pos_as_xyz
  1  'x, y, z'
loop_
 _atom_site_type_symbol
 _atom_site_label
 _atom_site_symmetry_multiplicity
 _atom_site_fract_x
 _atom_site_fract_y
 _atom_site_fract_z
 _atom_site_occupancy
  Mg  Mg0  1  0.58342397  0.97339508  0.24894474  1
  Mg  Mg1  1  0.08172223  0.47210560  0.25039178  1
  Mg  Mg2  1  0.91805400  0.52986964  0.74890476  1
  Ti  Ti3  1  0.17237784  0.89499015  0.06877552  1
  Ti  Ti4  1  0.33035941  0.59632833  0.93593657  1
  Ti  Ti5  1  0.51958756  0.78513575  0.56269857  1
  Ti  Ti6  1  0.01884570  0.29035266  0.56230342  1
  Ti  Ti7  1  0.66784007  0.40097408  0.06508282  1
  Ti  Ti8  1  0.49054465  0.21582843  0.43019601  1
  Ti  Ti9  1  0.98544190  0.71660570  0.43433924  1
  Ti  Ti10  1  0.41686477  0.02937547  0.74940763  1
  Ti  Ti11  1  0.83091565  0.10121058  0.93742218  1
  O  O12  1  0.31309351  0.93896428  0.43551116  1
  O  O13  1  0.20691093  0.76534121  0.24824848  1
  O  O14  1  0.29379016  0.75085291  0.74992098  1
  O  O15  1  0.00639635  0.37887706  0.92905129  1
  O  O16  1  0.18681486  0.56057663  0.56961647  1
  O  O17  1  0.50056259  0.87887533  0.93185064  1
  O  O18  1  0.37217863  0.46413023  0.11339290  1
  O  O19  1  0.23985384  0.32913599  0.38971883  1
  O  O20  1  0.73716049  0.82819969  0.38618799  1
  O  O21  1  0.88191438  0.96866914  0.10974094  1
  O  O22  1  0.76374400  0.67395289  0.61299530  1
  O  O23  1  0.26681485  0.16877083  0.61969698  1
  O  O24  1  0.13471554  0.03574171  0.87930805  1
  O  O25  1  0.62406622  0.53347747  0.88642852  1
  O  O26  1  0.99725211  0.62397596  0.06295552  1
  O  O27  1  0.50516433  0.12453441  0.06259001  1
  O  O28  1  0.81612772  0.43799217  0.43767801  1
  O  O29  1  0.70465957  0.26550227  0.25066406  1
  O  O30  1  0.77691052  0.22904566  0.74937429  1
  O  O31  1  0.68238463  0.06187170  0.56784831  1
