# generated using pymatgen
data_KB6P(H2O7)2
_symmetry_space_group_name_H-M   'P 1'
_cell_length_a   12.27398109
_cell_length_b   12.27398009
_cell_length_c   7.68284237
_cell_angle_alpha   90.00000000
_cell_angle_beta   90.00000000
_cell_angle_gamma   90.00000000
_symmetry_Int_Tables_number   1
_chemical_formula_structural   KB6P(H2O7)2
_chemical_formula_sum   'K4 B24 P4 H16 O56'
_cell_volume   1157.42480909
_cell_formula_units_Z   4
loop_
 _symmetry_equiv_pos_site_id
 _symmetry_equiv_pos_as_xyz
  1  'x, y, z'
loop_
 _atom_site_type_symbol
 _atom_site_label
 _atom_site_symmetry_multiplicity
 _atom_site_fract_x
 _atom_site_fract_y
 _atom_site_fract_z
 _atom_site_occupancy
  K  K0  1  0.25000000  0.25000000  0.88821739  1
  K  K1  1  0.25000000  0.25000000  0.38821739  1
  K  K2  1  0.75000000  0.75000000  0.11178261  1
  K  K3  1  0.75000000  0.75000000  0.61178261  1
  B  B4  1  0.05385716  0.07132193  0.18507133  1
  B  B5  1  0.05385716  0.42867807  0.68507133  1
  B  B6  1  0.07132193  0.44614284  0.18507133  1
  B  B7  1  0.07132193  0.05385716  0.68507133  1
  B  B8  1  0.13401716  0.63401416  0.25000000  1
  B  B9  1  0.13401716  0.86598584  0.75000000  1
  B  B10  1  0.36598284  0.63401416  0.75000000  1
  B  B11  1  0.36598284  0.86598584  0.25000000  1
  B  B12  1  0.42867807  0.05385716  0.18507133  1
  B  B13  1  0.42867807  0.44614284  0.68507133  1
  B  B14  1  0.44614284  0.07132193  0.68507133  1
  B  B15  1  0.44614284  0.42867807  0.18507133  1
  B  B16  1  0.55385716  0.57132193  0.81492867  1
  B  B17  1  0.55385716  0.92867807  0.31492867  1
  B  B18  1  0.57132193  0.55385716  0.31492867  1
  B  B19  1  0.57132193  0.94614284  0.81492867  1
  B  B20  1  0.63401416  0.13401716  0.75000000  1
  B  B21  1  0.63401716  0.36598584  0.25000000  1
  B  B22  1  0.86598584  0.13401716  0.25000000  1
  B  B23  1  0.86598584  0.36598284  0.75000000  1
  B  B24  1  0.92867807  0.94614284  0.31492867  1
  B  B25  1  0.92867807  0.55385716  0.81492867  1
  B  B26  1  0.94614284  0.92867807  0.81492867  1
  B  B27  1  0.94614284  0.57132193  0.31492867  1
  P  P28  1  0.25000000  0.75000000  0.00000000  1
  P  P29  1  0.25000000  0.75000000  0.50000000  1
  P  P30  1  0.75000000  0.25000000  0.00000000  1
  P  P31  1  0.75000000  0.25000000  0.50000000  1
  H  H32  1  0.03420300  0.29048180  0.13454982  1
  H  H33  1  0.03420300  0.20951820  0.63454982  1
  H  H34  1  0.20951820  0.03420300  0.13454982  1
  H  H35  1  0.20951820  0.46579700  0.63454982  1
  H  H36  1  0.29048180  0.46579700  0.13454982  1
  H  H37  1  0.29048180  0.03420300  0.63454982  1
  H  H38  1  0.46579700  0.20951820  0.13454982  1
  H  H39  1  0.46579700  0.29048180  0.63454982  1
  H  H40  1  0.53420300  0.70951820  0.36545018  1
  H  H41  1  0.53420300  0.79048180  0.86545018  1
  H  H42  1  0.70951820  0.96579700  0.36545018  1
  H  H43  1  0.70951820  0.53420300  0.86545018  1
  H  H44  1  0.79048180  0.53420300  0.36545018  1
  H  H45  1  0.79048180  0.96579700  0.86545018  1
  H  H46  1  0.96579700  0.70951820  0.86545018  1
  H  H47  1  0.96579700  0.79048180  0.36545018  1
  O  O48  1  0.02347788  0.65142259  0.31723369  1
  O  O49  1  0.02347788  0.84857741  0.81723369  1
  O  O50  1  0.03180104  0.53179904  0.75000000  1
  O  O51  1  0.03180104  0.96820096  0.25000000  1
  O  O52  1  0.09458639  0.34338812  0.12333244  1
  O  O53  1  0.09458639  0.15661188  0.62333244  1
  O  O54  1  0.15033695  0.71696334  0.11060559  1
  O  O55  1  0.15033695  0.78303666  0.61060559  1
  O  O56  1  0.15142259  0.52347788  0.18276631  1
  O  O57  1  0.15142259  0.97652212  0.68276631  1
  O  O58  1  0.15661188  0.09458639  0.12333244  1
  O  O59  1  0.15661188  0.40541361  0.62333244  1
  O  O60  1  0.21696334  0.65033695  0.38939441  1
  O  O61  1  0.21696334  0.84966305  0.88939441  1
  O  O62  1  0.28303666  0.84966305  0.38939441  1
  O  O63  1  0.28303666  0.65033695  0.88939441  1
  O  O64  1  0.34338812  0.09458639  0.62333244  1
  O  O65  1  0.34338812  0.40541361  0.12333244  1
  O  O66  1  0.34857741  0.52347788  0.68276631  1
  O  O67  1  0.34857741  0.97652212  0.18276631  1
  O  O68  1  0.34966305  0.71696334  0.61060559  1
  O  O69  1  0.34966305  0.78303666  0.11060559  1
  O  O70  1  0.40541361  0.15661188  0.12333244  1
  O  O71  1  0.40541361  0.34338812  0.62333244  1
  O  O72  1  0.46819896  0.96820096  0.75000000  1
  O  O73  1  0.46820096  0.53180104  0.25000000  1
  O  O74  1  0.47652212  0.65142259  0.81723369  1
  O  O75  1  0.47652212  0.84857741  0.31723369  1
  O  O76  1  0.52347788  0.15142259  0.68276631  1
  O  O77  1  0.52347788  0.34857741  0.18276631  1
  O  O78  1  0.53179904  0.03180104  0.25000000  1
  O  O79  1  0.53179904  0.46819896  0.75000000  1
  O  O80  1  0.59458639  0.65661188  0.37666756  1
  O  O81  1  0.59458639  0.84338812  0.87666756  1
  O  O82  1  0.65033695  0.21696334  0.88939441  1
  O  O83  1  0.65033695  0.28303666  0.38939441  1
  O  O84  1  0.65142259  0.02347788  0.81723369  1
  O  O85  1  0.65142259  0.47652212  0.31723369  1
  O  O86  1  0.65661188  0.59458639  0.87666756  1
  O  O87  1  0.65661188  0.90541361  0.37666756  1
  O  O88  1  0.71696334  0.15033695  0.61060559  1
  O  O89  1  0.71696334  0.34966305  0.11060559  1
  O  O90  1  0.78303666  0.15033695  0.11060559  1
  O  O91  1  0.78303666  0.34966305  0.61060559  1
  O  O92  1  0.84338812  0.59458639  0.37666756  1
  O  O93  1  0.84338812  0.90541361  0.87666756  1
  O  O94  1  0.84857741  0.02347788  0.31723369  1
  O  O95  1  0.84857741  0.47652212  0.81723369  1
  O  O96  1  0.84966305  0.21696334  0.38939441  1
  O  O97  1  0.84966305  0.28303666  0.88939441  1
  O  O98  1  0.90541361  0.65661188  0.87666756  1
  O  O99  1  0.90541361  0.84338812  0.37666756  1
  O  O100  1  0.96820096  0.03180104  0.75000000  1
  O  O101  1  0.96820096  0.46819896  0.25000000  1
  O  O102  1  0.97652212  0.15142259  0.18276631  1
  O  O103  1  0.97652212  0.34857741  0.68276631  1
