# generated using pymatgen
data_Li2MnF6
_symmetry_space_group_name_H-M   'P 1'
_cell_length_a   8.57715621
_cell_length_b   8.57727898
_cell_length_c   4.65919700
_cell_angle_alpha   89.99862315
_cell_angle_beta   89.99999673
_cell_angle_gamma   119.99955836
_symmetry_Int_Tables_number   1
_chemical_formula_structural   Li2MnF6
_chemical_formula_sum   'Li6 Mn3 F18'
_cell_volume   296.84961749
_cell_formula_units_Z   3
loop_
 _symmetry_equiv_pos_site_id
 _symmetry_equiv_pos_as_xyz
  1  'x, y, z'
loop_
 _atom_site_type_symbol
 _atom_site_label
 _atom_site_symmetry_multiplicity
 _atom_site_fract_x
 _atom_site_fract_y
 _atom_site_fract_z
 _atom_site_occupancy
  Li  Li0  1  -0.00000143  0.64386887  0.00000460  1
  Li  Li1  1  0.99999229  0.30817796  0.50000977  1
  Li  Li2  1  0.35612921  0.35613068  0.99999531  1
  Li  Li3  1  0.30817608  0.00000014  0.50000006  1
  Li  Li4  1  0.69181431  0.69182206  0.49999025  1
  Li  Li5  1  0.64386602  0.00000019  0.00000002  1
  Mn  Mn6  1  0.33333768  0.66671193  0.51201672  1
  Mn  Mn7  1  0.00002050  0.99999906  0.99999817  1
  Mn  Mn8  1  0.66662754  0.33328866  0.48798482  1
  F  F9  1  0.09851515  0.89228831  0.77937791  1
  F  F10  1  0.22932417  0.76836300  0.28892242  1
  F  F11  1  0.12774391  0.55636237  0.73425530  1
  F  F12  1  0.42861030  0.87223291  0.73421637  1
  F  F13  1  0.23161104  0.46095701  0.28892381  1
  F  F14  1  0.10772181  0.20624038  0.77938409  1
  F  F15  1  0.20622741  0.10771275  0.22062278  1
  F  F16  1  0.44363803  0.57138607  0.73423816  1
  F  F17  1  0.53902403  0.77065307  0.28890852  1
  F  F18  1  0.46096182  0.23163722  0.71107564  1
  F  F19  1  0.57138134  0.44363616  0.26574671  1
  F  F20  1  0.79376601  0.90149286  0.77936266  1
  F  F21  1  0.55637769  0.12776800  0.26578495  1
  F  F22  1  0.77065374  0.53904159  0.71107527  1
  F  F23  1  0.90148187  0.79376034  0.22061601  1
  F  F24  1  0.76837157  0.22934761  0.71109086  1
  F  F25  1  0.87225199  0.42861292  0.26576188  1
  F  F26  1  0.89227394  0.09850788  0.22063694  1
