# generated using pymatgen
data_Sr5Ta4O15
_symmetry_space_group_name_H-M   'P 1'
_cell_length_a   5.70888699
_cell_length_b   5.70890488
_cell_length_c   23.31537277
_cell_angle_alpha   90.00073878
_cell_angle_beta   90.00052984
_cell_angle_gamma   120.00008955
_symmetry_Int_Tables_number   1
_chemical_formula_structural   Sr5Ta4O15
_chemical_formula_sum   'Sr10 Ta8 O30'
_cell_volume   658.07721831
_cell_formula_units_Z   2
loop_
 _symmetry_equiv_pos_site_id
 _symmetry_equiv_pos_as_xyz
  1  'x, y, z'
loop_
 _atom_site_type_symbol
 _atom_site_label
 _atom_site_symmetry_multiplicity
 _atom_site_fract_x
 _atom_site_fract_y
 _atom_site_fract_z
 _atom_site_occupancy
  Sr  Sr0  1  0.33333243  0.66665409  0.13865315  1
  Sr  Sr1  1  0.33331055  0.66666015  0.47192619  1
  Sr  Sr2  1  0.00003924  0.99999762  0.25000029  1
  Sr  Sr3  1  -0.00000153  0.00000795  0.74999875  1
  Sr  Sr4  1  0.33331890  0.66666797  0.97192465  1
  Sr  Sr5  1  0.33330547  0.66666009  0.63865513  1
  Sr  Sr6  1  0.66666188  0.33333615  0.02807623  1
  Sr  Sr7  1  0.66666949  0.33333737  0.36134448  1
  Sr  Sr8  1  0.66664420  0.33333586  0.52807683  1
  Sr  Sr9  1  0.66667013  0.33334607  0.86134655  1
  Ta  Ta10  1  0.33333909  0.66666039  0.30186437  1
  Ta  Ta11  1  0.99995928  0.99996920  0.09276707  1
  Ta  Ta12  1  0.99997424  0.00001450  0.40723510  1
  Ta  Ta13  1  0.99995834  0.99998565  0.59276636  1
  Ta  Ta14  1  0.00000922  0.00003769  0.90723308  1
  Ta  Ta15  1  0.33333015  0.66667024  0.80186156  1
  Ta  Ta16  1  0.66667519  0.33332977  0.19813407  1
  Ta  Ta17  1  0.66666020  0.33333390  0.69813062  1
  O  O18  1  0.10135021  0.77022078  0.55586084  1
  O  O19  1  0.12198274  0.79057021  0.34558369  1
  O  O20  1  0.00000096  0.54029846  0.75000305  1
  O  O21  1  0.00001144  0.45969414  0.24999893  1
  O  O22  1  0.20945060  0.87804296  0.84558981  1
  O  O23  1  0.22975824  0.89860559  0.05586113  1
  O  O24  1  0.10137377  0.33115517  0.05586229  1
  O  O25  1  0.12197197  0.33142663  0.84559059  1
  O  O26  1  0.20946449  0.33143325  0.34558679  1
  O  O27  1  0.22974543  0.33114730  0.55586172  1
  O  O28  1  0.33115185  0.22978190  0.94414115  1
  O  O29  1  0.66881078  0.89859729  0.55585897  1
  O  O30  1  0.66858890  0.87803849  0.34558615  1
  O  O31  1  0.33141304  0.20943287  0.15441246  1
  O  O32  1  0.45969757  0.45969700  0.75000342  1
  O  O33  1  0.54031817  0.54029912  0.24999980  1
  O  O34  1  0.66859420  0.79056853  0.84558883  1
  O  O35  1  0.33139213  0.12196320  0.65441797  1
  O  O36  1  0.33114793  0.10139312  0.44413801  1
  O  O37  1  0.66883042  0.77021670  0.05586187  1
  O  O38  1  0.77022189  0.66885292  0.44413366  1
  O  O39  1  0.79053245  0.66857789  0.65441523  1
  O  O40  1  0.45970171  0.00000377  0.24999894  1
  O  O41  1  0.54028618  0.99999504  0.75000097  1
  O  O42  1  0.87803690  0.66858008  0.15441018  1
  O  O43  1  0.89861147  0.66884653  0.94413696  1
  O  O44  1  0.77022799  0.10139746  0.94414033  1
  O  O45  1  0.79055027  0.12195891  0.15441342  1
  O  O46  1  0.87800939  0.20943618  0.65441302  1
  O  O47  1  0.89860747  0.22976885  0.44413637  1
