# generated using pymatgen
data_K2W4O13
_symmetry_space_group_name_H-M   'P 1'
_cell_length_a   15.99131976
_cell_length_b   16.02868160
_cell_length_c   3.88632796
_cell_angle_alpha   89.96193167
_cell_angle_beta   90.00753228
_cell_angle_gamma   119.98213222
_symmetry_Int_Tables_number   1
_chemical_formula_structural   K2W4O13
_chemical_formula_sum   'K6 W12 O39'
_cell_volume   862.83995192
_cell_formula_units_Z   3
loop_
 _symmetry_equiv_pos_site_id
 _symmetry_equiv_pos_as_xyz
  1  'x, y, z'
loop_
 _atom_site_type_symbol
 _atom_site_label
 _atom_site_symmetry_multiplicity
 _atom_site_fract_x
 _atom_site_fract_y
 _atom_site_fract_z
 _atom_site_occupancy
  K  K0  1  0.00112098  0.99909199  0.49975107  1
  K  K1  1  0.31076291  0.50474553  0.52718798  1
  K  K2  1  0.49599372  0.81015945  0.52694809  1
  K  K3  1  0.49700724  0.18267241  0.47307817  1
  K  K4  1  0.68713814  0.50162805  0.47244258  1
  K  K5  1  0.81579339  0.31461311  0.47218797  1
  W  W6  1  0.09029985  0.81984061  0.03073641  1
  W  W7  1  0.09172574  0.45475890  0.02173733  1
  W  W8  1  0.36040111  0.90879035  0.02456880  1
  W  W9  1  0.17758534  0.26792018  0.02769725  1
  W  W10  1  0.26524786  0.08799392  0.97427041  1
  W  W11  1  0.55122163  0.63796772  0.02343964  1
  W  W12  1  0.44987888  0.36114439  0.97673413  1
  W  W13  1  0.73318634  0.91067747  0.02757166  1
  W  W14  1  0.82460476  0.73410247  0.97170460  1
  W  W15  1  0.63698388  0.08775401  0.97738438  1
  W  W16  1  0.91213924  0.54950525  0.97272670  1
  W  W17  1  0.91090556  0.17814801  0.97343949  1
  O  O18  1  0.15024816  0.96854588  0.99648973  1
  O  O19  1  0.09420508  0.82905640  0.51006287  1
  O  O20  1  0.03419491  0.68899243  0.00448737  1
  O  O21  1  0.00008616  0.50040293  0.99900156  1
  O  O22  1  0.22197135  0.84457610  0.00948336  1
  O  O23  1  0.07921389  0.44122040  0.51159841  1
  O  O24  1  0.36365643  0.92234004  0.51224792  1
  O  O25  1  0.20210335  0.56361130  0.01641911  1
  O  O26  1  0.03152205  0.18200961  0.99709007  1
  O  O27  1  0.15627668  0.37755009  0.00988900  1
  O  O28  1  0.37590763  0.80693896  0.01860721  1
  O  O29  1  0.17169934  0.26688983  0.50966076  1
  O  O30  1  0.18300838  0.15196523  0.00356858  1
  O  O31  1  0.43536868  0.63027401  0.01486705  1
  O  O32  1  0.31075549  0.34988676  0.00132754  1
  O  O33  1  0.65042029  0.96072098  0.00121878  1
  O  O34  1  0.26629722  0.09599585  0.49086172  1
  O  O35  1  0.55956384  0.63751131  0.51204722  1
  O  O36  1  0.62098516  0.77820318  0.01063664  1
  O  O37  1  0.50093263  0.49998354  0.00020346  1
  O  O38  1  0.37925320  0.22210727  0.98912489  1
  O  O39  1  0.44195683  0.36293646  0.48796799  1
  O  O40  1  0.73285132  0.90436075  0.50956561  1
  O  O41  1  0.34907265  0.04000343  0.99869123  1
  O  O42  1  0.69059906  0.65157620  0.99889314  1
  O  O43  1  0.56627155  0.36989928  0.98499361  1
  O  O44  1  0.81710159  0.84895329  0.99606384  1
  O  O45  1  0.82886149  0.73383060  0.48973490  1
  O  O46  1  0.50008052  0.00199236  0.99891240  1
  O  O47  1  0.63100546  0.19669749  0.98442113  1
  O  O48  1  0.84153784  0.62047433  0.98793106  1
  O  O49  1  0.96830150  0.81749723  0.00183798  1
  O  O50  1  0.80334538  0.43397079  0.98628892  1
  O  O51  1  0.63766125  0.07915378  0.48791809  1
  O  O52  1  0.91849443  0.55720274  0.48690085  1
  O  O53  1  0.77800114  0.15631688  0.98961076  1
  O  O54  1  0.95987336  0.30918840  0.99760345  1
  O  O55  1  0.90450727  0.17034469  0.49052977  1
  O  O56  1  0.84865189  0.03089238  0.00383837  1
