# generated using pymatgen
data_ThO2
_symmetry_space_group_name_H-M   'P 1'
_cell_length_a   3.78416544
_cell_length_b   6.18290192
_cell_length_c   7.14634096
_cell_angle_alpha   90.00000000
_cell_angle_beta   90.00000000
_cell_angle_gamma   90.00000000
_symmetry_Int_Tables_number   1
_chemical_formula_structural   ThO2
_chemical_formula_sum   'Th4 O8'
_cell_volume   167.20382390
_cell_formula_units_Z   4
loop_
 _symmetry_equiv_pos_site_id
 _symmetry_equiv_pos_as_xyz
  1  'x, y, z'
loop_
 _atom_site_type_symbol
 _atom_site_label
 _atom_site_symmetry_multiplicity
 _atom_site_fract_x
 _atom_site_fract_y
 _atom_site_fract_z
 _atom_site_occupancy
  Th  Th0  1  0.75000000  0.25193769  0.59926867  1
  Th  Th1  1  0.75000000  0.75193769  0.90073133  1
  Th  Th2  1  0.25000000  0.74806231  0.40073133  1
  Th  Th3  1  0.25000000  0.24806231  0.09926867  1
  O  O4  1  0.75000000  0.36238577  0.92481695  1
  O  O5  1  0.75000000  0.86238577  0.57518305  1
  O  O6  1  0.25000000  0.63761423  0.07518305  1
  O  O7  1  0.25000000  0.13761423  0.42481695  1
  O  O8  1  0.25000000  0.51779641  0.65721246  1
  O  O9  1  0.25000000  0.01779641  0.84278754  1
  O  O10  1  0.75000000  0.48220359  0.34278754  1
  O  O11  1  0.75000000  0.98220359  0.15721246  1
