# generated using pymatgen
data_K2MnPCO7
_symmetry_space_group_name_H-M   'P 1'
_cell_length_a   9.50103909
_cell_length_b   7.30571622
_cell_length_c   5.41649512
_cell_angle_alpha   90.00000000
_cell_angle_beta   90.26757578
_cell_angle_gamma   90.00000000
_symmetry_Int_Tables_number   1
_chemical_formula_structural   K2MnPCO7
_chemical_formula_sum   'K4 Mn2 P2 C2 O14'
_cell_volume   375.96509288
_cell_formula_units_Z   2
loop_
 _symmetry_equiv_pos_site_id
 _symmetry_equiv_pos_as_xyz
  1  'x, y, z'
loop_
 _atom_site_type_symbol
 _atom_site_label
 _atom_site_symmetry_multiplicity
 _atom_site_fract_x
 _atom_site_fract_y
 _atom_site_fract_z
 _atom_site_occupancy
  K  K0  1  0.24927813  0.47404892  0.24458891  1
  K  K1  1  0.24927813  0.02595108  0.24458891  1
  K  K2  1  0.75072187  0.52595108  0.75541109  1
  K  K3  1  0.75072187  0.97404892  0.75541109  1
  Mn  Mn4  1  0.35829386  0.75000000  0.77341421  1
  Mn  Mn5  1  0.64170614  0.25000000  0.22658579  1
  P  P6  1  0.42659954  0.25000000  0.71950933  1
  P  P7  1  0.57340046  0.75000000  0.28049067  1
  C  C8  1  0.10131964  0.75000000  0.72854321  1
  C  C9  1  0.89868036  0.25000000  0.27145679  1
  O  O10  1  0.02910557  0.25000000  0.28930433  1
  O  O11  1  0.17084628  0.75000000  0.94056995  1
  O  O12  1  0.18962324  0.75000000  0.54015068  1
  O  O13  1  0.34042164  0.07410179  0.75925043  1
  O  O14  1  0.34042164  0.42589821  0.75925043  1
  O  O15  1  0.43894779  0.75000000  0.11020654  1
  O  O16  1  0.47932192  0.25000000  0.44161669  1
  O  O17  1  0.52067808  0.75000000  0.55838331  1
  O  O18  1  0.56105221  0.25000000  0.88979346  1
  O  O19  1  0.65957836  0.57410179  0.24074957  1
  O  O20  1  0.65957836  0.92589821  0.24074957  1
  O  O21  1  0.81037676  0.25000000  0.45984932  1
  O  O22  1  0.82915372  0.25000000  0.05943005  1
  O  O23  1  0.97089443  0.75000000  0.71069567  1
