# generated using pymatgen
data_Cs4SiO4
_symmetry_space_group_name_H-M   'P 1'
_cell_length_a   11.57055220
_cell_length_b   7.08369578
_cell_length_c   11.37783552
_cell_angle_alpha   90.00000000
_cell_angle_beta   111.49274400
_cell_angle_gamma   90.00000000
_symmetry_Int_Tables_number   1
_chemical_formula_structural   Cs4SiO4
_chemical_formula_sum   'Cs16 Si4 O16'
_cell_volume   867.70720065
_cell_formula_units_Z   4
loop_
 _symmetry_equiv_pos_site_id
 _symmetry_equiv_pos_as_xyz
  1  'x, y, z'
loop_
 _atom_site_type_symbol
 _atom_site_label
 _atom_site_symmetry_multiplicity
 _atom_site_fract_x
 _atom_site_fract_y
 _atom_site_fract_z
 _atom_site_occupancy
  Cs  Cs0  1  0.06470053  0.40930375  0.70132096  1
  Cs  Cs1  1  0.15210921  0.88301919  0.58336919  1
  Cs  Cs2  1  0.06470053  0.09069625  0.20132096  1
  Cs  Cs3  1  0.36845406  0.66372191  0.89286096  1
  Cs  Cs4  1  0.15210921  0.61698081  0.08336919  1
  Cs  Cs5  1  0.41982515  0.17254866  0.79160575  1
  Cs  Cs6  1  0.36845406  0.83627809  0.39286096  1
  Cs  Cs7  1  0.58017485  0.67254866  0.70839425  1
  Cs  Cs8  1  0.41982515  0.32745134  0.29160575  1
  Cs  Cs9  1  0.63154594  0.16372191  0.60713904  1
  Cs  Cs10  1  0.58017485  0.82745134  0.20839425  1
  Cs  Cs11  1  0.84789079  0.38301919  0.91663081  1
  Cs  Cs12  1  0.63154594  0.33627809  0.10713904  1
  Cs  Cs13  1  0.93529947  0.90930375  0.79867904  1
  Cs  Cs14  1  0.84789079  0.11698081  0.41663081  1
  Cs  Cs15  1  0.93529947  0.59069625  0.29867904  1
  Si  Si16  1  0.24114530  0.12693114  0.99076546  1
  Si  Si17  1  0.24114530  0.37306886  0.49076546  1
  Si  Si18  1  0.75885470  0.62693114  0.50923454  1
  Si  Si19  1  0.75885470  0.87306886  0.00923454  1
  O  O20  1  0.10565460  0.22410480  0.97861825  1
  O  O21  1  0.22024709  0.00131595  0.85906526  1
  O  O22  1  0.10565460  0.27589520  0.47861825  1
  O  O23  1  0.29489853  0.51337800  0.61899189  1
  O  O24  1  0.22024709  0.49868405  0.35906526  1
  O  O25  1  0.34494191  0.19921329  0.50504669  1
  O  O26  1  0.29489853  0.98662200  0.11899189  1
  O  O27  1  0.65505809  0.69921329  0.99495331  1
  O  O28  1  0.34494191  0.30078671  0.00504669  1
  O  O29  1  0.70510147  0.01337800  0.88100811  1
  O  O30  1  0.65505809  0.80078671  0.49495331  1
  O  O31  1  0.77975291  0.50131595  0.64093474  1
  O  O32  1  0.70510147  0.48662200  0.38100811  1
  O  O33  1  0.89434540  0.72410480  0.52138175  1
  O  O34  1  0.77975291  0.99868405  0.14093474  1
  O  O35  1  0.89434540  0.77589520  0.02138175  1
