# generated using pymatgen
data_Cs2MgH12(SeO7)2
_symmetry_space_group_name_H-M   'P 1'
_cell_length_a   9.58411292
_cell_length_b   13.10914780
_cell_length_c   6.57584869
_cell_angle_alpha   90.00000000
_cell_angle_beta   105.86616580
_cell_angle_gamma   90.00000000
_symmetry_Int_Tables_number   1
_chemical_formula_structural   Cs2MgH12(SeO7)2
_chemical_formula_sum   'Cs4 Mg2 H24 Se4 O28'
_cell_volume   794.71138862
_cell_formula_units_Z   2
loop_
 _symmetry_equiv_pos_site_id
 _symmetry_equiv_pos_as_xyz
  1  'x, y, z'
loop_
 _atom_site_type_symbol
 _atom_site_label
 _atom_site_symmetry_multiplicity
 _atom_site_fract_x
 _atom_site_fract_y
 _atom_site_fract_z
 _atom_site_occupancy
  Cs  Cs0  1  0.12967349  0.35153132  0.35019104  1
  Cs  Cs1  1  0.37032651  0.85153132  0.64980896  1
  Cs  Cs2  1  0.62967349  0.14846868  0.35019104  1
  Cs  Cs3  1  0.87032651  0.64846868  0.64980896  1
  Mg  Mg4  1  0.00000000  0.00000000  0.00000000  1
  Mg  Mg5  1  0.50000000  0.50000000  0.00000000  1
  H  H6  1  0.09575105  0.05621061  0.66738098  1
  H  H7  1  0.02632798  0.86622112  0.31897872  1
  H  H8  1  0.23184489  0.40639444  0.93516693  1
  H  H9  1  0.26988709  0.63080362  0.91106348  1
  H  H10  1  0.20329946  0.09448460  0.31082997  1
  H  H11  1  0.14652674  0.82152644  0.00621781  1
  H  H12  1  0.35347326  0.32152644  0.99378219  1
  H  H13  1  0.29670054  0.59448460  0.68917003  1
  H  H14  1  0.23011291  0.13080362  0.08893652  1
  H  H15  1  0.26815511  0.90639444  0.06483307  1
  H  H16  1  0.47367202  0.36622112  0.68102128  1
  H  H17  1  0.40424895  0.55621061  0.33261902  1
  H  H18  1  0.59575105  0.44378939  0.66738098  1
  H  H19  1  0.52632798  0.63377888  0.31897872  1
  H  H20  1  0.73184489  0.09360556  0.93516693  1
  H  H21  1  0.76988709  0.86919638  0.91106348  1
  H  H22  1  0.70329946  0.40551540  0.31082997  1
  H  H23  1  0.64652674  0.67847356  0.00621781  1
  H  H24  1  0.85347326  0.17847356  0.99378219  1
  H  H25  1  0.79670054  0.90551540  0.68917003  1
  H  H26  1  0.73011291  0.36919638  0.08893652  1
  H  H27  1  0.76815511  0.59360556  0.06483307  1
  H  H28  1  0.97367202  0.13377888  0.68102128  1
  H  H29  1  0.90424895  0.94378939  0.33261902  1
  Se  Se30  1  0.10213508  0.64672910  0.25793342  1
  Se  Se31  1  0.39786492  0.14672910  0.74206658  1
  Se  Se32  1  0.60213508  0.85327090  0.25793342  1
  Se  Se33  1  0.89786492  0.35327090  0.74206658  1
  O  O34  1  0.00585695  0.06172948  0.71341272  1
  O  O35  1  0.04864829  0.42436025  0.80439819  1
  O  O36  1  0.16514155  0.89516719  0.98503758  1
  O  O37  1  0.08102186  0.74657639  0.40612458  1
  O  O38  1  0.15627651  0.10667182  0.15820893  1
  O  O39  1  0.14205654  0.68895162  0.03799211  1
  O  O40  1  0.26116033  0.07452011  0.59705148  1
  O  O41  1  0.23883967  0.57452011  0.40294852  1
  O  O42  1  0.35794346  0.18895162  0.96200789  1
  O  O43  1  0.34372349  0.60667182  0.84179107  1
  O  O44  1  0.41897814  0.24657639  0.59387542  1
  O  O45  1  0.33485845  0.39516719  0.01496242  1
  O  O46  1  0.50585695  0.43827052  0.71341272  1
  O  O47  1  0.54864829  0.07563975  0.80439819  1
  O  O48  1  0.45135171  0.92436025  0.19560181  1
  O  O49  1  0.49414305  0.56172948  0.28658728  1
  O  O50  1  0.66514155  0.60483281  0.98503758  1
  O  O51  1  0.58102186  0.75342361  0.40612458  1
  O  O52  1  0.65627651  0.39332818  0.15820893  1
  O  O53  1  0.64205654  0.81104838  0.03799211  1
  O  O54  1  0.76116033  0.42547989  0.59705148  1
  O  O55  1  0.73883967  0.92547989  0.40294852  1
  O  O56  1  0.85794346  0.31104838  0.96200789  1
  O  O57  1  0.84372349  0.89332818  0.84179107  1
  O  O58  1  0.91897814  0.25342361  0.59387542  1
  O  O59  1  0.83485845  0.10483281  0.01496242  1
  O  O60  1  0.95135171  0.57563975  0.19560181  1
  O  O61  1  0.99414305  0.93827052  0.28658728  1
