# generated using pymatgen
data_Ta9PO25
_symmetry_space_group_name_H-M   'P 1'
_cell_length_a   3.87951125
_cell_length_b   11.29572312
_cell_length_c   11.29572312
_cell_angle_alpha   91.68986411
_cell_angle_beta   99.88811941
_cell_angle_gamma   80.11188059
_symmetry_Int_Tables_number   1
_chemical_formula_structural   Ta9PO25
_chemical_formula_sum   'Ta9 P1 O25'
_cell_volume   480.40262090
_cell_formula_units_Z   1
loop_
 _symmetry_equiv_pos_site_id
 _symmetry_equiv_pos_as_xyz
  1  'x, y, z'
loop_
 _atom_site_type_symbol
 _atom_site_label
 _atom_site_symmetry_multiplicity
 _atom_site_fract_x
 _atom_site_fract_y
 _atom_site_fract_z
 _atom_site_occupancy
  Ta  Ta0  1  0.00000000  0.00000000  0.00000000  1
  Ta  Ta1  1  0.10636524  0.11503939  0.32664981  1
  Ta  Ta2  1  0.88783805  0.44425032  0.21182245  1
  Ta  Ta3  1  0.66791263  0.21182245  0.55574968  1
  Ta  Ta4  1  0.22028457  0.67335019  0.11503939  1
  Ta  Ta5  1  0.77859537  0.32664981  0.88496061  1
  Ta  Ta6  1  0.32398440  0.78817755  0.44425032  1
  Ta  Ta7  1  0.12026592  0.55574968  0.78817755  1
  Ta  Ta8  1  0.89475481  0.88496061  0.67335019  1
  P  P9  1  0.75000000  0.50000000  0.50000000  1
  O  O10  1  0.50000000  0.00000000  0.00000000  1
  O  O11  1  0.04940449  0.06507032  0.16815699  1
  O  O12  1  0.82308466  0.39321032  0.04447949  1
  O  O13  1  0.61453943  0.14032609  0.36645342  1
  O  O14  1  0.99437758  0.29019054  0.27091218  1
  O  O15  1  0.78370502  0.04447949  0.60678968  1
  O  O16  1  0.35114877  0.48929958  0.19824777  1
  O  O17  1  0.15955164  0.19824777  0.51070042  1
  O  O18  1  0.75191299  0.63354658  0.14032609  1
  O  O19  1  0.58472258  0.38343126  0.48825292  1
  O  O20  1  0.90353134  0.51174708  0.38343126  1
  O  O21  1  0.11875250  0.83184301  0.06507032  1
  O  O22  1  0.71543188  0.27091218  0.70980946  1
  O  O23  1  0.27653459  0.72908782  0.29019054  1
  O  O24  1  0.88552519  0.16815699  0.93492968  1
  O  O25  1  0.03184616  0.48825292  0.61656874  1
  O  O26  1  0.47989992  0.61656874  0.51174708  1
  O  O27  1  0.24513448  0.36645342  0.85967391  1
  O  O28  1  0.84709900  0.80175223  0.48929958  1
  O  O29  1  0.64220058  0.51070042  0.80175223  1
  O  O30  1  0.22139583  0.95552051  0.39321032  1
  O  O31  1  0.01365595  0.70980946  0.72908782  1
  O  O32  1  0.38841210  0.85967391  0.63354658  1
  O  O33  1  0.17181449  0.60678968  0.95552051  1
  O  O34  1  0.94631782  0.93492968  0.83184301  1
