# generated using pymatgen
data_K2VPCO7
_symmetry_space_group_name_H-M   'P 1'
_cell_length_a   9.72771957
_cell_length_b   6.71282125
_cell_length_c   5.62904440
_cell_angle_alpha   90.00000000
_cell_angle_beta   91.09468778
_cell_angle_gamma   90.00000000
_symmetry_Int_Tables_number   1
_chemical_formula_structural   K2VPCO7
_chemical_formula_sum   'K4 V2 P2 C2 O14'
_cell_volume   367.51200330
_cell_formula_units_Z   2
loop_
 _symmetry_equiv_pos_site_id
 _symmetry_equiv_pos_as_xyz
  1  'x, y, z'
loop_
 _atom_site_type_symbol
 _atom_site_label
 _atom_site_symmetry_multiplicity
 _atom_site_fract_x
 _atom_site_fract_y
 _atom_site_fract_z
 _atom_site_occupancy
  K  K0  1  0.24271910  0.47905689  0.24528227  1
  K  K1  1  0.24271910  0.02094311  0.24528227  1
  K  K2  1  0.75728090  0.52094311  0.75471773  1
  K  K3  1  0.75728090  0.97905689  0.75471773  1
  V  V4  1  0.35436343  0.75000000  0.77043029  1
  V  V5  1  0.64563657  0.25000000  0.22956971  1
  P  P6  1  0.43198001  0.25000000  0.71526627  1
  P  P7  1  0.56801999  0.75000000  0.28473373  1
  C  C8  1  0.09781993  0.75000000  0.72930058  1
  C  C9  1  0.90218007  0.25000000  0.27069942  1
  O  O10  1  0.03035696  0.25000000  0.28771233  1
  O  O11  1  0.16746576  0.75000000  0.93427480  1
  O  O12  1  0.18115792  0.75000000  0.54623865  1
  O  O13  1  0.34294747  0.06035077  0.75505178  1
  O  O14  1  0.34294747  0.43964923  0.75505178  1
  O  O15  1  0.44258401  0.75000000  0.10908899  1
  O  O16  1  0.47925788  0.25000000  0.45165191  1
  O  O17  1  0.52074212  0.75000000  0.54834809  1
  O  O18  1  0.55741599  0.25000000  0.89091101  1
  O  O19  1  0.65705253  0.56035077  0.24494822  1
  O  O20  1  0.65705253  0.93964923  0.24494822  1
  O  O21  1  0.81884208  0.25000000  0.45376135  1
  O  O22  1  0.83253424  0.25000000  0.06572520  1
  O  O23  1  0.96964304  0.75000000  0.71228767  1
