# generated using pymatgen
data_K2FePCO7
_symmetry_space_group_name_H-M   'P 1'
_cell_length_a   9.67066077
_cell_length_b   6.83733480
_cell_length_c   5.58082418
_cell_angle_alpha   90.00000000
_cell_angle_beta   91.36531996
_cell_angle_gamma   90.00000000
_symmetry_Int_Tables_number   1
_chemical_formula_structural   K2FePCO7
_chemical_formula_sum   'K4 Fe2 P2 C2 O14'
_cell_volume   368.90795476
_cell_formula_units_Z   2
loop_
 _symmetry_equiv_pos_site_id
 _symmetry_equiv_pos_as_xyz
  1  'x, y, z'
loop_
 _atom_site_type_symbol
 _atom_site_label
 _atom_site_symmetry_multiplicity
 _atom_site_fract_x
 _atom_site_fract_y
 _atom_site_fract_z
 _atom_site_occupancy
  K  K0  1  0.24257421  0.47908898  0.24478150  1
  K  K1  1  0.24257421  0.02091102  0.24478150  1
  K  K2  1  0.75742579  0.52091102  0.75521850  1
  K  K3  1  0.75742579  0.97908898  0.75521850  1
  Fe  Fe4  1  0.35940701  0.75000000  0.76941274  1
  Fe  Fe5  1  0.64059299  0.25000000  0.23058726  1
  P  P6  1  0.43271788  0.25000000  0.71865911  1
  P  P7  1  0.56728212  0.75000000  0.28134089  1
  C  C8  1  0.09858866  0.75000000  0.73064407  1
  C  C9  1  0.90141134  0.25000000  0.26935593  1
  O  O10  1  0.02988068  0.25000000  0.29168822  1
  O  O11  1  0.16739562  0.75000000  0.93805212  1
  O  O12  1  0.18389825  0.75000000  0.54768263  1
  O  O13  1  0.34509295  0.06310142  0.75554368  1
  O  O14  1  0.34509295  0.43689858  0.75554368  1
  O  O15  1  0.43954188  0.75000000  0.10430567  1
  O  O16  1  0.48509485  0.25000000  0.45344890  1
  O  O17  1  0.51490515  0.75000000  0.54655110  1
  O  O18  1  0.56045812  0.25000000  0.89569433  1
  O  O19  1  0.65490705  0.56310142  0.24445632  1
  O  O20  1  0.65490705  0.93689858  0.24445632  1
  O  O21  1  0.81610175  0.25000000  0.45231737  1
  O  O22  1  0.83260438  0.25000000  0.06194788  1
  O  O23  1  0.97011932  0.75000000  0.70831178  1
