# generated using pymatgen
data_Cs2ZnH12(SeO7)2
_symmetry_space_group_name_H-M   'P 1'
_cell_length_a   9.48745693
_cell_length_b   13.27662199
_cell_length_c   6.59355871
_cell_angle_alpha   90.00000000
_cell_angle_beta   105.40149815
_cell_angle_gamma   90.00000000
_symmetry_Int_Tables_number   1
_chemical_formula_structural   Cs2ZnH12(SeO7)2
_chemical_formula_sum   'Cs4 Zn2 H24 Se4 O28'
_cell_volume   800.70800420
_cell_formula_units_Z   2
loop_
 _symmetry_equiv_pos_site_id
 _symmetry_equiv_pos_as_xyz
  1  'x, y, z'
loop_
 _atom_site_type_symbol
 _atom_site_label
 _atom_site_symmetry_multiplicity
 _atom_site_fract_x
 _atom_site_fract_y
 _atom_site_fract_z
 _atom_site_occupancy
  Cs  Cs0  1  0.13400389  0.35300710  0.34955652  1
  Cs  Cs1  1  0.36599611  0.85300710  0.65044348  1
  Cs  Cs2  1  0.63400389  0.14699290  0.34955652  1
  Cs  Cs3  1  0.86599611  0.64699290  0.65044348  1
  Zn  Zn4  1  0.00000000  0.00000000  0.00000000  1
  Zn  Zn5  1  0.50000000  0.50000000  0.00000000  1
  H  H6  1  0.09373379  0.06225376  0.66946245  1
  H  H7  1  0.02947737  0.86175540  0.30885780  1
  H  H8  1  0.22936949  0.40305057  0.92654976  1
  H  H9  1  0.26854056  0.62932148  0.90457319  1
  H  H10  1  0.19918084  0.09347976  0.31415070  1
  H  H11  1  0.14426502  0.82236728  0.99946469  1
  H  H12  1  0.35573498  0.32236728  0.00053531  1
  H  H13  1  0.30081916  0.59347976  0.68584930  1
  H  H14  1  0.23145944  0.12932148  0.09542681  1
  H  H15  1  0.27063051  0.90305057  0.07345024  1
  H  H16  1  0.47052263  0.36175540  0.69114220  1
  H  H17  1  0.40626621  0.56225376  0.33053755  1
  H  H18  1  0.59373379  0.43774624  0.66946245  1
  H  H19  1  0.52947737  0.63824460  0.30885780  1
  H  H20  1  0.72936949  0.09694943  0.92654976  1
  H  H21  1  0.76854056  0.87067852  0.90457319  1
  H  H22  1  0.69918084  0.40652024  0.31415070  1
  H  H23  1  0.64426502  0.67763272  0.99946469  1
  H  H24  1  0.85573498  0.17763272  0.00053531  1
  H  H25  1  0.80081916  0.90652024  0.68584930  1
  H  H26  1  0.73145944  0.37067852  0.09542681  1
  H  H27  1  0.77063051  0.59694943  0.07345024  1
  H  H28  1  0.97052263  0.13824460  0.69114220  1
  H  H29  1  0.90626621  0.93774624  0.33053755  1
  Se  Se30  1  0.10296430  0.64502632  0.25633275  1
  Se  Se31  1  0.39703570  0.14502632  0.74366725  1
  Se  Se32  1  0.60296430  0.85497368  0.25633275  1
  Se  Se33  1  0.89703570  0.35497368  0.74366725  1
  O  O34  1  0.00044496  0.06581437  0.71118398  1
  O  O35  1  0.04758412  0.42650323  0.79672257  1
  O  O36  1  0.16960359  0.89394568  0.98171949  1
  O  O37  1  0.08012238  0.74483246  0.39994136  1
  O  O38  1  0.15382946  0.11015791  0.16405163  1
  O  O39  1  0.14015054  0.68532520  0.03341514  1
  O  O40  1  0.25752689  0.07547886  0.59917430  1
  O  O41  1  0.24247311  0.57547886  0.40082570  1
  O  O42  1  0.35984946  0.18532520  0.96658486  1
  O  O43  1  0.34617054  0.61015791  0.83594837  1
  O  O44  1  0.41987762  0.24483246  0.60005864  1
  O  O45  1  0.33039641  0.39394568  0.01828051  1
  O  O46  1  0.50044496  0.43418563  0.71118398  1
  O  O47  1  0.54758412  0.07349677  0.79672257  1
  O  O48  1  0.45241588  0.92650323  0.20327743  1
  O  O49  1  0.49955504  0.56581437  0.28881602  1
  O  O50  1  0.66960359  0.60605432  0.98171949  1
  O  O51  1  0.58012238  0.75516754  0.39994136  1
  O  O52  1  0.65382946  0.38984209  0.16405163  1
  O  O53  1  0.64015054  0.81467480  0.03341514  1
  O  O54  1  0.75752689  0.42452114  0.59917430  1
  O  O55  1  0.74247311  0.92452114  0.40082570  1
  O  O56  1  0.85984946  0.31467480  0.96658486  1
  O  O57  1  0.84617054  0.88984209  0.83594837  1
  O  O58  1  0.91987762  0.25516754  0.60005864  1
  O  O59  1  0.83039641  0.10605432  0.01828051  1
  O  O60  1  0.95241588  0.57349677  0.20327743  1
  O  O61  1  0.99955504  0.93418563  0.28881602  1
