# generated using pymatgen
data_Dy(PO3)3
_symmetry_space_group_name_H-M   'P 1'
_cell_length_a   7.06395759
_cell_length_b   9.79623553
_cell_length_c   11.09328608
_cell_angle_alpha   90.00000000
_cell_angle_beta   91.84442999
_cell_angle_gamma   90.00000000
_symmetry_Int_Tables_number   1
_chemical_formula_structural   Dy(PO3)3
_chemical_formula_sum   'Dy4 P12 O36'
_cell_volume   767.25980893
_cell_formula_units_Z   4
loop_
 _symmetry_equiv_pos_site_id
 _symmetry_equiv_pos_as_xyz
  1  'x, y, z'
loop_
 _atom_site_type_symbol
 _atom_site_label
 _atom_site_symmetry_multiplicity
 _atom_site_fract_x
 _atom_site_fract_y
 _atom_site_fract_z
 _atom_site_occupancy
  Dy  Dy0  1  0.18886019  0.75000000  0.01808002  1
  Dy  Dy1  1  0.32768435  0.75000000  0.53670204  1
  Dy  Dy2  1  0.67231565  0.25000000  0.46329796  1
  Dy  Dy3  1  0.81113981  0.25000000  0.98191998  1
  P  P4  1  0.17334306  0.53398369  0.28388723  1
  P  P5  1  0.17334306  0.96601631  0.28388723  1
  P  P6  1  0.18431145  0.25000000  0.37387571  1
  P  P7  1  0.23354676  0.50984207  0.76764441  1
  P  P8  1  0.23354676  0.99015793  0.76764441  1
  P  P9  1  0.32183523  0.25000000  0.89676864  1
  P  P10  1  0.67816477  0.75000000  0.10323136  1
  P  P11  1  0.76645324  0.00984207  0.23235559  1
  P  P12  1  0.76645324  0.49015793  0.23235559  1
  P  P13  1  0.81568855  0.75000000  0.62612429  1
  P  P14  1  0.82665694  0.03398369  0.71611277  1
  P  P15  1  0.82665694  0.46601631  0.71611277  1
  O  O16  1  0.01063424  0.75000000  0.57614112  1
  O  O17  1  0.05077731  0.05114062  0.69442400  1
  O  O18  1  0.05077731  0.44885938  0.69442400  1
  O  O19  1  0.12592081  0.25000000  0.94507534  1
  O  O20  1  0.17224891  0.58410924  0.87819541  1
  O  O21  1  0.17224891  0.91589076  0.87819541  1
  O  O22  1  0.20390085  0.12813570  0.27716923  1
  O  O23  1  0.20390085  0.37186430  0.27716923  1
  O  O24  1  0.22025433  0.91027028  0.16310435  1
  O  O25  1  0.22025433  0.58972972  0.16310435  1
  O  O26  1  0.27168611  0.59138621  0.39454772  1
  O  O27  1  0.27168611  0.90861379  0.39454772  1
  O  O28  1  0.34909212  0.12542499  0.80345062  1
  O  O29  1  0.34909212  0.37457501  0.80345062  1
  O  O30  1  0.35083304  0.58562586  0.67933532  1
  O  O31  1  0.35083304  0.91437414  0.67933532  1
  O  O32  1  0.35162439  0.25000000  0.46114013  1
  O  O33  1  0.48893252  0.25000000  0.98354729  1
  O  O34  1  0.51106748  0.75000000  0.01645271  1
  O  O35  1  0.64837561  0.75000000  0.53885987  1
  O  O36  1  0.64916696  0.08562586  0.32066468  1
  O  O37  1  0.64916696  0.41437414  0.32066468  1
  O  O38  1  0.65090788  0.62542499  0.19654938  1
  O  O39  1  0.65090788  0.87457501  0.19654938  1
  O  O40  1  0.72831389  0.09138621  0.60545228  1
  O  O41  1  0.72831389  0.40861379  0.60545228  1
  O  O42  1  0.77974567  0.08972972  0.83689565  1
  O  O43  1  0.77974567  0.41027028  0.83689565  1
  O  O44  1  0.79609915  0.62813570  0.72283077  1
  O  O45  1  0.79609915  0.87186430  0.72283077  1
  O  O46  1  0.82775109  0.08410924  0.12180459  1
  O  O47  1  0.82775109  0.41589076  0.12180459  1
  O  O48  1  0.87407919  0.75000000  0.05492466  1
  O  O49  1  0.94922269  0.55114062  0.30557600  1
  O  O50  1  0.94922269  0.94885938  0.30557600  1
  O  O51  1  0.98936576  0.25000000  0.42385888  1
