# generated using pymatgen
data_Ba10Li2Bi4O21
_symmetry_space_group_name_H-M   'P 1'
_cell_length_a   14.74169938
_cell_length_b   6.09874753
_cell_length_c   14.85599815
_cell_angle_alpha   90.00000000
_cell_angle_beta   90.00000000
_cell_angle_gamma   90.00000000
_symmetry_Int_Tables_number   1
_chemical_formula_structural   Ba10Li2Bi4O21
_chemical_formula_sum   'Ba20 Li4 Bi8 O42'
_cell_volume   1335.64192391
_cell_formula_units_Z   2
loop_
 _symmetry_equiv_pos_site_id
 _symmetry_equiv_pos_as_xyz
  1  'x, y, z'
loop_
 _atom_site_type_symbol
 _atom_site_label
 _atom_site_symmetry_multiplicity
 _atom_site_fract_x
 _atom_site_fract_y
 _atom_site_fract_z
 _atom_site_occupancy
  Ba  Ba0  1  0.00185201  0.75000000  0.34010920  1
  Ba  Ba1  1  0.07810760  0.75000000  0.82400758  1
  Ba  Ba2  1  0.16512031  0.25000000  0.46382389  1
  Ba  Ba3  1  0.17398684  0.25000000  0.04650687  1
  Ba  Ba4  1  0.24822156  0.25000000  0.74610545  1
  Ba  Ba5  1  0.24890738  0.75000000  0.24701534  1
  Ba  Ba6  1  0.32356566  0.75000000  0.54840536  1
  Ba  Ba7  1  0.34300044  0.75000000  0.95902392  1
  Ba  Ba8  1  0.40691136  0.25000000  0.33284051  1
  Ba  Ba9  1  0.49497454  0.25000000  0.83654858  1
  Ba  Ba10  1  0.50185201  0.75000000  0.15989080  1
  Ba  Ba11  1  0.57810760  0.75000000  0.67599242  1
  Ba  Ba12  1  0.66512031  0.25000000  0.03617611  1
  Ba  Ba13  1  0.67398684  0.25000000  0.45349313  1
  Ba  Ba14  1  0.74822156  0.25000000  0.75389455  1
  Ba  Ba15  1  0.74890738  0.75000000  0.25298466  1
  Ba  Ba16  1  0.82356566  0.75000000  0.95159464  1
  Ba  Ba17  1  0.84300044  0.75000000  0.54097608  1
  Ba  Ba18  1  0.90691136  0.25000000  0.16715949  1
  Ba  Ba19  1  0.99497454  0.25000000  0.66345142  1
  Li  Li20  1  0.12134943  0.25000000  0.25584228  1
  Li  Li21  1  0.37176300  0.75000000  0.75547248  1
  Li  Li22  1  0.62134943  0.25000000  0.24415772  1
  Li  Li23  1  0.87176300  0.75000000  0.74452752  1
  Bi  Bi24  1  0.03551639  0.75000000  0.09893474  1
  Bi  Bi25  1  0.08577423  0.75000000  0.56721183  1
  Bi  Bi26  1  0.41132742  0.25000000  0.06744555  1
  Bi  Bi27  1  0.45593829  0.25000000  0.59537557  1
  Bi  Bi28  1  0.53551639  0.75000000  0.40106526  1
  Bi  Bi29  1  0.58577423  0.75000000  0.93278817  1
  Bi  Bi30  1  0.91132742  0.25000000  0.43255445  1
  Bi  Bi31  1  0.95593829  0.25000000  0.90462443  1
  O  O32  1  0.02337731  0.99065962  0.99294974  1
  O  O33  1  0.02337731  0.50934038  0.99294974  1
  O  O34  1  0.00006478  0.00041581  0.49843578  1
  O  O35  1  0.00006478  0.49958419  0.49843578  1
  O  O36  1  0.00744130  0.25000000  0.32726865  1
  O  O37  1  0.08396438  0.25000000  0.83609023  1
  O  O38  1  0.10467502  0.51256586  0.17684061  1
  O  O39  1  0.10467502  0.98743414  0.17684061  1
  O  O40  1  0.16006645  0.00501261  0.62559458  1
  O  O41  1  0.16006645  0.49498739  0.62559458  1
  O  O42  1  0.16572483  0.75000000  0.44510991  1
  O  O43  1  0.23965599  0.25000000  0.30851016  1
  O  O44  1  0.25338349  0.75000000  0.81687919  1
  O  O45  1  0.34480790  0.25000000  0.50605065  1
  O  O46  1  0.33367286  0.25000000  0.94423560  1
  O  O47  1  0.33422757  0.51108931  0.11946118  1
  O  O48  1  0.33422757  0.98891069  0.11946118  1
  O  O49  1  0.40070906  0.00621389  0.68009124  1
  O  O50  1  0.40070906  0.49378611  0.68009124  1
  O  O51  1  0.40837036  0.75000000  0.33948584  1
  O  O52  1  0.48352009  0.75000000  0.83385443  1
  O  O53  1  0.52337731  0.99065962  0.50705026  1
  O  O54  1  0.52337731  0.50934038  0.50705026  1
  O  O55  1  0.50006478  0.00041581  0.00156422  1
  O  O56  1  0.50006478  0.49958419  0.00156422  1
  O  O57  1  0.50744130  0.25000000  0.17273135  1
  O  O58  1  0.58396438  0.25000000  0.66390977  1
  O  O59  1  0.60467502  0.51256586  0.32315939  1
  O  O60  1  0.60467502  0.98743414  0.32315939  1
  O  O61  1  0.66006645  0.00501261  0.87440542  1
  O  O62  1  0.66006645  0.49498739  0.87440542  1
  O  O63  1  0.66572483  0.75000000  0.05489009  1
  O  O64  1  0.73965599  0.25000000  0.19148984  1
  O  O65  1  0.75338349  0.75000000  0.68312081  1
  O  O66  1  0.84480790  0.25000000  0.99394935  1
  O  O67  1  0.83367286  0.25000000  0.55576440  1
  O  O68  1  0.83422757  0.51108931  0.38053882  1
  O  O69  1  0.83422757  0.98891069  0.38053882  1
  O  O70  1  0.90070906  0.00621389  0.81990876  1
  O  O71  1  0.90070906  0.49378611  0.81990876  1
  O  O72  1  0.90837036  0.75000000  0.16051416  1
  O  O73  1  0.98352009  0.75000000  0.66614557  1
