# generated using pymatgen
data_ReN2
_symmetry_space_group_name_H-M   'P 1'
_cell_length_a   2.86538140
_cell_length_b   2.86538140
_cell_length_c   9.17758372
_cell_angle_alpha   92.34180253
_cell_angle_beta   96.65425707
_cell_angle_gamma   119.86638752
_symmetry_Int_Tables_number   1
_chemical_formula_structural   ReN2
_chemical_formula_sum   'Re2 N4'
_cell_volume   64.47765460
_cell_formula_units_Z   2
loop_
 _symmetry_equiv_pos_site_id
 _symmetry_equiv_pos_as_xyz
  1  'x, y, z'
loop_
 _atom_site_type_symbol
 _atom_site_label
 _atom_site_symmetry_multiplicity
 _atom_site_fract_x
 _atom_site_fract_y
 _atom_site_fract_z
 _atom_site_occupancy
  Re  Re0  1  0.99914358  0.06144905  0.06059263  1
  Re  Re1  1  0.25300531  0.24537357  0.49837889  1
  N  N2  1  0.74850212  0.45380497  0.20230709  1
  N  N3  1  0.83803635  0.51867190  0.35670825  1
  N  N4  1  0.99580153  0.63492703  0.63072856  1
  N  N5  1  0.58851110  0.33977348  0.92828458  1
