# generated using pymatgen
data_Na3SbO3
_symmetry_space_group_name_H-M   'P 1'
_cell_length_a   8.33823616
_cell_length_b   8.33823615
_cell_length_c   8.33823616
_cell_angle_alpha   109.47122063
_cell_angle_beta   109.47122062
_cell_angle_gamma   109.47122066
_symmetry_Int_Tables_number   1
_chemical_formula_structural   Na3SbO3
_chemical_formula_sum   'Na12 Sb4 O12'
_cell_volume   446.27307220
_cell_formula_units_Z   4
loop_
 _symmetry_equiv_pos_site_id
 _symmetry_equiv_pos_as_xyz
  1  'x, y, z'
loop_
 _atom_site_type_symbol
 _atom_site_label
 _atom_site_symmetry_multiplicity
 _atom_site_fract_x
 _atom_site_fract_y
 _atom_site_fract_z
 _atom_site_occupancy
  O  O0  1  0.48016076  0.48016076  0.25951327  1
  O  O1  1  0.48016076  0.25951327  0.48016076  1
  O  O2  1  0.25951327  0.48016076  0.48016076  1
  O  O3  1  0.00000000  0.51983924  0.77935251  1
  O  O4  1  0.51983924  0.77935251  0.00000000  1
  O  O5  1  0.77935251  0.51983924  0.00000000  1
  O  O6  1  0.22064749  0.22064749  0.74048673  1
  O  O7  1  0.00000000  0.77935251  0.51983924  1
  O  O8  1  0.77935251  0.00000000  0.51983924  1
  O  O9  1  0.74048673  0.22064749  0.22064749  1
  O  O10  1  0.22064749  0.74048673  0.22064749  1
  O  O11  1  0.51983924  0.00000000  0.77935251  1
  Na  Na12  1  0.72531235  0.24414398  0.72531235  1
  Na  Na13  1  0.24414398  0.72531235  0.72531235  1
  Na  Na14  1  0.72531235  0.72531235  0.24414398  1
  Na  Na15  1  0.27468765  0.00000000  0.51883163  1
  Na  Na16  1  0.51883163  0.00000000  0.27468765  1
  Na  Na17  1  0.48116837  0.75585602  0.48116837  1
  Na  Na18  1  0.75585602  0.48116837  0.48116837  1
  Na  Na19  1  0.00000000  0.51883163  0.27468765  1
  Na  Na20  1  0.51883163  0.27468765  0.00000000  1
  Na  Na21  1  0.27468765  0.51883163  0.00000000  1
  Na  Na22  1  0.48116837  0.48116837  0.75585602  1
  Na  Na23  1  0.00000000  0.27468765  0.51883163  1
  Sb  Sb24  1  0.00000000  0.00000000  0.70970751  1
  Sb  Sb25  1  0.70970751  0.00000000  0.00000000  1
  Sb  Sb26  1  0.29029249  0.29029249  0.29029249  1
  Sb  Sb27  1  0.00000000  0.70970751  0.00000000  1
