# generated using pymatgen
data_Ba3Zr2S7
_symmetry_space_group_name_H-M   'P 1'
_cell_length_a   7.17091044
_cell_length_b   7.17091044
_cell_length_c   25.54761852
_cell_angle_alpha   90.00000000
_cell_angle_beta   90.00000000
_cell_angle_gamma   90.00000000
_symmetry_Int_Tables_number   1
_chemical_formula_structural   Ba3Zr2S7
_chemical_formula_sum   'Ba12 Zr8 S28'
_cell_volume   1313.70852920
_cell_formula_units_Z   4
loop_
 _symmetry_equiv_pos_site_id
 _symmetry_equiv_pos_as_xyz
  1  'x, y, z'
loop_
 _atom_site_type_symbol
 _atom_site_label
 _atom_site_symmetry_multiplicity
 _atom_site_fract_x
 _atom_site_fract_y
 _atom_site_fract_z
 _atom_site_occupancy
  S  S0  1  0.00000000  0.50000000  0.40426713  1
  S  S1  1  0.00000000  0.50000000  0.90426713  1
  S  S2  1  0.50000000  0.00000000  0.09573287  1
  S  S3  1  0.50000000  0.00000000  0.59573287  1
  S  S4  1  0.00000000  0.50000000  0.59573287  1
  S  S5  1  0.00000000  0.50000000  0.09573287  1
  S  S6  1  0.50000000  0.00000000  0.90426713  1
  S  S7  1  0.50000000  0.00000000  0.40426713  1
  S  S8  1  0.50000000  0.50000000  0.61271410  1
  S  S9  1  0.00000000  0.00000000  0.11271410  1
  S  S10  1  0.00000000  0.00000000  0.88728590  1
  S  S11  1  0.50000000  0.50000000  0.38728590  1
  S  S12  1  0.78600184  0.78600184  0.69791510  1
  S  S13  1  0.21399816  0.21399816  0.69791510  1
  S  S14  1  0.78600184  0.78600184  0.30208490  1
  S  S15  1  0.28600184  0.71399816  0.19791510  1
  S  S16  1  0.71399816  0.28600184  0.19791510  1
  S  S17  1  0.71399816  0.28600184  0.80208490  1
  S  S18  1  0.28600184  0.71399816  0.80208490  1
  S  S19  1  0.21399816  0.21399816  0.30208490  1
  S  S20  1  0.00000000  0.00000000  0.41817535  1
  S  S21  1  0.50000000  0.50000000  0.91817535  1
  S  S22  1  0.50000000  0.50000000  0.08182465  1
  S  S23  1  0.00000000  0.00000000  0.58182465  1
  S  S24  1  0.29398301  0.29398301  0.50000000  1
  S  S25  1  0.20601699  0.79398301  0.00000000  1
  S  S26  1  0.79398301  0.20601699  0.00000000  1
  S  S27  1  0.70601699  0.70601699  0.50000000  1
  Zr  Zr28  1  0.74906813  0.74906813  0.59989722  1
  Zr  Zr29  1  0.25093187  0.25093187  0.59989722  1
  Zr  Zr30  1  0.74906813  0.74906813  0.40010278  1
  Zr  Zr31  1  0.24906813  0.75093187  0.09989722  1
  Zr  Zr32  1  0.75093187  0.24906813  0.09989722  1
  Zr  Zr33  1  0.75093187  0.24906813  0.90010278  1
  Zr  Zr34  1  0.24906813  0.75093187  0.90010278  1
  Zr  Zr35  1  0.25093187  0.25093187  0.40010278  1
  Ba  Ba36  1  0.25479098  0.74520902  0.50000000  1
  Ba  Ba37  1  0.75479098  0.75479098  0.00000000  1
  Ba  Ba38  1  0.24520902  0.24520902  0.00000000  1
  Ba  Ba39  1  0.74520902  0.25479098  0.50000000  1
  Ba  Ba40  1  0.76531761  0.23468239  0.68111531  1
  Ba  Ba41  1  0.23468239  0.76531761  0.68111531  1
  Ba  Ba42  1  0.23468239  0.76531761  0.31888469  1
  Ba  Ba43  1  0.73468239  0.73468239  0.18111531  1
  Ba  Ba44  1  0.26531761  0.26531761  0.18111531  1
  Ba  Ba45  1  0.73468239  0.73468239  0.81888469  1
  Ba  Ba46  1  0.26531761  0.26531761  0.81888469  1
  Ba  Ba47  1  0.76531761  0.23468239  0.31888469  1
