# generated using pymatgen
data_PmInNi2
_symmetry_space_group_name_H-M   'P 1'
_cell_length_a   4.65111339
_cell_length_b   4.65101644
_cell_length_c   4.65122318
_cell_angle_alpha   60.00001189
_cell_angle_beta   59.99932303
_cell_angle_gamma   59.99933272
_symmetry_Int_Tables_number   1
_chemical_formula_structural   PmInNi2
_chemical_formula_sum   'Pm1 In1 Ni2'
_cell_volume   71.14634753
_cell_formula_units_Z   1
loop_
 _symmetry_equiv_pos_site_id
 _symmetry_equiv_pos_as_xyz
  1  'x, y, z'
loop_
 _atom_site_type_symbol
 _atom_site_label
 _atom_site_symmetry_multiplicity
 _atom_site_fract_x
 _atom_site_fract_y
 _atom_site_fract_z
 _atom_site_occupancy
  Pm  Pm0  1  0.74999983  0.75000151  0.74999888  1
  In  In1  1  0.24999623  0.25000115  0.25000474  1
  Ni  Ni2  1  0.00000117  0.99999637  0.00000101  1
  Ni  Ni3  1  0.50000277  0.50000098  0.49999537  1
