# generated using pymatgen
data_SrCa7TiMn7O24
_symmetry_space_group_name_H-M   'P 1'
_cell_length_a   7.64703423
_cell_length_b   7.64703423
_cell_length_c   7.64703423
_cell_angle_alpha   90.01256345
_cell_angle_beta   90.01256345
_cell_angle_gamma   89.98743655
_symmetry_Int_Tables_number   1
_chemical_formula_structural   SrCa7TiMn7O24
_chemical_formula_sum   'Sr1 Ca7 Ti1 Mn7 O24'
_cell_volume   447.17660210
_cell_formula_units_Z   1
loop_
 _symmetry_equiv_pos_site_id
 _symmetry_equiv_pos_as_xyz
  1  'x, y, z'
loop_
 _atom_site_type_symbol
 _atom_site_label
 _atom_site_symmetry_multiplicity
 _atom_site_fract_x
 _atom_site_fract_y
 _atom_site_fract_z
 _atom_site_occupancy
  Sr  Sr0  1  0.74814980  0.24814980  0.75185020  1
  Ca  Ca1  1  0.25227409  0.24776033  0.24772591  1
  Ca  Ca2  1  0.25209065  0.24775839  0.75224161  1
  Ca  Ca3  1  0.25229265  0.75229265  0.24770735  1
  Ca  Ca4  1  0.25227409  0.75227409  0.75223967  1
  Ca  Ca5  1  0.74775839  0.24775839  0.24790935  1
  Ca  Ca6  1  0.74776033  0.75227409  0.24772591  1
  Ca  Ca7  1  0.74775839  0.75209065  0.75224161  1
  Ti  Ti8  1  0.00123421  0.50123421  0.49876579  1
  Mn  Mn9  1  0.00055963  0.99942253  0.00057747  1
  Mn  Mn10  1  0.00073312  0.99965096  0.49926688  1
  Mn  Mn11  1  0.00073312  0.50073312  0.00034904  1
  Mn  Mn12  1  0.49924573  0.99924573  0.00075427  1
  Mn  Mn13  1  0.49942253  0.99942253  0.49944037  1
  Mn  Mn14  1  0.49942253  0.50055963  0.00057747  1
  Mn  Mn15  1  0.49965096  0.50073312  0.49926688  1
  O  O16  1  0.25007052  0.99961848  0.00038152  1
  O  O17  1  0.25005528  0.99969467  0.49968753  1
  O  O18  1  0.25005528  0.50031247  0.00030533  1
  O  O19  1  0.25314291  0.50053593  0.49946407  1
  O  O20  1  0.74991641  0.99667709  0.00332291  1
  O  O21  1  0.74992918  0.99654385  0.49659836  1
  O  O22  1  0.74992918  0.50340164  0.00345615  1
  O  O23  1  0.74688738  0.50254271  0.49745729  1
  O  O24  1  0.00340164  0.24992918  0.00345615  1
  O  O25  1  0.00254271  0.24688738  0.49745729  1
  O  O26  1  0.00031247  0.75005528  0.00030533  1
  O  O27  1  0.00053593  0.75314291  0.49946407  1
  O  O28  1  0.49667709  0.24991641  0.00332291  1
  O  O29  1  0.49654385  0.24992918  0.49659836  1
  O  O30  1  0.49961848  0.75007052  0.00038152  1
  O  O31  1  0.49969467  0.75005528  0.49968753  1
  O  O32  1  0.00031247  0.99969467  0.24994472  1
  O  O33  1  0.00340164  0.99654385  0.75007082  1
  O  O34  1  0.00053593  0.50053593  0.24685709  1
  O  O35  1  0.00254271  0.50254271  0.75311262  1
  O  O36  1  0.49961848  0.99961848  0.24992948  1
  O  O37  1  0.49667709  0.99667709  0.75008359  1
  O  O38  1  0.49969467  0.50031247  0.24994472  1
  O  O39  1  0.49654385  0.50340164  0.75007082  1
