# generated using pymatgen
data_NbInRu2
_symmetry_space_group_name_H-M   'P 1'
_cell_length_a   4.51885308
_cell_length_b   4.52605493
_cell_length_c   4.51980710
_cell_angle_alpha   59.77981875
_cell_angle_beta   59.99975129
_cell_angle_gamma   60.09297956
_symmetry_Int_Tables_number   1
_chemical_formula_structural   NbInRu2
_chemical_formula_sum   'Nb1 In1 Ru2'
_cell_volume   65.30214900
_cell_formula_units_Z   1
loop_
 _symmetry_equiv_pos_site_id
 _symmetry_equiv_pos_as_xyz
  1  'x, y, z'
loop_
 _atom_site_type_symbol
 _atom_site_label
 _atom_site_symmetry_multiplicity
 _atom_site_fract_x
 _atom_site_fract_y
 _atom_site_fract_z
 _atom_site_occupancy
  Nb  Nb0  1  0.75003812  0.75005220  0.75052454  1
  In  In1  1  0.25001059  0.24996287  0.24990302  1
  Ru  Ru2  1  0.99982304  0.00008712  0.00032111  1
  Ru  Ru3  1  0.50012825  0.49989781  0.49925133  1
