# generated using pymatgen
data_U2Re2C3
_symmetry_space_group_name_H-M   'P 1'
_cell_length_a   3.04220518
_cell_length_b   5.59257730
_cell_length_c   5.97766508
_cell_angle_alpha   104.66808047
_cell_angle_beta   104.74185152
_cell_angle_gamma   90.00000039
_symmetry_Int_Tables_number   1
_chemical_formula_structural   U2Re2C3
_chemical_formula_sum   'U2 Re2 C3'
_cell_volume   94.92334997
_cell_formula_units_Z   1
loop_
 _symmetry_equiv_pos_site_id
 _symmetry_equiv_pos_as_xyz
  1  'x, y, z'
loop_
 _atom_site_type_symbol
 _atom_site_label
 _atom_site_symmetry_multiplicity
 _atom_site_fract_x
 _atom_site_fract_y
 _atom_site_fract_z
 _atom_site_occupancy
  U  U0  1  0.60242344  0.82662239  0.20484688  1
  U  U1  1  0.39757656  0.17337761  0.79515312  1
  Re  Re2  1  0.84519976  0.62960360  0.69039951  1
  Re  Re3  1  0.15480024  0.37039640  0.30960049  1
  C  C4  1  -0.00000000  0.50000000  0.00000000  1
  C  C5  1  0.25358061  0.75989868  0.50716122  1
  C  C6  1  0.74641939  0.24010132  0.49283878  1
