# generated using pymatgen
data_LuPaRu2
_symmetry_space_group_name_H-M   'P 1'
_cell_length_a   4.80193127
_cell_length_b   4.80196348
_cell_length_c   4.80197157
_cell_angle_alpha   60.00896179
_cell_angle_beta   60.00854899
_cell_angle_gamma   60.00740766
_symmetry_Int_Tables_number   1
_chemical_formula_structural   LuPaRu2
_chemical_formula_sum   'Lu1 Pa1 Ru2'
_cell_volume   78.31070855
_cell_formula_units_Z   1
loop_
 _symmetry_equiv_pos_site_id
 _symmetry_equiv_pos_as_xyz
  1  'x, y, z'
loop_
 _atom_site_type_symbol
 _atom_site_label
 _atom_site_symmetry_multiplicity
 _atom_site_fract_x
 _atom_site_fract_y
 _atom_site_fract_z
 _atom_site_occupancy
  Lu  Lu0  1  0.24999889  0.25001098  0.24999362  1
  Pa  Pa1  1  0.75000056  0.74999691  0.75000554  1
  Ru  Ru2  1  0.99998884  0.99998172  0.99998347  1
  Ru  Ru3  1  0.50001070  0.50000939  0.50001637  1
