# generated using pymatgen
data_YbBe13
_symmetry_space_group_name_H-M   'P 1'
_cell_length_a   7.21379867
_cell_length_b   7.21379867
_cell_length_c   7.21379867
_cell_angle_alpha   60.00000000
_cell_angle_beta   60.00000000
_cell_angle_gamma   60.00000000
_symmetry_Int_Tables_number   1
_chemical_formula_structural   YbBe13
_chemical_formula_sum   'Yb2 Be26'
_cell_volume   265.44653156
_cell_formula_units_Z   2
loop_
 _symmetry_equiv_pos_site_id
 _symmetry_equiv_pos_as_xyz
  1  'x, y, z'
loop_
 _atom_site_type_symbol
 _atom_site_label
 _atom_site_symmetry_multiplicity
 _atom_site_fract_x
 _atom_site_fract_y
 _atom_site_fract_z
 _atom_site_occupancy
  Yb  Yb0  1  0.24999900  0.24999900  0.24999900  1
  Yb  Yb1  1  0.75000000  0.75000000  0.75000000  1
  Be  Be2  1  0.93575218  0.71057028  0.28943072  1
  Be  Be3  1  0.71056828  0.93575418  0.06424682  1
  Be  Be4  1  0.06424682  0.28943272  0.71056828  1
  Be  Be5  1  0.28943072  0.06424882  0.93575218  1
  Be  Be6  1  0.93575218  0.28943072  0.06424882  1
  Be  Be7  1  0.06424882  0.93575218  0.28943072  1
  Be  Be8  1  0.28943072  0.93575218  0.71057028  1
  Be  Be9  1  0.28943272  0.71056828  0.06424682  1
  Be  Be10  1  0.71056828  0.06424682  0.28943272  1
  Be  Be11  1  0.93575418  0.06424682  0.71056828  1
  Be  Be12  1  0.06424682  0.71056828  0.93575418  1
  Be  Be13  1  0.71057028  0.28943072  0.93575218  1
  Be  Be14  1  0.43575318  0.21056828  0.56424782  1
  Be  Be15  1  0.21057028  0.43575118  0.78943072  1
  Be  Be16  1  0.56424882  0.78942972  0.43575218  1
  Be  Be17  1  0.78943172  0.56424682  0.21056928  1
  Be  Be18  1  0.21056828  0.56424782  0.43575318  1
  Be  Be19  1  0.56424782  0.43575318  0.21056828  1
  Be  Be20  1  0.56424682  0.21056928  0.78943172  1
  Be  Be21  1  0.78943072  0.21057028  0.43575118  1
  Be  Be22  1  0.43575118  0.78943072  0.21057028  1
  Be  Be23  1  0.43575218  0.56424882  0.78942972  1
  Be  Be24  1  0.78942972  0.43575218  0.56424882  1
  Be  Be25  1  0.21056928  0.78943172  0.56424682  1
  Be  Be26  1  0.00000000  0.00000000  0.00000000  1
  Be  Be27  1  0.50000000  0.50000000  0.50000000  1
