# generated using pymatgen
data_H3W
_symmetry_space_group_name_H-M   'P 1'
_cell_length_a   3.05319928
_cell_length_b   3.06649554
_cell_length_c   7.50933289
_cell_angle_alpha   100.96031331
_cell_angle_beta   90.00000000
_cell_angle_gamma   90.00000000
_symmetry_Int_Tables_number   1
_chemical_formula_structural   H3W
_chemical_formula_sum   'H6 W2'
_cell_volume   69.02458234
_cell_formula_units_Z   2
loop_
 _symmetry_equiv_pos_site_id
 _symmetry_equiv_pos_as_xyz
  1  'x, y, z'
loop_
 _atom_site_type_symbol
 _atom_site_label
 _atom_site_symmetry_multiplicity
 _atom_site_fract_x
 _atom_site_fract_y
 _atom_site_fract_z
 _atom_site_occupancy
  H  H0  1  0.25000000  0.57023939  0.21909787  1
  H  H1  1  0.75000000  0.42976061  0.78090213  1
  H  H2  1  0.25000000  0.88972046  0.77968745  1
  H  H3  1  0.75000000  0.11027954  0.22031255  1
  H  H4  1  0.75000000  0.90494679  0.61979573  1
  H  H5  1  0.25000000  0.09505321  0.38020427  1
  W  W6  1  0.75000000  0.68029285  0.37894156  1
  W  W7  1  0.25000000  0.31970715  0.62105844  1
