# generated using pymatgen
data_Al2FeIr
_symmetry_space_group_name_H-M   'P 1'
_cell_length_a   4.18663579
_cell_length_b   4.18666874
_cell_length_c   4.18666348
_cell_angle_alpha   60.00052021
_cell_angle_beta   59.99958639
_cell_angle_gamma   60.00046283
_symmetry_Int_Tables_number   1
_chemical_formula_structural   Al2FeIr
_chemical_formula_sum   'Al2 Fe1 Ir1'
_cell_volume   51.89060178
_cell_formula_units_Z   1
loop_
 _symmetry_equiv_pos_site_id
 _symmetry_equiv_pos_as_xyz
  1  'x, y, z'
loop_
 _atom_site_type_symbol
 _atom_site_label
 _atom_site_symmetry_multiplicity
 _atom_site_fract_x
 _atom_site_fract_y
 _atom_site_fract_z
 _atom_site_occupancy
  Al  Al0  1  0.50000087  0.50000039  0.49999935  1
  Al  Al1  1  0.00000048  0.00000055  -0.00000080  1
  Fe  Fe2  1  0.24999872  0.24999955  0.25000313  1
  Ir  Ir3  1  0.74999993  0.74999951  0.74999833  1
