# generated using pymatgen
data_TeMoWS3
_symmetry_space_group_name_H-M   'P 1'
_cell_length_a   3.27576370
_cell_length_b   3.27558740
_cell_length_c   37.25616497
_cell_angle_alpha   90.00002264
_cell_angle_beta   90.00000000
_cell_angle_gamma   120.00178041
_symmetry_Int_Tables_number   1
_chemical_formula_structural   TeMoWS3
_chemical_formula_sum   'Te2 Mo2 W2 S6'
_cell_volume   346.19655852
_cell_formula_units_Z   2
loop_
 _symmetry_equiv_pos_site_id
 _symmetry_equiv_pos_as_xyz
  1  'x, y, z'
loop_
 _atom_site_type_symbol
 _atom_site_label
 _atom_site_symmetry_multiplicity
 _atom_site_fract_x
 _atom_site_fract_y
 _atom_site_fract_z
 _atom_site_occupancy
  Te  Te0  1  0.66664789  0.33329479  0.41778829  1
  Te  Te1  1  0.66664795  0.33329489  0.52154577  1
  Mo  Mo2  1  0.33330903  0.66661806  0.09392892  1
  Mo  Mo3  1  0.66669514  0.33339027  0.65755938  1
  W  W4  1  0.33330962  0.66661923  0.46967628  1
  W  W5  1  0.66669088  0.33338176  0.28177228  1
  S  S6  1  0.33335497  0.66671095  0.32316095  1
  S  S7  1  0.33335070  0.66670239  0.69885955  1
  S  S8  1  0.66664604  0.33329109  0.05260152  1
  S  S9  1  0.66664292  0.33328483  0.13525447  1
  S  S10  1  0.33335246  0.66670592  0.24038983  1
  S  S11  1  0.33335241  0.66670582  0.61621077  1
