# generated using pymatgen
data_LiGd2Ru
_symmetry_space_group_name_H-M   'P 1'
_cell_length_a   4.95477800
_cell_length_b   4.95505071
_cell_length_c   4.95509747
_cell_angle_alpha   59.99470007
_cell_angle_beta   59.99380963
_cell_angle_gamma   59.99975363
_symmetry_Int_Tables_number   1
_chemical_formula_structural   LiGd2Ru
_chemical_formula_sum   'Li1 Gd2 Ru1'
_cell_volume   86.01436367
_cell_formula_units_Z   1
loop_
 _symmetry_equiv_pos_site_id
 _symmetry_equiv_pos_as_xyz
  1  'x, y, z'
loop_
 _atom_site_type_symbol
 _atom_site_label
 _atom_site_symmetry_multiplicity
 _atom_site_fract_x
 _atom_site_fract_y
 _atom_site_fract_z
 _atom_site_occupancy
  Li  Li0  1  0.25000045  0.25000152  0.25000114  1
  Gd  Gd1  1  0.00005311  0.00005240  0.00005605  1
  Gd  Gd2  1  0.49994371  0.49995169  0.49994232  1
  Ru  Ru3  1  0.75000274  0.74999439  0.75000050  1
