# generated using pymatgen
data_TeMoWS3
_symmetry_space_group_name_H-M   'P 1'
_cell_length_a   3.27749309
_cell_length_b   3.27754132
_cell_length_c   37.21319041
_cell_angle_alpha   90.00007429
_cell_angle_beta   90.00000000
_cell_angle_gamma   119.99951328
_symmetry_Int_Tables_number   1
_chemical_formula_structural   TeMoWS3
_chemical_formula_sum   'Te2 Mo2 W2 S6'
_cell_volume   346.19407252
_cell_formula_units_Z   2
loop_
 _symmetry_equiv_pos_site_id
 _symmetry_equiv_pos_as_xyz
  1  'x, y, z'
loop_
 _atom_site_type_symbol
 _atom_site_label
 _atom_site_symmetry_multiplicity
 _atom_site_fract_x
 _atom_site_fract_y
 _atom_site_fract_z
 _atom_site_occupancy
  Te  Te0  1  0.33335388  0.66670875  0.70943469  1
  Te  Te1  1  0.33336275  0.66672649  0.60565553  1
  Mo  Mo2  1  0.33330882  0.66661764  0.09392115  1
  Mo  Mo3  1  0.33331162  0.66662325  0.46963351  1
  W  W4  1  0.66669000  0.33338000  0.28179980  1
  W  W5  1  0.66669348  0.33338697  0.65755235  1
  S  S6  1  0.33335599  0.66671297  0.32319564  1
  S  S7  1  0.66664580  0.33329061  0.05258317  1
  S  S8  1  0.66663980  0.33327861  0.42831928  1
  S  S9  1  0.66664549  0.33328999  0.13526223  1
  S  S10  1  0.66663857  0.33327613  0.51098968  1
  S  S11  1  0.33335380  0.66670860  0.24040097  1
