# generated using pymatgen
data_MnHO2
_symmetry_space_group_name_H-M   'P 1'
_cell_length_a   6.23546559
_cell_length_b   10.62273431
_cell_length_c   10.70120905
_cell_angle_alpha   90.16153199
_cell_angle_beta   90.39128200
_cell_angle_gamma   89.84337822
_symmetry_Int_Tables_number   1
_chemical_formula_structural   MnHO2
_chemical_formula_sum   'Mn16 H16 O32'
_cell_volume   708.80145650
_cell_formula_units_Z   16
loop_
 _symmetry_equiv_pos_site_id
 _symmetry_equiv_pos_as_xyz
  1  'x, y, z'
loop_
 _atom_site_type_symbol
 _atom_site_label
 _atom_site_symmetry_multiplicity
 _atom_site_fract_x
 _atom_site_fract_y
 _atom_site_fract_z
 _atom_site_occupancy
  Mn  Mn0  1  0.49808462  0.64271230  0.85745002  1
  Mn  Mn1  1  0.00188847  0.64464249  0.85694019  1
  Mn  Mn2  1  0.49464169  0.14606934  0.64232371  1
  Mn  Mn3  1  0.99149443  0.14600345  0.64297169  1
  Mn  Mn4  1  0.00520229  0.85609128  0.36331630  1
  Mn  Mn5  1  0.50130695  0.85914906  0.35701527  1
  Mn  Mn6  1  0.99832473  0.35921711  0.14194299  1
  Mn  Mn7  1  0.50352910  0.35964500  0.14232647  1
  Mn  Mn8  1  0.25461431  0.15247345  0.34325067  1
  Mn  Mn9  1  0.74916981  0.15169282  0.34256411  1
  Mn  Mn10  1  0.24899557  0.65944699  0.14863134  1
  Mn  Mn11  1  0.74917281  0.66544556  0.14986922  1
  Mn  Mn12  1  0.24502063  0.33899875  0.84914725  1
  Mn  Mn13  1  0.74652150  0.34681593  0.84790240  1
  Mn  Mn14  1  0.24603648  0.84889336  0.66152296  1
  Mn  Mn15  1  0.74523106  0.84885806  0.65668999  1
  H  H16  1  0.28497007  0.65628282  0.39825190  1
  H  H17  1  0.72995813  0.65327103  0.39869773  1
  H  H18  1  0.47973060  0.16258917  0.92834407  1
  H  H19  1  0.99989254  0.14282153  0.90554386  1
  H  H20  1  0.99074607  0.83917066  0.07175924  1
  H  H21  1  0.53326685  0.84460512  0.06067954  1
  H  H22  1  0.53132405  0.06900986  0.16273206  1
  H  H23  1  0.00375642  0.06082869  0.17797863  1
  H  H24  1  0.02677763  0.91166265  0.86273444  1
  H  H25  1  0.48135667  0.93394390  0.83562172  1
  H  H26  1  0.74235818  0.33471731  0.58001427  1
  H  H27  1  0.22760692  0.35296019  0.59748130  1
  H  H28  1  0.76431664  0.58099770  0.66951518  1
  H  H29  1  0.24253141  0.59658621  0.65275117  1
  H  H30  1  0.78006906  0.40174961  0.34950242  1
  H  H31  1  0.24047043  0.40882024  0.34111240  1
  O  O32  1  0.24275115  0.33369418  0.02807477  1
  O  O33  1  0.75628963  0.34170862  0.02772425  1
  O  O34  1  0.26467476  0.97170102  0.34054004  1
  O  O35  1  0.74498237  0.97274259  0.34725626  1
  O  O36  1  0.24644461  0.02926497  0.65671066  1
  O  O37  1  0.74654982  0.03227932  0.65673872  1
  O  O38  1  0.24291550  0.65961286  0.97010223  1
  O  O39  1  0.75612247  0.66382964  0.97219127  1
  O  O40  1  0.00791263  0.82499769  0.55277370  1
  O  O41  1  0.47232998  0.82342349  0.54731811  1
  O  O42  1  0.01332743  0.45314320  0.82890290  1
  O  O43  1  0.47814751  0.45291673  0.83307805  1
  O  O44  1  0.51222457  0.55345115  0.16517156  1
  O  O45  1  0.97466861  0.54999695  0.18008983  1
  O  O46  1  0.50512409  0.17715251  0.44917764  1
  O  O47  1  0.97893956  0.17352353  0.46057023  1
  O  O48  1  0.52873603  0.15207137  0.20134412  1
  O  O49  1  0.00227025  0.14390615  0.21643010  1
  O  O50  1  0.99548665  0.79698319  0.15217315  1
  O  O51  1  0.52475848  0.80536106  0.14252189  1
  O  O52  1  0.01237412  0.84516806  0.80118251  1
  O  O53  1  0.48702855  0.85204393  0.79465547  1
  O  O54  1  0.48161740  0.20462283  0.84785234  1
  O  O55  1  0.99918039  0.20145130  0.83636722  1
  O  O56  1  0.24678056  0.66198797  0.71604426  1
  O  O57  1  0.75534153  0.65463339  0.72325889  1
  O  O58  1  0.24059664  0.28559006  0.65816591  1
  O  O59  1  0.73861704  0.28878733  0.65866069  1
  O  O60  1  0.24574185  0.34168760  0.27946726  1
  O  O61  1  0.75754131  0.33672413  0.28689657  1
  O  O62  1  0.26385025  0.71738456  0.33205043  1
  O  O63  1  0.73821016  0.72220898  0.33973744  1
