# generated using pymatgen
data_Na3AsSe3
_symmetry_space_group_name_H-M   'P 1'
_cell_length_a   9.00726982
_cell_length_b   9.00726982
_cell_length_c   9.00726982
_cell_angle_alpha   90.00000000
_cell_angle_beta   90.00000000
_cell_angle_gamma   90.00000000
_symmetry_Int_Tables_number   1
_chemical_formula_structural   Na3AsSe3
_chemical_formula_sum   'Na12 As4 Se12'
_cell_volume   730.76799360
_cell_formula_units_Z   4
loop_
 _symmetry_equiv_pos_site_id
 _symmetry_equiv_pos_as_xyz
  1  'x, y, z'
loop_
 _atom_site_type_symbol
 _atom_site_label
 _atom_site_symmetry_multiplicity
 _atom_site_fract_x
 _atom_site_fract_y
 _atom_site_fract_z
 _atom_site_occupancy
  Na  Na0  1  0.82125045  0.17874955  0.67874955  1
  Na  Na1  1  0.67874955  0.82125045  0.17874955  1
  Na  Na2  1  0.17874955  0.67874955  0.82125045  1
  Na  Na3  1  0.32125045  0.32125045  0.32125045  1
  Na  Na4  1  0.18664866  0.31335134  0.68664866  1
  Na  Na5  1  0.31335134  0.68664866  0.18664866  1
  Na  Na6  1  0.68664866  0.18664866  0.31335134  1
  Na  Na7  1  0.81335134  0.81335134  0.81335134  1
  Na  Na8  1  0.41368343  0.08631657  0.91368343  1
  Na  Na9  1  0.08631657  0.91368343  0.41368343  1
  Na  Na10  1  0.91368343  0.41368343  0.08631657  1
  Na  Na11  1  0.58631657  0.58631657  0.58631657  1
  As  As12  1  0.02872512  0.02872512  0.02872512  1
  As  As13  1  0.47127488  0.97127488  0.52872512  1
  As  As14  1  0.97127488  0.52872512  0.47127488  1
  As  As15  1  0.52872512  0.47127488  0.97127488  1
  Se  Se16  1  0.27244655  0.38958857  0.99972015  1
  Se  Se17  1  0.77244655  0.11041143  0.00027985  1
  Se  Se18  1  0.72755345  0.88958857  0.50027985  1
  Se  Se19  1  0.11041143  0.00027985  0.77244655  1
  Se  Se20  1  0.50027985  0.72755345  0.88958857  1
  Se  Se21  1  0.00027985  0.77244655  0.11041143  1
  Se  Se22  1  0.38958857  0.99972015  0.27244655  1
  Se  Se23  1  0.99972015  0.27244655  0.38958857  1
  Se  Se24  1  0.88958857  0.50027985  0.72755345  1
  Se  Se25  1  0.61041143  0.49972015  0.22755345  1
  Se  Se26  1  0.49972015  0.22755345  0.61041143  1
  Se  Se27  1  0.22755345  0.61041143  0.49972015  1
