# generated using pymatgen
data_Cs2SiP2
_symmetry_space_group_name_H-M   'P 1'
_cell_length_a   6.23114453
_cell_length_b   7.67701133
_cell_length_c   8.71950554
_cell_angle_alpha   116.11795497
_cell_angle_beta   110.93512594
_cell_angle_gamma   89.99999996
_symmetry_Int_Tables_number   1
_chemical_formula_structural   Cs2SiP2
_chemical_formula_sum   'Cs4 Si2 P4'
_cell_volume   343.58798958
_cell_formula_units_Z   2
loop_
 _symmetry_equiv_pos_site_id
 _symmetry_equiv_pos_as_xyz
  1  'x, y, z'
loop_
 _atom_site_type_symbol
 _atom_site_label
 _atom_site_symmetry_multiplicity
 _atom_site_fract_x
 _atom_site_fract_y
 _atom_site_fract_z
 _atom_site_occupancy
  Si  Si0  1  0.75000000  0.50000000  0.00000000  1
  Si  Si1  1  0.25000000  0.50000000  0.00000000  1
  P  P2  1  0.58723583  0.73451512  0.17447165  1
  P  P3  1  0.91276417  0.56004347  0.82552835  1
  P  P4  1  0.08723583  0.43995653  0.17447165  1
  P  P5  1  0.41276417  0.26548488  0.82552835  1
  Cs  Cs6  1  0.14633148  0.97445476  0.29266297  1
  Cs  Cs7  1  0.85366852  0.02554524  0.70733703  1
  Cs  Cs8  1  0.35366852  0.68179179  0.70733703  1
  Cs  Cs9  1  0.64633148  0.31820821  0.29266297  1
