# generated using pymatgen
data_Cs(SbS2)2
_symmetry_space_group_name_H-M   'P 1'
_cell_length_a   7.03461606
_cell_length_b   6.73224845
_cell_length_c   9.81346689
_cell_angle_alpha   80.69749921
_cell_angle_beta   90.15039100
_cell_angle_gamma   76.29424306
_symmetry_Int_Tables_number   1
_chemical_formula_structural   Cs(SbS2)2
_chemical_formula_sum   'Cs2 Sb4 S8'
_cell_volume   445.17591368
_cell_formula_units_Z   2
loop_
 _symmetry_equiv_pos_site_id
 _symmetry_equiv_pos_as_xyz
  1  'x, y, z'
loop_
 _atom_site_type_symbol
 _atom_site_label
 _atom_site_symmetry_multiplicity
 _atom_site_fract_x
 _atom_site_fract_y
 _atom_site_fract_z
 _atom_site_occupancy
  S  S0  1  0.41901790  0.52857545  0.27554652  1
  S  S1  1  0.58098210  0.47142455  0.72445348  1
  S  S2  1  0.21360527  0.07279156  0.22995029  1
  S  S3  1  0.78639473  0.92720844  0.77004971  1
  S  S4  1  0.92982997  0.57026391  0.07995420  1
  S  S5  1  0.07017003  0.42973609  0.92004580  1
  S  S6  1  0.30533221  0.16240266  0.58379665  1
  S  S7  1  0.69466779  0.83759734  0.41620335  1
  Sb  Sb8  1  0.11831489  0.40494953  0.31862017  1
  Sb  Sb9  1  0.88168511  0.59505047  0.68137983  1
  Sb  Sb10  1  0.35576566  0.81490153  0.44484987  1
  Sb  Sb11  1  0.64423434  0.18509847  0.55515013  1
  Cs  Cs12  1  0.70462924  0.15504732  0.08245970  1
  Cs  Cs13  1  0.29537076  0.84495268  0.91754030  1
