# generated using pymatgen
data_CeSe2
_symmetry_space_group_name_H-M   'P 1'
_cell_length_a   8.58256628
_cell_length_b   8.58256628
_cell_length_c   8.58256628
_cell_angle_alpha   60.00000000
_cell_angle_beta   60.00000000
_cell_angle_gamma   60.00000000
_symmetry_Int_Tables_number   1
_chemical_formula_structural   CeSe2
_chemical_formula_sum   'Ce4 Se8'
_cell_volume   447.02982655
_cell_formula_units_Z   4
loop_
 _symmetry_equiv_pos_site_id
 _symmetry_equiv_pos_as_xyz
  1  'x, y, z'
loop_
 _atom_site_type_symbol
 _atom_site_label
 _atom_site_symmetry_multiplicity
 _atom_site_fract_x
 _atom_site_fract_y
 _atom_site_fract_z
 _atom_site_occupancy
  Ce  Ce0  1  0.50000000  0.50000000  0.00000000  1
  Ce  Ce1  1  -0.00000000  0.50000000  0.00000000  1
  Ce  Ce2  1  0.50000000  0.00000000  0.00000000  1
  Ce  Ce3  1  0.50000000  0.50000000  0.50000000  1
  Se  Se4  1  0.73712751  0.73712751  0.23712751  1
  Se  Se5  1  0.28861747  0.73712751  0.23712751  1
  Se  Se6  1  0.73712751  0.28861747  0.23712751  1
  Se  Se7  1  0.73712751  0.73712751  0.78861747  1
  Se  Se8  1  0.26287249  0.26287249  0.76287249  1
  Se  Se9  1  0.71138253  0.26287249  0.76287249  1
  Se  Se10  1  0.26287249  0.71138253  0.76287249  1
  Se  Se11  1  0.26287249  0.26287249  0.21138253  1
