# generated using pymatgen
data_W
_symmetry_space_group_name_H-M   'P 1'
_cell_length_a   6.92815887
_cell_length_b   5.30112959
_cell_length_c   6.36394405
_cell_angle_alpha   73.46847598
_cell_angle_beta   103.87866195
_cell_angle_gamma   68.97073160
_symmetry_Int_Tables_number   1
_chemical_formula_structural   W
_chemical_formula_sum   W12
_cell_volume   193.26800757
_cell_formula_units_Z   12
loop_
 _symmetry_equiv_pos_site_id
 _symmetry_equiv_pos_as_xyz
  1  'x, y, z'
loop_
 _atom_site_type_symbol
 _atom_site_label
 _atom_site_symmetry_multiplicity
 _atom_site_fract_x
 _atom_site_fract_y
 _atom_site_fract_z
 _atom_site_occupancy
  W  W0  1  0.08388688  0.75004653  0.45791560  1
  W  W1  1  0.91611312  0.24995347  0.54208440  1
  W  W2  1  0.58284210  0.25002572  0.20856784  1
  W  W3  1  0.41715790  0.74997428  0.79143216  1
  W  W4  1  0.75051683  0.74978823  0.12486318  1
  W  W5  1  0.24948317  0.25021177  0.87513682  1
  W  W6  1  0.58280477  0.25017517  0.70857203  1
  W  W7  1  0.41719523  0.74982483  0.29142797  1
  W  W8  1  0.08383389  0.75014132  0.95787878  1
  W  W9  1  0.91616611  0.24985868  0.04212122  1
  W  W10  1  0.75044387  0.74993109  0.62484847  1
  W  W11  1  0.24955613  0.25006891  0.37515153  1
