# generated using pymatgen
data_K3SbSe4
_symmetry_space_group_name_H-M   'P 1'
_cell_length_a   8.18526328
_cell_length_b   8.18526329
_cell_length_c   8.18526329
_cell_angle_alpha   92.00302007
_cell_angle_beta   92.00302012
_cell_angle_gamma   92.00302004
_symmetry_Int_Tables_number   1
_chemical_formula_structural   K3SbSe4
_chemical_formula_sum   'K6 Sb2 Se8'
_cell_volume   547.37133313
_cell_formula_units_Z   2
loop_
 _symmetry_equiv_pos_site_id
 _symmetry_equiv_pos_as_xyz
  1  'x, y, z'
loop_
 _atom_site_type_symbol
 _atom_site_label
 _atom_site_symmetry_multiplicity
 _atom_site_fract_x
 _atom_site_fract_y
 _atom_site_fract_z
 _atom_site_occupancy
  K  K0  1  0.45505964  0.52560162  0.00070903  1
  K  K1  1  0.00070903  0.45505964  0.52560162  1
  K  K2  1  0.52560162  0.00070903  0.45505964  1
  K  K3  1  0.02560162  0.95505964  0.50070903  1
  K  K4  1  0.50070903  0.02560162  0.95505964  1
  K  K5  1  0.95505964  0.50070903  0.02560162  1
  Se  Se6  1  0.19921408  0.82927949  0.15910618  1
  Se  Se7  1  0.31783601  0.31783601  0.31783601  1
  Se  Se8  1  0.32927949  0.69921408  0.65910618  1
  Se  Se9  1  0.15910618  0.19921408  0.82927949  1
  Se  Se10  1  0.82927949  0.15910618  0.19921408  1
  Se  Se11  1  0.69921408  0.65910618  0.32927949  1
  Se  Se12  1  0.65910618  0.32927949  0.69921408  1
  Se  Se13  1  0.81783601  0.81783601  0.81783601  1
  Sb  Sb14  1  0.00169396  0.00169396  0.00169396  1
  Sb  Sb15  1  0.50169396  0.50169396  0.50169396  1
