# generated using pymatgen
data_USnPd
_symmetry_space_group_name_H-M   'P 1'
_cell_length_a   5.10821004
_cell_length_b   5.10821004
_cell_length_c   5.55286020
_cell_angle_alpha   89.99449097
_cell_angle_beta   90.00550903
_cell_angle_gamma   119.98442510
_symmetry_Int_Tables_number   1
_chemical_formula_structural   USnPd
_chemical_formula_sum   'U2 Sn2 Pd2'
_cell_volume   125.50267988
_cell_formula_units_Z   2
loop_
 _symmetry_equiv_pos_site_id
 _symmetry_equiv_pos_as_xyz
  1  'x, y, z'
loop_
 _atom_site_type_symbol
 _atom_site_label
 _atom_site_symmetry_multiplicity
 _atom_site_fract_x
 _atom_site_fract_y
 _atom_site_fract_z
 _atom_site_occupancy
  U  U0  1  0.00005717  0.99994283  0.76258147  1
  U  U1  1  0.99994283  0.00005717  0.23741853  1
  Sn  Sn2  1  0.33329370  0.66670630  0.49765447  1
  Sn  Sn3  1  0.66670630  0.33329370  0.50234553  1
  Pd  Pd4  1  0.66669971  0.33330029  0.00170627  1
  Pd  Pd5  1  0.33330029  0.66669971  0.99829373  1
