# generated using pymatgen
data_U3Al3NiRu2
_symmetry_space_group_name_H-M   'P 1'
_cell_length_a   3.94527741
_cell_length_b   6.90110246
_cell_length_c   6.89841755
_cell_angle_alpha   120.01286913
_cell_angle_beta   90.00000000
_cell_angle_gamma   90.00000000
_symmetry_Int_Tables_number   1
_chemical_formula_structural   U3Al3NiRu2
_chemical_formula_sum   'U3 Al3 Ni1 Ru2'
_cell_volume   162.63716595
_cell_formula_units_Z   1
loop_
 _symmetry_equiv_pos_site_id
 _symmetry_equiv_pos_as_xyz
  1  'x, y, z'
loop_
 _atom_site_type_symbol
 _atom_site_label
 _atom_site_symmetry_multiplicity
 _atom_site_fract_x
 _atom_site_fract_y
 _atom_site_fract_z
 _atom_site_occupancy
  U  U0  1  0.50000000  0.58179754  0.00000000  1
  U  U1  1  0.50000000  0.41820354  0.41822720  1
  U  U2  1  0.50000000  0.99997634  0.58177280  1
  Al  Al3  1  -0.00000000  0.23407859  0.00000000  1
  Al  Al4  1  -0.00000000  0.76593109  0.76597797  1
  Al  Al5  1  -0.00000000  0.99995312  0.23402203  1
  Ni  Ni6  1  0.50000000  0.99999376  0.00000000  1
  Ru  Ru7  1  -0.00000000  0.33336622  0.66676643  1
  Ru  Ru8  1  -0.00000000  0.66659979  0.33323357  1
