# generated using pymatgen
data_Ta2ReRu
_symmetry_space_group_name_H-M   'P 1'
_cell_length_a   4.51403849
_cell_length_b   4.51439367
_cell_length_c   4.51493009
_cell_angle_alpha   59.92540531
_cell_angle_beta   59.93145298
_cell_angle_gamma   59.93008069
_symmetry_Int_Tables_number   1
_chemical_formula_structural   Ta2ReRu
_chemical_formula_sum   'Ta2 Re1 Ru1'
_cell_volume   64.95319739
_cell_formula_units_Z   1
loop_
 _symmetry_equiv_pos_site_id
 _symmetry_equiv_pos_as_xyz
  1  'x, y, z'
loop_
 _atom_site_type_symbol
 _atom_site_label
 _atom_site_symmetry_multiplicity
 _atom_site_fract_x
 _atom_site_fract_y
 _atom_site_fract_z
 _atom_site_occupancy
  Ta  Ta0  1  0.99984587  0.99985417  0.99981013  1
  Ta  Ta1  1  0.50014969  0.50012770  0.50015263  1
  Re  Re2  1  0.25001065  0.24999063  0.25001015  1
  Ru  Ru3  1  0.74999279  0.75002650  0.75002609  1
