# generated using pymatgen
data_Ba2Si5N8
_symmetry_space_group_name_H-M   'P 1'
_cell_length_a   5.82923746
_cell_length_b   7.02382987
_cell_length_c   9.46415844
_cell_angle_alpha   90.00000000
_cell_angle_beta   90.00000000
_cell_angle_gamma   90.00000000
_symmetry_Int_Tables_number   1
_chemical_formula_structural   Ba2Si5N8
_chemical_formula_sum   'Ba4 Si10 N16'
_cell_volume   387.49645431
_cell_formula_units_Z   2
loop_
 _symmetry_equiv_pos_site_id
 _symmetry_equiv_pos_as_xyz
  1  'x, y, z'
loop_
 _atom_site_type_symbol
 _atom_site_label
 _atom_site_symmetry_multiplicity
 _atom_site_fract_x
 _atom_site_fract_y
 _atom_site_fract_z
 _atom_site_occupancy
  N  N0  1  0.50000000  0.58207038  0.22945253  1
  N  N1  1  0.00000000  0.41792962  0.72945253  1
  N  N2  1  0.50000000  0.82433813  0.66497454  1
  N  N3  1  0.00000000  0.17566187  0.16497454  1
  N  N4  1  0.50000000  0.42374941  0.73550490  1
  N  N5  1  0.00000000  0.57625059  0.23550490  1
  N  N6  1  0.74672899  0.55398301  0.49326624  1
  N  N7  1  0.75327101  0.44601699  0.99326624  1
  N  N8  1  0.25327101  0.55398301  0.49326624  1
  N  N9  1  0.24672899  0.44601699  0.99326624  1
  N  N10  1  0.73826000  0.09444622  0.83039888  1
  N  N11  1  0.76174000  0.90555378  0.33039888  1
  N  N12  1  0.26174000  0.09444622  0.83039888  1
  N  N13  1  0.23826000  0.90555378  0.33039888  1
  N  N14  1  0.00000000  0.19840658  0.47073656  1
  N  N15  1  0.50000000  0.80159342  0.97073656  1
  Si  Si16  1  0.50000000  0.60030859  0.60360871  1
  Si  Si17  1  0.00000000  0.39969141  0.10360871  1
  Si  Si18  1  0.50000000  0.58075209  0.03932714  1
  Si  Si19  1  0.00000000  0.41924791  0.53932714  1
  Si  Si20  1  0.50000000  0.94750043  0.82245453  1
  Si  Si21  1  0.00000000  0.05249957  0.32245453  1
  Si  Si22  1  0.75063669  0.33571511  0.82091566  1
  Si  Si23  1  0.74936331  0.66428489  0.32091566  1
  Si  Si24  1  0.24936331  0.33571511  0.82091566  1
  Si  Si25  1  0.25063669  0.66428489  0.32091566  1
  Ba  Ba26  1  0.50000000  0.12103594  0.13136918  1
  Ba  Ba27  1  0.00000000  0.87896406  0.63136918  1
  Ba  Ba28  1  0.50000000  0.14444044  0.50045035  1
  Ba  Ba29  1  0.00000000  0.85555956  0.00045035  1
