# generated using pymatgen
data_KCdF3
_symmetry_space_group_name_H-M   'P 1'
_cell_length_a   6.28933700
_cell_length_b   6.18673429
_cell_length_c   8.80182467
_cell_angle_alpha   90.00000000
_cell_angle_beta   90.00000000
_cell_angle_gamma   90.00000000
_symmetry_Int_Tables_number   1
_chemical_formula_structural   KCdF3
_chemical_formula_sum   'K4 Cd4 F12'
_cell_volume   342.48301928
_cell_formula_units_Z   4
loop_
 _symmetry_equiv_pos_site_id
 _symmetry_equiv_pos_as_xyz
  1  'x, y, z'
loop_
 _atom_site_type_symbol
 _atom_site_label
 _atom_site_symmetry_multiplicity
 _atom_site_fract_x
 _atom_site_fract_y
 _atom_site_fract_z
 _atom_site_occupancy
  F  F0  1  0.70731626  0.29435199  0.54214901  1
  F  F1  1  0.20731626  0.20564801  0.95785099  1
  F  F2  1  0.79268374  0.79435199  0.45785099  1
  F  F3  1  0.29268374  0.70564801  0.04214901  1
  F  F4  1  0.29268374  0.70564801  0.45785099  1
  F  F5  1  0.79268374  0.79435199  0.04214901  1
  F  F6  1  0.20731626  0.20564801  0.54214901  1
  F  F7  1  0.70731626  0.29435199  0.95785099  1
  F  F8  1  0.52718688  0.91960815  0.75000000  1
  F  F9  1  0.02718688  0.58039185  0.75000000  1
  F  F10  1  0.97281312  0.41960815  0.25000000  1
  F  F11  1  0.47281312  0.08039185  0.25000000  1
  K  K12  1  0.95853328  0.00823909  0.75000000  1
  K  K13  1  0.45853328  0.49176091  0.75000000  1
  K  K14  1  0.54146672  0.50823909  0.25000000  1
  K  K15  1  0.04146672  0.99176091  0.25000000  1
  Cd  Cd16  1  0.00000000  0.50000000  0.00000000  1
  Cd  Cd17  1  0.50000000  0.00000000  0.50000000  1
  Cd  Cd18  1  0.50000000  0.00000000  0.00000000  1
  Cd  Cd19  1  0.00000000  0.50000000  0.50000000  1
