# generated using pymatgen
data_Ho3ReB7
_symmetry_space_group_name_H-M   'P 1'
_cell_length_a   8.05172963
_cell_length_b   8.05172963
_cell_length_c   9.32976877
_cell_angle_alpha   90.00000000
_cell_angle_beta   90.00000000
_cell_angle_gamma   25.27311364
_symmetry_Int_Tables_number   1
_chemical_formula_structural   Ho3ReB7
_chemical_formula_sum   'Ho6 Re2 B14'
_cell_volume   258.23169876
_cell_formula_units_Z   2
loop_
 _symmetry_equiv_pos_site_id
 _symmetry_equiv_pos_as_xyz
  1  'x, y, z'
loop_
 _atom_site_type_symbol
 _atom_site_label
 _atom_site_symmetry_multiplicity
 _atom_site_fract_x
 _atom_site_fract_y
 _atom_site_fract_z
 _atom_site_occupancy
  Ho  Ho0  1  0.10549817  0.10549817  0.06001926  1
  Ho  Ho1  1  0.89450283  0.89450283  0.56002026  1
  Ho  Ho2  1  0.89450283  0.89450283  0.93997974  1
  Ho  Ho3  1  0.10549817  0.10549817  0.43997974  1
  Ho  Ho4  1  0.75726515  0.75726515  0.25000000  1
  Ho  Ho5  1  0.24273485  0.24273485  0.75000000  1
  Re  Re6  1  0.94743650  0.94743650  0.25000000  1
  Re  Re7  1  0.05256350  0.05256350  0.75000000  1
  B  B8  1  0.54351521  0.54351521  0.25000000  1
  B  B9  1  0.45648579  0.45648579  0.75000000  1
  B  B10  1  0.27279498  0.27279498  0.03346334  1
  B  B11  1  0.72720402  0.72720402  0.53346334  1
  B  B12  1  0.72720402  0.72720402  0.96653666  1
  B  B13  1  0.27279498  0.27279498  0.46653766  1
  B  B14  1  0.36780598  0.36780598  0.34953242  1
  B  B15  1  0.63219402  0.63219402  0.84953042  1
  B  B16  1  0.63219402  0.63219402  0.65046858  1
  B  B17  1  0.36780598  0.36780598  0.15046758  1
  B  B18  1  0.47945371  0.47945371  0.40489406  1
  B  B19  1  0.52054629  0.52054629  0.90489306  1
  B  B20  1  0.52054629  0.52054629  0.59510694  1
  B  B21  1  0.47945371  0.47945371  0.09510594  1
