# generated using pymatgen
data_NbGaRu2
_symmetry_space_group_name_H-M   'P 1'
_cell_length_a   4.39615704
_cell_length_b   4.39616813
_cell_length_c   4.39616678
_cell_angle_alpha   59.99975136
_cell_angle_beta   60.00006582
_cell_angle_gamma   60.00000702
_symmetry_Int_Tables_number   1
_chemical_formula_structural   NbGaRu2
_chemical_formula_sum   'Nb1 Ga1 Ru2'
_cell_volume   60.07670105
_cell_formula_units_Z   1
loop_
 _symmetry_equiv_pos_site_id
 _symmetry_equiv_pos_as_xyz
  1  'x, y, z'
loop_
 _atom_site_type_symbol
 _atom_site_label
 _atom_site_symmetry_multiplicity
 _atom_site_fract_x
 _atom_site_fract_y
 _atom_site_fract_z
 _atom_site_occupancy
  Nb  Nb0  1  0.75000098  0.75000083  0.75000052  1
  Ga  Ga1  1  0.25000092  0.25000084  0.25000078  1
  Ru  Ru2  1  0.50000001  0.50000026  0.50000014  1
  Ru  Ru3  1  0.00000009  0.00000007  0.00000057  1
