# generated using pymatgen
data_ErInRh2
_symmetry_space_group_name_H-M   'P 1'
_cell_length_a   4.68404239
_cell_length_b   4.68407319
_cell_length_c   4.68405337
_cell_angle_alpha   59.99979101
_cell_angle_beta   59.99988040
_cell_angle_gamma   59.99991051
_symmetry_Int_Tables_number   1
_chemical_formula_structural   ErInRh2
_chemical_formula_sum   'Er1 In1 Rh2'
_cell_volume   72.66912873
_cell_formula_units_Z   1
loop_
 _symmetry_equiv_pos_site_id
 _symmetry_equiv_pos_as_xyz
  1  'x, y, z'
loop_
 _atom_site_type_symbol
 _atom_site_label
 _atom_site_symmetry_multiplicity
 _atom_site_fract_x
 _atom_site_fract_y
 _atom_site_fract_z
 _atom_site_occupancy
  Er  Er0  1  0.24999921  0.24999880  0.25000279  1
  In  In1  1  0.75000049  0.74999920  0.74999740  1
  Rh  Rh2  1  0.99999912  0.00000141  0.99999865  1
  Rh  Rh3  1  0.50000017  0.49999960  0.50000016  1
