# generated using pymatgen
data_AlCo3
_symmetry_space_group_name_H-M   'P 1'
_cell_length_a   4.08565031
_cell_length_b   5.07535511
_cell_length_c   5.07125242
_cell_angle_alpha   119.94565083
_cell_angle_beta   90.00000000
_cell_angle_gamma   90.00000000
_symmetry_Int_Tables_number   1
_chemical_formula_structural   AlCo3
_chemical_formula_sum   'Al2 Co6'
_cell_volume   91.11944610
_cell_formula_units_Z   2
loop_
 _symmetry_equiv_pos_site_id
 _symmetry_equiv_pos_as_xyz
  1  'x, y, z'
loop_
 _atom_site_type_symbol
 _atom_site_label
 _atom_site_symmetry_multiplicity
 _atom_site_fract_x
 _atom_site_fract_y
 _atom_site_fract_z
 _atom_site_occupancy
  Al  Al0  1  0.75000000  0.66660754  0.33323185  1
  Al  Al1  1  0.25000000  0.33339246  0.66676815  1
  Co  Co2  1  0.75000000  0.16483312  0.32973147  1
  Co  Co3  1  0.75000000  0.16473114  0.83510099  1
  Co  Co4  1  0.75000000  0.66977604  0.83489353  1
  Co  Co5  1  0.25000000  0.83516688  0.67026853  1
  Co  Co6  1  0.25000000  0.83526886  0.16489901  1
  Co  Co7  1  0.25000000  0.33022396  0.16510647  1
