# generated using pymatgen
data_CaBO3
_symmetry_space_group_name_H-M   'P 1'
_cell_length_a   3.67337806
_cell_length_b   5.47948448
_cell_length_c   6.63469605
_cell_angle_alpha   90.00000000
_cell_angle_beta   93.50045258
_cell_angle_gamma   90.00000000
_symmetry_Int_Tables_number   1
_chemical_formula_structural   CaBO3
_chemical_formula_sum   'Ca2 B2 O6'
_cell_volume   133.29545707
_cell_formula_units_Z   2
loop_
 _symmetry_equiv_pos_site_id
 _symmetry_equiv_pos_as_xyz
  1  'x, y, z'
loop_
 _atom_site_type_symbol
 _atom_site_label
 _atom_site_symmetry_multiplicity
 _atom_site_fract_x
 _atom_site_fract_y
 _atom_site_fract_z
 _atom_site_occupancy
  Ca  Ca0  1  0.74046740  0.75000000  0.82530999  1
  Ca  Ca1  1  0.25953260  0.25000000  0.17469001  1
  B  B2  1  0.73337351  0.75000000  0.27701361  1
  B  B3  1  0.26662649  0.25000000  0.72298639  1
  O  O4  1  0.64691958  0.75000000  0.47335110  1
  O  O5  1  0.35308042  0.25000000  0.52664890  1
  O  O6  1  0.76504079  0.53155224  0.17773458  1
  O  O7  1  0.23495921  0.03155224  0.82226542  1
  O  O8  1  0.23495921  0.46844776  0.82226542  1
  O  O9  1  0.76504079  0.96844776  0.17773458  1
