# generated using pymatgen
data_ErZnRh2
_symmetry_space_group_name_H-M   'P 1'
_cell_length_a   4.55469222
_cell_length_b   4.55469450
_cell_length_c   4.55470720
_cell_angle_alpha   60.00010096
_cell_angle_beta   59.99995958
_cell_angle_gamma   60.00031394
_symmetry_Int_Tables_number   1
_chemical_formula_structural   ErZnRh2
_chemical_formula_sum   'Er1 Zn1 Rh2'
_cell_volume   66.81361701
_cell_formula_units_Z   1
loop_
 _symmetry_equiv_pos_site_id
 _symmetry_equiv_pos_as_xyz
  1  'x, y, z'
loop_
 _atom_site_type_symbol
 _atom_site_label
 _atom_site_symmetry_multiplicity
 _atom_site_fract_x
 _atom_site_fract_y
 _atom_site_fract_z
 _atom_site_occupancy
  Er  Er0  1  0.24999913  0.25000204  0.25000031  1
  Zn  Zn1  1  0.74999921  0.74999847  0.74999775  1
  Rh  Rh2  1  0.00000161  0.99999932  -0.00000003  1
  Rh  Rh3  1  0.49999804  0.49999818  0.49999997  1
