# generated using pymatgen
data_LiH2N
_symmetry_space_group_name_H-M   'P 1'
_cell_length_a   3.98591744
_cell_length_b   3.98591744
_cell_length_c   5.77546456
_cell_angle_alpha   81.24950749
_cell_angle_beta   81.24950749
_cell_angle_gamma   127.49343462
_symmetry_Int_Tables_number   1
_chemical_formula_structural   LiH2N
_chemical_formula_sum   'Li2 H4 N2'
_cell_volume   68.36165847
_cell_formula_units_Z   2
loop_
 _symmetry_equiv_pos_site_id
 _symmetry_equiv_pos_as_xyz
  1  'x, y, z'
loop_
 _atom_site_type_symbol
 _atom_site_label
 _atom_site_symmetry_multiplicity
 _atom_site_fract_x
 _atom_site_fract_y
 _atom_site_fract_z
 _atom_site_occupancy
  Li  Li0  1  0.29531884  0.17411757  0.14287319  1
  Li  Li1  1  0.17411757  0.29531884  0.64287319  1
  H  H2  1  0.83854993  0.36969297  0.32146895  1
  H  H3  1  0.36969297  0.83854993  0.82146895  1
  H  H4  1  0.63318371  0.79764771  -0.00944563  1
  H  H5  1  0.79764771  0.63318371  0.49055437  1
  N  N6  1  0.53281055  0.71661871  0.83938348  1
  N  N7  1  0.71661871  0.53281055  0.33938348  1
