# generated using pymatgen
data_Sr(DyS2)2
_symmetry_space_group_name_H-M   'P 1'
_cell_length_a   12.00152947
_cell_length_b   4.00227759
_cell_length_c   14.37851691
_cell_angle_alpha   90.00000000
_cell_angle_beta   90.00000000
_cell_angle_gamma   90.00000000
_symmetry_Int_Tables_number   1
_chemical_formula_structural   Sr(DyS2)2
_chemical_formula_sum   'Sr4 Dy8 S16'
_cell_volume   690.64980820
_cell_formula_units_Z   4
loop_
 _symmetry_equiv_pos_site_id
 _symmetry_equiv_pos_as_xyz
  1  'x, y, z'
loop_
 _atom_site_type_symbol
 _atom_site_label
 _atom_site_symmetry_multiplicity
 _atom_site_fract_x
 _atom_site_fract_y
 _atom_site_fract_z
 _atom_site_occupancy
  Sr  Sr0  1  0.75699326  0.24999900  0.66134484  1
  Sr  Sr1  1  0.74300774  0.75000200  0.16134584  1
  Sr  Sr2  1  0.25699326  0.24999900  0.83865416  1
  Sr  Sr3  1  0.24300674  0.75000200  0.33865416  1
  Dy  Dy4  1  0.42960505  0.24999900  0.60964141  1
  Dy  Dy5  1  0.07039495  0.75000200  0.10964141  1
  Dy  Dy6  1  0.92960505  0.24999900  0.89035859  1
  Dy  Dy7  1  0.57039595  0.75000200  0.39035859  1
  Dy  Dy8  1  0.42045822  0.24999900  0.10137610  1
  Dy  Dy9  1  0.07954178  0.75000200  0.60137610  1
  Dy  Dy10  1  0.92045922  0.24999900  0.39862390  1
  Dy  Dy11  1  0.57954178  0.75000200  0.89862490  1
  S  S12  1  0.02059974  0.24999900  0.71582926  1
  S  S13  1  0.47939926  0.75000200  0.21582926  1
  S  S14  1  0.52060074  0.24999900  0.78417074  1
  S  S15  1  0.97939926  0.75000200  0.28417074  1
  S  S16  1  0.13152943  0.24999900  0.47450963  1
  S  S17  1  0.36847057  0.75000200  0.97450963  1
  S  S18  1  0.63152943  0.24999900  0.02549137  1
  S  S19  1  0.86846957  0.75000200  0.52549137  1
  S  S20  1  0.20864853  0.24999900  0.17610151  1
  S  S21  1  0.29135047  0.75000200  0.67610251  1
  S  S22  1  0.70864853  0.24999900  0.32389849  1
  S  S23  1  0.79135147  0.75000200  0.82389849  1
  S  S24  1  0.41627431  0.24999900  0.42078150  1
  S  S25  1  0.08372469  0.75000200  0.92078150  1
  S  S26  1  0.91627531  0.24999900  0.07921750  1
  S  S27  1  0.58372469  0.75000200  0.57921750  1
