# generated using pymatgen
data_NaPH6
_symmetry_space_group_name_H-M   'P 1'
_cell_length_a   5.25516382
_cell_length_b   5.25516360
_cell_length_c   5.25516260
_cell_angle_alpha   59.99999904
_cell_angle_beta   60.00000041
_cell_angle_gamma   60.00000317
_symmetry_Int_Tables_number   1
_chemical_formula_structural   NaPH6
_chemical_formula_sum   'Na1 P1 H6'
_cell_volume   102.62275464
_cell_formula_units_Z   1
loop_
 _symmetry_equiv_pos_site_id
 _symmetry_equiv_pos_as_xyz
  1  'x, y, z'
loop_
 _atom_site_type_symbol
 _atom_site_label
 _atom_site_symmetry_multiplicity
 _atom_site_fract_x
 _atom_site_fract_y
 _atom_site_fract_z
 _atom_site_occupancy
  Na  Na0  1  0.50000000  0.50000000  0.50000000  1
  P  P1  1  0.00000000  0.00000000  -0.00000000  1
  H  H2  1  0.20047985  0.79952015  0.79952015  1
  H  H3  1  0.20047985  0.79952015  0.20047985  1
  H  H4  1  0.79952015  0.20047985  0.20047985  1
  H  H5  1  0.79952015  0.79952015  0.20047985  1
  H  H6  1  0.20047985  0.20047985  0.79952015  1
  H  H7  1  0.79952015  0.20047985  0.79952015  1
