# generated using pymatgen
data_MgSn
_symmetry_space_group_name_H-M   'P 1'
_cell_length_a   12.76593545
_cell_length_b   3.30851501
_cell_length_c   7.47599329
_cell_angle_alpha   90.00000000
_cell_angle_beta   107.29540507
_cell_angle_gamma   90.00000000
_symmetry_Int_Tables_number   1
_chemical_formula_structural   MgSn
_chemical_formula_sum   'Mg6 Sn6'
_cell_volume   301.48109388
_cell_formula_units_Z   6
loop_
 _symmetry_equiv_pos_site_id
 _symmetry_equiv_pos_as_xyz
  1  'x, y, z'
loop_
 _atom_site_type_symbol
 _atom_site_label
 _atom_site_symmetry_multiplicity
 _atom_site_fract_x
 _atom_site_fract_y
 _atom_site_fract_z
 _atom_site_occupancy
  Mg  Mg0  1  0.99987841  0.00000000  0.00401121  1
  Mg  Mg1  1  0.33225305  -0.00000000  0.66305099  1
  Mg  Mg2  1  0.22367093  0.50000000  0.94193048  1
  Mg  Mg3  1  0.49987841  0.50000000  0.00401121  1
  Mg  Mg4  1  0.83225305  0.50000000  0.66305099  1
  Mg  Mg5  1  0.72367093  0.00000000  0.94193048  1
  Sn  Sn6  1  0.38521519  -0.00000000  0.26599331  1
  Sn  Sn7  1  0.16952119  0.50000000  0.32969314  1
  Sn  Sn8  1  0.05612823  -0.00000000  0.62865386  1
  Sn  Sn9  1  0.88521519  0.50000000  0.26599331  1
  Sn  Sn10  1  0.66952119  -0.00000000  0.32969314  1
  Sn  Sn11  1  0.55612823  0.50000000  0.62865386  1
