# generated using pymatgen
data_CaMn2P2O9
_symmetry_space_group_name_H-M   'P 1'
_cell_length_a   6.58057909
_cell_length_b   7.41232212
_cell_length_c   14.35952970
_cell_angle_alpha   89.99554413
_cell_angle_beta   90.00431470
_cell_angle_gamma   90.00053653
_symmetry_Int_Tables_number   1
_chemical_formula_structural   CaMn2P2O9
_chemical_formula_sum   'Ca4 Mn8 P8 O36'
_cell_volume   700.42011723
_cell_formula_units_Z   4
loop_
 _symmetry_equiv_pos_site_id
 _symmetry_equiv_pos_as_xyz
  1  'x, y, z'
loop_
 _atom_site_type_symbol
 _atom_site_label
 _atom_site_symmetry_multiplicity
 _atom_site_fract_x
 _atom_site_fract_y
 _atom_site_fract_z
 _atom_site_occupancy
  Ca  Ca0  1  0.74997524  0.88485480  0.78009224  1
  Ca  Ca1  1  0.75000864  0.61516921  0.28013500  1
  Ca  Ca2  1  0.25000446  0.38489418  0.71991540  1
  Ca  Ca3  1  0.25001833  0.11512011  0.21985595  1
  Mn  Mn4  1  0.74998037  0.35113979  0.87997946  1
  Mn  Mn5  1  0.25001880  0.64877206  0.12002722  1
  Mn  Mn6  1  0.25000540  0.85116235  0.62004970  1
  Mn  Mn7  1  0.74999015  0.14884547  0.37993276  1
  Mn  Mn8  1  0.49995981  0.00003305  0.00002326  1
  Mn  Mn9  1  0.50000209  0.50002429  0.49998029  1
  Mn  Mn10  1  -0.00001704  0.49999659  0.49998022  1
  Mn  Mn11  1  -0.00000623  0.99996792  0.00000441  1
  P  P12  1  0.24999503  0.36457720  0.93436810  1
  P  P13  1  0.74999840  0.63547426  0.06575698  1
  P  P14  1  0.75000619  0.86462692  0.56564863  1
  P  P15  1  0.25000295  0.13556044  0.43418727  1
  P  P16  1  0.75000162  0.39003509  0.69452429  1
  P  P17  1  0.74987940  0.10989462  0.19453068  1
  P  P18  1  0.25011894  0.89008252  0.80555343  1
  P  P19  1  0.25000307  0.60987167  0.30541421  1
  O  O20  1  0.05539495  0.60723945  0.36477980  1
  O  O21  1  0.55540797  0.39277580  0.63517676  1
  O  O22  1  0.94468653  0.10724487  0.13517139  1
  O  O23  1  0.44451559  0.89277585  0.86483419  1
  O  O24  1  0.94461154  0.39277646  0.63517892  1
  O  O25  1  0.44460958  0.60724299  0.36477960  1
  O  O26  1  0.05533473  0.89276687  0.86486161  1
  O  O27  1  0.55547418  0.10725140  0.13521006  1
  O  O28  1  0.24999679  0.32098895  0.48466456  1
  O  O29  1  0.75001020  0.67909016  0.51527132  1
  O  O30  1  0.74996494  0.82096083  0.01532016  1
  O  O31  1  0.25000288  0.17907464  0.98475930  1
  O  O32  1  0.74995450  0.12383618  0.94593584  1
  O  O33  1  0.25003599  0.87614763  0.05409775  1
  O  O34  1  0.24999708  0.62386950  0.55409196  1
  O  O35  1  0.75000941  0.37617612  0.44584599  1
  O  O36  1  0.75000649  0.21737392  0.75896965  1
  O  O37  1  0.24999960  0.78250454  0.24094511  1
  O  O38  1  0.25000542  0.71739687  0.74106479  1
  O  O39  1  0.75000292  0.28258471  0.25899339  1
  O  O40  1  0.43318473  0.12644243  0.36682279  1
  O  O41  1  0.93323016  0.87363918  0.63315602  1
  O  O42  1  0.56677506  0.62636434  0.13318851  1
  O  O43  1  0.06676753  0.37359955  0.86686141  1
  O  O44  1  0.56677691  0.87363378  0.63315338  1
  O  O45  1  0.06682099  0.12643599  0.36681926  1
  O  O46  1  0.43324941  0.37361876  0.86684998  1
  O  O47  1  0.93321878  0.62639471  0.13317212  1
  O  O48  1  0.74999977  0.48675402  0.99316952  1
  O  O49  1  0.24999377  0.04314447  0.73066497  1
  O  O50  1  0.25000206  0.45681190  0.23061777  1
  O  O51  1  0.75000520  0.54307263  0.76937207  1
  O  O52  1  0.75000018  0.01316519  0.49317734  1
  O  O53  1  0.25000701  0.98672429  0.50686683  1
  O  O54  1  0.25000874  0.51313037  0.00681680  1
  O  O55  1  0.75000877  0.95688410  0.26937760  1
