# generated using pymatgen
data_BeGeN2
_symmetry_space_group_name_H-M   'P 1'
_cell_length_a   5.18053480
_cell_length_b   5.95141613
_cell_length_c   4.87162843
_cell_angle_alpha   90.00000000
_cell_angle_beta   90.00000000
_cell_angle_gamma   90.00000000
_symmetry_Int_Tables_number   1
_chemical_formula_structural   BeGeN2
_chemical_formula_sum   'Be4 Ge4 N8'
_cell_volume   150.19970143
_cell_formula_units_Z   4
loop_
 _symmetry_equiv_pos_site_id
 _symmetry_equiv_pos_as_xyz
  1  'x, y, z'
loop_
 _atom_site_type_symbol
 _atom_site_label
 _atom_site_symmetry_multiplicity
 _atom_site_fract_x
 _atom_site_fract_y
 _atom_site_fract_z
 _atom_site_occupancy
  Be  Be0  1  0.58107052  0.87483206  0.99075309  1
  Be  Be1  1  0.41892948  0.12516794  0.49075309  1
  Be  Be2  1  0.91892948  0.37483206  0.49075309  1
  Be  Be3  1  0.08107052  0.62516794  0.99075309  1
  Ge  Ge4  1  0.59036818  0.37540560  0.99035642  1
  Ge  Ge5  1  0.40963182  0.62459440  0.49035642  1
  Ge  Ge6  1  0.90963182  0.87540560  0.49035642  1
  Ge  Ge7  1  0.09036818  0.12459440  0.99035642  1
  N  N8  1  0.58925239  0.36641576  0.37732150  1
  N  N9  1  0.41074761  0.63358424  0.87732150  1
  N  N10  1  0.91074761  0.86641576  0.87732150  1
  N  N11  1  0.08925239  0.13358424  0.37732150  1
  N  N12  1  0.57286371  0.88400312  0.35556899  1
  N  N13  1  0.42713629  0.11599688  0.85556899  1
  N  N14  1  0.92713629  0.38400312  0.85556899  1
  N  N15  1  0.07286371  0.61599688  0.35556899  1
