# generated using pymatgen
data_Ca4SiN4
_symmetry_space_group_name_H-M   'P 1'
_cell_length_a   9.20334746
_cell_length_b   5.99299680
_cell_length_c   11.03291815
_cell_angle_alpha   90.00000000
_cell_angle_beta   116.40004006
_cell_angle_gamma   90.00000000
_symmetry_Int_Tables_number   1
_chemical_formula_structural   Ca4SiN4
_chemical_formula_sum   'Ca16 Si4 N16'
_cell_volume   545.06511391
_cell_formula_units_Z   4
loop_
 _symmetry_equiv_pos_site_id
 _symmetry_equiv_pos_as_xyz
  1  'x, y, z'
loop_
 _atom_site_type_symbol
 _atom_site_label
 _atom_site_symmetry_multiplicity
 _atom_site_fract_x
 _atom_site_fract_y
 _atom_site_fract_z
 _atom_site_occupancy
  Ca  Ca0  1  0.64840749  0.07753725  0.65397991  1
  Ca  Ca1  1  0.35159251  0.57753725  0.84602009  1
  Ca  Ca2  1  0.35159251  0.92246275  0.34602009  1
  Ca  Ca3  1  0.64840749  0.42246275  0.15397991  1
  Ca  Ca4  1  0.54570534  0.08093737  0.87917344  1
  Ca  Ca5  1  0.45429466  0.58093737  0.62082656  1
  Ca  Ca6  1  0.45429466  0.91906263  0.12082656  1
  Ca  Ca7  1  0.54570534  0.41906263  0.37917344  1
  Ca  Ca8  1  0.14472908  0.15089308  0.76831211  1
  Ca  Ca9  1  0.85527092  0.65089308  0.73168789  1
  Ca  Ca10  1  0.85527092  0.84910692  0.23168789  1
  Ca  Ca11  1  0.14472908  0.34910692  0.26831211  1
  Ca  Ca12  1  0.08076667  0.74432084  0.54326438  1
  Ca  Ca13  1  0.91923333  0.24432084  0.95673562  1
  Ca  Ca14  1  0.91923333  0.25567916  0.45673562  1
  Ca  Ca15  1  0.08076667  0.75567916  0.04326438  1
  Si  Si16  1  0.26678918  0.14687094  0.54810090  1
  Si  Si17  1  0.73321082  0.64687094  0.95189910  1
  Si  Si18  1  0.73321082  0.85312906  0.45189910  1
  Si  Si19  1  0.26678918  0.35312906  0.04810090  1
  N  N20  1  0.40572201  0.25416671  0.98798564  1
  N  N21  1  0.59427799  0.75416671  0.51201436  1
  N  N22  1  0.59427799  0.74583329  0.01201436  1
  N  N23  1  0.40572201  0.24583329  0.48798564  1
  N  N24  1  0.33798678  0.93184764  0.67435088  1
  N  N25  1  0.66201322  0.43184764  0.82564912  1
  N  N26  1  0.66201322  0.06815236  0.32564912  1
  N  N27  1  0.33798678  0.56815236  0.17435088  1
  N  N28  1  0.19978030  0.37975336  0.61121247  1
  N  N29  1  0.80021970  0.87975336  0.88878753  1
  N  N30  1  0.80021970  0.62024664  0.38878753  1
  N  N31  1  0.19978030  0.12024664  0.11121247  1
  N  N32  1  0.10098022  0.46895784  0.89471282  1
  N  N33  1  0.89901978  0.96895784  0.60528718  1
  N  N34  1  0.89901978  0.53104216  0.10528718  1
  N  N35  1  0.10098022  0.03104216  0.39471282  1
