# generated using pymatgen
data_RbMgPO4
_symmetry_space_group_name_H-M   'P 1'
_cell_length_a   26.96596410
_cell_length_b   9.45383642
_cell_length_c   5.40083123
_cell_angle_alpha   90.00000000
_cell_angle_beta   90.00000000
_cell_angle_gamma   90.00000000
_symmetry_Int_Tables_number   1
_chemical_formula_structural   RbMgPO4
_chemical_formula_sum   'Rb12 Mg12 P12 O48'
_cell_volume   1376.84369992
_cell_formula_units_Z   12
loop_
 _symmetry_equiv_pos_site_id
 _symmetry_equiv_pos_as_xyz
  1  'x, y, z'
loop_
 _atom_site_type_symbol
 _atom_site_label
 _atom_site_symmetry_multiplicity
 _atom_site_fract_x
 _atom_site_fract_y
 _atom_site_fract_z
 _atom_site_occupancy
  Rb  Rb0  1  0.50101991  0.20173604  0.24768454  1
  Rb  Rb1  1  0.49898009  0.79826396  0.74768454  1
  Rb  Rb2  1  0.99898009  0.70173604  0.74768454  1
  Rb  Rb3  1  0.00101991  0.29826396  0.24768454  1
  Rb  Rb4  1  0.66501309  0.30964758  0.23962100  1
  Rb  Rb5  1  0.33498691  0.69035242  0.73962100  1
  Rb  Rb6  1  0.83498691  0.80964758  0.73962100  1
  Rb  Rb7  1  0.16501309  0.19035242  0.23962100  1
  Rb  Rb8  1  0.67407331  0.68984457  0.71393036  1
  Rb  Rb9  1  0.32592669  0.31015543  0.21393036  1
  Rb  Rb10  1  0.82592669  0.18984457  0.21393036  1
  Rb  Rb11  1  0.17407331  0.81015543  0.71393036  1
  Mg  Mg12  1  0.60065963  0.91329614  0.23435700  1
  Mg  Mg13  1  0.39934037  0.08670386  0.73435700  1
  Mg  Mg14  1  0.89934037  0.41329614  0.73435700  1
  Mg  Mg15  1  0.10065963  0.58670386  0.23435700  1
  Mg  Mg16  1  0.78194712  0.59411977  0.24721387  1
  Mg  Mg17  1  0.21805288  0.40588023  0.74721387  1
  Mg  Mg18  1  0.71805288  0.09411977  0.74721387  1
  Mg  Mg19  1  0.28194712  0.90588023  0.24721387  1
  Mg  Mg20  1  0.55198078  0.44234709  0.76566635  1
  Mg  Mg21  1  0.44801922  0.55765291  0.26566635  1
  Mg  Mg22  1  0.94801922  0.94234709  0.26566635  1
  Mg  Mg23  1  0.05198078  0.05765291  0.76566635  1
  P  P24  1  0.59181079  0.10306646  0.74678804  1
  P  P25  1  0.40818921  0.89693354  0.24678804  1
  P  P26  1  0.90818921  0.60306646  0.24678804  1
  P  P27  1  0.09181079  0.39693354  0.74678804  1
  P  P28  1  0.77309727  0.41046213  0.74140454  1
  P  P29  1  0.22690273  0.58953787  0.24140454  1
  P  P30  1  0.72690273  0.91046213  0.24140454  1
  P  P31  1  0.27309727  0.08953787  0.74140454  1
  P  P32  1  0.56958140  0.57388790  0.22008836  1
  P  P33  1  0.43041860  0.42611210  0.72008836  1
  P  P34  1  0.93041860  0.07388790  0.72008836  1
  P  P35  1  0.06958140  0.92611210  0.22008836  1
  O  O36  1  0.56205247  0.23869542  0.80596363  1
  O  O37  1  0.43794753  0.76130458  0.30596363  1
  O  O38  1  0.93794753  0.73869542  0.30596363  1
  O  O39  1  0.06205247  0.26130458  0.80596363  1
  O  O40  1  0.74384235  0.28027091  0.83610830  1
  O  O41  1  0.25615765  0.71972909  0.33610830  1
  O  O42  1  0.75615765  0.78027091  0.33610830  1
  O  O43  1  0.24384235  0.21972909  0.83610830  1
  O  O44  1  0.56766776  0.73231833  0.28917556  1
  O  O45  1  0.43233224  0.26768167  0.78917556  1
  O  O46  1  0.93233224  0.23231833  0.78917556  1
  O  O47  1  0.06766776  0.76768167  0.28917556  1
  O  O48  1  0.64790580  0.13070086  0.78526743  1
  O  O49  1  0.35209420  0.86929914  0.28526743  1
  O  O50  1  0.85209420  0.63070086  0.28526743  1
  O  O51  1  0.14790580  0.36929914  0.78526743  1
  O  O52  1  0.82893913  0.37274350  0.74403966  1
  O  O53  1  0.17106087  0.62725650  0.24403966  1
  O  O54  1  0.67106087  0.87274350  0.24403966  1
  O  O55  1  0.32893913  0.12725650  0.74403966  1
  O  O56  1  0.51728246  0.52367124  0.12226013  1
  O  O57  1  0.48271754  0.47632876  0.62226013  1
  O  O58  1  0.98271754  0.02367124  0.62226013  1
  O  O59  1  0.01728246  0.97632876  0.12226013  1
  O  O60  1  0.57428982  0.98289348  0.92261635  1
  O  O61  1  0.42571018  0.01710652  0.42261635  1
  O  O62  1  0.92571018  0.48289348  0.42261635  1
  O  O63  1  0.07428982  0.51710652  0.92261635  1
  O  O64  1  0.76253736  0.53981403  0.91201097  1
  O  O65  1  0.23746264  0.46018597  0.41201097  1
  O  O66  1  0.73746264  0.03981403  0.41201097  1
  O  O67  1  0.26253736  0.96018597  0.91201097  1
  O  O68  1  0.58645571  0.48734487  0.44809339  1
  O  O69  1  0.41354429  0.51265513  0.94809339  1
  O  O70  1  0.91354429  0.98734487  0.94809339  1
  O  O71  1  0.08645571  0.01265513  0.44809339  1
  O  O72  1  0.58185039  0.05729941  0.47513942  1
  O  O73  1  0.41814961  0.94270059  0.97513942  1
  O  O74  1  0.91814961  0.55729941  0.97513942  1
  O  O75  1  0.08185039  0.44270059  0.47513942  1
  O  O76  1  0.75611070  0.44867487  0.47372089  1
  O  O77  1  0.24388930  0.55132513  0.97372089  1
  O  O78  1  0.74388930  0.94867487  0.97372089  1
  O  O79  1  0.25611070  0.05132513  0.47372089  1
  O  O80  1  0.60380037  0.54194716  0.99455021  1
  O  O81  1  0.39619963  0.45805284  0.49455021  1
  O  O82  1  0.89619963  0.04194716  0.49455021  1
  O  O83  1  0.10380037  0.95805284  0.99455021  1
