# generated using pymatgen
data_Be(PN2)2
_symmetry_space_group_name_H-M   'P 1'
_cell_length_a   7.88950608
_cell_length_b   7.88950608
_cell_length_c   7.88950648
_cell_angle_alpha   108.14862971
_cell_angle_beta   108.14862971
_cell_angle_gamma   108.14863547
_symmetry_Int_Tables_number   1
_chemical_formula_structural   Be(PN2)2
_chemical_formula_sum   'Be6 P12 N24'
_cell_volume   395.45977022
_cell_formula_units_Z   6
loop_
 _symmetry_equiv_pos_site_id
 _symmetry_equiv_pos_as_xyz
  1  'x, y, z'
loop_
 _atom_site_type_symbol
 _atom_site_label
 _atom_site_symmetry_multiplicity
 _atom_site_fract_x
 _atom_site_fract_y
 _atom_site_fract_z
 _atom_site_occupancy
  Be  Be0  1  0.73237734  0.96172528  0.55628346  1
  Be  Be1  1  0.96172528  0.55628346  0.73237734  1
  Be  Be2  1  0.55628346  0.73237734  0.96172528  1
  Be  Be3  1  0.26762266  0.03827472  0.44371654  1
  Be  Be4  1  0.03827472  0.44371654  0.26762266  1
  Be  Be5  1  0.44371654  0.26762266  0.03827472  1
  P  P6  1  0.77722746  0.60137669  0.37023580  1
  P  P7  1  0.60137669  0.37023580  0.77722746  1
  P  P8  1  0.37023580  0.77722746  0.60137669  1
  P  P9  1  0.22277254  0.39862331  0.62976420  1
  P  P10  1  0.39862331  0.62976420  0.22277254  1
  P  P11  1  0.62976420  0.22277254  0.39862331  1
  P  P12  1  0.11336915  0.93022267  0.70794490  1
  P  P13  1  0.93022267  0.70794490  0.11336915  1
  P  P14  1  0.70794490  0.11336915  0.93022267  1
  P  P15  1  0.88663085  0.06977733  0.29205510  1
  P  P16  1  0.06977733  0.29205510  0.88663085  1
  P  P17  1  0.29205510  0.88663085  0.06977733  1
  N  N18  1  0.87533657  0.83186053  0.54764592  1
  N  N19  1  0.83186053  0.54764592  0.87533657  1
  N  N20  1  0.54764592  0.87533657  0.83186053  1
  N  N21  1  0.12466343  0.16813947  0.45235408  1
  N  N22  1  0.16813947  0.45235408  0.12466343  1
  N  N23  1  0.45235408  0.12466343  0.16813947  1
  N  N24  1  0.75146325  0.08748528  0.41289003  1
  N  N25  1  0.08748528  0.41289003  0.75146325  1
  N  N26  1  0.41289003  0.75146325  0.08748528  1
  N  N27  1  0.24853675  0.91251472  0.58710997  1
  N  N28  1  0.91251472  0.58710997  0.24853675  1
  N  N29  1  0.58710997  0.24853675  0.91251472  1
  N  N30  1  0.83604166  0.13603605  0.80268917  1
  N  N31  1  0.13603605  0.80268917  0.83604166  1
  N  N32  1  0.80268917  0.83604166  0.13603605  1
  N  N33  1  0.16395834  0.86396395  0.19731083  1
  N  N34  1  0.86396395  0.19731083  0.16395834  1
  N  N35  1  0.19731083  0.16395834  0.86396395  1
  N  N36  1  0.48064294  0.78702518  0.45677563  1
  N  N37  1  0.78702518  0.45677563  0.48064294  1
  N  N38  1  0.45677563  0.48064294  0.78702518  1
  N  N39  1  0.51935706  0.21297482  0.54322437  1
  N  N40  1  0.21297482  0.54322437  0.51935706  1
  N  N41  1  0.54322437  0.51935706  0.21297482  1
