# generated using pymatgen
data_CsBaLiP2O7
_symmetry_space_group_name_H-M   'P 1'
_cell_length_a   7.18070788
_cell_length_b   10.98438666
_cell_length_c   10.88136577
_cell_angle_alpha   90.00000000
_cell_angle_beta   105.56181202
_cell_angle_gamma   90.00000000
_symmetry_Int_Tables_number   1
_chemical_formula_structural   CsBaLiP2O7
_chemical_formula_sum   'Cs4 Ba4 Li4 P8 O28'
_cell_volume   826.81203735
_cell_formula_units_Z   4
loop_
 _symmetry_equiv_pos_site_id
 _symmetry_equiv_pos_as_xyz
  1  'x, y, z'
loop_
 _atom_site_type_symbol
 _atom_site_label
 _atom_site_symmetry_multiplicity
 _atom_site_fract_x
 _atom_site_fract_y
 _atom_site_fract_z
 _atom_site_occupancy
  Cs  Cs0  1  0.75121839  0.67229942  0.49578556  1
  Cs  Cs1  1  0.24878161  0.17229942  0.00421444  1
  Cs  Cs2  1  0.24878161  0.32770058  0.50421444  1
  Cs  Cs3  1  0.75121839  0.82770058  0.99578556  1
  Ba  Ba4  1  0.80597982  0.05744518  0.62255899  1
  Ba  Ba5  1  0.19402018  0.55744518  0.87744101  1
  Ba  Ba6  1  0.19402018  0.94255482  0.37744101  1
  Ba  Ba7  1  0.80597982  0.44255482  0.12255899  1
  Li  Li8  1  0.66560572  0.24104355  0.85933811  1
  Li  Li9  1  0.33439428  0.74104355  0.64066189  1
  Li  Li10  1  0.33439428  0.75895645  0.14066189  1
  Li  Li11  1  0.66560572  0.25895645  0.35933811  1
  P  P12  1  0.37731338  0.01500220  0.69700775  1
  P  P13  1  0.62268662  0.51500220  0.80299225  1
  P  P14  1  0.62268662  0.98499780  0.30299225  1
  P  P15  1  0.37731338  0.48499780  0.19700775  1
  P  P16  1  0.83880466  0.36416948  0.66367779  1
  P  P17  1  0.16119534  0.86416948  0.83632221  1
  P  P18  1  0.16119534  0.63583052  0.33632221  1
  P  P19  1  0.83880466  0.13583052  0.16367779  1
  O  O20  1  0.65622079  0.45421679  0.67281545  1
  O  O21  1  0.34377921  0.95421679  0.82718455  1
  O  O22  1  0.34377921  0.54578321  0.32718455  1
  O  O23  1  0.65622079  0.04578321  0.17281545  1
  O  O24  1  0.46478635  0.91400426  0.63030939  1
  O  O25  1  0.53521365  0.41400426  0.86969061  1
  O  O26  1  0.53521365  0.08599574  0.36969061  1
  O  O27  1  0.46478635  0.58599574  0.13030939  1
  O  O28  1  0.18184240  0.05803317  0.61134545  1
  O  O29  1  0.81815760  0.55803317  0.88865455  1
  O  O30  1  0.81815760  0.94196683  0.38865455  1
  O  O31  1  0.18184240  0.44196683  0.11134545  1
  O  O32  1  0.87984411  0.27867689  0.77969733  1
  O  O33  1  0.12015589  0.77867689  0.72030267  1
  O  O34  1  0.12015589  0.72132311  0.22030267  1
  O  O35  1  0.87984411  0.22132311  0.27969733  1
  O  O36  1  0.52018073  0.11856628  0.74442881  1
  O  O37  1  0.47981927  0.61856628  0.75557119  1
  O  O38  1  0.47981927  0.88143372  0.25557119  1
  O  O39  1  0.52018073  0.38143372  0.24442881  1
  O  O40  1  0.75791114  0.29401458  0.53913154  1
  O  O41  1  0.24208886  0.79401458  0.96086846  1
  O  O42  1  0.24208886  0.70598542  0.46086846  1
  O  O43  1  0.75791114  0.20598542  0.03913154  1
  O  O44  1  0.00503839  0.44942093  0.66124054  1
  O  O45  1  0.99496161  0.94942093  0.83875946  1
  O  O46  1  0.99496161  0.55057907  0.33875946  1
  O  O47  1  0.00503839  0.05057907  0.16124054  1
