# generated using pymatgen
data_KMn8O16
_symmetry_space_group_name_H-M   'P 1'
_cell_length_a   5.89779068
_cell_length_b   9.96151985
_cell_length_c   10.02547194
_cell_angle_alpha   89.73829787
_cell_angle_beta   90.00362177
_cell_angle_gamma   90.02592891
_symmetry_Int_Tables_number   1
_chemical_formula_structural   KMn8O16
_chemical_formula_sum   'K2 Mn16 O32'
_cell_volume   588.99988462
_cell_formula_units_Z   2
loop_
 _symmetry_equiv_pos_site_id
 _symmetry_equiv_pos_as_xyz
  1  'x, y, z'
loop_
 _atom_site_type_symbol
 _atom_site_label
 _atom_site_symmetry_multiplicity
 _atom_site_fract_x
 _atom_site_fract_y
 _atom_site_fract_z
 _atom_site_occupancy
  K  K0  1  0.00161099  0.49850631  0.49163228  1
  K  K1  1  0.74864507  0.99945858  0.99077472  1
  Mn  Mn2  1  0.50005622  0.16659756  0.34329587  1
  Mn  Mn3  1  0.00012024  0.16465975  0.34149628  1
  Mn  Mn4  1  0.50035255  0.34854733  0.82640521  1
  Mn  Mn5  1  0.00039232  0.34689512  0.82821402  1
  Mn  Mn6  1  0.00024950  0.65150095  0.15764029  1
  Mn  Mn7  1  0.50004182  0.64941229  0.15983279  1
  Mn  Mn8  1  0.99959833  0.83317741  0.64390873  1
  Mn  Mn9  1  0.49958845  0.83093297  0.64206417  1
  Mn  Mn10  1  0.74997077  0.66455691  0.84174500  1
  Mn  Mn11  1  0.25007898  0.66662452  0.84365447  1
  Mn  Mn12  1  0.75017210  0.84660873  0.32796337  1
  Mn  Mn13  1  0.25022114  0.84824612  0.32614498  1
  Mn  Mn14  1  0.74945310  0.15153058  0.65771954  1
  Mn  Mn15  1  0.24964324  0.14944710  0.65978320  1
  Mn  Mn16  1  0.75003034  0.33371352  0.14404091  1
  Mn  Mn17  1  0.25007751  0.33169564  0.14205707  1
  O  O18  1  0.74910289  0.95647613  0.65685754  1
  O  O19  1  0.25012511  0.95580328  0.65546020  1
  O  O20  1  0.74963608  0.66804538  0.03547996  1
  O  O21  1  0.25076642  0.66652232  0.03601239  1
  O  O22  1  0.75001370  0.32974715  0.95063780  1
  O  O23  1  0.25083006  0.33263259  0.94983216  1
  O  O24  1  0.74973468  0.04136882  0.32855854  1
  O  O25  1  0.25057282  0.04184888  0.32976446  1
  O  O26  1  0.00054915  0.45699171  0.15732517  1
  O  O27  1  0.49971104  0.45623311  0.15492918  1
  O  O28  1  0.00010749  0.16829964  0.53529454  1
  O  O29  1  0.49903085  0.16598756  0.53591757  1
  O  O30  1  0.49956065  0.83120258  0.44964506  1
  O  O31  1  0.00045592  0.83037526  0.45025497  1
  O  O32  1  0.49970503  0.54186996  0.83092040  1
  O  O33  1  0.00059109  0.54150880  0.82943675  1
  O  O34  1  0.50256114  0.79586232  0.83530593  1
  O  O35  1  0.99720081  0.79607017  0.83691732  1
  O  O36  1  0.99815333  0.84486898  0.19754319  1
  O  O37  1  0.50276558  0.84309701  0.19743810  1
  O  O38  1  0.99744868  0.20276710  0.14809990  1
  O  O39  1  0.50245071  0.20220591  0.14983231  1
  O  O40  1  0.50231925  0.15478235  0.78882334  1
  O  O41  1  0.99725935  0.15340490  0.78826334  1
  O  O42  1  0.75222867  0.29620767  0.33681213  1
  O  O43  1  0.24775628  0.29623336  0.33514595  1
  O  O44  1  0.75236523  0.34544669  0.69812332  1
  O  O45  1  0.24792440  0.34353554  0.69768533  1
  O  O46  1  0.75210268  0.70147991  0.64850972  1
  O  O47  1  0.24688627  0.70139658  0.65036661  1
  O  O48  1  0.75247533  0.65269223  0.28821202  1
  O  O49  1  0.24730765  0.65424073  0.28842590  1
