# generated using pymatgen
data_CeSi2Ru
_symmetry_space_group_name_H-M   'P 1'
_cell_length_a   4.08695241
_cell_length_b   4.45205440
_cell_length_c   8.24391185
_cell_angle_alpha   102.73032340
_cell_angle_beta   90.00000000
_cell_angle_gamma   90.00000000
_symmetry_Int_Tables_number   1
_chemical_formula_structural   CeSi2Ru
_chemical_formula_sum   'Ce2 Si4 Ru2'
_cell_volume   146.31342360
_cell_formula_units_Z   2
loop_
 _symmetry_equiv_pos_site_id
 _symmetry_equiv_pos_as_xyz
  1  'x, y, z'
loop_
 _atom_site_type_symbol
 _atom_site_label
 _atom_site_symmetry_multiplicity
 _atom_site_fract_x
 _atom_site_fract_y
 _atom_site_fract_z
 _atom_site_occupancy
  Ce  Ce0  1  0.75000000  0.58917452  0.19920623  1
  Ce  Ce1  1  0.25000000  0.41082548  0.80079377  1
  Si  Si2  1  0.75000000  0.96184891  0.91156831  1
  Si  Si3  1  0.25000000  0.03815109  0.08843169  1
  Si  Si4  1  0.75000000  0.33477079  0.50786858  1
  Si  Si5  1  0.25000000  0.66522921  0.49213142  1
  Ru  Ru6  1  0.75000000  0.88597412  0.61419416  1
  Ru  Ru7  1  0.25000000  0.11402588  0.38580584  1
