# generated using pymatgen
data_KCrN2
_symmetry_space_group_name_H-M   'P 1'
_cell_length_a   5.72464563
_cell_length_b   11.48491453
_cell_length_c   15.68776164
_cell_angle_alpha   90.00000000
_cell_angle_beta   90.00000000
_cell_angle_gamma   90.00000000
_symmetry_Int_Tables_number   1
_chemical_formula_structural   KCrN2
_chemical_formula_sum   'K16 Cr16 N32'
_cell_volume   1031.42429641
_cell_formula_units_Z   16
loop_
 _symmetry_equiv_pos_site_id
 _symmetry_equiv_pos_as_xyz
  1  'x, y, z'
loop_
 _atom_site_type_symbol
 _atom_site_label
 _atom_site_symmetry_multiplicity
 _atom_site_fract_x
 _atom_site_fract_y
 _atom_site_fract_z
 _atom_site_occupancy
  K  K0  1  0.24833859  0.00004753  0.43289465  1
  K  K1  1  0.74833859  0.49995247  0.56710535  1
  K  K2  1  0.75166141  0.50004753  0.06710535  1
  K  K3  1  0.25166141  0.99995247  0.93289465  1
  K  K4  1  0.75166141  0.99995247  0.56710535  1
  K  K5  1  0.25166141  0.50004753  0.43289465  1
  K  K6  1  0.24833859  0.49995247  0.93289465  1
  K  K7  1  0.74833859  0.00004753  0.06710535  1
  K  K8  1  0.35374830  0.25092181  0.30755148  1
  K  K9  1  0.85374830  0.24907819  0.69244852  1
  K  K10  1  0.64625170  0.75092181  0.19244852  1
  K  K11  1  0.14625170  0.74907819  0.80755148  1
  K  K12  1  0.64625170  0.74907819  0.69244852  1
  K  K13  1  0.14625170  0.75092181  0.30755148  1
  K  K14  1  0.35374830  0.24907819  0.80755148  1
  K  K15  1  0.85374830  0.25092181  0.19244852  1
  Cr  Cr16  1  0.74720008  0.00077168  0.31521210  1
  Cr  Cr17  1  0.24720008  0.49922832  0.68478790  1
  Cr  Cr18  1  0.25279992  0.50077168  0.18478790  1
  Cr  Cr19  1  0.75279992  0.99922832  0.81521210  1
  Cr  Cr20  1  0.25279992  0.99922832  0.68478790  1
  Cr  Cr21  1  0.75279992  0.50077168  0.31521210  1
  Cr  Cr22  1  0.74720008  0.49922832  0.81521210  1
  Cr  Cr23  1  0.24720008  0.00077168  0.18478790  1
  Cr  Cr24  1  0.81572550  0.25078292  0.44185488  1
  Cr  Cr25  1  0.31572550  0.24921708  0.55814512  1
  Cr  Cr26  1  0.18427450  0.75078292  0.05814512  1
  Cr  Cr27  1  0.68427450  0.74921708  0.94185488  1
  Cr  Cr28  1  0.18427450  0.74921708  0.55814512  1
  Cr  Cr29  1  0.68427450  0.75078292  0.44185488  1
  Cr  Cr30  1  0.81572550  0.24921708  0.94185488  1
  Cr  Cr31  1  0.31572550  0.25078292  0.05814512  1
  N  N32  1  0.11717306  0.25065570  0.47147287  1
  N  N33  1  0.61717306  0.24934430  0.52852713  1
  N  N34  1  0.88282694  0.75065570  0.02852713  1
  N  N35  1  0.38282694  0.74934430  0.97147287  1
  N  N36  1  0.88282694  0.74934430  0.52852713  1
  N  N37  1  0.38282694  0.75065570  0.47147287  1
  N  N38  1  0.11717306  0.24934430  0.97147287  1
  N  N39  1  0.61717306  0.25065570  0.02852713  1
  N  N40  1  0.75866537  0.37669229  0.38117014  1
  N  N41  1  0.25866537  0.12330771  0.61882986  1
  N  N42  1  0.24133463  0.87669229  0.11882986  1
  N  N43  1  0.74133463  0.62330771  0.88117014  1
  N  N44  1  0.24133463  0.62330771  0.61882986  1
  N  N45  1  0.74133463  0.87669229  0.38117014  1
  N  N46  1  0.75866537  0.12330771  0.88117014  1
  N  N47  1  0.25866537  0.37669229  0.11882986  1
  N  N48  1  0.76025439  0.12646050  0.37937094  1
  N  N49  1  0.26025439  0.37353950  0.62062906  1
  N  N50  1  0.23974561  0.62646050  0.12062906  1
  N  N51  1  0.73974561  0.87353950  0.87937094  1
  N  N52  1  0.23974561  0.87353950  0.62062906  1
  N  N53  1  0.73974561  0.62646050  0.37937094  1
  N  N54  1  0.76025439  0.37353950  0.87937094  1
  N  N55  1  0.26025439  0.12646050  0.12062906  1
  N  N56  1  0.50676750  0.50005109  0.24807691  1
  N  N57  1  0.00676750  0.99994891  0.75192309  1
  N  N58  1  0.49323250  0.00005109  0.25192309  1
  N  N59  1  0.99323250  0.49994891  0.74807691  1
  N  N60  1  0.49323250  0.49994891  0.75192309  1
  N  N61  1  0.99323250  0.00005109  0.24807691  1
  N  N62  1  0.50676750  0.99994891  0.74807691  1
  N  N63  1  0.00676750  0.50005109  0.25192309  1
