# generated using pymatgen
data_MgTi
_symmetry_space_group_name_H-M   'P 1'
_cell_length_a   4.80147791
_cell_length_b   2.95929045
_cell_length_c   16.54946274
_cell_angle_alpha   90.00000000
_cell_angle_beta   90.00000000
_cell_angle_gamma   90.00000000
_symmetry_Int_Tables_number   1
_chemical_formula_structural   MgTi
_chemical_formula_sum   'Mg6 Ti6'
_cell_volume   235.15078194
_cell_formula_units_Z   6
loop_
 _symmetry_equiv_pos_site_id
 _symmetry_equiv_pos_as_xyz
  1  'x, y, z'
loop_
 _atom_site_type_symbol
 _atom_site_label
 _atom_site_symmetry_multiplicity
 _atom_site_fract_x
 _atom_site_fract_y
 _atom_site_fract_z
 _atom_site_occupancy
  Mg  Mg0  1  -0.00000000  0.50000000  0.50160109  1
  Mg  Mg1  1  -0.00000000  0.00000000  0.32101808  1
  Mg  Mg2  1  0.50000000  0.50000000  0.39397604  1
  Mg  Mg3  1  -0.00000000  -0.00000000  0.00160109  1
  Mg  Mg4  1  -0.00000000  0.50000000  0.82101808  1
  Mg  Mg5  1  0.50000000  -0.00000000  0.89397604  1
  Ti  Ti6  1  -0.00000000  0.50000000  0.16003159  1
  Ti  Ti7  1  0.50000000  0.50000000  0.07454112  1
  Ti  Ti8  1  0.50000000  -0.00000000  0.21549908  1
  Ti  Ti9  1  -0.00000000  -0.00000000  0.66003159  1
  Ti  Ti10  1  0.50000000  -0.00000000  0.57454112  1
  Ti  Ti11  1  0.50000000  0.50000000  0.71549908  1
