# generated using pymatgen
data_Na3W2N5
_symmetry_space_group_name_H-M   'P 1'
_cell_length_a   12.21083666
_cell_length_b   12.21083666
_cell_length_c   8.72842234
_cell_angle_alpha   90.00000000
_cell_angle_beta   90.00000000
_cell_angle_gamma   90.00000000
_symmetry_Int_Tables_number   1
_chemical_formula_structural   Na3W2N5
_chemical_formula_sum   'Na24 W16 N40'
_cell_volume   1301.44732756
_cell_formula_units_Z   8
loop_
 _symmetry_equiv_pos_site_id
 _symmetry_equiv_pos_as_xyz
  1  'x, y, z'
loop_
 _atom_site_type_symbol
 _atom_site_label
 _atom_site_symmetry_multiplicity
 _atom_site_fract_x
 _atom_site_fract_y
 _atom_site_fract_z
 _atom_site_occupancy
  Na  Na0  1  0.10846030  0.27157352  0.77256692  1
  Na  Na1  1  0.89153970  0.72842648  0.77256692  1
  Na  Na2  1  0.77157352  0.89153970  0.02256692  1
  Na  Na3  1  0.22842648  0.10846030  0.02256692  1
  Na  Na4  1  0.07103101  0.80285434  0.51876799  1
  Na  Na5  1  0.92896899  0.19714566  0.51876799  1
  Na  Na6  1  0.30285434  0.92896899  0.76876799  1
  Na  Na7  1  0.69714566  0.07103101  0.76876799  1
  Na  Na8  1  -0.00000000  0.50000000  0.93194944  1
  Na  Na9  1  -0.00000000  0.00000000  0.18194944  1
  Na  Na10  1  -0.00000000  0.00000000  0.77530358  1
  Na  Na11  1  -0.00000000  0.50000000  0.52530358  1
  Na  Na12  1  0.60846030  0.77157352  0.27256692  1
  Na  Na13  1  0.39153970  0.22842648  0.27256692  1
  Na  Na14  1  0.27157352  0.39153970  0.52256692  1
  Na  Na15  1  0.72842648  0.60846030  0.52256692  1
  Na  Na16  1  0.57103101  0.30285434  0.01876799  1
  Na  Na17  1  0.42896899  0.69714566  0.01876799  1
  Na  Na18  1  0.80285434  0.42896899  0.26876799  1
  Na  Na19  1  0.19714566  0.57103101  0.26876799  1
  Na  Na20  1  0.50000000  0.00000000  0.43194944  1
  Na  Na21  1  0.50000000  0.50000000  0.68194944  1
  Na  Na22  1  0.50000000  0.50000000  0.27530358  1
  Na  Na23  1  0.50000000  0.00000000  0.02530358  1
  W  W24  1  0.18899474  0.08872360  0.44846644  1
  W  W25  1  0.81100526  0.91127640  0.44846644  1
  W  W26  1  0.08872360  0.31100526  0.19846644  1
  W  W27  1  0.91127640  0.68899474  0.19846644  1
  W  W28  1  0.90224658  0.21596519  0.98336046  1
  W  W29  1  0.09775342  0.78403481  0.98336046  1
  W  W30  1  0.71596519  0.09775342  0.23336046  1
  W  W31  1  0.28403481  0.90224658  0.23336046  1
  W  W32  1  0.68899474  0.58872360  0.94846644  1
  W  W33  1  0.31100526  0.41127640  0.94846644  1
  W  W34  1  0.58872360  0.81100526  0.69846644  1
  W  W35  1  0.41127640  0.18899474  0.69846644  1
  W  W36  1  0.40224658  0.71596519  0.48336046  1
  W  W37  1  0.59775342  0.28403481  0.48336046  1
  W  W38  1  0.21596519  0.59775342  0.73336046  1
  W  W39  1  0.78403481  0.40224658  0.73336046  1
  N  N40  1  0.09339417  0.11211524  0.59729025  1
  N  N41  1  0.90660583  0.88788476  0.59729025  1
  N  N42  1  0.61211524  0.90660583  0.84729025  1
  N  N43  1  0.38788476  0.09339417  0.84729025  1
  N  N44  1  0.63794429  0.97489560  0.21972280  1
  N  N45  1  0.36205571  0.02510440  0.21972280  1
  N  N46  1  0.97489560  0.86205571  0.96972280  1
  N  N47  1  0.02510440  0.13794429  0.96972280  1
  N  N48  1  0.32574149  0.13940070  0.52912893  1
  N  N49  1  0.67425851  0.86059930  0.52912893  1
  N  N50  1  0.13940070  0.17425851  0.27912893  1
  N  N51  1  0.86059930  0.82574149  0.27912893  1
  N  N52  1  0.78271730  0.11823430  0.03534653  1
  N  N53  1  0.21728270  0.88176570  0.03534653  1
  N  N54  1  0.11823430  0.71728270  0.78534653  1
  N  N55  1  0.88176570  0.28271730  0.78534653  1
  N  N56  1  0.93270610  0.32088387  0.14027416  1
  N  N57  1  0.06729390  0.67911613  0.14027416  1
  N  N58  1  0.82088387  0.06729390  0.39027416  1
  N  N59  1  0.17911613  0.93270610  0.39027416  1
  N  N60  1  0.59339417  0.61211524  0.09729025  1
  N  N61  1  0.40660583  0.38788476  0.09729025  1
  N  N62  1  0.11211524  0.40660583  0.34729025  1
  N  N63  1  0.88788476  0.59339417  0.34729025  1
  N  N64  1  0.13794429  0.47489560  0.71972280  1
  N  N65  1  0.86205571  0.52510440  0.71972280  1
  N  N66  1  0.47489560  0.36205571  0.46972280  1
  N  N67  1  0.52510440  0.63794429  0.46972280  1
  N  N68  1  0.82574149  0.63940070  0.02912893  1
  N  N69  1  0.17425851  0.36059930  0.02912893  1
  N  N70  1  0.63940070  0.67425851  0.77912893  1
  N  N71  1  0.36059930  0.32574149  0.77912893  1
  N  N72  1  0.28271730  0.61823430  0.53534653  1
  N  N73  1  0.71728270  0.38176570  0.53534653  1
  N  N74  1  0.61823430  0.21728270  0.28534653  1
  N  N75  1  0.38176570  0.78271730  0.28534653  1
  N  N76  1  0.43270610  0.82088387  0.64027416  1
  N  N77  1  0.56729390  0.17911613  0.64027416  1
  N  N78  1  0.32088387  0.56729390  0.89027416  1
  N  N79  1  0.67911613  0.43270610  0.89027416  1
