# generated using pymatgen
data_Sr(Ag2Sb)2
_symmetry_space_group_name_H-M   'P 1'
_cell_length_a   4.82195586
_cell_length_b   4.82195586
_cell_length_c   8.94586890
_cell_angle_alpha   74.36504427
_cell_angle_beta   74.36504427
_cell_angle_gamma   60.00000661
_symmetry_Int_Tables_number   1
_chemical_formula_structural   Sr(Ag2Sb)2
_chemical_formula_sum   'Sr1 Ag4 Sb2'
_cell_volume   171.19088612
_cell_formula_units_Z   1
loop_
 _symmetry_equiv_pos_site_id
 _symmetry_equiv_pos_as_xyz
  1  'x, y, z'
loop_
 _atom_site_type_symbol
 _atom_site_label
 _atom_site_symmetry_multiplicity
 _atom_site_fract_x
 _atom_site_fract_y
 _atom_site_fract_z
 _atom_site_occupancy
  Sr  Sr0  1  -0.00000000  -0.00000000  0.00000000  1
  Ag  Ag1  1  0.14205816  0.14205816  0.57382553  1
  Ag  Ag2  1  0.85794184  0.85794184  0.42617447  1
  Ag  Ag3  1  0.43485847  0.43485847  0.69542460  1
  Ag  Ag4  1  0.56514153  0.56514153  0.30457540  1
  Sb  Sb5  1  0.25416139  0.25416139  0.23751582  1
  Sb  Sb6  1  0.74583861  0.74583861  0.76248418  1
