# generated using pymatgen
data_Sr3RuN3
_symmetry_space_group_name_H-M   'P 1'
_cell_length_a   7.81746670
_cell_length_b   7.81487702
_cell_length_c   5.33719824
_cell_angle_alpha   90.00000000
_cell_angle_beta   90.00000000
_cell_angle_gamma   120.00812639
_symmetry_Int_Tables_number   1
_chemical_formula_structural   Sr3RuN3
_chemical_formula_sum   'Sr6 Ru2 N6'
_cell_volume   282.35571678
_cell_formula_units_Z   2
loop_
 _symmetry_equiv_pos_site_id
 _symmetry_equiv_pos_as_xyz
  1  'x, y, z'
loop_
 _atom_site_type_symbol
 _atom_site_label
 _atom_site_symmetry_multiplicity
 _atom_site_fract_x
 _atom_site_fract_y
 _atom_site_fract_z
 _atom_site_occupancy
  Sr  Sr0  1  0.90678125  0.64167614  0.25000000  1
  Sr  Sr1  1  0.73477415  0.09311841  0.25000000  1
  Sr  Sr2  1  0.35846315  0.26521724  0.25000000  1
  Sr  Sr3  1  0.09321875  0.35832386  0.75000000  1
  Sr  Sr4  1  0.26522585  0.90688159  0.75000000  1
  Sr  Sr5  1  0.64153685  0.73478276  0.75000000  1
  Ru  Ru6  1  0.66666280  0.33331102  0.75000000  1
  Ru  Ru7  1  0.33333720  0.66668898  0.25000000  1
  N  N8  1  0.89046352  0.58580331  0.75000000  1
  N  N9  1  0.69532986  0.10939626  0.75000000  1
  N  N10  1  0.41405524  0.30460297  0.75000000  1
  N  N11  1  0.10953648  0.41419669  0.25000000  1
  N  N12  1  0.30467014  0.89060374  0.25000000  1
  N  N13  1  0.58594476  0.69539703  0.25000000  1
