# generated using pymatgen
data_Ba2ScIrO6
_symmetry_space_group_name_H-M   'P 1'
_cell_length_a   5.82301701
_cell_length_b   5.82316124
_cell_length_c   8.23655162
_cell_angle_alpha   90.00077865
_cell_angle_beta   90.00073094
_cell_angle_gamma   89.98779109
_symmetry_Int_Tables_number   1
_chemical_formula_structural   Ba2ScIrO6
_chemical_formula_sum   'Ba4 Sc2 Ir2 O12'
_cell_volume   279.28800831
_cell_formula_units_Z   2
loop_
 _symmetry_equiv_pos_site_id
 _symmetry_equiv_pos_as_xyz
  1  'x, y, z'
loop_
 _atom_site_type_symbol
 _atom_site_label
 _atom_site_symmetry_multiplicity
 _atom_site_fract_x
 _atom_site_fract_y
 _atom_site_fract_z
 _atom_site_occupancy
  O  O0  1  0.49998120  0.00015588  0.74282973  1
  O  O1  1  0.99998117  0.49984416  0.75717029  1
  O  O2  1  0.50001880  0.99984412  0.25717027  1
  O  O3  1  0.00001883  0.50015584  0.24282971  1
  O  O4  1  0.74314288  0.24259272  0.49994656  1
  O  O5  1  0.24312860  0.25742158  0.00005356  1
  O  O6  1  0.25685712  0.75740728  0.50005344  1
  O  O7  1  0.75687140  0.74257842  0.99994644  1
  O  O8  1  0.24260247  0.74313288  0.99990759  1
  O  O9  1  0.74258833  0.75688144  0.50009252  1
  O  O10  1  0.75739753  0.25686712  0.00009241  1
  O  O11  1  0.25741167  0.24311856  0.49990748  1
  Sc  Sc12  1  0.50000000  0.00000000  0.00000000  1
  Sc  Sc13  1  0.00000000  0.50000000  0.50000000  1
  Ba  Ba14  1  0.50004373  0.50002168  0.75001582  1
  Ba  Ba15  1  0.49995627  0.49997832  0.24998418  1
  Ba  Ba16  1  0.00005203  0.99997830  0.74998419  1
  Ba  Ba17  1  0.99994797  0.00002170  0.25001581  1
  Ir  Ir18  1  0.00000000  0.50000000  0.00000000  1
  Ir  Ir19  1  0.50000000  0.00000000  0.50000000  1
