# generated using pymatgen
data_Sr3OsN3
_symmetry_space_group_name_H-M   'P 1'
_cell_length_a   7.82052427
_cell_length_b   5.34422537
_cell_length_c   7.82396987
_cell_angle_alpha   90.00000000
_cell_angle_beta   119.96447318
_cell_angle_gamma   90.00000000
_symmetry_Int_Tables_number   1
_chemical_formula_structural   Sr3OsN3
_chemical_formula_sum   'Sr6 Os2 N6'
_cell_volume   283.29166435
_cell_formula_units_Z   2
loop_
 _symmetry_equiv_pos_site_id
 _symmetry_equiv_pos_as_xyz
  1  'x, y, z'
loop_
 _atom_site_type_symbol
 _atom_site_label
 _atom_site_symmetry_multiplicity
 _atom_site_fract_x
 _atom_site_fract_y
 _atom_site_fract_z
 _atom_site_occupancy
  Sr  Sr0  1  0.64098986  0.25000000  0.73797766  1
  Sr  Sr1  1  0.09551514  0.25000000  0.35672387  1
  Sr  Sr2  1  0.26109365  0.25000000  0.90336002  1
  Sr  Sr3  1  0.35901014  0.75000000  0.26202234  1
  Sr  Sr4  1  0.90448486  0.75000000  0.64327613  1
  Sr  Sr5  1  0.73890635  0.75000000  0.09663998  1
  Os  Os6  1  0.33459236  0.75000000  0.66747458  1
  Os  Os7  1  0.66540764  0.25000000  0.33252542  1
  N  N8  1  0.58571826  0.75000000  0.69389961  1
  N  N9  1  0.10962088  0.75000000  0.41654485  1
  N  N10  1  0.30834210  0.75000000  0.89219449  1
  N  N11  1  0.41428174  0.25000000  0.30610039  1
  N  N12  1  0.89037912  0.25000000  0.58345515  1
  N  N13  1  0.69165790  0.25000000  0.10780551  1
