# generated using pymatgen
data_ErNi3
_symmetry_space_group_name_H-M   'P 1'
_cell_length_a   4.92990213
_cell_length_b   4.92990213
_cell_length_c   8.55003008
_cell_angle_alpha   73.24395157
_cell_angle_beta   73.24395157
_cell_angle_gamma   59.99999284
_symmetry_Int_Tables_number   1
_chemical_formula_structural   ErNi3
_chemical_formula_sum   'Er3 Ni9'
_cell_volume   169.69520293
_cell_formula_units_Z   3
loop_
 _symmetry_equiv_pos_site_id
 _symmetry_equiv_pos_as_xyz
  1  'x, y, z'
loop_
 _atom_site_type_symbol
 _atom_site_label
 _atom_site_symmetry_multiplicity
 _atom_site_fract_x
 _atom_site_fract_y
 _atom_site_fract_z
 _atom_site_occupancy
  Er  Er0  1  -0.00000000  0.00000000  0.00000000  1
  Er  Er1  1  0.13860907  0.13860907  0.58417279  1
  Er  Er2  1  0.86139093  0.86139093  0.41582721  1
  Ni  Ni3  1  0.50000000  0.50000000  0.50000000  1
  Ni  Ni4  1  0.33311268  0.33311268  0.00066197  1
  Ni  Ni5  1  0.66688732  0.66688732  0.99933803  1
  Ni  Ni6  1  0.08070452  0.58305952  0.75317643  1
  Ni  Ni7  1  0.58305952  0.58305952  0.75317643  1
  Ni  Ni8  1  0.58305952  0.08070452  0.75317643  1
  Ni  Ni9  1  0.91929548  0.41694048  0.24682357  1
  Ni  Ni10  1  0.41694048  0.41694048  0.24682357  1
  Ni  Ni11  1  0.41694048  0.91929548  0.24682357  1
