# generated using pymatgen
data_Ba2LaBiO6
_symmetry_space_group_name_H-M   'P 1'
_cell_length_a   6.31640528
_cell_length_b   6.31640528
_cell_length_c   6.27169469
_cell_angle_alpha   90.21646638
_cell_angle_beta   119.70192923
_cell_angle_gamma   120.28277852
_symmetry_Int_Tables_number   1
_chemical_formula_structural   Ba2LaBiO6
_chemical_formula_sum   'Ba2 La1 Bi1 O6'
_cell_volume   176.63294851
_cell_formula_units_Z   1
loop_
 _symmetry_equiv_pos_site_id
 _symmetry_equiv_pos_as_xyz
  1  'x, y, z'
loop_
 _atom_site_type_symbol
 _atom_site_label
 _atom_site_symmetry_multiplicity
 _atom_site_fract_x
 _atom_site_fract_y
 _atom_site_fract_z
 _atom_site_occupancy
  Ba  Ba0  1  0.99233648  0.75136909  0.74370556  1
  Ba  Ba1  1  0.00766352  0.24863091  0.25629444  1
  La  La2  1  0.50000000  -0.00000000  0.50000000  1
  Bi  Bi3  1  0.50000000  0.50000000  -0.00000000  1
  O  O4  1  0.02416723  0.22116496  0.72331760  1
  O  O5  1  0.49784736  0.30084964  0.27668240  1
  O  O6  1  0.97583277  0.77883504  0.27668240  1
  O  O7  1  0.50215264  0.69915036  0.72331760  1
  O  O8  1  0.57171502  0.26336718  0.83508220  1
  O  O9  1  0.42828498  0.73663282  0.16491780  1
