# generated using pymatgen
data_LaSi2Ni
_symmetry_space_group_name_H-M   'P 1'
_cell_length_a   4.10152523
_cell_length_b   4.23903899
_cell_length_c   8.57351030
_cell_angle_alpha   104.31290669
_cell_angle_beta   90.00000000
_cell_angle_gamma   90.00000000
_symmetry_Int_Tables_number   1
_chemical_formula_structural   LaSi2Ni
_chemical_formula_sum   'La2 Si4 Ni2'
_cell_volume   144.43663151
_cell_formula_units_Z   2
loop_
 _symmetry_equiv_pos_site_id
 _symmetry_equiv_pos_as_xyz
  1  'x, y, z'
loop_
 _atom_site_type_symbol
 _atom_site_label
 _atom_site_symmetry_multiplicity
 _atom_site_fract_x
 _atom_site_fract_y
 _atom_site_fract_z
 _atom_site_occupancy
  La  La0  1  0.75000000  0.10764933  0.21529866  1
  La  La1  1  0.25000000  0.89235067  0.78470134  1
  Si  Si2  1  0.75000000  0.45894449  0.91788899  1
  Si  Si3  1  0.25000000  0.54105551  0.08211101  1
  Si  Si4  1  0.75000000  0.75013881  0.50027761  1
  Si  Si5  1  0.25000000  0.24986119  0.49972239  1
  Ni  Ni6  1  0.75000000  0.31792302  0.63584603  1
  Ni  Ni7  1  0.25000000  0.68207698  0.36415397  1
