# generated using pymatgen
data_Nd2Fe2Se2O3
_symmetry_space_group_name_H-M   'P 1'
_cell_length_a   4.09346443
_cell_length_b   4.09346443
_cell_length_c   9.87028936
_cell_angle_alpha   101.96786098
_cell_angle_beta   101.96786098
_cell_angle_gamma   90.00000000
_symmetry_Int_Tables_number   1
_chemical_formula_structural   Nd2Fe2Se2O3
_chemical_formula_sum   'Nd2 Fe2 Se2 O3'
_cell_volume   158.11945409
_cell_formula_units_Z   1
loop_
 _symmetry_equiv_pos_site_id
 _symmetry_equiv_pos_as_xyz
  1  'x, y, z'
loop_
 _atom_site_type_symbol
 _atom_site_label
 _atom_site_symmetry_multiplicity
 _atom_site_fract_x
 _atom_site_fract_y
 _atom_site_fract_z
 _atom_site_occupancy
  Nd  Nd0  1  0.31209839  0.31209839  0.62419678  1
  Nd  Nd1  1  0.68790161  0.68790161  0.37580322  1
  Fe  Fe2  1  0.00000000  0.50000000  0.00000000  1
  Fe  Fe3  1  0.50000000  0.00000000  0.00000000  1
  Se  Se4  1  0.90047686  0.90047686  0.80095371  1
  Se  Se5  1  0.09952314  0.09952314  0.19904629  1
  O  O6  1  0.75000000  0.25000000  0.50000000  1
  O  O7  1  0.25000000  0.75000000  0.50000000  1
  O  O8  1  0.50000000  0.50000000  0.00000000  1
