# generated using pymatgen
data_UGaCo
_symmetry_space_group_name_H-M   'P 1'
_cell_length_a   6.59289526
_cell_length_b   6.59289523
_cell_length_c   4.00421645
_cell_angle_alpha   90.00000000
_cell_angle_beta   90.00000000
_cell_angle_gamma   120.60074307
_symmetry_Int_Tables_number   1
_chemical_formula_structural   UGaCo
_chemical_formula_sum   'U3 Ga3 Co3'
_cell_volume   149.80957558
_cell_formula_units_Z   3
loop_
 _symmetry_equiv_pos_site_id
 _symmetry_equiv_pos_as_xyz
  1  'x, y, z'
loop_
 _atom_site_type_symbol
 _atom_site_label
 _atom_site_symmetry_multiplicity
 _atom_site_fract_x
 _atom_site_fract_y
 _atom_site_fract_z
 _atom_site_occupancy
  U  U0  1  0.42403549  0.42403549  0.50000000  1
  U  U1  1  0.57476905  0.99428942  0.50000000  1
  U  U2  1  0.99428941  0.57476905  0.50000000  1
  Ga  Ga3  1  0.76191404  0.76191404  0.00000000  1
  Ga  Ga4  1  0.23940709  0.00159834  -0.00000000  1
  Ga  Ga5  1  0.00159834  0.23940709  -0.00000000  1
  Co  Co6  1  0.67061155  0.33469921  0.00000000  1
  Co  Co7  1  0.33469921  0.67061155  0.00000000  1
  Co  Co8  1  0.99877581  0.99877581  0.50000000  1
