# generated using pymatgen
data_ScCuGe
_symmetry_space_group_name_H-M   'P 1'
_cell_length_a   3.99774962
_cell_length_b   6.55964473
_cell_length_c   6.56055085
_cell_angle_alpha   119.99543297
_cell_angle_beta   90.00000000
_cell_angle_gamma   90.00000000
_symmetry_Int_Tables_number   1
_chemical_formula_structural   ScCuGe
_chemical_formula_sum   'Sc3 Cu3 Ge3'
_cell_volume   149.00019329
_cell_formula_units_Z   3
loop_
 _symmetry_equiv_pos_site_id
 _symmetry_equiv_pos_as_xyz
  1  'x, y, z'
loop_
 _atom_site_type_symbol
 _atom_site_label
 _atom_site_symmetry_multiplicity
 _atom_site_fract_x
 _atom_site_fract_y
 _atom_site_fract_z
 _atom_site_occupancy
  Sc  Sc0  1  -0.00000000  0.57188710  -0.00000000  1
  Sc  Sc1  1  -0.00000000  0.42813760  0.42812597  1
  Sc  Sc2  1  0.00000000  0.00001164  0.57187403  1
  Cu  Cu3  1  0.50000000  0.24287001  -0.00000000  1
  Cu  Cu4  1  0.50000000  0.75714192  0.75712191  1
  Cu  Cu5  1  0.50000000  0.00002001  0.24287809  1
  Ge  Ge6  1  0.50000000  0.66668561  0.33334933  1
  Ge  Ge7  1  0.50000000  0.33333628  0.66665067  1
  Ge  Ge8  1  -0.00000000  0.00000983  -0.00000000  1
