# generated using pymatgen
data_V3PC
_symmetry_space_group_name_H-M   'P 1'
_cell_length_a   3.11029559
_cell_length_b   5.09858140
_cell_length_c   7.54820004
_cell_angle_alpha   90.00000000
_cell_angle_beta   90.00000000
_cell_angle_gamma   107.75911927
_symmetry_Int_Tables_number   1
_chemical_formula_structural   V3PC
_chemical_formula_sum   'V6 P2 C2'
_cell_volume   113.99603915
_cell_formula_units_Z   2
loop_
 _symmetry_equiv_pos_site_id
 _symmetry_equiv_pos_as_xyz
  1  'x, y, z'
loop_
 _atom_site_type_symbol
 _atom_site_label
 _atom_site_symmetry_multiplicity
 _atom_site_fract_x
 _atom_site_fract_y
 _atom_site_fract_z
 _atom_site_occupancy
  V  V0  1  0.36567260  0.73134521  0.44530406  1
  V  V1  1  0.63432740  0.26865479  0.55469594  1
  V  V2  1  0.36567260  0.73134521  0.05469594  1
  V  V3  1  0.63432740  0.26865479  0.94530406  1
  V  V4  1  0.06414837  0.12829673  0.25000000  1
  V  V5  1  0.93585163  0.87170327  0.75000000  1
  P  P6  1  0.74759240  0.49518481  0.25000000  1
  P  P7  1  0.25240760  0.50481519  0.75000000  1
  C  C8  1  0.00000000  0.00000000  0.50000000  1
  C  C9  1  0.00000000  0.00000000  -0.00000000  1
