# generated using pymatgen
data_EuNiGe2
_symmetry_space_group_name_H-M   'P 1'
_cell_length_a   4.18499776
_cell_length_b   4.31360207
_cell_length_c   8.76025292
_cell_angle_alpha   104.25294464
_cell_angle_beta   90.00000000
_cell_angle_gamma   90.00000000
_symmetry_Int_Tables_number   1
_chemical_formula_structural   EuNiGe2
_chemical_formula_sum   'Eu2 Ni2 Ge4'
_cell_volume   153.27578200
_cell_formula_units_Z   2
loop_
 _symmetry_equiv_pos_site_id
 _symmetry_equiv_pos_as_xyz
  1  'x, y, z'
loop_
 _atom_site_type_symbol
 _atom_site_label
 _atom_site_symmetry_multiplicity
 _atom_site_fract_x
 _atom_site_fract_y
 _atom_site_fract_z
 _atom_site_occupancy
  Eu  Eu0  1  0.75000000  0.10785250  0.21570501  1
  Eu  Eu1  1  0.25000000  0.89214750  0.78429499  1
  Ni  Ni2  1  0.75000000  0.31896942  0.63793884  1
  Ni  Ni3  1  0.25000000  0.68103058  0.36206116  1
  Ge  Ge4  1  0.75000000  0.45626888  0.91253776  1
  Ge  Ge5  1  0.25000000  0.54373112  0.08746224  1
  Ge  Ge6  1  0.75000000  0.75044671  0.50089342  1
  Ge  Ge7  1  0.25000000  0.24955329  0.49910658  1
