# generated using pymatgen
data_ScAlCO
_symmetry_space_group_name_H-M   'P 1'
_cell_length_a   3.26319439
_cell_length_b   3.26319439
_cell_length_c   10.23639790
_cell_angle_alpha   90.00000000
_cell_angle_beta   90.00000000
_cell_angle_gamma   120.00117289
_symmetry_Int_Tables_number   1
_chemical_formula_structural   ScAlCO
_chemical_formula_sum   'Sc2 Al2 C2 O2'
_cell_volume   94.39707760
_cell_formula_units_Z   2
loop_
 _symmetry_equiv_pos_site_id
 _symmetry_equiv_pos_as_xyz
  1  'x, y, z'
loop_
 _atom_site_type_symbol
 _atom_site_label
 _atom_site_symmetry_multiplicity
 _atom_site_fract_x
 _atom_site_fract_y
 _atom_site_fract_z
 _atom_site_occupancy
  Sc  Sc0  1  0.66668943  0.33331057  0.80413942  1
  Sc  Sc1  1  0.33331057  0.66668943  0.30413942  1
  Al  Al2  1  0.00000943  0.99999057  0.52001250  1
  Al  Al3  1  0.99999057  0.00000943  0.02001250  1
  C  C4  1  0.33331547  0.66668453  0.94191447  1
  C  C5  1  0.66668453  0.33331547  0.44191447  1
  O  O6  1  0.00000140  0.99999860  0.69725362  1
  O  O7  1  0.99999860  0.00000140  0.19725362  1
