# generated using pymatgen
data_USnRh
_symmetry_space_group_name_H-M   'P 1'
_cell_length_a   4.07562768
_cell_length_b   7.35647400
_cell_length_c   7.36663495
_cell_angle_alpha   119.95438181
_cell_angle_beta   90.00000000
_cell_angle_gamma   90.00000000
_symmetry_Int_Tables_number   1
_chemical_formula_structural   USnRh
_chemical_formula_sum   'U3 Sn3 Rh3'
_cell_volume   191.36541035
_cell_formula_units_Z   3
loop_
 _symmetry_equiv_pos_site_id
 _symmetry_equiv_pos_as_xyz
  1  'x, y, z'
loop_
 _atom_site_type_symbol
 _atom_site_label
 _atom_site_symmetry_multiplicity
 _atom_site_fract_x
 _atom_site_fract_y
 _atom_site_fract_z
 _atom_site_occupancy
  U  U0  1  0.50000000  0.58149127  1.00000000  1
  U  U1  1  0.50000000  0.41923617  0.41915581  1
  U  U2  1  0.50000000  0.00008036  0.58084419  1
  Sn  Sn3  1  -0.00000000  0.25200090  0.00000000  1
  Sn  Sn4  1  0.00000000  0.74808220  0.74802847  1
  Sn  Sn5  1  0.00000000  0.00005373  0.25197153  1
  Rh  Rh6  1  -0.00000000  0.33277325  0.66641125  1
  Rh  Rh7  1  -0.00000000  0.66636201  0.33358875  1
  Rh  Rh8  1  0.50000000  0.99982010  1.00000000  1
