# generated using pymatgen
data_USnIr
_symmetry_space_group_name_H-M   'P 1'
_cell_length_a   4.06165519
_cell_length_b   7.36982930
_cell_length_c   7.38004076
_cell_angle_alpha   119.95424498
_cell_angle_beta   90.00000000
_cell_angle_gamma   90.00000000
_symmetry_Int_Tables_number   1
_chemical_formula_structural   USnIr
_chemical_formula_sum   'U3 Sn3 Ir3'
_cell_volume   191.40352098
_cell_formula_units_Z   3
loop_
 _symmetry_equiv_pos_site_id
 _symmetry_equiv_pos_as_xyz
  1  'x, y, z'
loop_
 _atom_site_type_symbol
 _atom_site_label
 _atom_site_symmetry_multiplicity
 _atom_site_fract_x
 _atom_site_fract_y
 _atom_site_fract_z
 _atom_site_occupancy
  U  U0  1  0.50000000  0.58445024  1.00000000  1
  U  U1  1  0.50000000  0.41673915  0.41625551  1
  U  U2  1  0.50000000  0.00048364  0.58374449  1
  Sn  Sn3  1  -0.00000000  0.25360643  1.00000000  1
  Sn  Sn4  1  0.00000000  0.74608566  0.74599221  1
  Sn  Sn5  1  0.00000000  0.00009345  0.25400779  1
  Ir  Ir6  1  -0.00000000  0.33293858  0.66701483  1
  Ir  Ir7  1  -0.00000000  0.66592374  0.33298517  1
  Ir  Ir8  1  0.50000000  0.99957911  0.00000000  1
