# generated using pymatgen
data_Ba2VFeO6
_symmetry_space_group_name_H-M   'P 1'
_cell_length_a   5.67141172
_cell_length_b   5.67001200
_cell_length_c   5.67379838
_cell_angle_alpha   60.18613836
_cell_angle_beta   60.28977176
_cell_angle_gamma   60.21318898
_symmetry_Int_Tables_number   1
_chemical_formula_structural   Ba2VFeO6
_chemical_formula_sum   'Ba2 V1 Fe1 O6'
_cell_volume   129.68384955
_cell_formula_units_Z   1
loop_
 _symmetry_equiv_pos_site_id
 _symmetry_equiv_pos_as_xyz
  1  'x, y, z'
loop_
 _atom_site_type_symbol
 _atom_site_label
 _atom_site_symmetry_multiplicity
 _atom_site_fract_x
 _atom_site_fract_y
 _atom_site_fract_z
 _atom_site_occupancy
  Ba  Ba0  1  0.24895612  0.75076532  0.25022128  1
  Ba  Ba1  1  0.75104388  0.24923468  0.74977872  1
  V  V2  1  0.00000000  0.50000000  0.00000000  1
  Fe  Fe3  1  0.50000000  -0.00000000  0.50000000  1
  O  O4  1  0.76294286  0.25607156  0.24226387  1
  O  O5  1  0.24211150  0.25615454  0.76280229  1
  O  O6  1  0.23705714  0.74392844  0.75773613  1
  O  O7  1  0.75788850  0.74384546  0.23719771  1
  O  O8  1  0.75926979  0.73449815  0.75970249  1
  O  O9  1  0.24073021  0.26550185  0.24029751  1
