# generated using pymatgen
data_Eu2InPt2
_symmetry_space_group_name_H-M   'P 1'
_cell_length_a   5.90638873
_cell_length_b   5.90638873
_cell_length_c   8.40391052
_cell_angle_alpha   77.72207426
_cell_angle_beta   77.72207426
_cell_angle_gamma   59.70486300
_symmetry_Int_Tables_number   1
_chemical_formula_structural   Eu2InPt2
_chemical_formula_sum   'Eu4 In2 Pt4'
_cell_volume   245.41081370
_cell_formula_units_Z   2
loop_
 _symmetry_equiv_pos_site_id
 _symmetry_equiv_pos_as_xyz
  1  'x, y, z'
loop_
 _atom_site_type_symbol
 _atom_site_label
 _atom_site_symmetry_multiplicity
 _atom_site_fract_x
 _atom_site_fract_y
 _atom_site_fract_z
 _atom_site_occupancy
  Eu  Eu0  1  0.20861656  0.49567407  0.14778732  1
  Eu  Eu1  1  0.50432593  0.79138344  0.35221268  1
  Eu  Eu2  1  0.79138344  0.50432593  0.85221268  1
  Eu  Eu3  1  0.49567407  0.20861656  0.64778732  1
  In  In4  1  0.85394988  0.14605012  0.25000000  1
  In  In5  1  0.14605012  0.85394988  0.75000000  1
  Pt  Pt6  1  0.99958501  0.27399958  0.49739028  1
  Pt  Pt7  1  0.72600042  0.00041499  0.00260972  1
  Pt  Pt8  1  0.00041499  0.72600042  0.50260972  1
  Pt  Pt9  1  0.27399958  0.99958501  0.99739028  1
