# generated using pymatgen
data_ThSnRh
_symmetry_space_group_name_H-M   'P 1'
_cell_length_a   4.13101191
_cell_length_b   7.59625130
_cell_length_c   7.59642053
_cell_angle_alpha   119.99925758
_cell_angle_beta   90.00000000
_cell_angle_gamma   90.00000000
_symmetry_Int_Tables_number   1
_chemical_formula_structural   ThSnRh
_chemical_formula_sum   'Th3 Sn3 Rh3'
_cell_volume   206.44228162
_cell_formula_units_Z   3
loop_
 _symmetry_equiv_pos_site_id
 _symmetry_equiv_pos_as_xyz
  1  'x, y, z'
loop_
 _atom_site_type_symbol
 _atom_site_label
 _atom_site_symmetry_multiplicity
 _atom_site_fract_x
 _atom_site_fract_y
 _atom_site_fract_z
 _atom_site_occupancy
  Th  Th0  1  0.50000000  0.58887663  1.00000000  1
  Th  Th1  1  0.50000000  0.41111331  0.41110760  1
  Th  Th2  1  0.50000000  0.00000571  0.58889240  1
  Sn  Sn3  1  -0.00000000  0.25190933  1.00000000  1
  Sn  Sn4  1  0.00000000  0.74807196  0.74807826  1
  Sn  Sn5  1  -0.00000000  0.99999370  0.25192174  1
  Rh  Rh6  1  0.00000000  0.33330989  0.66665618  1
  Rh  Rh7  1  0.00000000  0.66665370  0.33334382  1
  Rh  Rh8  1  0.50000000  0.99996577  0.00000000  1
