# generated using pymatgen
data_Rb2Pu(Cl2O)2
_symmetry_space_group_name_H-M   'P 1'
_cell_length_a   5.78991268
_cell_length_b   7.21457694
_cell_length_c   7.21457694
_cell_angle_alpha   63.44592046
_cell_angle_beta   88.99315744
_cell_angle_gamma   88.99315744
_symmetry_Int_Tables_number   1
_chemical_formula_structural   Rb2Pu(Cl2O)2
_chemical_formula_sum   'Rb2 Pu1 Cl4 O2'
_cell_volume   269.51790934
_cell_formula_units_Z   1
loop_
 _symmetry_equiv_pos_site_id
 _symmetry_equiv_pos_as_xyz
  1  'x, y, z'
loop_
 _atom_site_type_symbol
 _atom_site_label
 _atom_site_symmetry_multiplicity
 _atom_site_fract_x
 _atom_site_fract_y
 _atom_site_fract_z
 _atom_site_occupancy
  Rb  Rb0  1  0.78045195  0.84311309  0.84311309  1
  Rb  Rb1  1  0.21954805  0.15688691  0.15688691  1
  Pu  Pu2  1  0.50000000  0.50000000  0.50000000  1
  Cl  Cl3  1  0.71762632  0.86178318  0.35645876  1
  Cl  Cl4  1  0.71762632  0.35645876  0.86178318  1
  Cl  Cl5  1  0.28237368  0.13821682  0.64354124  1
  Cl  Cl6  1  0.28237368  0.64354124  0.13821682  1
  O  O7  1  0.71251616  0.39338976  0.39338976  1
  O  O8  1  0.28748384  0.60661024  0.60661024  1
