# generated using pymatgen
data_PrPdPb
_symmetry_space_group_name_H-M   'P 1'
_cell_length_a   4.15598647
_cell_length_b   7.90767581
_cell_length_c   7.90787018
_cell_angle_alpha   119.99918591
_cell_angle_beta   90.00000000
_cell_angle_gamma   90.00000000
_symmetry_Int_Tables_number   1
_chemical_formula_structural   PrPdPb
_chemical_formula_sum   'Pr3 Pd3 Pb3'
_cell_volume   225.06953133
_cell_formula_units_Z   3
loop_
 _symmetry_equiv_pos_site_id
 _symmetry_equiv_pos_as_xyz
  1  'x, y, z'
loop_
 _atom_site_type_symbol
 _atom_site_label
 _atom_site_symmetry_multiplicity
 _atom_site_fract_x
 _atom_site_fract_y
 _atom_site_fract_z
 _atom_site_occupancy
  Pr  Pr0  1  0.50000000  0.58987984  1.00000000  1
  Pr  Pr1  1  0.50000000  0.41011347  0.41011593  1
  Pr  Pr2  1  0.50000000  0.99999754  0.58988407  1
  Pd  Pd3  1  0.00000000  0.33330902  0.66668046  1
  Pd  Pd4  1  0.00000000  0.66662856  0.33331954  1
  Pd  Pd5  1  0.50000000  0.00000333  0.00000000  1
  Pb  Pb6  1  0.00000000  0.25574106  1.00000000  1
  Pb  Pb7  1  0.00000000  0.74423317  0.74423918  1
  Pb  Pb8  1  -0.00000000  0.99999399  0.25576082  1
