# generated using pymatgen
data_DyGa2Ni
_symmetry_space_group_name_H-M   'P 1'
_cell_length_a   4.13537895
_cell_length_b   5.41425775
_cell_length_c   6.56450865
_cell_angle_alpha   90.00000000
_cell_angle_beta   90.00000000
_cell_angle_gamma   112.45124982
_symmetry_Int_Tables_number   1
_chemical_formula_structural   DyGa2Ni
_chemical_formula_sum   'Dy2 Ga4 Ni2'
_cell_volume   135.83906588
_cell_formula_units_Z   2
loop_
 _symmetry_equiv_pos_site_id
 _symmetry_equiv_pos_as_xyz
  1  'x, y, z'
loop_
 _atom_site_type_symbol
 _atom_site_label
 _atom_site_symmetry_multiplicity
 _atom_site_fract_x
 _atom_site_fract_y
 _atom_site_fract_z
 _atom_site_occupancy
  Dy  Dy0  1  0.42422157  0.84844315  0.25000000  1
  Dy  Dy1  1  0.57577843  0.15155685  0.75000000  1
  Ga  Ga2  1  0.14067274  0.28134549  0.44688886  1
  Ga  Ga3  1  0.85932726  0.71865451  0.55311114  1
  Ga  Ga4  1  0.14067274  0.28134549  0.05311114  1
  Ga  Ga5  1  0.85932726  0.71865451  0.94688886  1
  Ni  Ni6  1  0.70603710  0.41207419  0.25000000  1
  Ni  Ni7  1  0.29396290  0.58792581  0.75000000  1
