# generated using pymatgen
data_LaCoGe2
_symmetry_space_group_name_H-M   'P 1'
_cell_length_a   4.31639790
_cell_length_b   4.35053057
_cell_length_c   8.56354847
_cell_angle_alpha   104.71519616
_cell_angle_beta   90.00000000
_cell_angle_gamma   90.00000000
_symmetry_Int_Tables_number   1
_chemical_formula_structural   LaCoGe2
_chemical_formula_sum   'La2 Co2 Ge4'
_cell_volume   155.53707680
_cell_formula_units_Z   2
loop_
 _symmetry_equiv_pos_site_id
 _symmetry_equiv_pos_as_xyz
  1  'x, y, z'
loop_
 _atom_site_type_symbol
 _atom_site_label
 _atom_site_symmetry_multiplicity
 _atom_site_fract_x
 _atom_site_fract_y
 _atom_site_fract_z
 _atom_site_occupancy
  La  La0  1  0.75000000  0.10798542  0.21597084  1
  La  La1  1  0.25000000  0.89201458  0.78402916  1
  Co  Co2  1  0.75000000  0.31443591  0.62887181  1
  Co  Co3  1  0.25000000  0.68556409  0.37112819  1
  Ge  Ge4  1  0.75000000  0.45391299  0.90782599  1
  Ge  Ge5  1  0.25000000  0.54608701  0.09217401  1
  Ge  Ge6  1  0.75000000  0.74860604  0.49721207  1
  Ge  Ge7  1  0.25000000  0.25139396  0.50278793  1
