# generated using pymatgen
data_USbRu
_symmetry_space_group_name_H-M   'P 1'
_cell_length_a   3.98588597
_cell_length_b   7.39586681
_cell_length_c   7.40393294
_cell_angle_alpha   119.96397221
_cell_angle_beta   90.00000000
_cell_angle_gamma   90.00000000
_symmetry_Int_Tables_number   1
_chemical_formula_structural   USbRu
_chemical_formula_sum   'U3 Sb3 Ru3'
_cell_volume   189.08828017
_cell_formula_units_Z   3
loop_
 _symmetry_equiv_pos_site_id
 _symmetry_equiv_pos_as_xyz
  1  'x, y, z'
loop_
 _atom_site_type_symbol
 _atom_site_label
 _atom_site_symmetry_multiplicity
 _atom_site_fract_x
 _atom_site_fract_y
 _atom_site_fract_z
 _atom_site_occupancy
  U  U0  1  0.50000000  0.58643720  0.00000000  1
  U  U1  1  0.50000000  0.41393047  0.41379570  1
  U  U2  1  0.50000000  0.00013477  0.58620430  1
  Sb  Sb3  1  -0.00000000  0.25762524  1.00000000  1
  Sb  Sb4  1  0.00000000  0.74225308  0.74228582  1
  Sb  Sb5  1  0.00000000  0.99996726  0.25771418  1
  Ru  Ru6  1  -0.00000000  0.33316710  0.66665751  1
  Ru  Ru7  1  -0.00000000  0.66650959  0.33334249  1
  Ru  Ru8  1  0.50000000  0.99987530  0.00000000  1
