# generated using pymatgen
data_Ba2SmMoO6
_symmetry_space_group_name_H-M   'P 1'
_cell_length_a   6.12664905
_cell_length_b   6.12664905
_cell_length_c   6.07343382
_cell_angle_alpha   120.29026927
_cell_angle_beta   120.29026927
_cell_angle_gamma   90.00000000
_symmetry_Int_Tables_number   1
_chemical_formula_structural   Ba2SmMoO6
_chemical_formula_sum   'Ba2 Sm1 Mo1 O6'
_cell_volume   159.77518661
_cell_formula_units_Z   1
loop_
 _symmetry_equiv_pos_site_id
 _symmetry_equiv_pos_as_xyz
  1  'x, y, z'
loop_
 _atom_site_type_symbol
 _atom_site_label
 _atom_site_symmetry_multiplicity
 _atom_site_fract_x
 _atom_site_fract_y
 _atom_site_fract_z
 _atom_site_occupancy
  Ba  Ba0  1  0.75000000  0.25000000  0.50000000  1
  Ba  Ba1  1  0.25000000  0.75000000  0.50000000  1
  Sm  Sm2  1  -0.00000000  -0.00000000  -0.00000000  1
  Mo  Mo3  1  0.50000000  0.50000000  -0.00000000  1
  O  O4  1  0.27123752  0.27123752  0.54247505  1
  O  O5  1  0.72876248  0.72876248  0.45752495  1
  O  O6  1  0.28247174  0.24731846  0.00000000  1
  O  O7  1  0.71752826  0.75268154  -0.00000000  1
  O  O8  1  0.75268154  0.28247174  0.00000000  1
  O  O9  1  0.24731846  0.71752826  -0.00000000  1
