# generated using pymatgen
data_BaNb4(FeO7)2
_symmetry_space_group_name_H-M   'P 1'
_cell_length_a   6.78081921
_cell_length_b   6.70653265
_cell_length_c   8.93695872
_cell_angle_alpha   97.61188916
_cell_angle_beta   108.82247600
_cell_angle_gamma   98.01323480
_symmetry_Int_Tables_number   1
_chemical_formula_structural   BaNb4(FeO7)2
_chemical_formula_sum   'Ba1 Nb4 Fe2 O14'
_cell_volume   374.03693156
_cell_formula_units_Z   1
loop_
 _symmetry_equiv_pos_site_id
 _symmetry_equiv_pos_as_xyz
  1  'x, y, z'
loop_
 _atom_site_type_symbol
 _atom_site_label
 _atom_site_symmetry_multiplicity
 _atom_site_fract_x
 _atom_site_fract_y
 _atom_site_fract_z
 _atom_site_occupancy
  Ba  Ba0  1  0.00000000  -0.00000000  0.00000000  1
  Nb  Nb1  1  0.50494663  0.73425010  0.65116812  1
  Nb  Nb2  1  0.49505337  0.26574990  0.34883188  1
  Nb  Nb3  1  0.83619276  0.53301837  0.20214173  1
  Nb  Nb4  1  0.16380724  0.46698163  0.79785827  1
  Fe  Fe5  1  0.36254492  0.69701917  0.21604530  1
  Fe  Fe6  1  0.63745508  0.30298083  0.78395470  1
  O  O7  1  0.53127232  0.72111565  0.45017816  1
  O  O8  1  0.46872768  0.27888435  0.54982184  1
  O  O9  1  0.59404887  0.99869772  0.76998626  1
  O  O10  1  0.40595113  0.00130228  0.23001374  1
  O  O11  1  0.70800966  0.61444285  0.78669047  1
  O  O12  1  0.29199034  0.38555715  0.21330953  1
  O  O13  1  0.21833750  0.62458391  0.64167240  1
  O  O14  1  0.78166250  0.37541609  0.35832760  1
  O  O15  1  0.08663380  0.72448470  0.25209116  1
  O  O16  1  0.91336620  0.27551530  0.74790884  1
  O  O17  1  0.19494407  0.66242608  0.97711526  1
  O  O18  1  0.80505593  0.33757392  0.02288474  1
  O  O19  1  0.62502426  0.68317566  0.15421166  1
  O  O20  1  0.37497574  0.31682434  0.84578834  1
