# generated using pymatgen
data_TiPOs
_symmetry_space_group_name_H-M   'P 1'
_cell_length_a   3.71258698
_cell_length_b   6.26261981
_cell_length_c   6.26296116
_cell_angle_alpha   119.99818321
_cell_angle_beta   90.00000000
_cell_angle_gamma   90.00000000
_symmetry_Int_Tables_number   1
_chemical_formula_structural   TiPOs
_chemical_formula_sum   'Ti3 P3 Os3'
_cell_volume   126.11042386
_cell_formula_units_Z   3
loop_
 _symmetry_equiv_pos_site_id
 _symmetry_equiv_pos_as_xyz
  1  'x, y, z'
loop_
 _atom_site_type_symbol
 _atom_site_label
 _atom_site_symmetry_multiplicity
 _atom_site_fract_x
 _atom_site_fract_y
 _atom_site_fract_z
 _atom_site_occupancy
  Ti  Ti0  1  0.50000000  0.58523231  1.00000000  1
  Ti  Ti1  1  0.50000000  0.41444040  0.41441889  1
  Ti  Ti2  1  0.50000000  0.00002151  0.58558111  1
  P  P3  1  -0.00000000  0.33339086  0.66661901  1
  P  P4  1  -0.00000000  0.66677185  0.33338099  1
  P  P5  1  0.50000000  0.99985509  1.00000000  1
  Os  Os6  1  -0.00000000  0.25271831  0.00000000  1
  Os  Os7  1  -0.00000000  0.74742225  0.74737483  1
  Os  Os8  1  -0.00000000  0.00004742  0.25262517  1
