# generated using pymatgen
data_LiPtF6
_symmetry_space_group_name_H-M   'P 1'
_cell_length_a   5.04092744
_cell_length_b   5.04092744
_cell_length_c   5.45923655
_cell_angle_alpha   62.50392123
_cell_angle_beta   62.50392121
_cell_angle_gamma   59.99999421
_symmetry_Int_Tables_number   1
_chemical_formula_structural   LiPtF6
_chemical_formula_sum   'Li1 Pt1 F6'
_cell_volume   101.64287683
_cell_formula_units_Z   1
loop_
 _symmetry_equiv_pos_site_id
 _symmetry_equiv_pos_as_xyz
  1  'x, y, z'
loop_
 _atom_site_type_symbol
 _atom_site_label
 _atom_site_symmetry_multiplicity
 _atom_site_fract_x
 _atom_site_fract_y
 _atom_site_fract_z
 _atom_site_occupancy
  Li  Li0  1  0.50000000  0.50000000  0.50000000  1
  Pt  Pt1  1  -0.00000000  0.00000000  -0.00000000  1
  F  F2  1  0.90641781  0.61387539  0.24189525  1
  F  F3  1  0.61387539  0.23781155  0.24189525  1
  F  F4  1  0.23781155  0.90641781  0.24189525  1
  F  F5  1  0.09358219  0.38612461  0.75810475  1
  F  F6  1  0.38612461  0.76218845  0.75810475  1
  F  F7  1  0.76218845  0.09358219  0.75810475  1
