# generated using pymatgen
data_TiFeAs
_symmetry_space_group_name_H-M   'P 1'
_cell_length_a   3.58954967
_cell_length_b   6.34124331
_cell_length_c   6.34046924
_cell_angle_alpha   120.00403507
_cell_angle_beta   90.00000000
_cell_angle_gamma   90.00000000
_symmetry_Int_Tables_number   1
_chemical_formula_structural   TiFeAs
_chemical_formula_sum   'Ti3 Fe3 As3'
_cell_volume   124.98237004
_cell_formula_units_Z   3
loop_
 _symmetry_equiv_pos_site_id
 _symmetry_equiv_pos_as_xyz
  1  'x, y, z'
loop_
 _atom_site_type_symbol
 _atom_site_label
 _atom_site_symmetry_multiplicity
 _atom_site_fract_x
 _atom_site_fract_y
 _atom_site_fract_z
 _atom_site_occupancy
  Ti  Ti0  1  0.50000000  0.58951120  0.00000000  1
  Ti  Ti1  1  0.50000000  0.41052005  0.41053970  1
  Ti  Ti2  1  0.50000000  0.99998034  0.58946030  1
  Fe  Fe3  1  0.00000000  0.24991819  1.00000000  1
  Fe  Fe4  1  -0.00000000  0.75008135  0.75009231  1
  Fe  Fe5  1  0.00000000  -0.00001096  0.24990769  1
  As  As6  1  0.00000000  0.33333441  0.66672817  1
  As  As7  1  0.00000000  0.66660624  0.33327183  1
  As  As8  1  0.50000000  0.99995918  0.00000000  1
