# generated using pymatgen
data_HfGaCo
_symmetry_space_group_name_H-M   'P 1'
_cell_length_a   3.27959657
_cell_length_b   6.95996691
_cell_length_c   6.96008042
_cell_angle_alpha   119.99946858
_cell_angle_beta   90.00000000
_cell_angle_gamma   90.00000000
_symmetry_Int_Tables_number   1
_chemical_formula_structural   HfGaCo
_chemical_formula_sum   'Hf3 Ga3 Co3'
_cell_volume   137.58618010
_cell_formula_units_Z   3
loop_
 _symmetry_equiv_pos_site_id
 _symmetry_equiv_pos_as_xyz
  1  'x, y, z'
loop_
 _atom_site_type_symbol
 _atom_site_label
 _atom_site_symmetry_multiplicity
 _atom_site_fract_x
 _atom_site_fract_y
 _atom_site_fract_z
 _atom_site_occupancy
  Hf  Hf0  1  0.50000000  0.59846813  1.00000000  1
  Hf  Hf1  1  0.50000000  0.40151145  0.40150604  1
  Hf  Hf2  1  0.50000000  0.00000541  0.59849396  1
  Ga  Ga3  1  -0.00000000  0.26348981  0.00000000  1
  Ga  Ga4  1  0.00000000  0.73647601  0.73648662  1
  Ga  Ga5  1  0.00000000  0.99998939  0.26351338  1
  Co  Co6  1  0.00000000  0.33332360  0.66666643  1
  Co  Co7  1  0.00000000  0.66665717  0.33333357  1
  Co  Co8  1  0.50000000  0.99997904  1.00000000  1
