# generated using pymatgen
data_SmMgAg
_symmetry_space_group_name_H-M   'P 1'
_cell_length_a   4.31446299
_cell_length_b   7.72942402
_cell_length_c   7.72694795
_cell_angle_alpha   120.01059577
_cell_angle_beta   90.00000000
_cell_angle_gamma   90.00000000
_symmetry_Int_Tables_number   1
_chemical_formula_structural   SmMgAg
_chemical_formula_sum   'Sm3 Mg3 Ag3'
_cell_volume   223.13418933
_cell_formula_units_Z   3
loop_
 _symmetry_equiv_pos_site_id
 _symmetry_equiv_pos_as_xyz
  1  'x, y, z'
loop_
 _atom_site_type_symbol
 _atom_site_label
 _atom_site_symmetry_multiplicity
 _atom_site_fract_x
 _atom_site_fract_y
 _atom_site_fract_z
 _atom_site_occupancy
  Sm  Sm0  1  0.50000000  0.58546618  1.00000000  1
  Sm  Sm1  1  0.50000000  0.41415131  0.41417841  1
  Sm  Sm2  1  0.50000000  -0.00002710  0.58582159  1
  Mg  Mg3  1  0.00000000  0.24251315  0.00000000  1
  Mg  Mg4  1  0.00000000  0.75748794  0.75753437  1
  Mg  Mg5  1  -0.00000000  -0.00004643  0.24246563  1
  Ag  Ag6  1  -0.00000000  0.33336178  0.66661085  1
  Ag  Ag7  1  0.00000000  0.66675092  0.33338915  1
  Ag  Ag8  1  0.50000000  0.00024224  0.00000000  1
