# generated using pymatgen
data_TiReSi
_symmetry_space_group_name_H-M   'P 1'
_cell_length_a   3.25017148
_cell_length_b   6.81736125
_cell_length_c   6.81971822
_cell_angle_alpha   119.98857001
_cell_angle_beta   90.00000000
_cell_angle_gamma   90.00000000
_symmetry_Int_Tables_number   1
_chemical_formula_structural   TiReSi
_chemical_formula_sum   'Ti3 Re3 Si3'
_cell_volume   130.87890535
_cell_formula_units_Z   3
loop_
 _symmetry_equiv_pos_site_id
 _symmetry_equiv_pos_as_xyz
  1  'x, y, z'
loop_
 _atom_site_type_symbol
 _atom_site_label
 _atom_site_symmetry_multiplicity
 _atom_site_fract_x
 _atom_site_fract_y
 _atom_site_fract_z
 _atom_site_occupancy
  Ti  Ti0  1  0.50000000  0.59570648  0.00000000  1
  Ti  Ti1  1  0.50000000  0.40399171  0.40408766  1
  Ti  Ti2  1  0.50000000  0.99990404  0.59591234  1
  Re  Re3  1  -0.00000000  0.26282264  0.00000000  1
  Re  Re4  1  -0.00000000  0.73738678  0.73732118  1
  Re  Re5  1  -0.00000000  0.00006560  0.26267882  1
  Si  Si6  1  -0.00000000  0.33335024  0.66667378  1
  Si  Si7  1  -0.00000000  0.66667645  0.33332622  1
  Si  Si8  1  0.50000000  -0.00000394  1.00000000  1
