# generated using pymatgen
data_La(BOs)2
_symmetry_space_group_name_H-M   'P 1'
_cell_length_a   5.66167719
_cell_length_b   5.66167719
_cell_length_c   6.08902598
_cell_angle_alpha   108.38034757
_cell_angle_beta   108.38034757
_cell_angle_gamma   108.76885387
_symmetry_Int_Tables_number   1
_chemical_formula_structural   La(BOs)2
_chemical_formula_sum   'La2 B4 Os4'
_cell_volume   155.36666135
_cell_formula_units_Z   2
loop_
 _symmetry_equiv_pos_site_id
 _symmetry_equiv_pos_as_xyz
  1  'x, y, z'
loop_
 _atom_site_type_symbol
 _atom_site_label
 _atom_site_symmetry_multiplicity
 _atom_site_fract_x
 _atom_site_fract_y
 _atom_site_fract_z
 _atom_site_occupancy
  La  La0  1  -0.00000000  0.00000000  0.00000000  1
  La  La1  1  0.25000000  0.75000000  0.50000000  1
  B  B2  1  0.68166254  0.31833746  0.00000000  1
  B  B3  1  0.31833746  0.68166254  -0.00000000  1
  B  B4  1  0.93139139  0.06860861  0.50000000  1
  B  B5  1  0.56860861  0.43139139  0.50000000  1
  Os  Os6  1  0.36376203  0.36376203  0.72752406  1
  Os  Os7  1  0.63623797  0.63623797  0.27247594  1
  Os  Os8  1  0.88655840  0.38655840  0.77311680  1
  Os  Os9  1  0.61344160  0.11344160  0.22688320  1
