# generated using pymatgen
data_Ba2Cu2O5
_symmetry_space_group_name_H-M   'P 1'
_cell_length_a   5.70278420
_cell_length_b   5.68273883
_cell_length_c   9.35351005
_cell_angle_alpha   107.55018215
_cell_angle_beta   107.71736832
_cell_angle_gamma   90.07881321
_symmetry_Int_Tables_number   1
_chemical_formula_structural   Ba2Cu2O5
_chemical_formula_sum   'Ba4 Cu4 O10'
_cell_volume   273.85418604
_cell_formula_units_Z   2
loop_
 _symmetry_equiv_pos_site_id
 _symmetry_equiv_pos_as_xyz
  1  'x, y, z'
loop_
 _atom_site_type_symbol
 _atom_site_label
 _atom_site_symmetry_multiplicity
 _atom_site_fract_x
 _atom_site_fract_y
 _atom_site_fract_z
 _atom_site_occupancy
  Ba  Ba0  1  0.39769861  0.87922328  0.77021479  1
  Ba  Ba1  1  0.62738108  0.12084858  0.22984262  1
  Ba  Ba2  1  0.89751787  0.39117415  0.77022025  1
  Ba  Ba3  1  0.12742365  0.60874585  0.22971963  1
  Cu  Cu4  1  0.01105264  0.00015443  0.00027227  1
  Cu  Cu5  1  0.51118885  0.50018561  0.00006111  1
  Cu  Cu6  1  0.77187244  0.70511983  0.49995485  1
  Cu  Cu7  1  0.27126773  0.29525618  0.49993915  1
  O  O8  1  0.76681414  0.25396401  0.00384723  1
  O  O9  1  0.76287821  0.74579846  0.99602334  1
  O  O10  1  0.26699835  0.24990479  0.00399671  1
  O  O11  1  0.26307019  0.75017969  0.99618229  1
  O  O12  1  0.86250301  0.88973542  0.70953568  1
  O  O13  1  0.15244426  0.11020900  0.29044642  1
  O  O14  1  0.36214941  0.32013191  0.70967081  1
  O  O15  1  0.65265309  0.67976339  0.29008457  1
  O  O16  1  0.05425712  0.54550590  0.50006014  1
  O  O17  1  0.55402933  0.45409851  0.49993015  1
