# generated using pymatgen
data_Er2CoGe2
_symmetry_space_group_name_H-M   'P 1'
_cell_length_a   4.17685735
_cell_length_b   5.59746382
_cell_length_c   9.14975916
_cell_angle_alpha   82.51826555
_cell_angle_beta   76.80596095
_cell_angle_gamma   68.09290546
_symmetry_Int_Tables_number   1
_chemical_formula_structural   Er2CoGe2
_chemical_formula_sum   'Er4 Co2 Ge4'
_cell_volume   192.99288361
_cell_formula_units_Z   2
loop_
 _symmetry_equiv_pos_site_id
 _symmetry_equiv_pos_as_xyz
  1  'x, y, z'
loop_
 _atom_site_type_symbol
 _atom_site_label
 _atom_site_symmetry_multiplicity
 _atom_site_fract_x
 _atom_site_fract_y
 _atom_site_fract_z
 _atom_site_occupancy
  Er  Er0  1  0.18730586  0.73623004  0.88915825  1
  Er  Er1  1  0.81269414  0.26376996  0.11084175  1
  Er  Er2  1  0.00609924  0.32025558  0.66754594  1
  Er  Er3  1  0.99390076  0.67974442  0.33245406  1
  Co  Co4  1  0.27538327  0.09030417  0.35892930  1
  Co  Co5  1  0.72461673  0.90969583  0.64107070  1
  Ge  Ge6  1  0.48680890  0.15157671  0.87480549  1
  Ge  Ge7  1  0.51319110  0.84842329  0.12519451  1
  Ge  Ge8  1  0.34780949  0.73837604  0.56600499  1
  Ge  Ge9  1  0.65219051  0.26162396  0.43399501  1
