# generated using pymatgen
data_Gd(BRu)2
_symmetry_space_group_name_H-M   'P 1'
_cell_length_a   5.58801488
_cell_length_b   5.58801488
_cell_length_c   5.93212689
_cell_angle_alpha   109.29515503
_cell_angle_beta   109.29515503
_cell_angle_gamma   107.36358592
_symmetry_Int_Tables_number   1
_chemical_formula_structural   Gd(BRu)2
_chemical_formula_sum   'Gd2 B4 Ru4'
_cell_volume   146.72200709
_cell_formula_units_Z   2
loop_
 _symmetry_equiv_pos_site_id
 _symmetry_equiv_pos_as_xyz
  1  'x, y, z'
loop_
 _atom_site_type_symbol
 _atom_site_label
 _atom_site_symmetry_multiplicity
 _atom_site_fract_x
 _atom_site_fract_y
 _atom_site_fract_z
 _atom_site_occupancy
  Gd  Gd0  1  0.00000000  0.00000000  0.00000000  1
  Gd  Gd1  1  0.25000000  0.75000000  0.50000000  1
  B  B2  1  0.68630518  0.31369482  0.00000000  1
  B  B3  1  0.31369482  0.68630518  0.00000000  1
  B  B4  1  0.93712928  0.06287072  0.50000000  1
  B  B5  1  0.56287072  0.43712928  0.50000000  1
  Ru  Ru6  1  0.36201599  0.36201599  0.72403197  1
  Ru  Ru7  1  0.63798401  0.63798401  0.27596803  1
  Ru  Ru8  1  0.88776921  0.38776921  0.77553843  1
  Ru  Ru9  1  0.61223079  0.11223079  0.22446157  1
