# generated using pymatgen
data_Eu2InPd2
_symmetry_space_group_name_H-M   'P 1'
_cell_length_a   5.92706512
_cell_length_b   5.97354351
_cell_length_c   8.36825041
_cell_angle_alpha   102.49730667
_cell_angle_beta   90.00000000
_cell_angle_gamma   119.74295355
_symmetry_Int_Tables_number   1
_chemical_formula_structural   Eu2InPd2
_chemical_formula_sum   'Eu4 In2 Pd4'
_cell_volume   249.13292246
_cell_formula_units_Z   2
loop_
 _symmetry_equiv_pos_site_id
 _symmetry_equiv_pos_as_xyz
  1  'x, y, z'
loop_
 _atom_site_type_symbol
 _atom_site_label
 _atom_site_symmetry_multiplicity
 _atom_site_fract_x
 _atom_site_fract_y
 _atom_site_fract_z
 _atom_site_occupancy
  Eu  Eu0  1  0.79012885  0.29597726  0.14771501  1
  Eu  Eu1  1  0.49415159  0.70402274  0.35228499  1
  Eu  Eu2  1  0.20987115  0.70402274  0.85228499  1
  Eu  Eu3  1  0.50584841  0.29597726  0.64771501  1
  In  In4  1  0.14627842  0.00000000  0.25000000  1
  In  In5  1  0.85372158  1.00000000  0.75000000  1
  Pd  Pd6  1  0.00183814  0.72959174  0.49684041  1
  Pd  Pd7  1  0.27224640  0.27040826  0.00315959  1
  Pd  Pd8  1  0.99816186  0.27040826  0.50315959  1
  Pd  Pd9  1  0.72775360  0.72959174  0.99684041  1
