# generated using pymatgen
data_Tm2Ni2Sn
_symmetry_space_group_name_H-M   'P 1'
_cell_length_a   3.66672846
_cell_length_b   7.27259085
_cell_length_c   7.27259085
_cell_angle_alpha   90.00000000
_cell_angle_beta   90.00000000
_cell_angle_gamma   90.00000000
_symmetry_Int_Tables_number   1
_chemical_formula_structural   Tm2Ni2Sn
_chemical_formula_sum   'Tm4 Ni4 Sn2'
_cell_volume   193.93538641
_cell_formula_units_Z   2
loop_
 _symmetry_equiv_pos_site_id
 _symmetry_equiv_pos_as_xyz
  1  'x, y, z'
loop_
 _atom_site_type_symbol
 _atom_site_label
 _atom_site_symmetry_multiplicity
 _atom_site_fract_x
 _atom_site_fract_y
 _atom_site_fract_z
 _atom_site_occupancy
  Tm  Tm0  1  0.50000000  0.17379431  0.67379431  1
  Tm  Tm1  1  0.50000000  0.82620569  0.32620569  1
  Tm  Tm2  1  0.50000000  0.32620569  0.17379431  1
  Tm  Tm3  1  0.50000000  0.67379431  0.82620569  1
  Ni  Ni4  1  -0.00000000  0.37904046  0.87904046  1
  Ni  Ni5  1  0.00000000  0.62095954  0.12095954  1
  Ni  Ni6  1  0.00000000  0.12095954  0.37904046  1
  Ni  Ni7  1  -0.00000000  0.87904046  0.62095954  1
  Sn  Sn8  1  -0.00000000  0.50000000  0.50000000  1
  Sn  Sn9  1  -0.00000000  -0.00000000  0.00000000  1
