# generated using pymatgen
data_Ca2CdAs2
_symmetry_space_group_name_H-M   'P 1'
_cell_length_a   4.34624804
_cell_length_b   7.18601092
_cell_length_c   8.58287415
_cell_angle_alpha   90.00000000
_cell_angle_beta   104.66654464
_cell_angle_gamma   90.00000000
_symmetry_Int_Tables_number   1
_chemical_formula_structural   Ca2CdAs2
_chemical_formula_sum   'Ca4 Cd2 As4'
_cell_volume   259.32732641
_cell_formula_units_Z   2
loop_
 _symmetry_equiv_pos_site_id
 _symmetry_equiv_pos_as_xyz
  1  'x, y, z'
loop_
 _atom_site_type_symbol
 _atom_site_label
 _atom_site_symmetry_multiplicity
 _atom_site_fract_x
 _atom_site_fract_y
 _atom_site_fract_z
 _atom_site_occupancy
  Ca  Ca0  1  0.30021816  0.93316963  0.60043632  1
  Ca  Ca1  1  0.69978184  0.43316963  0.39956368  1
  Ca  Ca2  1  0.46804035  0.27170435  0.93608070  1
  Ca  Ca3  1  0.53195965  0.77170435  0.06391930  1
  Cd  Cd4  1  0.09925377  0.10671472  0.19850754  1
  Cd  Cd5  1  0.90074623  0.60671472  0.80149246  1
  As  As6  1  0.06468549  0.48551992  0.12937098  1
  As  As7  1  0.93531451  0.98551992  0.87062902  1
  As  As8  1  0.31891487  0.49844138  0.63782974  1
  As  As9  1  0.68108513  0.99844138  0.36217026  1
