# generated using pymatgen
data_HfGeOs
_symmetry_space_group_name_H-M   'P 1'
_cell_length_a   3.81106288
_cell_length_b   6.73212968
_cell_length_c   6.73178615
_cell_angle_alpha   120.00169369
_cell_angle_beta   90.00000000
_cell_angle_gamma   90.00000000
_symmetry_Int_Tables_number   1
_chemical_formula_structural   HfGeOs
_chemical_formula_sum   'Hf3 Ge3 Os3'
_cell_volume   149.57262594
_cell_formula_units_Z   3
loop_
 _symmetry_equiv_pos_site_id
 _symmetry_equiv_pos_as_xyz
  1  'x, y, z'
loop_
 _atom_site_type_symbol
 _atom_site_label
 _atom_site_symmetry_multiplicity
 _atom_site_fract_x
 _atom_site_fract_y
 _atom_site_fract_z
 _atom_site_occupancy
  Hf  Hf0  1  0.50000000  0.58299483  1.00000000  1
  Hf  Hf1  1  0.50000000  0.41702299  0.41705237  1
  Hf  Hf2  1  0.50000000  0.99997062  0.58294763  1
  Ge  Ge3  1  0.00000000  0.33331263  0.66669076  1
  Ge  Ge4  1  -0.00000000  0.66662186  0.33330924  1
  Ge  Ge5  1  0.50000000  0.00000840  1.00000000  1
  Os  Os6  1  0.00000000  0.24645179  0.00000000  1
  Os  Os7  1  0.00000000  0.75352605  0.75353521  1
  Os  Os8  1  0.00000000  0.99999084  0.24646479  1
