# generated using pymatgen
data_K(NpSe3)2
_symmetry_space_group_name_H-M   'P 1'
_cell_length_a   4.11777449
_cell_length_b   5.51445059
_cell_length_c   11.42350581
_cell_angle_alpha   103.96707027
_cell_angle_beta   100.38330123
_cell_angle_gamma   90.00000000
_symmetry_Int_Tables_number   1
_chemical_formula_structural   K(NpSe3)2
_chemical_formula_sum   'K1 Np2 Se6'
_cell_volume   247.34786051
_cell_formula_units_Z   1
loop_
 _symmetry_equiv_pos_site_id
 _symmetry_equiv_pos_as_xyz
  1  'x, y, z'
loop_
 _atom_site_type_symbol
 _atom_site_label
 _atom_site_symmetry_multiplicity
 _atom_site_fract_x
 _atom_site_fract_y
 _atom_site_fract_z
 _atom_site_occupancy
  K  K0  1  0.00000000  0.00000000  -0.00000000  1
  Np  Np1  1  0.18123123  0.68123123  0.36246245  1
  Np  Np2  1  0.81876877  0.31876877  0.63753755  1
  Se  Se3  1  0.77441175  0.77441175  0.54882349  1
  Se  Se4  1  0.22558825  0.22558825  0.45117651  1
  Se  Se5  1  0.60587612  0.84611591  0.21175223  1
  Se  Se6  1  0.39412388  0.15388409  0.78824777  1
  Se  Se7  1  0.39412388  0.63436367  0.78824777  1
  Se  Se8  1  0.60587612  0.36563633  0.21175223  1
