# generated using pymatgen
data_SmCdGa
_symmetry_space_group_name_H-M   'P 1'
_cell_length_a   4.45381942
_cell_length_b   7.39495505
_cell_length_c   7.39551203
_cell_angle_alpha   119.99750363
_cell_angle_beta   90.00000000
_cell_angle_gamma   90.00000000
_symmetry_Int_Tables_number   1
_chemical_formula_structural   SmCdGa
_chemical_formula_sum   'Sm3 Cd3 Ga3'
_cell_volume   210.94923120
_cell_formula_units_Z   3
loop_
 _symmetry_equiv_pos_site_id
 _symmetry_equiv_pos_as_xyz
  1  'x, y, z'
loop_
 _atom_site_type_symbol
 _atom_site_label
 _atom_site_symmetry_multiplicity
 _atom_site_fract_x
 _atom_site_fract_y
 _atom_site_fract_z
 _atom_site_occupancy
  Sm  Sm0  1  0.50000000  0.57818916  1.00000000  1
  Sm  Sm1  1  0.50000000  0.42176623  0.42180880  1
  Sm  Sm2  1  0.50000000  0.99995743  0.57819120  1
  Cd  Cd3  1  -0.00000000  0.24794076  0.00000000  1
  Cd  Cd4  1  -0.00000000  0.75198071  0.75194286  1
  Cd  Cd5  1  -0.00000000  0.00003785  0.24805714  1
  Ga  Ga6  1  -0.00000000  0.33331623  0.66664624  1
  Ga  Ga7  1  -0.00000000  0.66667000  0.33335376  1
  Ga  Ga8  1  0.50000000  0.00004164  -0.00000000  1
