# generated using pymatgen
data_Ba3ThSe7
_symmetry_space_group_name_H-M   'P 1'
_cell_length_a   5.89299188
_cell_length_b   8.48060813
_cell_length_c   8.48060813
_cell_angle_alpha   69.29596275
_cell_angle_beta   69.66923340
_cell_angle_gamma   69.66923340
_symmetry_Int_Tables_number   1
_chemical_formula_structural   Ba3ThSe7
_chemical_formula_sum   'Ba3 Th1 Se7'
_cell_volume   359.36420318
_cell_formula_units_Z   1
loop_
 _symmetry_equiv_pos_site_id
 _symmetry_equiv_pos_as_xyz
  1  'x, y, z'
loop_
 _atom_site_type_symbol
 _atom_site_label
 _atom_site_symmetry_multiplicity
 _atom_site_fract_x
 _atom_site_fract_y
 _atom_site_fract_z
 _atom_site_occupancy
  Ba  Ba0  1  0.76071388  0.85508628  0.62348597  1
  Ba  Ba1  1  0.23928612  0.37651403  0.14491372  1
  Ba  Ba2  1  0.50000000  0.40762561  0.59237439  1
  Th  Th3  1  0.00000000  0.00012093  -0.00012093  1
  Se  Se4  1  0.90491912  0.38903375  0.80112800  1
  Se  Se5  1  0.09508088  0.19887200  0.61096625  1
  Se  Se6  1  0.20430035  0.71069128  0.28930872  1
  Se  Se7  1  0.79569965  0.71069128  0.28930872  1
  Se  Se8  1  0.76763611  0.19177635  0.27295144  1
  Se  Se9  1  0.23236389  0.72704856  0.80822365  1
  Se  Se10  1  0.50000000  0.05785996  0.94214004  1
