# generated using pymatgen
data_ScCoGe
_symmetry_space_group_name_H-M   'P 1'
_cell_length_a   4.06902506
_cell_length_b   6.50259409
_cell_length_c   7.02220186
_cell_angle_alpha   90.00000000
_cell_angle_beta   90.00000000
_cell_angle_gamma   90.00000000
_symmetry_Int_Tables_number   1
_chemical_formula_structural   ScCoGe
_chemical_formula_sum   'Sc4 Co4 Ge4'
_cell_volume   185.80197201
_cell_formula_units_Z   4
loop_
 _symmetry_equiv_pos_site_id
 _symmetry_equiv_pos_as_xyz
  1  'x, y, z'
loop_
 _atom_site_type_symbol
 _atom_site_label
 _atom_site_symmetry_multiplicity
 _atom_site_fract_x
 _atom_site_fract_y
 _atom_site_fract_z
 _atom_site_occupancy
  Sc  Sc0  1  0.75000000  0.50333331  0.19889756  1
  Sc  Sc1  1  0.75000000  0.00333331  0.30110244  1
  Sc  Sc2  1  0.25000000  0.49666669  0.80110244  1
  Sc  Sc3  1  0.25000000  0.99666669  0.69889756  1
  Co  Co4  1  0.75000000  0.34617157  0.55943057  1
  Co  Co5  1  0.75000000  0.84617157  0.94056943  1
  Co  Co6  1  0.25000000  0.65382843  0.44056943  1
  Co  Co7  1  0.25000000  0.15382843  0.05943057  1
  Ge  Ge8  1  0.75000000  0.21297414  0.88927172  1
  Ge  Ge9  1  0.75000000  0.71297414  0.61072828  1
  Ge  Ge10  1  0.25000000  0.78702586  0.11072828  1
  Ge  Ge11  1  0.25000000  0.28702586  0.38927172  1
