# generated using pymatgen
data_SrFe2Se2O
_symmetry_space_group_name_H-M   'P 1'
_cell_length_a   4.11556250
_cell_length_b   6.62880978
_cell_length_c   10.17491708
_cell_angle_alpha   90.00000000
_cell_angle_beta   90.00000000
_cell_angle_gamma   90.00000000
_symmetry_Int_Tables_number   1
_chemical_formula_structural   SrFe2Se2O
_chemical_formula_sum   'Sr2 Fe4 Se4 O2'
_cell_volume   277.58477150
_cell_formula_units_Z   2
loop_
 _symmetry_equiv_pos_site_id
 _symmetry_equiv_pos_as_xyz
  1  'x, y, z'
loop_
 _atom_site_type_symbol
 _atom_site_label
 _atom_site_symmetry_multiplicity
 _atom_site_fract_x
 _atom_site_fract_y
 _atom_site_fract_z
 _atom_site_occupancy
  Sr  Sr0  1  0.50000000  0.99419395  0.50000000  1
  Sr  Sr1  1  -0.00000000  0.00580605  0.00000000  1
  Fe  Fe2  1  0.50000000  0.35920432  0.82898108  1
  Fe  Fe3  1  0.50000000  0.35920432  0.17101892  1
  Fe  Fe4  1  0.00000000  0.64079568  0.32898108  1
  Fe  Fe5  1  -0.00000000  0.64079568  0.67101892  1
  Se  Se6  1  0.50000000  0.75000406  0.80519159  1
  Se  Se7  1  0.50000000  0.75000406  0.19480841  1
  Se  Se8  1  -0.00000000  0.24999594  0.30519159  1
  Se  Se9  1  -0.00000000  0.24999594  0.69480841  1
  O  O10  1  0.50000000  0.22770857  0.00000000  1
  O  O11  1  0.00000000  0.77229143  0.50000000  1
