# generated using pymatgen
data_ScGePt
_symmetry_space_group_name_H-M   'P 1'
_cell_length_a   4.25745346
_cell_length_b   6.65504760
_cell_length_c   7.50221118
_cell_angle_alpha   90.00000000
_cell_angle_beta   90.00000000
_cell_angle_gamma   90.00000000
_symmetry_Int_Tables_number   1
_chemical_formula_structural   ScGePt
_chemical_formula_sum   'Sc4 Ge4 Pt4'
_cell_volume   212.56431632
_cell_formula_units_Z   4
loop_
 _symmetry_equiv_pos_site_id
 _symmetry_equiv_pos_as_xyz
  1  'x, y, z'
loop_
 _atom_site_type_symbol
 _atom_site_label
 _atom_site_symmetry_multiplicity
 _atom_site_fract_x
 _atom_site_fract_y
 _atom_site_fract_z
 _atom_site_occupancy
  Sc  Sc0  1  0.75000000  0.50108751  0.20397299  1
  Sc  Sc1  1  0.75000000  0.00108751  0.29602701  1
  Sc  Sc2  1  0.25000000  0.49891249  0.79602701  1
  Sc  Sc3  1  0.25000000  0.99891249  0.70397299  1
  Ge  Ge4  1  0.75000000  0.19739019  0.90713725  1
  Ge  Ge5  1  0.75000000  0.69739019  0.59286275  1
  Ge  Ge6  1  0.25000000  0.80260981  0.09286275  1
  Ge  Ge7  1  0.25000000  0.30260981  0.40713725  1
  Pt  Pt8  1  0.75000000  0.29483079  0.58274726  1
  Pt  Pt9  1  0.75000000  0.79483079  0.91725274  1
  Pt  Pt10  1  0.25000000  0.70516921  0.41725274  1
  Pt  Pt11  1  0.25000000  0.20516921  0.08274726  1
