# generated using pymatgen
data_Ba3(LiBi)4
_symmetry_space_group_name_H-M   'P 1'
_cell_length_a   5.15584334
_cell_length_b   7.85906317
_cell_length_c   9.64371208
_cell_angle_alpha   114.04605642
_cell_angle_beta   105.50463475
_cell_angle_gamma   90.00000000
_symmetry_Int_Tables_number   1
_chemical_formula_structural   Ba3(LiBi)4
_chemical_formula_sum   'Ba3 Li4 Bi4'
_cell_volume   341.22225891
_cell_formula_units_Z   1
loop_
 _symmetry_equiv_pos_site_id
 _symmetry_equiv_pos_as_xyz
  1  'x, y, z'
loop_
 _atom_site_type_symbol
 _atom_site_label
 _atom_site_symmetry_multiplicity
 _atom_site_fract_x
 _atom_site_fract_y
 _atom_site_fract_z
 _atom_site_occupancy
  Ba  Ba0  1  0.13139787  0.63139787  0.26279575  1
  Ba  Ba1  1  0.86860213  0.36860213  0.73720425  1
  Ba  Ba2  1  0.00000000  -0.00000000  -0.00000000  1
  Li  Li3  1  0.67495121  0.98010213  0.34990242  1
  Li  Li4  1  0.32504879  0.01989787  0.65009758  1
  Li  Li5  1  0.32504879  0.63019971  0.65009758  1
  Li  Li6  1  0.67495121  0.36980029  0.34990242  1
  Bi  Bi7  1  0.78645109  0.78645109  0.57290218  1
  Bi  Bi8  1  0.21354891  0.21354891  0.42709782  1
  Bi  Bi9  1  0.50000000  0.69269495  -0.00000000  1
  Bi  Bi10  1  0.50000000  0.30730505  0.00000000  1
