# generated using pymatgen
data_EuMoO4
_symmetry_space_group_name_H-M   'P 1'
_cell_length_a   5.41709761
_cell_length_b   5.41709761
_cell_length_c   7.08398767
_cell_angle_alpha   112.47920170
_cell_angle_beta   112.47920179
_cell_angle_gamma   90.00000000
_symmetry_Int_Tables_number   1
_chemical_formula_structural   EuMoO4
_chemical_formula_sum   'Eu2 Mo2 O8'
_cell_volume   174.86832633
_cell_formula_units_Z   2
loop_
 _symmetry_equiv_pos_site_id
 _symmetry_equiv_pos_as_xyz
  1  'x, y, z'
loop_
 _atom_site_type_symbol
 _atom_site_label
 _atom_site_symmetry_multiplicity
 _atom_site_fract_x
 _atom_site_fract_y
 _atom_site_fract_z
 _atom_site_occupancy
  Eu  Eu0  1  0.62500000  0.87500000  0.25000000  1
  Eu  Eu1  1  0.37500000  0.12500000  0.75000000  1
  Mo  Mo2  1  0.12500000  0.37500000  0.25000000  1
  Mo  Mo3  1  0.87500000  0.62500000  0.75000000  1
  O  O4  1  0.28901832  0.43320191  0.08550727  1
  O  O5  1  0.79648895  0.15230536  0.08550727  1
  O  O6  1  0.93320191  0.29648895  0.58550727  1
  O  O7  1  0.65230536  0.78901832  0.58550727  1
  O  O8  1  0.71098168  0.56679809  0.91449273  1
  O  O9  1  0.20351105  0.84769464  0.91449273  1
  O  O10  1  0.06679809  0.70351105  0.41449273  1
  O  O11  1  0.34769464  0.21098168  0.41449273  1
