# generated using pymatgen
data_LiYbBi
_symmetry_space_group_name_H-M   'P 1'
_cell_length_a   4.76532917
_cell_length_b   7.77477624
_cell_length_c   8.46200745
_cell_angle_alpha   90.00000000
_cell_angle_beta   90.00000000
_cell_angle_gamma   90.00000000
_symmetry_Int_Tables_number   1
_chemical_formula_structural   LiYbBi
_chemical_formula_sum   'Li4 Yb4 Bi4'
_cell_volume   313.51202809
_cell_formula_units_Z   4
loop_
 _symmetry_equiv_pos_site_id
 _symmetry_equiv_pos_as_xyz
  1  'x, y, z'
loop_
 _atom_site_type_symbol
 _atom_site_label
 _atom_site_symmetry_multiplicity
 _atom_site_fract_x
 _atom_site_fract_y
 _atom_site_fract_z
 _atom_site_occupancy
  Li  Li0  1  0.75000000  0.34167134  0.57246189  1
  Li  Li1  1  0.75000000  0.84167134  0.92753811  1
  Li  Li2  1  0.25000000  0.65832866  0.42753811  1
  Li  Li3  1  0.25000000  0.15832866  0.07246189  1
  Yb  Yb4  1  0.75000000  0.49045559  0.20418098  1
  Yb  Yb5  1  0.75000000  0.99045559  0.29581902  1
  Yb  Yb6  1  0.25000000  0.50954441  0.79581902  1
  Yb  Yb7  1  0.25000000  0.00954441  0.70418098  1
  Bi  Bi8  1  0.75000000  0.23063812  0.90025748  1
  Bi  Bi9  1  0.75000000  0.73063812  0.59974252  1
  Bi  Bi10  1  0.25000000  0.76936188  0.09974252  1
  Bi  Bi11  1  0.25000000  0.26936188  0.40025748  1
