# generated using pymatgen
data_Li3Mn4O8
_symmetry_space_group_name_H-M   'P 1'
_cell_length_a   5.72149228
_cell_length_b   8.71311135
_cell_length_c   13.01368283
_cell_angle_alpha   86.95548469
_cell_angle_beta   89.96847853
_cell_angle_gamma   89.99426711
_symmetry_Int_Tables_number   1
_chemical_formula_structural   Li3Mn4O8
_chemical_formula_sum   'Li12 Mn16 O32'
_cell_volume   647.84233266
_cell_formula_units_Z   4
loop_
 _symmetry_equiv_pos_site_id
 _symmetry_equiv_pos_as_xyz
  1  'x, y, z'
loop_
 _atom_site_type_symbol
 _atom_site_label
 _atom_site_symmetry_multiplicity
 _atom_site_fract_x
 _atom_site_fract_y
 _atom_site_fract_z
 _atom_site_occupancy
  Li  Li0  1  0.74303397  0.57955914  0.54206765  1
  Li  Li1  1  0.50558554  0.53360013  0.30108317  1
  Li  Li2  1  0.98172461  0.53473489  0.29940214  1
  Li  Li3  1  0.70131577  0.04041402  0.02531103  1
  Li  Li4  1  0.24804454  0.03574152  0.78776513  1
  Li  Li5  1  0.74020565  0.00634543  0.82041265  1
  Li  Li6  1  0.24319899  0.42117131  0.45816333  1
  Li  Li7  1  0.00487907  0.46659224  0.69870218  1
  Li  Li8  1  0.48049816  0.46565908  0.70018509  1
  Li  Li9  1  0.24121026  0.99025994  0.18278091  1
  Li  Li10  1  0.75037962  0.96427223  0.21295640  1
  Li  Li11  1  0.20300395  0.96150544  0.97616787  1
  Mn  Mn12  1  0.49249726  0.79159413  0.40431514  1
  Mn  Mn13  1  0.99385371  0.79291110  0.40381889  1
  Mn  Mn14  1  0.48807403  0.66417171  0.84440293  1
  Mn  Mn15  1  0.99186871  0.66491078  0.84011899  1
  Mn  Mn16  1  0.98833374  0.33624774  0.15537938  1
  Mn  Mn17  1  0.49160738  0.33527441  0.15987900  1
  Mn  Mn18  1  0.99211658  0.20836650  0.59571238  1
  Mn  Mn19  1  0.49285265  0.20702511  0.59623005  1
  Mn  Mn20  1  0.24421255  0.28652471  0.90858580  1
  Mn  Mn21  1  0.74283637  0.28807337  0.90264773  1
  Mn  Mn22  1  0.24399078  0.16472633  0.34015354  1
  Mn  Mn23  1  0.74665246  0.17382192  0.34671850  1
  Mn  Mn24  1  0.24594477  0.82658230  0.65310759  1
  Mn  Mn25  1  0.74253813  0.83557798  0.65924833  1
  Mn  Mn26  1  0.24381609  0.71156556  0.09670528  1
  Mn  Mn27  1  0.74488459  0.71347379  0.09119216  1
  O  O28  1  0.23976554  0.06896052  0.63135873  1
  O  O29  1  0.74457313  0.05941137  0.62517552  1
  O  O30  1  0.24361658  0.28668352  0.06963752  1
  O  O31  1  0.72968203  0.27577894  0.06604863  1
  O  O32  1  0.23008567  0.72467905  0.93332917  1
  O  O33  1  0.74363716  0.71436872  0.93004281  1
  O  O34  1  0.24533646  0.93932940  0.37164499  1
  O  O35  1  0.74066237  0.93083534  0.36904544  1
  O  O36  1  0.99413799  0.57750671  0.13437503  1
  O  O37  1  0.49312753  0.56827358  0.13299119  1
  O  O38  1  0.98555113  0.77333684  0.56804985  1
  O  O39  1  0.50900902  0.77091567  0.56656763  1
  O  O40  1  0.48570865  0.22606732  0.43215914  1
  O  O41  1  0.01032144  0.22795700  0.43383734  1
  O  O42  1  0.49333665  0.42213359  0.86495203  1
  O  O43  1  0.99248868  0.43156973  0.86633217  1
  O  O44  1  0.49209048  0.12697779  0.90001431  1
  O  O45  1  0.99410072  0.12961415  0.89973709  1
  O  O46  1  0.99202597  0.12302523  0.24673261  1
  O  O47  1  0.49141977  0.13101407  0.23612006  1
  O  O48  1  0.99307531  0.87260038  0.10054597  1
  O  O49  1  0.49474328  0.86995897  0.10051774  1
  O  O50  1  0.49122259  0.87849645  0.75324229  1
  O  O51  1  0.99027951  0.86964878  0.76370121  1
  O  O52  1  0.24221374  0.63815483  0.38785129  1
  O  O53  1  0.74430717  0.63921360  0.39223951  1
  O  O54  1  0.24204386  0.61827958  0.74637048  1
  O  O55  1  0.74687582  0.62865217  0.73348048  1
  O  O56  1  0.24353259  0.36038783  0.60773180  1
  O  O57  1  0.74149837  0.36142161  0.61279149  1
  O  O58  1  0.24804517  0.37174639  0.26685656  1
  O  O59  1  0.74232873  0.38236108  0.25334068  1
