# generated using pymatgen
data_LiYbAs
_symmetry_space_group_name_H-M   'P 1'
_cell_length_a   4.31974359
_cell_length_b   7.21432244
_cell_length_c   7.85332720
_cell_angle_alpha   90.00000000
_cell_angle_beta   90.00000000
_cell_angle_gamma   90.00000000
_symmetry_Int_Tables_number   1
_chemical_formula_structural   LiYbAs
_chemical_formula_sum   'Li4 Yb4 As4'
_cell_volume   244.74127040
_cell_formula_units_Z   4
loop_
 _symmetry_equiv_pos_site_id
 _symmetry_equiv_pos_as_xyz
  1  'x, y, z'
loop_
 _atom_site_type_symbol
 _atom_site_label
 _atom_site_symmetry_multiplicity
 _atom_site_fract_x
 _atom_site_fract_y
 _atom_site_fract_z
 _atom_site_occupancy
  Li  Li0  1  0.75000000  0.35385057  0.56984148  1
  Li  Li1  1  0.75000000  0.85385057  0.93015852  1
  Li  Li2  1  0.25000000  0.64614943  0.43015852  1
  Li  Li3  1  0.25000000  0.14614943  0.06984148  1
  Yb  Yb4  1  0.75000000  0.48599085  0.19749317  1
  Yb  Yb5  1  0.75000000  0.98599085  0.30250683  1
  Yb  Yb6  1  0.25000000  0.51400915  0.80250683  1
  Yb  Yb7  1  0.25000000  0.01400915  0.69749317  1
  As  As8  1  0.75000000  0.23124626  0.89785193  1
  As  As9  1  0.75000000  0.73124626  0.60214807  1
  As  As10  1  0.25000000  0.76875374  0.10214807  1
  As  As11  1  0.25000000  0.26875374  0.39785193  1
