# generated using pymatgen
data_NdSbAu
_symmetry_space_group_name_H-M   'P 1'
_cell_length_a   4.67634346
_cell_length_b   4.67634346
_cell_length_c   16.51842506
_cell_angle_alpha   90.00000000
_cell_angle_beta   90.00000000
_cell_angle_gamma   120.16982932
_symmetry_Int_Tables_number   1
_chemical_formula_structural   NdSbAu
_chemical_formula_sum   'Nd4 Sb4 Au4'
_cell_volume   312.29592031
_cell_formula_units_Z   4
loop_
 _symmetry_equiv_pos_site_id
 _symmetry_equiv_pos_as_xyz
  1  'x, y, z'
loop_
 _atom_site_type_symbol
 _atom_site_label
 _atom_site_symmetry_multiplicity
 _atom_site_fract_x
 _atom_site_fract_y
 _atom_site_fract_z
 _atom_site_occupancy
  Nd  Nd0  1  -0.00000000  -0.00000000  0.50000000  1
  Nd  Nd1  1  -0.00000000  -0.00000000  -0.00000000  1
  Nd  Nd2  1  -0.00039259  0.00039259  0.75000000  1
  Nd  Nd3  1  0.00039259  -0.00039259  0.25000000  1
  Sb  Sb4  1  0.66694812  0.33305188  0.61083536  1
  Sb  Sb5  1  0.33305188  0.66694812  0.38916464  1
  Sb  Sb6  1  0.33305188  0.66694812  0.11083536  1
  Sb  Sb7  1  0.66694812  0.33305188  0.88916464  1
  Au  Au8  1  0.33305180  0.66694820  0.65961060  1
  Au  Au9  1  0.66694820  0.33305180  0.34038940  1
  Au  Au10  1  0.66694820  0.33305180  0.15961060  1
  Au  Au11  1  0.33305180  0.66694820  0.84038940  1
