# generated using pymatgen
data_LaMg3
_symmetry_space_group_name_H-M   'P 1'
_cell_length_a   6.85200949
_cell_length_b   4.72019963
_cell_length_c   4.78510589
_cell_angle_alpha   90.00000000
_cell_angle_beta   90.00000000
_cell_angle_gamma   133.54137588
_symmetry_Int_Tables_number   1
_chemical_formula_structural   LaMg3
_chemical_formula_sum   'La1 Mg3'
_cell_volume   112.18485966
_cell_formula_units_Z   1
loop_
 _symmetry_equiv_pos_site_id
 _symmetry_equiv_pos_as_xyz
  1  'x, y, z'
loop_
 _atom_site_type_symbol
 _atom_site_label
 _atom_site_symmetry_multiplicity
 _atom_site_fract_x
 _atom_site_fract_y
 _atom_site_fract_z
 _atom_site_occupancy
  La  La0  1  0.24971506  0.74971506  0.25000000  1
  Mg  Mg1  1  0.74798808  0.74798808  0.25000000  1
  Mg  Mg2  1  0.25122479  0.25122479  0.75000000  1
  Mg  Mg3  1  0.75107207  0.25107207  0.75000000  1
