# generated using pymatgen
data_ScTlP2S7
_symmetry_space_group_name_H-M   'P 1'
_cell_length_a   6.54321852
_cell_length_b   6.66778204
_cell_length_c   6.66778204
_cell_angle_alpha   98.01097649
_cell_angle_beta   95.94512703
_cell_angle_gamma   95.94512703
_symmetry_Int_Tables_number   1
_chemical_formula_structural   ScTlP2S7
_chemical_formula_sum   'Sc1 Tl1 P2 S7'
_cell_volume   284.45470152
_cell_formula_units_Z   1
loop_
 _symmetry_equiv_pos_site_id
 _symmetry_equiv_pos_as_xyz
  1  'x, y, z'
loop_
 _atom_site_type_symbol
 _atom_site_label
 _atom_site_symmetry_multiplicity
 _atom_site_fract_x
 _atom_site_fract_y
 _atom_site_fract_z
 _atom_site_occupancy
  Sc  Sc0  1  -0.00000000  0.55465331  0.44534669  1
  Tl  Tl1  1  0.50000000  0.14716643  0.85283357  1
  P  P2  1  0.08871342  0.10443284  0.29412219  1
  P  P3  1  0.91128658  0.70587781  0.89556716  1
  S  S4  1  0.29000075  0.36147525  0.30750156  1
  S  S5  1  0.70999925  0.69249844  0.63852475  1
  S  S6  1  0.16766489  0.58309762  0.81988047  1
  S  S7  1  0.83233511  0.18011953  0.41690238  1
  S  S8  1  -0.00000000  0.03193632  0.96806368  1
  S  S9  1  0.24174521  0.88271656  0.39905412  1
  S  S10  1  0.75825479  0.60094588  0.11728344  1
