# generated using pymatgen
data_Dy4Te3S4
_symmetry_space_group_name_H-M   'P 1'
_cell_length_a   6.74164022
_cell_length_b   6.75142241
_cell_length_c   7.71238878
_cell_angle_alpha   64.04278635
_cell_angle_beta   84.20864590
_cell_angle_gamma   76.67129772
_symmetry_Int_Tables_number   1
_chemical_formula_structural   Dy4Te3S4
_chemical_formula_sum   'Dy4 Te3 S4'
_cell_volume   307.12075630
_cell_formula_units_Z   1
loop_
 _symmetry_equiv_pos_site_id
 _symmetry_equiv_pos_as_xyz
  1  'x, y, z'
loop_
 _atom_site_type_symbol
 _atom_site_label
 _atom_site_symmetry_multiplicity
 _atom_site_fract_x
 _atom_site_fract_y
 _atom_site_fract_z
 _atom_site_occupancy
  Dy  Dy0  1  0.24398158  0.09880730  0.32249436  1
  Dy  Dy1  1  0.24398158  0.42130167  0.67750564  1
  Dy  Dy2  1  0.75601842  0.90119270  0.67750564  1
  Dy  Dy3  1  0.75601842  0.57869833  0.32249436  1
  Te  Te4  1  0.86564531  0.36686468  1.00000000  1
  Te  Te5  1  0.13435469  0.63313532  0.00000000  1
  Te  Te6  1  0.50000000  0.00000000  -0.00000000  1
  S  S7  1  0.00000000  0.21174517  0.57650966  1
  S  S8  1  1.00000000  0.78825483  0.42349034  1
  S  S9  1  0.50000000  0.28310218  0.43379563  1
  S  S10  1  0.50000000  0.71689782  0.56620437  1
