# generated using pymatgen
data_Li2SnSe3
_symmetry_space_group_name_H-M   'P 1'
_cell_length_a   7.33500620
_cell_length_b   7.35718705
_cell_length_c   7.96406367
_cell_angle_alpha   116.64014431
_cell_angle_beta   90.00000000
_cell_angle_gamma   119.90031943
_symmetry_Int_Tables_number   1
_chemical_formula_structural   Li2SnSe3
_chemical_formula_sum   'Li4 Sn2 Se6'
_cell_volume   318.86596382
_cell_formula_units_Z   2
loop_
 _symmetry_equiv_pos_site_id
 _symmetry_equiv_pos_as_xyz
  1  'x, y, z'
loop_
 _atom_site_type_symbol
 _atom_site_label
 _atom_site_symmetry_multiplicity
 _atom_site_fract_x
 _atom_site_fract_y
 _atom_site_fract_z
 _atom_site_occupancy
  Li  Li0  1  0.37601643  0.88160284  0.34392270  1
  Li  Li1  1  0.50558642  0.88160284  0.84392270  1
  Li  Li2  1  0.03098911  0.24325710  0.38554674  1
  Li  Li3  1  0.21226799  0.24325710  0.88554674  1
  Sn  Sn4  1  0.67575484  0.51584754  0.34402906  1
  Sn  Sn5  1  0.84009270  0.51584754  0.84402906  1
  Se  Se6  1  0.97480560  0.79690771  0.23233739  1
  Se  Se7  1  0.82210212  0.79690771  0.73233739  1
  Se  Se8  1  0.66573292  0.12988284  0.22108766  1
  Se  Se9  1  0.46414992  0.12988284  0.72108766  1
  Se  Se10  1  0.32001965  0.47104196  0.25487645  1
  Se  Se11  1  0.15102231  0.47104196  0.75487645  1
