# generated using pymatgen
data_PAuO4
_symmetry_space_group_name_H-M   'P 1'
_cell_length_a   4.93159790
_cell_length_b   4.93159790
_cell_length_c   7.91944734
_cell_angle_alpha   84.36394658
_cell_angle_beta   84.36394658
_cell_angle_gamma   71.09892821
_symmetry_Int_Tables_number   1
_chemical_formula_structural   PAuO4
_chemical_formula_sum   'P2 Au2 O8'
_cell_volume   180.88833784
_cell_formula_units_Z   2
loop_
 _symmetry_equiv_pos_site_id
 _symmetry_equiv_pos_as_xyz
  1  'x, y, z'
loop_
 _atom_site_type_symbol
 _atom_site_label
 _atom_site_symmetry_multiplicity
 _atom_site_fract_x
 _atom_site_fract_y
 _atom_site_fract_z
 _atom_site_occupancy
  P  P0  1  0.92578075  0.07421925  0.25000000  1
  P  P1  1  0.07421925  0.92578075  0.75000000  1
  Au  Au2  1  -0.00000000  0.50000000  0.50000000  1
  Au  Au3  1  0.50000000  0.00000000  -0.00000000  1
  O  O4  1  0.74334512  0.20192873  0.09391896  1
  O  O5  1  0.79807127  0.25665488  0.40608104  1
  O  O6  1  0.25665488  0.79807127  0.90608104  1
  O  O7  1  0.20192873  0.74334512  0.59391896  1
  O  O8  1  0.23505793  0.09301201  0.21164085  1
  O  O9  1  0.90698799  0.76494207  0.28835915  1
  O  O10  1  0.76494207  0.90698799  0.78835915  1
  O  O11  1  0.09301201  0.23505793  0.71164085  1
