# generated using pymatgen
data_BaTbAgTe3
_symmetry_space_group_name_H-M   'P 1'
_cell_length_a   4.55520671
_cell_length_b   7.91766626
_cell_length_c   11.56613250
_cell_angle_alpha   90.00000000
_cell_angle_beta   90.00000000
_cell_angle_gamma   106.71796843
_symmetry_Int_Tables_number   1
_chemical_formula_structural   BaTbAgTe3
_chemical_formula_sum   'Ba2 Tb2 Ag2 Te6'
_cell_volume   399.51914165
_cell_formula_units_Z   2
loop_
 _symmetry_equiv_pos_site_id
 _symmetry_equiv_pos_as_xyz
  1  'x, y, z'
loop_
 _atom_site_type_symbol
 _atom_site_label
 _atom_site_symmetry_multiplicity
 _atom_site_fract_x
 _atom_site_fract_y
 _atom_site_fract_z
 _atom_site_occupancy
  Ba  Ba0  1  0.75485610  0.50971219  0.25000000  1
  Ba  Ba1  1  0.24514390  0.49028781  0.75000000  1
  Tb  Tb2  1  0.00000000  0.00000000  0.50000000  1
  Tb  Tb3  1  0.00000000  0.00000000  -0.00000000  1
  Ag  Ag4  1  0.46868608  0.93737216  0.25000000  1
  Ag  Ag5  1  0.53131392  0.06262784  0.75000000  1
  Te  Te6  1  0.36125375  0.72250751  0.44838060  1
  Te  Te7  1  0.63874625  0.27749249  0.55161940  1
  Te  Te8  1  0.36125375  0.72250751  0.05161940  1
  Te  Te9  1  0.63874625  0.27749249  0.94838060  1
  Te  Te10  1  0.07956532  0.15913064  0.25000000  1
  Te  Te11  1  0.92043468  0.84086936  0.75000000  1
