# generated using pymatgen
data_EuCdPt
_symmetry_space_group_name_H-M   'P 1'
_cell_length_a   4.40957586
_cell_length_b   7.46904000
_cell_length_c   8.69556230
_cell_angle_alpha   90.00000000
_cell_angle_beta   90.00000000
_cell_angle_gamma   90.00000000
_symmetry_Int_Tables_number   1
_chemical_formula_structural   EuCdPt
_chemical_formula_sum   'Eu4 Cd4 Pt4'
_cell_volume   286.39093981
_cell_formula_units_Z   4
loop_
 _symmetry_equiv_pos_site_id
 _symmetry_equiv_pos_as_xyz
  1  'x, y, z'
loop_
 _atom_site_type_symbol
 _atom_site_label
 _atom_site_symmetry_multiplicity
 _atom_site_fract_x
 _atom_site_fract_y
 _atom_site_fract_z
 _atom_site_occupancy
  Eu  Eu0  1  0.75000000  0.46647186  0.17879255  1
  Eu  Eu1  1  0.75000000  0.96647186  0.32120745  1
  Eu  Eu2  1  0.25000000  0.53352814  0.82120745  1
  Eu  Eu3  1  0.25000000  0.03352814  0.67879255  1
  Cd  Cd4  1  0.75000000  0.35905729  0.56344061  1
  Cd  Cd5  1  0.75000000  0.85905729  0.93655939  1
  Cd  Cd6  1  0.25000000  0.64094271  0.43655939  1
  Cd  Cd7  1  0.25000000  0.14094271  0.06344061  1
  Pt  Pt8  1  0.75000000  0.23782797  0.87281996  1
  Pt  Pt9  1  0.75000000  0.73782797  0.62718004  1
  Pt  Pt10  1  0.25000000  0.76217203  0.12718004  1
  Pt  Pt11  1  0.25000000  0.26217203  0.37281996  1
