# generated using pymatgen
data_AsAuO4
_symmetry_space_group_name_H-M   'P 1'
_cell_length_a   5.10762176
_cell_length_b   5.10762176
_cell_length_c   8.05310616
_cell_angle_alpha   85.13211355
_cell_angle_beta   85.13211355
_cell_angle_gamma   71.57081708
_symmetry_Int_Tables_number   1
_chemical_formula_structural   AsAuO4
_chemical_formula_sum   'As2 Au2 O8'
_cell_volume   198.21998951
_cell_formula_units_Z   2
loop_
 _symmetry_equiv_pos_site_id
 _symmetry_equiv_pos_as_xyz
  1  'x, y, z'
loop_
 _atom_site_type_symbol
 _atom_site_label
 _atom_site_symmetry_multiplicity
 _atom_site_fract_x
 _atom_site_fract_y
 _atom_site_fract_z
 _atom_site_occupancy
  As  As0  1  0.93753371  0.06246629  0.25000000  1
  As  As1  1  0.06246629  0.93753371  0.75000000  1
  Au  Au2  1  -0.00000000  0.50000000  0.50000000  1
  Au  Au3  1  0.50000000  -0.00000000  0.00000000  1
  O  O4  1  0.74531999  0.20278525  0.07762781  1
  O  O5  1  0.79721475  0.25468001  0.42237219  1
  O  O6  1  0.25468001  0.79721475  0.92237219  1
  O  O7  1  0.20278525  0.74531999  0.57762781  1
  O  O8  1  0.26833198  0.09016833  0.21527434  1
  O  O9  1  0.90983167  0.73166802  0.28472566  1
  O  O10  1  0.73166802  0.90983167  0.78472566  1
  O  O11  1  0.09016833  0.26833198  0.71527434  1
