# generated using pymatgen
data_LiEuAs
_symmetry_space_group_name_H-M   'P 1'
_cell_length_a   4.46406328
_cell_length_b   7.46380902
_cell_length_c   7.98372264
_cell_angle_alpha   90.00000000
_cell_angle_beta   90.00000000
_cell_angle_gamma   90.00000000
_symmetry_Int_Tables_number   1
_chemical_formula_structural   LiEuAs
_chemical_formula_sum   'Li4 Eu4 As4'
_cell_volume   266.00898221
_cell_formula_units_Z   4
loop_
 _symmetry_equiv_pos_site_id
 _symmetry_equiv_pos_as_xyz
  1  'x, y, z'
loop_
 _atom_site_type_symbol
 _atom_site_label
 _atom_site_symmetry_multiplicity
 _atom_site_fract_x
 _atom_site_fract_y
 _atom_site_fract_z
 _atom_site_occupancy
  Li  Li0  1  0.75000000  0.34286899  0.57112973  1
  Li  Li1  1  0.75000000  0.84286899  0.92887027  1
  Li  Li2  1  0.25000000  0.65713101  0.42887027  1
  Li  Li3  1  0.25000000  0.15713101  0.07112973  1
  Eu  Eu4  1  0.75000000  0.49135466  0.20406795  1
  Eu  Eu5  1  0.75000000  0.99135466  0.29593205  1
  Eu  Eu6  1  0.25000000  0.50864534  0.79593205  1
  Eu  Eu7  1  0.25000000  0.00864534  0.70406795  1
  As  As8  1  0.75000000  0.22531804  0.90409073  1
  As  As9  1  0.75000000  0.72531804  0.59590927  1
  As  As10  1  0.25000000  0.77468196  0.09590927  1
  As  As11  1  0.25000000  0.27468196  0.40409073  1
