# generated using pymatgen
data_BaTbAgS3
_symmetry_space_group_name_H-M   'P 1'
_cell_length_a   4.09432796
_cell_length_b   8.63372586
_cell_length_c   9.08461390
_cell_angle_alpha   102.71097309
_cell_angle_beta   103.02311575
_cell_angle_gamma   90.00000000
_symmetry_Int_Tables_number   1
_chemical_formula_structural   BaTbAgS3
_chemical_formula_sum   'Ba2 Tb2 Ag2 S6'
_cell_volume   304.79151085
_cell_formula_units_Z   2
loop_
 _symmetry_equiv_pos_site_id
 _symmetry_equiv_pos_as_xyz
  1  'x, y, z'
loop_
 _atom_site_type_symbol
 _atom_site_label
 _atom_site_symmetry_multiplicity
 _atom_site_fract_x
 _atom_site_fract_y
 _atom_site_fract_z
 _atom_site_occupancy
  Ba  Ba0  1  0.86488347  0.43074308  0.72976695  1
  Ba  Ba1  1  0.13511653  0.56925692  0.27023305  1
  Tb  Tb2  1  0.83610883  0.91830729  0.67221767  1
  Tb  Tb3  1  0.16389117  0.08169271  0.32778233  1
  Ag  Ag4  1  0.48367579  0.79144840  0.96735158  1
  Ag  Ag5  1  0.51632421  0.20855160  0.03264842  1
  S  S6  1  0.67461941  0.86971071  0.34923881  1
  S  S7  1  0.32538059  0.13028929  0.65076119  1
  S  S8  1  0.32407869  0.69803005  0.64815737  1
  S  S9  1  0.67592131  0.30196995  0.35184263  1
  S  S10  1  0.50000000  0.50000000  0.00000000  1
  S  S11  1  0.00000000  0.00000000  0.00000000  1
