# generated using pymatgen
data_EuIn4Ir
_symmetry_space_group_name_H-M   'P 1'
_cell_length_a   4.58630156
_cell_length_b   7.39411108
_cell_length_c   8.91974945
_cell_angle_alpha   90.00000000
_cell_angle_beta   104.89727934
_cell_angle_gamma   90.00000000
_symmetry_Int_Tables_number   1
_chemical_formula_structural   EuIn4Ir
_chemical_formula_sum   'Eu2 In8 Ir2'
_cell_volume   292.31620460
_cell_formula_units_Z   2
loop_
 _symmetry_equiv_pos_site_id
 _symmetry_equiv_pos_as_xyz
  1  'x, y, z'
loop_
 _atom_site_type_symbol
 _atom_site_label
 _atom_site_symmetry_multiplicity
 _atom_site_fract_x
 _atom_site_fract_y
 _atom_site_fract_z
 _atom_site_occupancy
  Eu  Eu0  1  0.62642806  0.75000000  0.25285613  1
  Eu  Eu1  1  0.37357194  0.25000000  0.74714387  1
  In  In2  1  0.81518471  0.54644349  0.63036943  1
  In  In3  1  0.18481529  0.45355651  0.36963057  1
  In  In4  1  0.81518471  0.95355651  0.63036943  1
  In  In5  1  0.18481529  0.04644349  0.36963057  1
  In  In6  1  0.43327086  0.75000000  0.86654172  1
  In  In7  1  0.56672914  0.25000000  0.13345828  1
  In  In8  1  -0.00000000  0.50000000  -0.00000000  1
  In  In9  1  -0.00000000  -0.00000000  -0.00000000  1
  Ir  Ir10  1  0.27750303  0.75000000  0.55500606  1
  Ir  Ir11  1  0.72249697  0.25000000  0.44499394  1
