# generated using pymatgen
data_YbGaNi
_symmetry_space_group_name_H-M   'P 1'
_cell_length_a   4.18120172
_cell_length_b   6.92660312
_cell_length_c   7.32715144
_cell_angle_alpha   90.00000000
_cell_angle_beta   90.00000000
_cell_angle_gamma   90.00000000
_symmetry_Int_Tables_number   1
_chemical_formula_structural   YbGaNi
_chemical_formula_sum   'Yb4 Ga4 Ni4'
_cell_volume   212.20547872
_cell_formula_units_Z   4
loop_
 _symmetry_equiv_pos_site_id
 _symmetry_equiv_pos_as_xyz
  1  'x, y, z'
loop_
 _atom_site_type_symbol
 _atom_site_label
 _atom_site_symmetry_multiplicity
 _atom_site_fract_x
 _atom_site_fract_y
 _atom_site_fract_z
 _atom_site_occupancy
  Yb  Yb0  1  0.75000000  0.48114065  0.18624672  1
  Yb  Yb1  1  0.75000000  0.98114065  0.31375328  1
  Yb  Yb2  1  0.25000000  0.51885935  0.81375328  1
  Yb  Yb3  1  0.25000000  0.01885935  0.68624672  1
  Ga  Ga4  1  0.75000000  0.33322206  0.57717320  1
  Ga  Ga5  1  0.75000000  0.83322206  0.92282680  1
  Ga  Ga6  1  0.25000000  0.66677794  0.42282680  1
  Ga  Ga7  1  0.25000000  0.16677794  0.07717320  1
  Ni  Ni8  1  0.75000000  0.19754217  0.89564325  1
  Ni  Ni9  1  0.75000000  0.69754217  0.60435675  1
  Ni  Ni10  1  0.25000000  0.80245783  0.10435675  1
  Ni  Ni11  1  0.25000000  0.30245783  0.39564325  1
