# generated using pymatgen
data_TmGa4Ni
_symmetry_space_group_name_H-M   'P 1'
_cell_length_a   4.10442242
_cell_length_b   6.59585133
_cell_length_c   7.83698299
_cell_angle_alpha   90.00000000
_cell_angle_beta   105.18060221
_cell_angle_gamma   90.00000000
_symmetry_Int_Tables_number   1
_chemical_formula_structural   TmGa4Ni
_chemical_formula_sum   'Tm2 Ga8 Ni2'
_cell_volume   204.76063658
_cell_formula_units_Z   2
loop_
 _symmetry_equiv_pos_site_id
 _symmetry_equiv_pos_as_xyz
  1  'x, y, z'
loop_
 _atom_site_type_symbol
 _atom_site_label
 _atom_site_symmetry_multiplicity
 _atom_site_fract_x
 _atom_site_fract_y
 _atom_site_fract_z
 _atom_site_occupancy
  Tm  Tm0  1  0.37959398  0.75000000  0.75918796  1
  Tm  Tm1  1  0.62040602  0.25000000  0.24081204  1
  Ga  Ga2  1  -0.00000000  0.50000000  -0.00000000  1
  Ga  Ga3  1  -0.00000000  0.00000000  0.00000000  1
  Ga  Ga4  1  0.57003017  0.75000000  0.14006035  1
  Ga  Ga5  1  0.42996983  0.25000000  0.85993965  1
  Ga  Ga6  1  0.18514959  0.55101289  0.37029918  1
  Ga  Ga7  1  0.81485041  0.44898711  0.62970082  1
  Ga  Ga8  1  0.18514959  0.94898711  0.37029918  1
  Ga  Ga9  1  0.81485041  0.05101289  0.62970082  1
  Ni  Ni10  1  0.72497470  0.75000000  0.44994940  1
  Ni  Ni11  1  0.27502530  0.25000000  0.55005060  1
