# generated using pymatgen
data_HfCoP
_symmetry_space_group_name_H-M   'P 1'
_cell_length_a   3.66693373
_cell_length_b   6.28360922
_cell_length_c   7.08695222
_cell_angle_alpha   90.00000000
_cell_angle_beta   90.00000000
_cell_angle_gamma   90.00000000
_symmetry_Int_Tables_number   1
_chemical_formula_structural   HfCoP
_chemical_formula_sum   'Hf4 Co4 P4'
_cell_volume   163.29456658
_cell_formula_units_Z   4
loop_
 _symmetry_equiv_pos_site_id
 _symmetry_equiv_pos_as_xyz
  1  'x, y, z'
loop_
 _atom_site_type_symbol
 _atom_site_label
 _atom_site_symmetry_multiplicity
 _atom_site_fract_x
 _atom_site_fract_y
 _atom_site_fract_z
 _atom_site_occupancy
  Hf  Hf0  1  0.75000000  0.48015548  0.68235486  1
  Hf  Hf1  1  0.75000000  0.98015548  0.81764514  1
  Hf  Hf2  1  0.25000000  0.51984452  0.31764514  1
  Hf  Hf3  1  0.25000000  0.01984452  0.18235486  1
  Co  Co4  1  0.75000000  0.36123645  0.06203818  1
  Co  Co5  1  0.75000000  0.86123645  0.43796182  1
  Co  Co6  1  0.25000000  0.63876355  0.93796182  1
  Co  Co7  1  0.25000000  0.13876355  0.56203818  1
  P  P8  1  0.75000000  0.72768429  0.11566169  1
  P  P9  1  0.75000000  0.22768429  0.38433831  1
  P  P10  1  0.25000000  0.27231571  0.88433831  1
  P  P11  1  0.25000000  0.77231571  0.61566169  1
