# generated using pymatgen
data_Ba3(LiSb)4
_symmetry_space_group_name_H-M   'P 1'
_cell_length_a   5.05953255
_cell_length_b   7.68025951
_cell_length_c   9.49155392
_cell_angle_alpha   113.86505737
_cell_angle_beta   105.45777186
_cell_angle_gamma   90.00000000
_symmetry_Int_Tables_number   1
_chemical_formula_structural   Ba3(LiSb)4
_chemical_formula_sum   'Ba3 Li4 Sb4'
_cell_volume   322.65043970
_cell_formula_units_Z   1
loop_
 _symmetry_equiv_pos_site_id
 _symmetry_equiv_pos_as_xyz
  1  'x, y, z'
loop_
 _atom_site_type_symbol
 _atom_site_label
 _atom_site_symmetry_multiplicity
 _atom_site_fract_x
 _atom_site_fract_y
 _atom_site_fract_z
 _atom_site_occupancy
  Ba  Ba0  1  0.13239812  0.63239812  0.26479624  1
  Ba  Ba1  1  0.86760188  0.36760188  0.73520376  1
  Ba  Ba2  1  0.00000000  0.00000000  0.00000000  1
  Li  Li3  1  0.67569681  0.98167653  0.35139362  1
  Li  Li4  1  0.32430319  0.01832347  0.64860638  1
  Li  Li5  1  0.32430319  0.63028292  0.64860638  1
  Li  Li6  1  0.67569681  0.36971708  0.35139362  1
  Sb  Sb7  1  0.78701371  0.78701371  0.57402743  1
  Sb  Sb8  1  0.21298629  0.21298629  0.42597257  1
  Sb  Sb9  1  0.50000000  0.68624997  1.00000000  1
  Sb  Sb10  1  0.50000000  0.31375003  0.00000000  1
