# generated using pymatgen
data_TaCrP
_symmetry_space_group_name_H-M   'P 1'
_cell_length_a   3.53265742
_cell_length_b   6.23371278
_cell_length_c   7.37479713
_cell_angle_alpha   90.00000000
_cell_angle_beta   90.00000000
_cell_angle_gamma   90.00000000
_symmetry_Int_Tables_number   1
_chemical_formula_structural   TaCrP
_chemical_formula_sum   'Ta4 Cr4 P4'
_cell_volume   162.40462382
_cell_formula_units_Z   4
loop_
 _symmetry_equiv_pos_site_id
 _symmetry_equiv_pos_as_xyz
  1  'x, y, z'
loop_
 _atom_site_type_symbol
 _atom_site_label
 _atom_site_symmetry_multiplicity
 _atom_site_fract_x
 _atom_site_fract_y
 _atom_site_fract_z
 _atom_site_occupancy
  Ta  Ta0  1  0.75000000  0.46874980  0.67189971  1
  Ta  Ta1  1  0.75000000  0.96874980  0.82810029  1
  Ta  Ta2  1  0.25000000  0.53125020  0.32810029  1
  Ta  Ta3  1  0.25000000  0.03125020  0.17189971  1
  Cr  Cr4  1  0.75000000  0.35535084  0.05923363  1
  Cr  Cr5  1  0.75000000  0.85535084  0.44076637  1
  Cr  Cr6  1  0.25000000  0.64464916  0.94076637  1
  Cr  Cr7  1  0.25000000  0.14464916  0.55923363  1
  P  P8  1  0.75000000  0.73038332  0.13255416  1
  P  P9  1  0.75000000  0.23038332  0.36744584  1
  P  P10  1  0.25000000  0.26961668  0.86744584  1
  P  P11  1  0.25000000  0.76961668  0.63255416  1
