# generated using pymatgen
data_BaTbCuTe3
_symmetry_space_group_name_H-M   'P 1'
_cell_length_a   4.45490004
_cell_length_b   7.79382551
_cell_length_c   11.46917727
_cell_angle_alpha   90.00000000
_cell_angle_beta   90.00000000
_cell_angle_gamma   106.60648410
_symmetry_Int_Tables_number   1
_chemical_formula_structural   BaTbCuTe3
_chemical_formula_sum   'Ba2 Tb2 Cu2 Te6'
_cell_volume   381.60844000
_cell_formula_units_Z   2
loop_
 _symmetry_equiv_pos_site_id
 _symmetry_equiv_pos_as_xyz
  1  'x, y, z'
loop_
 _atom_site_type_symbol
 _atom_site_label
 _atom_site_symmetry_multiplicity
 _atom_site_fract_x
 _atom_site_fract_y
 _atom_site_fract_z
 _atom_site_occupancy
  Ba  Ba0  1  0.75026498  0.50052997  0.25000000  1
  Ba  Ba1  1  0.24973502  0.49947003  0.75000000  1
  Tb  Tb2  1  0.00000000  0.00000000  0.50000000  1
  Tb  Tb3  1  0.00000000  0.00000000  -0.00000000  1
  Cu  Cu4  1  0.46711241  0.93422481  0.25000000  1
  Cu  Cu5  1  0.53288759  0.06577519  0.75000000  1
  Te  Te6  1  0.36271417  0.72542834  0.43870103  1
  Te  Te7  1  0.63728583  0.27457166  0.56129897  1
  Te  Te8  1  0.36271417  0.72542834  0.06129897  1
  Te  Te9  1  0.63728583  0.27457166  0.93870103  1
  Te  Te10  1  0.07003911  0.14007822  0.25000000  1
  Te  Te11  1  0.92996089  0.85992178  0.75000000  1
