# generated using pymatgen
data_NaGe2Pd3
_symmetry_space_group_name_H-M   'P 1'
_cell_length_a   5.96859536
_cell_length_b   6.88084899
_cell_length_c   6.88084899
_cell_angle_alpha   64.67997111
_cell_angle_beta   64.29671936
_cell_angle_gamma   64.29671936
_symmetry_Int_Tables_number   1
_chemical_formula_structural   NaGe2Pd3
_chemical_formula_sum   'Na2 Ge4 Pd6'
_cell_volume   219.21747625
_cell_formula_units_Z   2
loop_
 _symmetry_equiv_pos_site_id
 _symmetry_equiv_pos_as_xyz
  1  'x, y, z'
loop_
 _atom_site_type_symbol
 _atom_site_label
 _atom_site_symmetry_multiplicity
 _atom_site_fract_x
 _atom_site_fract_y
 _atom_site_fract_z
 _atom_site_occupancy
  Na  Na0  1  0.04968545  0.25000000  0.25000000  1
  Na  Na1  1  0.95031455  0.75000000  0.75000000  1
  Ge  Ge2  1  0.38738711  0.42551261  0.42551261  1
  Ge  Ge3  1  0.61261289  0.57448739  0.57448739  1
  Ge  Ge4  1  0.26158768  0.92551261  0.92551261  1
  Ge  Ge5  1  0.73841232  0.07448739  0.07448739  1
  Pd  Pd6  1  0.50000000  0.79906207  0.20093793  1
  Pd  Pd7  1  0.00000000  0.29906207  0.70093793  1
  Pd  Pd8  1  0.50000000  0.20093793  0.79906207  1
  Pd  Pd9  1  -0.00000000  0.70093793  0.29906207  1
  Pd  Pd10  1  0.50000000  -0.00000000  0.50000000  1
  Pd  Pd11  1  0.50000000  0.50000000  0.00000000  1
