# generated using pymatgen
data_YAlPd
_symmetry_space_group_name_H-M   'P 1'
_cell_length_a   4.48680333
_cell_length_b   6.89858990
_cell_length_c   7.79697281
_cell_angle_alpha   90.00000000
_cell_angle_beta   90.00000000
_cell_angle_gamma   90.00000000
_symmetry_Int_Tables_number   1
_chemical_formula_structural   YAlPd
_chemical_formula_sum   'Y4 Al4 Pd4'
_cell_volume   241.33670641
_cell_formula_units_Z   4
loop_
 _symmetry_equiv_pos_site_id
 _symmetry_equiv_pos_as_xyz
  1  'x, y, z'
loop_
 _atom_site_type_symbol
 _atom_site_label
 _atom_site_symmetry_multiplicity
 _atom_site_fract_x
 _atom_site_fract_y
 _atom_site_fract_z
 _atom_site_occupancy
  Y  Y0  1  0.75000000  0.46691073  0.17970196  1
  Y  Y1  1  0.75000000  0.96691073  0.32029804  1
  Y  Y2  1  0.25000000  0.53308927  0.82029804  1
  Y  Y3  1  0.25000000  0.03308927  0.67970196  1
  Al  Al4  1  0.75000000  0.35439872  0.56050576  1
  Al  Al5  1  0.75000000  0.85439872  0.93949424  1
  Al  Al6  1  0.25000000  0.64560128  0.43949424  1
  Al  Al7  1  0.25000000  0.14560128  0.06050576  1
  Pd  Pd8  1  0.75000000  0.22621406  0.88008963  1
  Pd  Pd9  1  0.75000000  0.72621406  0.61991037  1
  Pd  Pd10  1  0.25000000  0.77378594  0.11991037  1
  Pd  Pd11  1  0.25000000  0.27378594  0.38008963  1
