# generated using pymatgen
data_YGeRh
_symmetry_space_group_name_H-M   'P 1'
_cell_length_a   4.32103875
_cell_length_b   6.95240011
_cell_length_c   7.61002054
_cell_angle_alpha   90.00000000
_cell_angle_beta   90.00000000
_cell_angle_gamma   90.00000000
_symmetry_Int_Tables_number   1
_chemical_formula_structural   YGeRh
_chemical_formula_sum   'Y4 Ge4 Rh4'
_cell_volume   228.61711909
_cell_formula_units_Z   4
loop_
 _symmetry_equiv_pos_site_id
 _symmetry_equiv_pos_as_xyz
  1  'x, y, z'
loop_
 _atom_site_type_symbol
 _atom_site_label
 _atom_site_symmetry_multiplicity
 _atom_site_fract_x
 _atom_site_fract_y
 _atom_site_fract_z
 _atom_site_occupancy
  Y  Y0  1  0.75000000  0.99625681  0.80405732  1
  Y  Y1  1  0.75000000  0.49625681  0.69594268  1
  Y  Y2  1  0.25000000  0.00374319  0.19594268  1
  Y  Y3  1  0.25000000  0.50374319  0.30405732  1
  Ge  Ge4  1  0.75000000  0.71122937  0.10456555  1
  Ge  Ge5  1  0.75000000  0.21122937  0.39543445  1
  Ge  Ge6  1  0.25000000  0.28877063  0.89543445  1
  Ge  Ge7  1  0.25000000  0.78877063  0.60456555  1
  Rh  Rh8  1  0.75000000  0.34344333  0.06860645  1
  Rh  Rh9  1  0.75000000  0.84344333  0.43139355  1
  Rh  Rh10  1  0.25000000  0.65655667  0.93139355  1
  Rh  Rh11  1  0.25000000  0.15655667  0.56860645  1
