# generated using pymatgen
data_Ho2(NiB2)3
_symmetry_space_group_name_H-M   'P 1'
_cell_length_a   3.46684827
_cell_length_b   5.80028015
_cell_length_c   5.80028015
_cell_angle_alpha   96.72864161
_cell_angle_beta   90.00000000
_cell_angle_gamma   90.00000000
_symmetry_Int_Tables_number   1
_chemical_formula_structural   Ho2(NiB2)3
_chemical_formula_sum   'Ho2 Ni3 B6'
_cell_volume   115.83267686
_cell_formula_units_Z   1
loop_
 _symmetry_equiv_pos_site_id
 _symmetry_equiv_pos_as_xyz
  1  'x, y, z'
loop_
 _atom_site_type_symbol
 _atom_site_label
 _atom_site_symmetry_multiplicity
 _atom_site_fract_x
 _atom_site_fract_y
 _atom_site_fract_z
 _atom_site_occupancy
  Ho  Ho0  1  -0.00000000  0.27717631  0.72282369  1
  Ho  Ho1  1  -0.00000000  0.72282369  0.27717631  1
  Ni  Ni2  1  0.50000000  -0.00000000  0.00000000  1
  Ni  Ni3  1  -0.00000000  0.77441447  0.77441447  1
  Ni  Ni4  1  -0.00000000  0.22558553  0.22558553  1
  B  B5  1  0.50000000  0.91587768  0.61505127  1
  B  B6  1  0.50000000  0.08412232  0.38494873  1
  B  B7  1  0.50000000  0.61505127  0.91587768  1
  B  B8  1  0.50000000  0.38494873  0.08412232  1
  B  B9  1  0.50000000  0.61308599  0.61308599  1
  B  B10  1  0.50000000  0.38691401  0.38691401  1
