# generated using pymatgen
data_LuSeO3F
_symmetry_space_group_name_H-M   'P 1'
_cell_length_a   4.29940093
_cell_length_b   6.52822211
_cell_length_c   6.92674743
_cell_angle_alpha   90.00000000
_cell_angle_beta   90.00000000
_cell_angle_gamma   95.28597071
_symmetry_Int_Tables_number   1
_chemical_formula_structural   LuSeO3F
_chemical_formula_sum   'Lu2 Se2 O6 F2'
_cell_volume   193.58930082
_cell_formula_units_Z   2
loop_
 _symmetry_equiv_pos_site_id
 _symmetry_equiv_pos_as_xyz
  1  'x, y, z'
loop_
 _atom_site_type_symbol
 _atom_site_label
 _atom_site_symmetry_multiplicity
 _atom_site_fract_x
 _atom_site_fract_y
 _atom_site_fract_z
 _atom_site_occupancy
  Lu  Lu0  1  0.46348309  0.36940651  0.25000000  1
  Lu  Lu1  1  0.53651691  0.63059349  0.75000000  1
  Se  Se2  1  0.32141137  0.14799219  0.75000000  1
  Se  Se3  1  0.67858863  0.85200781  0.25000000  1
  O  O4  1  0.41248453  0.02781471  0.25000000  1
  O  O5  1  0.58751547  0.97218529  0.75000000  1
  O  O6  1  0.45366604  0.32400373  0.57167270  1
  O  O7  1  0.54633396  0.67599627  0.07167270  1
  O  O8  1  0.54633396  0.67599627  0.42832730  1
  O  O9  1  0.45366604  0.32400373  0.92832730  1
  F  F10  1  0.96314965  0.35868584  0.25000000  1
  F  F11  1  0.03685035  0.64131416  0.75000000  1
