# generated using pymatgen
data_Dy3Sc2S7
_symmetry_space_group_name_H-M   'P 1'
_cell_length_a   3.73809548
_cell_length_b   6.48388880
_cell_length_c   11.36785884
_cell_angle_alpha   104.36958844
_cell_angle_beta   90.00000000
_cell_angle_gamma   106.75383597
_symmetry_Int_Tables_number   1
_chemical_formula_structural   Dy3Sc2S7
_chemical_formula_sum   'Dy3 Sc2 S7'
_cell_volume   254.81653261
_cell_formula_units_Z   1
loop_
 _symmetry_equiv_pos_site_id
 _symmetry_equiv_pos_as_xyz
  1  'x, y, z'
loop_
 _atom_site_type_symbol
 _atom_site_label
 _atom_site_symmetry_multiplicity
 _atom_site_fract_x
 _atom_site_fract_y
 _atom_site_fract_z
 _atom_site_occupancy
  Dy  Dy0  1  0.00000000  0.00000000  0.00000000  1
  Dy  Dy1  1  0.30371474  0.60742948  0.20159848  1
  Dy  Dy2  1  0.69628526  0.39257052  0.79840152  1
  Sc  Sc3  1  0.11105005  0.22210011  0.42952845  1
  Sc  Sc4  1  0.88894995  0.77789989  0.57047155  1
  S  S5  1  0.50000000  0.00000000  0.50000000  1
  S  S6  1  0.66237267  0.32474534  0.05318341  1
  S  S7  1  0.33762733  0.67525466  0.94681659  1
  S  S8  1  0.96714560  0.93429121  0.22377576  1
  S  S9  1  0.03285440  0.06570879  0.77622424  1
  S  S10  1  0.26371071  0.52742142  0.63848555  1
  S  S11  1  0.73628929  0.47257858  0.36151445  1
