# generated using pymatgen
data_HfVP
_symmetry_space_group_name_H-M   'P 1'
_cell_length_a   3.46899763
_cell_length_b   6.59589389
_cell_length_c   7.85111380
_cell_angle_alpha   90.00000000
_cell_angle_beta   90.00000000
_cell_angle_gamma   90.00000000
_symmetry_Int_Tables_number   1
_chemical_formula_structural   HfVP
_chemical_formula_sum   'Hf4 V4 P4'
_cell_volume   179.64243615
_cell_formula_units_Z   4
loop_
 _symmetry_equiv_pos_site_id
 _symmetry_equiv_pos_as_xyz
  1  'x, y, z'
loop_
 _atom_site_type_symbol
 _atom_site_label
 _atom_site_symmetry_multiplicity
 _atom_site_fract_x
 _atom_site_fract_y
 _atom_site_fract_z
 _atom_site_occupancy
  Hf  Hf0  1  0.75000000  0.46063966  0.66980910  1
  Hf  Hf1  1  0.75000000  0.96063966  0.83019090  1
  Hf  Hf2  1  0.25000000  0.53936034  0.33019090  1
  Hf  Hf3  1  0.25000000  0.03936034  0.16980910  1
  V  V4  1  0.75000000  0.36946638  0.05948907  1
  V  V5  1  0.75000000  0.86946638  0.44051093  1
  V  V6  1  0.25000000  0.63053362  0.94051093  1
  V  V7  1  0.25000000  0.13053362  0.55948907  1
  P  P8  1  0.75000000  0.73941182  0.13650657  1
  P  P9  1  0.75000000  0.23941182  0.36349343  1
  P  P10  1  0.25000000  0.26058818  0.86349343  1
  P  P11  1  0.25000000  0.76058818  0.63650657  1
