# generated using pymatgen
data_Li9Mn2Co5O16
_symmetry_space_group_name_H-M   'P 1'
_cell_length_a   2.89259568
_cell_length_b   10.27090956
_cell_length_c   9.87685800
_cell_angle_alpha   99.17426244
_cell_angle_beta   90.00000000
_cell_angle_gamma   90.00000000
_symmetry_Int_Tables_number   1
_chemical_formula_structural   Li9Mn2Co5O16
_chemical_formula_sum   'Li9 Mn2 Co5 O16'
_cell_volume   289.68373265
_cell_formula_units_Z   1
loop_
 _symmetry_equiv_pos_site_id
 _symmetry_equiv_pos_as_xyz
  1  'x, y, z'
loop_
 _atom_site_type_symbol
 _atom_site_label
 _atom_site_symmetry_multiplicity
 _atom_site_fract_x
 _atom_site_fract_y
 _atom_site_fract_z
 _atom_site_occupancy
  Li  Li0  1  0.50000000  0.12376960  0.24386243  1
  Li  Li1  1  0.50000000  0.38647437  0.76780936  1
  Li  Li2  1  0.50000000  0.61507477  0.23538083  1
  Li  Li3  1  0.00000000  0.38106589  0.24096984  1
  Li  Li4  1  0.00000000  0.62340324  0.75772133  1
  Li  Li5  1  0.00000000  0.86886952  0.24196678  1
  Li  Li6  1  0.50000000  0.87643322  0.75191078  1
  Li  Li7  1  0.00000000  0.12615040  0.75963458  1
  Li  Li8  1  0.00000000  0.50015669  0.00092428  1
  Mn  Mn9  1  -0.00000000  0.99975628  -0.00002631  1
  Mn  Mn10  1  -0.00000000  0.24833496  0.49996213  1
  Co  Co11  1  0.00000000  0.75296569  0.49807408  1
  Co  Co12  1  0.50000000  0.50248057  0.49692563  1
  Co  Co13  1  0.50000000  0.72811486  0.99318624  1
  Co  Co14  1  0.50000000  0.99767782  0.50449357  1
  Co  Co15  1  0.50000000  0.27146420  0.00649249  1
  O  O16  1  0.50000000  0.94384173  0.11085218  1
  O  O17  1  0.50000000  0.19468627  0.61025763  1
  O  O18  1  0.50000000  0.42509065  0.12233354  1
  O  O19  1  0.00000000  0.17535297  0.10769569  1
  O  O20  1  0.00000000  0.42810589  0.60761698  1
  O  O21  1  -0.00000000  0.69495993  0.11949787  1
  O  O22  1  0.50000000  0.69070764  0.60478333  1
  O  O23  1  -0.00000000  0.94265602  0.62309508  1
  O  O24  1  0.50000000  0.30493661  0.38996719  1
  O  O25  1  0.50000000  0.57483165  0.87583257  1
  O  O26  1  0.50000000  0.81082912  0.39042910  1
  O  O27  1  0.00000000  0.55425213  0.38482469  1
  O  O28  1  0.00000000  0.82330100  0.89267357  1
  O  O29  1  -0.00000000  0.07469370  0.38962077  1
  O  O30  1  0.50000000  0.05550881  0.89126424  1
  O  O31  1  0.00000000  0.30405382  0.87996750  1
