# generated using pymatgen
data_HfGeMo
_symmetry_space_group_name_H-M   'P 1'
_cell_length_a   3.56671749
_cell_length_b   6.98231149
_cell_length_c   8.32883816
_cell_angle_alpha   90.00000000
_cell_angle_beta   90.00000000
_cell_angle_gamma   90.00000000
_symmetry_Int_Tables_number   1
_chemical_formula_structural   HfGeMo
_chemical_formula_sum   'Hf4 Ge4 Mo4'
_cell_volume   207.42082344
_cell_formula_units_Z   4
loop_
 _symmetry_equiv_pos_site_id
 _symmetry_equiv_pos_as_xyz
  1  'x, y, z'
loop_
 _atom_site_type_symbol
 _atom_site_label
 _atom_site_symmetry_multiplicity
 _atom_site_fract_x
 _atom_site_fract_y
 _atom_site_fract_z
 _atom_site_occupancy
  Hf  Hf0  1  0.25000000  0.54557877  0.83267053  1
  Hf  Hf1  1  0.25000000  0.04557877  0.66732947  1
  Hf  Hf2  1  0.75000000  0.45442123  0.16732947  1
  Hf  Hf3  1  0.75000000  0.95442123  0.33267053  1
  Ge  Ge4  1  0.25000000  0.75555322  0.13811605  1
  Ge  Ge5  1  0.25000000  0.25555322  0.36188395  1
  Ge  Ge6  1  0.75000000  0.24444678  0.86188395  1
  Ge  Ge7  1  0.75000000  0.74444678  0.63811605  1
  Mo  Mo8  1  0.25000000  0.63418795  0.43666328  1
  Mo  Mo9  1  0.25000000  0.13418795  0.06333672  1
  Mo  Mo10  1  0.75000000  0.36581205  0.56333672  1
  Mo  Mo11  1  0.75000000  0.86581205  0.93666328  1
