# generated using pymatgen
data_CeNi4B
_symmetry_space_group_name_H-M   'P 1'
_cell_length_a   4.98091336
_cell_length_b   4.99499674
_cell_length_c   7.03400607
_cell_angle_alpha   90.00000000
_cell_angle_beta   90.00000000
_cell_angle_gamma   119.90677606
_symmetry_Int_Tables_number   1
_chemical_formula_structural   CeNi4B
_chemical_formula_sum   'Ce2 Ni8 B2'
_cell_volume   151.69971738
_cell_formula_units_Z   2
loop_
 _symmetry_equiv_pos_site_id
 _symmetry_equiv_pos_as_xyz
  1  'x, y, z'
loop_
 _atom_site_type_symbol
 _atom_site_label
 _atom_site_symmetry_multiplicity
 _atom_site_fract_x
 _atom_site_fract_y
 _atom_site_fract_z
 _atom_site_occupancy
  Ce  Ce0  1  0.99998942  -0.00000000  0.00000000  1
  Ce  Ce1  1  0.99998714  -0.00000000  0.50000000  1
  Ni  Ni2  1  0.33341777  0.66689740  0.00000000  1
  Ni  Ni3  1  0.66652037  0.33310260  0.00000000  1
  Ni  Ni4  1  0.49999125  -0.00000000  0.29162654  1
  Ni  Ni5  1  0.49998682  0.50000175  0.29173936  1
  Ni  Ni6  1  0.99998507  0.49999825  0.29173936  1
  Ni  Ni7  1  0.49999125  -0.00000000  0.70837346  1
  Ni  Ni8  1  0.49998682  0.50000175  0.70826064  1
  Ni  Ni9  1  0.99998507  0.49999825  0.70826064  1
  B  B10  1  0.33328378  0.66660854  0.50000000  1
  B  B11  1  0.66667524  0.33339146  0.50000000  1
