# generated using pymatgen
data_Tm2Si2O7
_symmetry_space_group_name_H-M   'P 1'
_cell_length_a   4.76489788
_cell_length_b   5.62650022
_cell_length_c   5.62650022
_cell_angle_alpha   105.26437634
_cell_angle_beta   97.30308710
_cell_angle_gamma   97.30308710
_symmetry_Int_Tables_number   1
_chemical_formula_structural   Tm2Si2O7
_chemical_formula_sum   'Tm2 Si2 O7'
_cell_volume   142.29554206
_cell_formula_units_Z   1
loop_
 _symmetry_equiv_pos_site_id
 _symmetry_equiv_pos_as_xyz
  1  'x, y, z'
loop_
 _atom_site_type_symbol
 _atom_site_label
 _atom_site_symmetry_multiplicity
 _atom_site_fract_x
 _atom_site_fract_y
 _atom_site_fract_z
 _atom_site_occupancy
  Tm  Tm0  1  0.50000000  0.30809497  0.69190503  1
  Tm  Tm1  1  0.50000000  0.69190503  0.30809497  1
  Si  Si2  1  0.90960882  0.21890637  0.21890637  1
  Si  Si3  1  0.09039118  0.78109363  0.78109363  1
  O  O4  1  0.21641557  0.38278455  0.38278455  1
  O  O5  1  0.78358443  0.61721545  0.61721545  1
  O  O6  1  0.00000000  -0.00000000  -0.00000000  1
  O  O7  1  0.71871754  0.08414053  0.38637013  1
  O  O8  1  0.71871754  0.38637013  0.08414053  1
  O  O9  1  0.28128246  0.91585947  0.61362987  1
  O  O10  1  0.28128246  0.61362987  0.91585947  1
