# generated using pymatgen
data_ErGa4Ni
_symmetry_space_group_name_H-M   'P 1'
_cell_length_a   4.12003102
_cell_length_b   6.59365876
_cell_length_c   7.85145100
_cell_angle_alpha   90.00000000
_cell_angle_beta   105.21096538
_cell_angle_gamma   90.00000000
_symmetry_Int_Tables_number   1
_chemical_formula_structural   ErGa4Ni
_chemical_formula_sum   'Er2 Ga8 Ni2'
_cell_volume   205.82068719
_cell_formula_units_Z   2
loop_
 _symmetry_equiv_pos_site_id
 _symmetry_equiv_pos_as_xyz
  1  'x, y, z'
loop_
 _atom_site_type_symbol
 _atom_site_label
 _atom_site_symmetry_multiplicity
 _atom_site_fract_x
 _atom_site_fract_y
 _atom_site_fract_z
 _atom_site_occupancy
  Er  Er0  1  0.88054152  0.75000000  0.76108303  1
  Er  Er1  1  0.11945848  0.25000000  0.23891697  1
  Ga  Ga2  1  0.50000000  0.50000000  -0.00000000  1
  Ga  Ga3  1  0.50000000  0.00000000  -0.00000000  1
  Ga  Ga4  1  0.07102394  0.75000000  0.14204787  1
  Ga  Ga5  1  0.92897606  0.25000000  0.85795213  1
  Ga  Ga6  1  0.68495662  0.55131309  0.36991324  1
  Ga  Ga7  1  0.31504338  0.44868691  0.63008676  1
  Ga  Ga8  1  0.68495662  0.94868691  0.36991324  1
  Ga  Ga9  1  0.31504338  0.05131309  0.63008676  1
  Ni  Ni10  1  0.22548370  0.75000000  0.45096739  1
  Ni  Ni11  1  0.77451630  0.25000000  0.54903261  1
