# generated using pymatgen
data_ZrGeIr
_symmetry_space_group_name_H-M   'P 1'
_cell_length_a   4.07845658
_cell_length_b   6.62580564
_cell_length_c   7.60323448
_cell_angle_alpha   90.00000000
_cell_angle_beta   90.00000000
_cell_angle_gamma   90.00000000
_symmetry_Int_Tables_number   1
_chemical_formula_structural   ZrGeIr
_chemical_formula_sum   'Zr4 Ge4 Ir4'
_cell_volume   205.46266619
_cell_formula_units_Z   4
loop_
 _symmetry_equiv_pos_site_id
 _symmetry_equiv_pos_as_xyz
  1  'x, y, z'
loop_
 _atom_site_type_symbol
 _atom_site_label
 _atom_site_symmetry_multiplicity
 _atom_site_fract_x
 _atom_site_fract_y
 _atom_site_fract_z
 _atom_site_occupancy
  Zr  Zr0  1  0.75000000  0.47848589  0.68574094  1
  Zr  Zr1  1  0.75000000  0.97848589  0.81425906  1
  Zr  Zr2  1  0.25000000  0.52151411  0.31425906  1
  Zr  Zr3  1  0.25000000  0.02151411  0.18574094  1
  Ge  Ge4  1  0.75000000  0.73024731  0.12044848  1
  Ge  Ge5  1  0.75000000  0.23024731  0.37955152  1
  Ge  Ge6  1  0.25000000  0.26975269  0.87955152  1
  Ge  Ge7  1  0.25000000  0.76975269  0.62044848  1
  Ir  Ir8  1  0.75000000  0.34804887  0.06197081  1
  Ir  Ir9  1  0.75000000  0.84804887  0.43802919  1
  Ir  Ir10  1  0.25000000  0.65195113  0.93802919  1
  Ir  Ir11  1  0.25000000  0.15195113  0.56197081  1
