# generated using pymatgen
data_GdS2
_symmetry_space_group_name_H-M   'P 1'
_cell_length_a   3.94468572
_cell_length_b   7.88629259
_cell_length_c   7.99413993
_cell_angle_alpha   89.93305970
_cell_angle_beta   90.00000000
_cell_angle_gamma   90.00000000
_symmetry_Int_Tables_number   1
_chemical_formula_structural   GdS2
_chemical_formula_sum   'Gd4 S8'
_cell_volume   248.68909564
_cell_formula_units_Z   4
loop_
 _symmetry_equiv_pos_site_id
 _symmetry_equiv_pos_as_xyz
  1  'x, y, z'
loop_
 _atom_site_type_symbol
 _atom_site_label
 _atom_site_symmetry_multiplicity
 _atom_site_fract_x
 _atom_site_fract_y
 _atom_site_fract_z
 _atom_site_occupancy
  Gd  Gd0  1  0.28549481  0.37067708  0.27585281  1
  Gd  Gd1  1  0.78549481  0.12932292  0.72414719  1
  Gd  Gd2  1  0.71450519  0.62932292  0.72414719  1
  Gd  Gd3  1  0.21450519  0.87067708  0.27585281  1
  S  S4  1  0.83797625  0.38983955  0.00274898  1
  S  S5  1  0.33797625  0.11016045  0.99725102  1
  S  S6  1  0.16202375  0.61016045  0.99725102  1
  S  S7  1  0.66202375  0.88983955  0.00274898  1
  S  S8  1  0.26052918  0.37485458  0.63256598  1
  S  S9  1  0.76052918  0.12514542  0.36743402  1
  S  S10  1  0.73947082  0.62514542  0.36743402  1
  S  S11  1  0.23947082  0.87485458  0.63256598  1
