# generated using pymatgen
data_YCoSn
_symmetry_space_group_name_H-M   'P 1'
_cell_length_a   4.53274325
_cell_length_b   7.16908942
_cell_length_c   7.52811729
_cell_angle_alpha   90.00000000
_cell_angle_beta   90.00000000
_cell_angle_gamma   90.00000000
_symmetry_Int_Tables_number   1
_chemical_formula_structural   YCoSn
_chemical_formula_sum   'Y4 Co4 Sn4'
_cell_volume   244.63100196
_cell_formula_units_Z   4
loop_
 _symmetry_equiv_pos_site_id
 _symmetry_equiv_pos_as_xyz
  1  'x, y, z'
loop_
 _atom_site_type_symbol
 _atom_site_label
 _atom_site_symmetry_multiplicity
 _atom_site_fract_x
 _atom_site_fract_y
 _atom_site_fract_z
 _atom_site_occupancy
  Y  Y0  1  0.75000000  0.51761147  0.70075668  1
  Y  Y1  1  0.75000000  0.01761147  0.79924332  1
  Y  Y2  1  0.25000000  0.48238853  0.29924332  1
  Y  Y3  1  0.25000000  0.98238853  0.20075668  1
  Co  Co4  1  0.75000000  0.31993021  0.07559060  1
  Co  Co5  1  0.75000000  0.81993021  0.42440940  1
  Co  Co6  1  0.25000000  0.68006979  0.92440940  1
  Co  Co7  1  0.25000000  0.18006979  0.57559060  1
  Sn  Sn8  1  0.75000000  0.69535896  0.09495003  1
  Sn  Sn9  1  0.75000000  0.19535896  0.40504997  1
  Sn  Sn10  1  0.25000000  0.30464104  0.90504997  1
  Sn  Sn11  1  0.25000000  0.80464104  0.59495003  1
