# generated using pymatgen
data_Ba2Ni5Ge4
_symmetry_space_group_name_H-M   'P 1'
_cell_length_a   4.04050180
_cell_length_b   6.58098922
_cell_length_c   8.84072371
_cell_angle_alpha   76.13944994
_cell_angle_beta   76.79025463
_cell_angle_gamma   72.12250258
_symmetry_Int_Tables_number   1
_chemical_formula_structural   Ba2Ni5Ge4
_chemical_formula_sum   'Ba2 Ni5 Ge4'
_cell_volume   214.13687229
_cell_formula_units_Z   1
loop_
 _symmetry_equiv_pos_site_id
 _symmetry_equiv_pos_as_xyz
  1  'x, y, z'
loop_
 _atom_site_type_symbol
 _atom_site_label
 _atom_site_symmetry_multiplicity
 _atom_site_fract_x
 _atom_site_fract_y
 _atom_site_fract_z
 _atom_site_occupancy
  Ba  Ba0  1  0.17768669  0.78957004  0.85505659  1
  Ba  Ba1  1  0.82231331  0.21042996  0.14494341  1
  Ni  Ni2  1  0.03486308  0.62750207  0.30277177  1
  Ni  Ni3  1  0.96513692  0.37249793  0.69722823  1
  Ni  Ni4  1  0.33605779  0.90356080  0.42432363  1
  Ni  Ni5  1  0.66394221  0.09643920  0.57567637  1
  Ni  Ni6  1  0.50000000  0.50000000  0.50000000  1
  Ge  Ge7  1  0.85797757  0.73219395  0.55185090  1
  Ge  Ge8  1  0.14202243  0.26780605  0.44814910  1
  Ge  Ge9  1  0.46836717  0.25469435  0.80857132  1
  Ge  Ge10  1  0.53163283  0.74530565  0.19142868  1
