# generated using pymatgen
data_Li9Mn2Co5O16
_symmetry_space_group_name_H-M   'P 1'
_cell_length_a   2.92211644
_cell_length_b   10.24195209
_cell_length_c   9.84664182
_cell_angle_alpha   99.54093155
_cell_angle_beta   90.00000000
_cell_angle_gamma   90.00000000
_symmetry_Int_Tables_number   1
_chemical_formula_structural   Li9Mn2Co5O16
_chemical_formula_sum   'Li9 Mn2 Co5 O16'
_cell_volume   290.61569030
_cell_formula_units_Z   1
loop_
 _symmetry_equiv_pos_site_id
 _symmetry_equiv_pos_as_xyz
  1  'x, y, z'
loop_
 _atom_site_type_symbol
 _atom_site_label
 _atom_site_symmetry_multiplicity
 _atom_site_fract_x
 _atom_site_fract_y
 _atom_site_fract_z
 _atom_site_occupancy
  Li  Li0  1  0.50000000  0.13048757  0.25002857  1
  Li  Li1  1  0.50000000  0.37561639  0.76172965  1
  Li  Li2  1  0.50000000  0.61108763  0.24420478  1
  Li  Li3  1  -0.00000000  0.38151241  0.25243763  1
  Li  Li4  1  -0.00000000  0.61946167  0.75355618  1
  Li  Li5  1  -0.00000000  0.87115684  0.25569462  1
  Li  Li6  1  0.50000000  0.87364442  0.73928363  1
  Li  Li7  1  -0.00000000  0.13528565  0.75277017  1
  Li  Li8  1  -0.00000000  0.50037190  0.99503381  1
  Mn  Mn9  1  -0.00000000  0.00012369  0.99772366  1
  Mn  Mn10  1  0.50000000  0.74180654  0.99737008  1
  Co  Co11  1  -0.00000000  0.25034941  0.50198771  1
  Co  Co12  1  -0.00000000  0.74924279  0.49737661  1
  Co  Co13  1  0.50000000  0.50030665  0.50213108  1
  Co  Co14  1  0.50000000  0.00038425  0.49902349  1
  Co  Co15  1  0.50000000  0.27605698  0.00883177  1
  O  O16  1  0.50000000  0.93601804  0.10529828  1
  O  O17  1  0.50000000  0.18691260  0.61455482  1
  O  O18  1  0.50000000  0.42818211  0.12739680  1
  O  O19  1  -0.00000000  0.16952020  0.10567878  1
  O  O20  1  -0.00000000  0.43955133  0.61545570  1
  O  O21  1  -0.00000000  0.69885729  0.11092521  1
  O  O22  1  0.50000000  0.69087736  0.61279736  1
  O  O23  1  -0.00000000  0.93809321  0.61342198  1
  O  O24  1  0.50000000  0.31072537  0.38793934  1
  O  O25  1  0.50000000  0.58375451  0.88465867  1
  O  O26  1  0.50000000  0.81110968  0.38207910  1
  O  O27  1  0.00000000  0.56192048  0.38629113  1
  O  O28  1  -0.00000000  0.81429439  0.89283370  1
  O  O29  1  -0.00000000  0.06038567  0.38406232  1
  O  O30  1  0.50000000  0.04573967  0.88571013  1
  O  O31  1  -0.00000000  0.30716331  0.88171324  1
