# generated using pymatgen
data_LuTc2
_symmetry_space_group_name_H-M   'P 1'
_cell_length_a   5.32754027
_cell_length_b   5.32815656
_cell_length_c   8.81170457
_cell_angle_alpha   90.00000000
_cell_angle_beta   90.00000000
_cell_angle_gamma   119.98741990
_symmetry_Int_Tables_number   1
_chemical_formula_structural   LuTc2
_chemical_formula_sum   'Lu4 Tc8'
_cell_volume   216.64532326
_cell_formula_units_Z   4
loop_
 _symmetry_equiv_pos_site_id
 _symmetry_equiv_pos_as_xyz
  1  'x, y, z'
loop_
 _atom_site_type_symbol
 _atom_site_label
 _atom_site_symmetry_multiplicity
 _atom_site_fract_x
 _atom_site_fract_y
 _atom_site_fract_z
 _atom_site_occupancy
  Lu  Lu0  1  0.66666873  0.33334924  0.56365830  1
  Lu  Lu1  1  0.33333127  0.66665076  0.43634170  1
  Lu  Lu2  1  0.33333127  0.66665076  0.06365830  1
  Lu  Lu3  1  0.66666873  0.33334924  0.93634170  1
  Tc  Tc4  1  -0.00000000  0.00000000  0.50000000  1
  Tc  Tc5  1  -0.00000000  0.00000000  -0.00000000  1
  Tc  Tc6  1  0.17210736  0.34422394  0.75000000  1
  Tc  Tc7  1  0.17209320  0.82788411  0.75000000  1
  Tc  Tc8  1  0.65582538  0.82791352  0.75000000  1
  Tc  Tc9  1  0.82789264  0.65577606  0.25000000  1
  Tc  Tc10  1  0.82790680  0.17211589  0.25000000  1
  Tc  Tc11  1  0.34417462  0.17208648  0.25000000  1
