# generated using pymatgen
data_UB4Os
_symmetry_space_group_name_H-M   'P 1'
_cell_length_a   3.54150811
_cell_length_b   5.96635530
_cell_length_c   5.96635530
_cell_angle_alpha   104.04771839
_cell_angle_beta   90.00000000
_cell_angle_gamma   90.00000000
_symmetry_Int_Tables_number   1
_chemical_formula_structural   UB4Os
_chemical_formula_sum   'U2 B8 Os2'
_cell_volume   122.29824979
_cell_formula_units_Z   2
loop_
 _symmetry_equiv_pos_site_id
 _symmetry_equiv_pos_as_xyz
  1  'x, y, z'
loop_
 _atom_site_type_symbol
 _atom_site_label
 _atom_site_symmetry_multiplicity
 _atom_site_fract_x
 _atom_site_fract_y
 _atom_site_fract_z
 _atom_site_occupancy
  U  U0  1  0.00000000  0.29972184  0.70027816  1
  U  U1  1  0.00000000  0.70027816  0.29972184  1
  B  B2  1  0.50000000  0.93558262  0.61600260  1
  B  B3  1  0.50000000  0.06441738  0.38399740  1
  B  B4  1  0.50000000  0.61600260  0.93558262  1
  B  B5  1  0.50000000  0.38399740  0.06441738  1
  B  B6  1  0.50000000  0.61982264  0.61982264  1
  B  B7  1  0.50000000  0.38017736  0.38017736  1
  B  B8  1  0.50000000  0.09290938  0.90709062  1
  B  B9  1  0.50000000  0.90709062  0.09290938  1
  Os  Os10  1  -0.00000000  0.81115213  0.81115213  1
  Os  Os11  1  0.00000000  0.18884787  0.18884787  1
