# generated using pymatgen
data_SrCdAu
_symmetry_space_group_name_H-M   'P 1'
_cell_length_a   4.56985428
_cell_length_b   7.91869041
_cell_length_c   9.02089054
_cell_angle_alpha   90.00000000
_cell_angle_beta   90.00000000
_cell_angle_gamma   90.00000000
_symmetry_Int_Tables_number   1
_chemical_formula_structural   SrCdAu
_chemical_formula_sum   'Sr4 Cd4 Au4'
_cell_volume   326.44132279
_cell_formula_units_Z   4
loop_
 _symmetry_equiv_pos_site_id
 _symmetry_equiv_pos_as_xyz
  1  'x, y, z'
loop_
 _atom_site_type_symbol
 _atom_site_label
 _atom_site_symmetry_multiplicity
 _atom_site_fract_x
 _atom_site_fract_y
 _atom_site_fract_z
 _atom_site_occupancy
  Sr  Sr0  1  0.75000000  0.46617007  0.18431996  1
  Sr  Sr1  1  0.75000000  0.96617007  0.31568004  1
  Sr  Sr2  1  0.25000000  0.53382993  0.81568004  1
  Sr  Sr3  1  0.25000000  0.03382993  0.68431996  1
  Cd  Cd4  1  0.75000000  0.35462052  0.56361909  1
  Cd  Cd5  1  0.75000000  0.85462052  0.93638091  1
  Cd  Cd6  1  0.25000000  0.64537948  0.43638091  1
  Cd  Cd7  1  0.25000000  0.14537948  0.06361909  1
  Au  Au8  1  0.75000000  0.23563860  0.87596156  1
  Au  Au9  1  0.75000000  0.73563860  0.62403844  1
  Au  Au10  1  0.25000000  0.76436140  0.12403844  1
  Au  Au11  1  0.25000000  0.26436140  0.37596156  1
