# generated using pymatgen
data_TaCoGe
_symmetry_space_group_name_H-M   'P 1'
_cell_length_a   3.74312180
_cell_length_b   6.32793635
_cell_length_c   7.16439873
_cell_angle_alpha   90.00000000
_cell_angle_beta   90.00000000
_cell_angle_gamma   90.00000000
_symmetry_Int_Tables_number   1
_chemical_formula_structural   TaCoGe
_chemical_formula_sum   'Ta4 Co4 Ge4'
_cell_volume   169.69764270
_cell_formula_units_Z   4
loop_
 _symmetry_equiv_pos_site_id
 _symmetry_equiv_pos_as_xyz
  1  'x, y, z'
loop_
 _atom_site_type_symbol
 _atom_site_label
 _atom_site_symmetry_multiplicity
 _atom_site_fract_x
 _atom_site_fract_y
 _atom_site_fract_z
 _atom_site_occupancy
  Ta  Ta0  1  0.75000000  0.47958114  0.31896383  1
  Ta  Ta1  1  0.75000000  0.97958114  0.18103617  1
  Ta  Ta2  1  0.25000000  0.52041886  0.68103617  1
  Ta  Ta3  1  0.25000000  0.02041886  0.81896383  1
  Co  Co4  1  0.75000000  0.35766990  0.93619299  1
  Co  Co5  1  0.75000000  0.85766990  0.56380701  1
  Co  Co6  1  0.25000000  0.64233010  0.06380701  1
  Co  Co7  1  0.25000000  0.14233010  0.43619299  1
  Ge  Ge8  1  0.75000000  0.72828955  0.88057779  1
  Ge  Ge9  1  0.75000000  0.22828955  0.61942221  1
  Ge  Ge10  1  0.25000000  0.27171045  0.11942221  1
  Ge  Ge11  1  0.25000000  0.77171045  0.38057779  1
