# generated using pymatgen
data_Eu2In
_symmetry_space_group_name_H-M   'P 1'
_cell_length_a   5.48147549
_cell_length_b   7.31385891
_cell_length_c   10.20612818
_cell_angle_alpha   90.00000000
_cell_angle_beta   90.00000000
_cell_angle_gamma   90.00000000
_symmetry_Int_Tables_number   1
_chemical_formula_structural   Eu2In
_chemical_formula_sum   'Eu8 In4'
_cell_volume   409.17121446
_cell_formula_units_Z   4
loop_
 _symmetry_equiv_pos_site_id
 _symmetry_equiv_pos_as_xyz
  1  'x, y, z'
loop_
 _atom_site_type_symbol
 _atom_site_label
 _atom_site_symmetry_multiplicity
 _atom_site_fract_x
 _atom_site_fract_y
 _atom_site_fract_z
 _atom_site_occupancy
  Eu  Eu0  1  0.75000000  0.47013373  0.20227352  1
  Eu  Eu1  1  0.75000000  0.97013373  0.29772648  1
  Eu  Eu2  1  0.25000000  0.52986627  0.79772648  1
  Eu  Eu3  1  0.25000000  0.02986627  0.70227352  1
  Eu  Eu4  1  0.75000000  0.32101189  0.57029194  1
  Eu  Eu5  1  0.75000000  0.82101189  0.92970806  1
  Eu  Eu6  1  0.25000000  0.67898811  0.42970806  1
  Eu  Eu7  1  0.25000000  0.17898811  0.07029194  1
  In  In8  1  0.75000000  0.27680408  0.89357888  1
  In  In9  1  0.75000000  0.77680408  0.60642112  1
  In  In10  1  0.25000000  0.72319592  0.10642112  1
  In  In11  1  0.25000000  0.22319592  0.39357888  1
