# generated using pymatgen
data_Ti3GeC2
_symmetry_space_group_name_H-M   'P 1'
_cell_length_a   3.09617506
_cell_length_b   3.09617506
_cell_length_c   17.90401478
_cell_angle_alpha   90.00000000
_cell_angle_beta   90.00000000
_cell_angle_gamma   120.01154652
_symmetry_Int_Tables_number   1
_chemical_formula_structural   Ti3GeC2
_chemical_formula_sum   'Ti6 Ge2 C4'
_cell_volume   148.62146321
_cell_formula_units_Z   2
loop_
 _symmetry_equiv_pos_site_id
 _symmetry_equiv_pos_as_xyz
  1  'x, y, z'
loop_
 _atom_site_type_symbol
 _atom_site_label
 _atom_site_symmetry_multiplicity
 _atom_site_fract_x
 _atom_site_fract_y
 _atom_site_fract_z
 _atom_site_occupancy
  Ti  Ti0  1  0.66670203  0.33329797  0.63249296  1
  Ti  Ti1  1  0.33329797  0.66670203  0.36750704  1
  Ti  Ti2  1  0.33329797  0.66670203  0.13249296  1
  Ti  Ti3  1  0.66670203  0.33329797  0.86750704  1
  Ti  Ti4  1  -0.00000000  0.00000000  0.50000000  1
  Ti  Ti5  1  -0.00000000  0.00000000  0.00000000  1
  Ge  Ge6  1  0.99999428  0.00000572  0.75000000  1
  Ge  Ge7  1  0.00000572  0.99999428  0.25000000  1
  C  C8  1  0.66667197  0.33332803  0.07174391  1
  C  C9  1  0.33332803  0.66667197  0.92825609  1
  C  C10  1  0.33332803  0.66667197  0.57174391  1
  C  C11  1  0.66667197  0.33332803  0.42825609  1
