# generated using pymatgen
data_TmSiPt
_symmetry_space_group_name_H-M   'P 1'
_cell_length_a   4.27097377
_cell_length_b   6.92226652
_cell_length_c   7.42988190
_cell_angle_alpha   90.00000000
_cell_angle_beta   90.00000000
_cell_angle_gamma   90.00000000
_symmetry_Int_Tables_number   1
_chemical_formula_structural   TmSiPt
_chemical_formula_sum   'Tm4 Si4 Pt4'
_cell_volume   219.66311160
_cell_formula_units_Z   4
loop_
 _symmetry_equiv_pos_site_id
 _symmetry_equiv_pos_as_xyz
  1  'x, y, z'
loop_
 _atom_site_type_symbol
 _atom_site_label
 _atom_site_symmetry_multiplicity
 _atom_site_fract_x
 _atom_site_fract_y
 _atom_site_fract_z
 _atom_site_occupancy
  Tm  Tm0  1  0.75000000  0.00256422  0.79983713  1
  Tm  Tm1  1  0.75000000  0.50256422  0.70016287  1
  Tm  Tm2  1  0.25000000  0.99743578  0.20016287  1
  Tm  Tm3  1  0.25000000  0.49743578  0.29983713  1
  Si  Si4  1  0.75000000  0.68536465  0.08826393  1
  Si  Si5  1  0.75000000  0.18536465  0.41173607  1
  Si  Si6  1  0.25000000  0.31463535  0.91173607  1
  Si  Si7  1  0.25000000  0.81463535  0.58826393  1
  Pt  Pt8  1  0.75000000  0.29814577  0.08576092  1
  Pt  Pt9  1  0.75000000  0.79814577  0.41423908  1
  Pt  Pt10  1  0.25000000  0.70185423  0.91423908  1
  Pt  Pt11  1  0.25000000  0.20185423  0.58576092  1
