# generated using pymatgen
data_Li9Mn2Co5O16
_symmetry_space_group_name_H-M   'P 1'
_cell_length_a   2.90546996
_cell_length_b   10.26756180
_cell_length_c   10.34209662
_cell_angle_alpha   69.93605552
_cell_angle_beta   90.00000000
_cell_angle_gamma   90.00000000
_symmetry_Int_Tables_number   1
_chemical_formula_structural   Li9Mn2Co5O16
_chemical_formula_sum   'Li9 Mn2 Co5 O16'
_cell_volume   289.80201669
_cell_formula_units_Z   1
loop_
 _symmetry_equiv_pos_site_id
 _symmetry_equiv_pos_as_xyz
  1  'x, y, z'
loop_
 _atom_site_type_symbol
 _atom_site_label
 _atom_site_symmetry_multiplicity
 _atom_site_fract_x
 _atom_site_fract_y
 _atom_site_fract_z
 _atom_site_occupancy
  Li  Li0  1  0.50000000  0.00830271  0.24348385  1
  Li  Li1  1  0.50000000  0.00078443  0.75322251  1
  Li  Li2  1  -0.00000000  0.25693168  0.24784437  1
  Li  Li3  1  -0.00000000  0.25354430  0.75380484  1
  Li  Li4  1  0.50000000  0.49571391  0.23446990  1
  Li  Li5  1  0.50000000  0.49667623  0.76781095  1
  Li  Li6  1  -0.00000000  0.74562725  0.24360000  1
  Li  Li7  1  -0.00000000  0.74500328  0.75598110  1
  Li  Li8  1  -0.00000000  0.49931946  0.00003691  1
  Mn  Mn9  1  0.00000000  -0.00022109  0.00025757  1
  Mn  Mn10  1  0.50000000  0.75019545  0.49820457  1
  Co  Co11  1  -0.00000000  0.00242216  0.49959987  1
  Co  Co12  1  0.50000000  0.26777922  0.00714424  1
  Co  Co13  1  0.50000000  0.24698519  0.50185840  1
  Co  Co14  1  -0.00000000  0.49546105  0.49959151  1
  Co  Co15  1  0.50000000  0.73195942  0.99267533  1
  O  O16  1  0.50000000  0.89072973  0.11267302  1
  O  O17  1  0.50000000  0.87433515  0.60537852  1
  O  O18  1  -0.00000000  0.12313162  0.10710899  1
  O  O19  1  -0.00000000  0.13382239  0.62027873  1
  O  O20  1  0.50000000  0.36355957  0.12225076  1
  O  O21  1  0.50000000  0.38493090  0.61291181  1
  O  O22  1  -0.00000000  0.63635236  0.11804104  1
  O  O23  1  -0.00000000  0.63919989  0.60919436  1
  O  O24  1  0.50000000  0.12009894  0.38665412  1
  O  O25  1  0.50000000  0.10881399  0.88938852  1
  O  O26  1  -0.00000000  0.37074480  0.38649115  1
  O  O27  1  -0.00000000  0.36379483  0.88184171  1
  O  O28  1  0.50000000  0.62470004  0.39267271  1
  O  O29  1  0.50000000  0.63645692  0.87663613  1
  O  O30  1  -0.00000000  0.85744096  0.38573720  1
  O  O31  1  0.00000000  0.87540325  0.89315533  1
