# generated using pymatgen
data_Er5S7
_symmetry_space_group_name_H-M   'P 1'
_cell_length_a   3.77309917
_cell_length_b   6.62900649
_cell_length_c   11.52492128
_cell_angle_alpha   104.04896271
_cell_angle_beta   90.00000000
_cell_angle_gamma   106.53434326
_symmetry_Int_Tables_number   1
_chemical_formula_structural   Er5S7
_chemical_formula_sum   'Er5 S7'
_cell_volume   267.33398916
_cell_formula_units_Z   1
loop_
 _symmetry_equiv_pos_site_id
 _symmetry_equiv_pos_as_xyz
  1  'x, y, z'
loop_
 _atom_site_type_symbol
 _atom_site_label
 _atom_site_symmetry_multiplicity
 _atom_site_fract_x
 _atom_site_fract_y
 _atom_site_fract_z
 _atom_site_occupancy
  Er  Er0  1  0.00000000  0.00000000  0.00000000  1
  Er  Er1  1  0.11231302  0.22462605  0.42209591  1
  Er  Er2  1  0.88768698  0.77537395  0.57790409  1
  Er  Er3  1  0.30123253  0.60246505  0.18914597  1
  Er  Er4  1  0.69876747  0.39753495  0.81085403  1
  S  S5  1  0.50000000  0.00000000  0.50000000  1
  S  S6  1  0.65965052  0.31930105  0.05157125  1
  S  S7  1  0.34034948  0.68069895  0.94842875  1
  S  S8  1  0.95965225  0.91930450  0.21538050  1
  S  S9  1  0.04034775  0.08069550  0.78461950  1
  S  S10  1  0.25939788  0.51879576  0.64733233  1
  S  S11  1  0.74060212  0.48120424  0.35266767  1
