# generated using pymatgen
data_YZnPd
_symmetry_space_group_name_H-M   'P 1'
_cell_length_a   4.12520650
_cell_length_b   7.08432550
_cell_length_c   8.17085355
_cell_angle_alpha   90.00000000
_cell_angle_beta   90.00000000
_cell_angle_gamma   90.00000000
_symmetry_Int_Tables_number   1
_chemical_formula_structural   YZnPd
_chemical_formula_sum   'Y4 Zn4 Pd4'
_cell_volume   238.78752116
_cell_formula_units_Z   4
loop_
 _symmetry_equiv_pos_site_id
 _symmetry_equiv_pos_as_xyz
  1  'x, y, z'
loop_
 _atom_site_type_symbol
 _atom_site_label
 _atom_site_symmetry_multiplicity
 _atom_site_fract_x
 _atom_site_fract_y
 _atom_site_fract_z
 _atom_site_occupancy
  Y  Y0  1  0.75000000  0.45347322  0.18951750  1
  Y  Y1  1  0.75000000  0.95347322  0.31048250  1
  Y  Y2  1  0.25000000  0.54652678  0.81048250  1
  Y  Y3  1  0.25000000  0.04652678  0.68951750  1
  Zn  Zn4  1  0.75000000  0.86555099  0.93531586  1
  Zn  Zn5  1  0.75000000  0.36555099  0.56468414  1
  Zn  Zn6  1  0.25000000  0.13444901  0.06468414  1
  Zn  Zn7  1  0.25000000  0.63444901  0.43531586  1
  Pd  Pd8  1  0.75000000  0.24922525  0.88019964  1
  Pd  Pd9  1  0.75000000  0.74922525  0.61980036  1
  Pd  Pd10  1  0.25000000  0.75077475  0.11980036  1
  Pd  Pd11  1  0.25000000  0.25077475  0.38019964  1
