# generated using pymatgen
data_VSiNi
_symmetry_space_group_name_H-M   'P 1'
_cell_length_a   3.54157101
_cell_length_b   5.97488827
_cell_length_c   6.92219986
_cell_angle_alpha   90.00000000
_cell_angle_beta   90.00000000
_cell_angle_gamma   90.00000000
_symmetry_Int_Tables_number   1
_chemical_formula_structural   VSiNi
_chemical_formula_sum   'V4 Si4 Ni4'
_cell_volume   146.47714843
_cell_formula_units_Z   4
loop_
 _symmetry_equiv_pos_site_id
 _symmetry_equiv_pos_as_xyz
  1  'x, y, z'
loop_
 _atom_site_type_symbol
 _atom_site_label
 _atom_site_symmetry_multiplicity
 _atom_site_fract_x
 _atom_site_fract_y
 _atom_site_fract_z
 _atom_site_occupancy
  V  V0  1  0.75000000  0.47325519  0.16683384  1
  V  V1  1  0.75000000  0.97325519  0.33316616  1
  V  V2  1  0.25000000  0.52674481  0.83316616  1
  V  V3  1  0.25000000  0.02674481  0.66683384  1
  Si  Si4  1  0.75000000  0.23069281  0.87083049  1
  Si  Si5  1  0.75000000  0.73069281  0.62916951  1
  Si  Si6  1  0.25000000  0.76930719  0.12916951  1
  Si  Si7  1  0.25000000  0.26930719  0.37083049  1
  Ni  Ni8  1  0.75000000  0.35329649  0.56061201  1
  Ni  Ni9  1  0.75000000  0.85329649  0.93938799  1
  Ni  Ni10  1  0.25000000  0.64670351  0.43938799  1
  Ni  Ni11  1  0.25000000  0.14670351  0.06061201  1
