# generated using pymatgen
data_ScGaPd
_symmetry_space_group_name_H-M   'P 1'
_cell_length_a   4.29780805
_cell_length_b   6.46765499
_cell_length_c   7.66184735
_cell_angle_alpha   90.00000000
_cell_angle_beta   90.00000000
_cell_angle_gamma   90.00000000
_symmetry_Int_Tables_number   1
_chemical_formula_structural   ScGaPd
_chemical_formula_sum   'Sc4 Ga4 Pd4'
_cell_volume   212.97437626
_cell_formula_units_Z   4
loop_
 _symmetry_equiv_pos_site_id
 _symmetry_equiv_pos_as_xyz
  1  'x, y, z'
loop_
 _atom_site_type_symbol
 _atom_site_label
 _atom_site_symmetry_multiplicity
 _atom_site_fract_x
 _atom_site_fract_y
 _atom_site_fract_z
 _atom_site_occupancy
  Sc  Sc0  1  0.75000000  0.48239020  0.20103776  1
  Sc  Sc1  1  0.75000000  0.98239020  0.29896224  1
  Sc  Sc2  1  0.25000000  0.51760980  0.79896224  1
  Sc  Sc3  1  0.25000000  0.01760980  0.70103776  1
  Ga  Ga4  1  0.75000000  0.22527960  0.89094022  1
  Ga  Ga5  1  0.75000000  0.72527960  0.60905978  1
  Ga  Ga6  1  0.25000000  0.77472040  0.10905978  1
  Ga  Ga7  1  0.25000000  0.27472040  0.39094022  1
  Pd  Pd8  1  0.75000000  0.32527727  0.56634361  1
  Pd  Pd9  1  0.75000000  0.82527727  0.93365639  1
  Pd  Pd10  1  0.25000000  0.67472273  0.43365639  1
  Pd  Pd11  1  0.25000000  0.17472273  0.06634361  1
