# generated using pymatgen
data_GdGeRh
_symmetry_space_group_name_H-M   'P 1'
_cell_length_a   4.36117263
_cell_length_b   7.00400325
_cell_length_c   7.59476464
_cell_angle_alpha   90.00000000
_cell_angle_beta   90.00000000
_cell_angle_gamma   90.00000000
_symmetry_Int_Tables_number   1
_chemical_formula_structural   GdGeRh
_chemical_formula_sum   'Gd4 Ge4 Rh4'
_cell_volume   231.98715372
_cell_formula_units_Z   4
loop_
 _symmetry_equiv_pos_site_id
 _symmetry_equiv_pos_as_xyz
  1  'x, y, z'
loop_
 _atom_site_type_symbol
 _atom_site_label
 _atom_site_symmetry_multiplicity
 _atom_site_fract_x
 _atom_site_fract_y
 _atom_site_fract_z
 _atom_site_occupancy
  Gd  Gd0  1  0.75000000  0.99871014  0.80149814  1
  Gd  Gd1  1  0.75000000  0.49871014  0.69850186  1
  Gd  Gd2  1  0.25000000  0.00128986  0.19850186  1
  Gd  Gd3  1  0.25000000  0.50128986  0.30149814  1
  Ge  Ge4  1  0.75000000  0.71124289  0.09943758  1
  Ge  Ge5  1  0.75000000  0.21124289  0.40056242  1
  Ge  Ge6  1  0.25000000  0.28875711  0.90056242  1
  Ge  Ge7  1  0.25000000  0.78875711  0.59943758  1
  Rh  Rh8  1  0.75000000  0.34002942  0.07205793  1
  Rh  Rh9  1  0.75000000  0.84002942  0.42794207  1
  Rh  Rh10  1  0.25000000  0.65997058  0.92794207  1
  Rh  Rh11  1  0.25000000  0.15997058  0.57205793  1
