# generated using pymatgen
data_Li9Mn2Co5O16
_symmetry_space_group_name_H-M   'P 1'
_cell_length_a   2.89030194
_cell_length_b   16.77937758
_cell_length_c   5.88782022
_cell_angle_alpha   89.60379588
_cell_angle_beta   90.00000000
_cell_angle_gamma   90.00000000
_symmetry_Int_Tables_number   1
_chemical_formula_structural   Li9Mn2Co5O16
_chemical_formula_sum   'Li9 Mn2 Co5 O16'
_cell_volume   285.53754318
_cell_formula_units_Z   1
loop_
 _symmetry_equiv_pos_site_id
 _symmetry_equiv_pos_as_xyz
  1  'x, y, z'
loop_
 _atom_site_type_symbol
 _atom_site_label
 _atom_site_symmetry_multiplicity
 _atom_site_fract_x
 _atom_site_fract_y
 _atom_site_fract_z
 _atom_site_occupancy
  Li  Li0  1  0.50000000  0.12421957  0.24381721  1
  Li  Li1  1  0.50000000  0.37111647  0.74703136  1
  Li  Li2  1  0.50000000  0.62591042  0.25029667  1
  Li  Li3  1  0.00000000  0.24113570  0.99288070  1
  Li  Li4  1  0.00000000  0.49970502  0.50477917  1
  Li  Li5  1  0.00000000  0.75035369  0.99753801  1
  Li  Li6  1  0.50000000  0.87647841  0.75012240  1
  Li  Li7  1  0.00000000  0.00983482  0.50543735  1
  Li  Li8  1  0.50000000  0.12527212  0.75602293  1
  Mn  Mn9  1  0.00000000  0.00594850  0.99603041  1
  Mn  Mn10  1  0.50000000  0.37370722  0.25430981  1
  Co  Co11  1  0.00000000  0.23573743  0.51233775  1
  Co  Co12  1  0.00000000  0.49954565  0.99312216  1
  Co  Co13  1  0.00000000  0.75237581  0.50299863  1
  Co  Co14  1  0.50000000  0.62464937  0.75006704  1
  Co  Co15  1  0.50000000  0.87582387  0.24920738  1
  O  O16  1  0.50000000  -0.00120352  0.22561178  1
  O  O17  1  0.50000000  0.25197460  0.73252562  1
  O  O18  1  0.50000000  0.49283041  0.23866815  1
  O  O19  1  0.00000000  0.11427217  0.99946776  1
  O  O20  1  0.00000000  0.37575463  0.47180156  1
  O  O21  1  0.00000000  0.62251922  0.97336282  1
  O  O22  1  0.50000000  0.75188347  0.73252136  1
  O  O23  1  0.00000000  0.87392883  0.48190558  1
  O  O24  1  0.50000000  0.26016682  0.26699595  1
  O  O25  1  0.50000000  0.49897313  0.75831643  1
  O  O26  1  0.50000000  0.75132447  0.26357873  1
  O  O27  1  0.00000000  0.37554496  0.03054306  1
  O  O28  1  0.00000000  0.62847497  0.52784036  1
  O  O29  1  0.00000000  0.88280932  0.01761521  1
  O  O30  1  0.50000000  0.99888872  0.77886559  1
  O  O31  1  0.00000000  0.13004373  0.49438104  1
