# generated using pymatgen
data_TaCoP
_symmetry_space_group_name_H-M   'P 1'
_cell_length_a   3.60747740
_cell_length_b   6.12571865
_cell_length_c   6.95504137
_cell_angle_alpha   90.00000000
_cell_angle_beta   90.00000000
_cell_angle_gamma   90.00000000
_symmetry_Int_Tables_number   1
_chemical_formula_structural   TaCoP
_chemical_formula_sum   'Ta4 Co4 P4'
_cell_volume   153.69522771
_cell_formula_units_Z   4
loop_
 _symmetry_equiv_pos_site_id
 _symmetry_equiv_pos_as_xyz
  1  'x, y, z'
loop_
 _atom_site_type_symbol
 _atom_site_label
 _atom_site_symmetry_multiplicity
 _atom_site_fract_x
 _atom_site_fract_y
 _atom_site_fract_z
 _atom_site_occupancy
  Ta  Ta0  1  0.75000000  0.47376043  0.67288156  1
  Ta  Ta1  1  0.75000000  0.97376043  0.82711844  1
  Ta  Ta2  1  0.25000000  0.52623957  0.32711844  1
  Ta  Ta3  1  0.25000000  0.02623957  0.17288156  1
  Co  Co4  1  0.75000000  0.35155179  0.06256208  1
  Co  Co5  1  0.75000000  0.85155179  0.43743792  1
  Co  Co6  1  0.25000000  0.64844821  0.93743792  1
  Co  Co7  1  0.25000000  0.14844821  0.56256208  1
  P  P8  1  0.75000000  0.22214619  0.37866997  1
  P  P9  1  0.75000000  0.72214619  0.12133003  1
  P  P10  1  0.25000000  0.77785381  0.62133003  1
  P  P11  1  0.25000000  0.27785381  0.87866997  1
