# generated using pymatgen
data_YGa4Ni
_symmetry_space_group_name_H-M   'P 1'
_cell_length_a   4.11895837
_cell_length_b   6.57260032
_cell_length_c   7.89082873
_cell_angle_alpha   90.00000000
_cell_angle_beta   105.12920297
_cell_angle_gamma   90.00000000
_symmetry_Int_Tables_number   1
_chemical_formula_structural   YGa4Ni
_chemical_formula_sum   'Y2 Ga8 Ni2'
_cell_volume   206.21840508
_cell_formula_units_Z   2
loop_
 _symmetry_equiv_pos_site_id
 _symmetry_equiv_pos_as_xyz
  1  'x, y, z'
loop_
 _atom_site_type_symbol
 _atom_site_label
 _atom_site_symmetry_multiplicity
 _atom_site_fract_x
 _atom_site_fract_y
 _atom_site_fract_z
 _atom_site_occupancy
  Y  Y0  1  0.88126674  0.75000000  0.76253347  1
  Y  Y1  1  0.11873326  0.25000000  0.23746653  1
  Ga  Ga2  1  0.50000000  0.50000000  0.00000000  1
  Ga  Ga3  1  0.50000000  0.00000000  0.00000000  1
  Ga  Ga4  1  0.07192608  0.75000000  0.14385217  1
  Ga  Ga5  1  0.92807392  0.25000000  0.85614783  1
  Ga  Ga6  1  0.68509591  0.55154638  0.37019183  1
  Ga  Ga7  1  0.31490409  0.44845362  0.62980817  1
  Ga  Ga8  1  0.68509591  0.94845362  0.37019183  1
  Ga  Ga9  1  0.31490409  0.05154638  0.62980817  1
  Ni  Ni10  1  0.22551509  0.75000000  0.45103018  1
  Ni  Ni11  1  0.77448491  0.25000000  0.54896982  1
