# generated using pymatgen
data_Ho(Ge2Rh3)2
_symmetry_space_group_name_H-M   'P 1'
_cell_length_a   3.84323579
_cell_length_b   7.22756740
_cell_length_c   7.22756740
_cell_angle_alpha   119.99999492
_cell_angle_beta   90.00000000
_cell_angle_gamma   90.00000000
_symmetry_Int_Tables_number   1
_chemical_formula_structural   Ho(Ge2Rh3)2
_chemical_formula_sum   'Ho1 Ge4 Rh6'
_cell_volume   173.86492810
_cell_formula_units_Z   1
loop_
 _symmetry_equiv_pos_site_id
 _symmetry_equiv_pos_as_xyz
  1  'x, y, z'
loop_
 _atom_site_type_symbol
 _atom_site_label
 _atom_site_symmetry_multiplicity
 _atom_site_fract_x
 _atom_site_fract_y
 _atom_site_fract_z
 _atom_site_occupancy
  Ho  Ho0  1  0.00000000  0.00000000  0.00000000  1
  Ge  Ge1  1  0.50000000  0.80364983  0.19635017  1
  Ge  Ge2  1  0.50000000  0.39270034  0.19635017  1
  Ge  Ge3  1  0.50000000  0.80364983  0.60729966  1
  Ge  Ge4  1  0.00000000  0.33333300  0.66666700  1
  Rh  Rh5  1  -0.00000000  0.53351713  0.46648287  1
  Rh  Rh6  1  0.00000000  0.93296574  0.46648287  1
  Rh  Rh7  1  0.00000000  0.53351713  0.06703426  1
  Rh  Rh8  1  0.50000000  0.19833619  0.80166381  1
  Rh  Rh9  1  0.50000000  0.60332762  0.80166381  1
  Rh  Rh10  1  0.50000000  0.19833619  0.39667238  1
