# generated using pymatgen
data_La(Ge2Rh3)2
_symmetry_space_group_name_H-M   'P 1'
_cell_length_a   3.92158436
_cell_length_b   7.24585112
_cell_length_c   7.24585112
_cell_angle_alpha   120.00000416
_cell_angle_beta   90.00000000
_cell_angle_gamma   90.00000000
_symmetry_Int_Tables_number   1
_chemical_formula_structural   La(Ge2Rh3)2
_chemical_formula_sum   'La1 Ge4 Rh6'
_cell_volume   178.30806522
_cell_formula_units_Z   1
loop_
 _symmetry_equiv_pos_site_id
 _symmetry_equiv_pos_as_xyz
  1  'x, y, z'
loop_
 _atom_site_type_symbol
 _atom_site_label
 _atom_site_symmetry_multiplicity
 _atom_site_fract_x
 _atom_site_fract_y
 _atom_site_fract_z
 _atom_site_occupancy
  La  La0  1  0.00000000  0.00000000  0.00000000  1
  Ge  Ge1  1  0.00000000  0.33333300  0.66666700  1
  Ge  Ge2  1  0.50000000  0.80058109  0.19941891  1
  Ge  Ge3  1  0.50000000  0.39883782  0.19941891  1
  Ge  Ge4  1  0.50000000  0.80058109  0.60116218  1
  Rh  Rh5  1  0.00000000  0.53309391  0.46690609  1
  Rh  Rh6  1  -0.00000000  0.93381218  0.46690609  1
  Rh  Rh7  1  -0.00000000  0.53309391  0.06618782  1
  Rh  Rh8  1  0.50000000  0.20106882  0.79893118  1
  Rh  Rh9  1  0.50000000  0.59786235  0.79893118  1
  Rh  Rh10  1  0.50000000  0.20106882  0.40213765  1
