# generated using pymatgen
data_YbNi3
_symmetry_space_group_name_H-M   'P 1'
_cell_length_a   8.57502009
_cell_length_b   8.57502009
_cell_length_c   8.57502010
_cell_angle_alpha   32.87369834
_cell_angle_beta   32.87369834
_cell_angle_gamma   32.87369825
_symmetry_Int_Tables_number   1
_chemical_formula_structural   YbNi3
_chemical_formula_sum   'Yb3 Ni9'
_cell_volume   165.28243947
_cell_formula_units_Z   3
loop_
 _symmetry_equiv_pos_site_id
 _symmetry_equiv_pos_as_xyz
  1  'x, y, z'
loop_
 _atom_site_type_symbol
 _atom_site_label
 _atom_site_symmetry_multiplicity
 _atom_site_fract_x
 _atom_site_fract_y
 _atom_site_fract_z
 _atom_site_occupancy
  Yb  Yb0  1  0.85904128  0.85904128  0.85904128  1
  Yb  Yb1  1  0.14095872  0.14095872  0.14095872  1
  Yb  Yb2  1  -0.00000000  -0.00000000  -0.00000000  1
  Ni  Ni3  1  0.91788249  0.41756781  0.41756781  1
  Ni  Ni4  1  0.41756781  0.41756781  0.91788249  1
  Ni  Ni5  1  0.41756781  0.91788249  0.41756781  1
  Ni  Ni6  1  0.08211751  0.58243219  0.58243219  1
  Ni  Ni7  1  0.58243219  0.58243219  0.08211751  1
  Ni  Ni8  1  0.58243219  0.08211751  0.58243219  1
  Ni  Ni9  1  0.66750616  0.66750616  0.66750616  1
  Ni  Ni10  1  0.33249384  0.33249384  0.33249384  1
  Ni  Ni11  1  0.50000000  0.50000000  0.50000000  1
