# generated using pymatgen
data_TmAlPt
_symmetry_space_group_name_H-M   'P 1'
_cell_length_a   4.40427565
_cell_length_b   6.81451051
_cell_length_c   7.70976471
_cell_angle_alpha   90.00000000
_cell_angle_beta   90.00000000
_cell_angle_gamma   90.00000000
_symmetry_Int_Tables_number   1
_chemical_formula_structural   TmAlPt
_chemical_formula_sum   'Tm4 Al4 Pt4'
_cell_volume   231.39303491
_cell_formula_units_Z   4
loop_
 _symmetry_equiv_pos_site_id
 _symmetry_equiv_pos_as_xyz
  1  'x, y, z'
loop_
 _atom_site_type_symbol
 _atom_site_label
 _atom_site_symmetry_multiplicity
 _atom_site_fract_x
 _atom_site_fract_y
 _atom_site_fract_z
 _atom_site_occupancy
  Tm  Tm0  1  0.75000000  0.47167779  0.81668834  1
  Tm  Tm1  1  0.75000000  0.97167779  0.68331166  1
  Tm  Tm2  1  0.25000000  0.52832221  0.18331166  1
  Tm  Tm3  1  0.25000000  0.02832221  0.31668834  1
  Al  Al4  1  0.75000000  0.34998760  0.43499058  1
  Al  Al5  1  0.75000000  0.84998760  0.06500942  1
  Al  Al6  1  0.25000000  0.65001240  0.56500942  1
  Al  Al7  1  0.25000000  0.15001240  0.93499058  1
  Pt  Pt8  1  0.75000000  0.22696444  0.11405213  1
  Pt  Pt9  1  0.75000000  0.72696444  0.38594787  1
  Pt  Pt10  1  0.25000000  0.77303556  0.88594787  1
  Pt  Pt11  1  0.25000000  0.27303556  0.61405213  1
