# generated using pymatgen
data_NdNi3
_symmetry_space_group_name_H-M   'P 1'
_cell_length_a   5.00177324
_cell_length_b   5.00177324
_cell_length_c   8.76153789
_cell_angle_alpha   73.41489551
_cell_angle_beta   73.41489551
_cell_angle_gamma   59.99999662
_symmetry_Int_Tables_number   1
_chemical_formula_structural   NdNi3
_chemical_formula_sum   'Nd3 Ni9'
_cell_volume   179.22020717
_cell_formula_units_Z   3
loop_
 _symmetry_equiv_pos_site_id
 _symmetry_equiv_pos_as_xyz
  1  'x, y, z'
loop_
 _atom_site_type_symbol
 _atom_site_label
 _atom_site_symmetry_multiplicity
 _atom_site_fract_x
 _atom_site_fract_y
 _atom_site_fract_z
 _atom_site_occupancy
  Nd  Nd0  1  0.13927784  0.13927784  0.58216649  1
  Nd  Nd1  1  0.86072216  0.86072216  0.41783351  1
  Nd  Nd2  1  -0.00000000  0.00000000  -0.00000000  1
  Ni  Ni3  1  0.08329409  0.57996687  0.75677217  1
  Ni  Ni4  1  0.57996687  0.57996687  0.75677217  1
  Ni  Ni5  1  0.57996687  0.08329409  0.75677217  1
  Ni  Ni6  1  0.91670591  0.42003313  0.24322783  1
  Ni  Ni7  1  0.42003313  0.42003313  0.24322783  1
  Ni  Ni8  1  0.42003313  0.91670591  0.24322783  1
  Ni  Ni9  1  0.33287624  0.33287624  0.00137127  1
  Ni  Ni10  1  0.66712376  0.66712376  0.99862873  1
  Ni  Ni11  1  0.50000000  0.50000000  0.50000000  1
