# generated using pymatgen
data_Y3(CuSn)4
_symmetry_space_group_name_H-M   'P 1'
_cell_length_a   4.49227210
_cell_length_b   6.97950507
_cell_length_c   8.45167411
_cell_angle_alpha   114.38755450
_cell_angle_beta   105.41224833
_cell_angle_gamma   90.00000000
_symmetry_Int_Tables_number   1
_chemical_formula_structural   Y3(CuSn)4
_chemical_formula_sum   'Y3 Cu4 Sn4'
_cell_volume   230.84452123
_cell_formula_units_Z   1
loop_
 _symmetry_equiv_pos_site_id
 _symmetry_equiv_pos_as_xyz
  1  'x, y, z'
loop_
 _atom_site_type_symbol
 _atom_site_label
 _atom_site_symmetry_multiplicity
 _atom_site_fract_x
 _atom_site_fract_y
 _atom_site_fract_z
 _atom_site_occupancy
  Y  Y0  1  0.00000000  0.50000000  0.00000000  1
  Y  Y1  1  0.86948178  0.86948178  0.73896356  1
  Y  Y2  1  0.13051822  0.13051822  0.26103644  1
  Cu  Cu3  1  0.67174117  0.48388555  0.34348235  1
  Cu  Cu4  1  0.67174117  0.85959679  0.34348235  1
  Cu  Cu5  1  0.32825883  0.14040321  0.65651765  1
  Cu  Cu6  1  0.32825883  0.51611445  0.65651765  1
  Sn  Sn7  1  0.78387620  0.28387620  0.56775240  1
  Sn  Sn8  1  0.21612380  0.71612380  0.43224760  1
  Sn  Sn9  1  0.50000000  0.79647154  0.00000000  1
  Sn  Sn10  1  0.50000000  0.20352846  1.00000000  1
