# generated using pymatgen
data_Li9Mn2Co5O16
_symmetry_space_group_name_H-M   'P 1'
_cell_length_a   2.91022814
_cell_length_b   10.28304651
_cell_length_c   10.33991568
_cell_angle_alpha   69.83475340
_cell_angle_beta   90.00000000
_cell_angle_gamma   90.00000000
_symmetry_Int_Tables_number   1
_chemical_formula_structural   Li9Mn2Co5O16
_chemical_formula_sum   'Li9 Mn2 Co5 O16'
_cell_volume   290.46493532
_cell_formula_units_Z   1
loop_
 _symmetry_equiv_pos_site_id
 _symmetry_equiv_pos_as_xyz
  1  'x, y, z'
loop_
 _atom_site_type_symbol
 _atom_site_label
 _atom_site_symmetry_multiplicity
 _atom_site_fract_x
 _atom_site_fract_y
 _atom_site_fract_z
 _atom_site_occupancy
  Li  Li0  1  0.50000000  0.00178105  0.25149068  1
  Li  Li1  1  0.50000000  0.00645928  0.73973532  1
  Li  Li2  1  -0.00000000  0.25739392  0.25068736  1
  Li  Li3  1  -0.00000000  0.25974698  0.75081424  1
  Li  Li4  1  0.50000000  0.48873834  0.24517892  1
  Li  Li5  1  0.50000000  0.49508453  0.75835848  1
  Li  Li6  1  -0.00000000  0.74294635  0.25707625  1
  Li  Li7  1  -0.00000000  0.74031717  0.75368991  1
  Li  Li8  1  -0.00000000  0.50186518  0.99571550  1
  Mn  Mn9  1  0.00000000  0.00174623  0.99839385  1
  Mn  Mn10  1  0.50000000  0.74358815  0.99778519  1
  Co  Co11  1  -0.00000000  0.99973519  0.49893220  1
  Co  Co12  1  0.50000000  0.27109122  0.00822385  1
  Co  Co13  1  0.50000000  0.25043470  0.50334116  1
  Co  Co14  1  0.00000000  0.50037347  0.50010070  1
  Co  Co15  1  0.50000000  0.74967629  0.49765998  1
  O  O16  1  0.50000000  0.88237019  0.10548258  1
  O  O17  1  0.50000000  0.88764197  0.60670896  1
  O  O18  1  -0.00000000  0.11549689  0.10666365  1
  O  O19  1  -0.00000000  0.13467089  0.61791493  1
  O  O20  1  0.50000000  0.36311243  0.12685876  1
  O  O21  1  0.50000000  0.38250922  0.61337668  1
  O  O22  1  -0.00000000  0.64313213  0.11165094  1
  O  O23  1  -0.00000000  0.63241317  0.61439028  1
  O  O24  1  0.50000000  0.11276584  0.39261962  1
  O  O25  1  0.50000000  0.10451876  0.88677508  1
  O  O26  1  -0.00000000  0.36820382  0.38614801  1
  O  O27  1  0.00000000  0.36634539  0.88091441  1
  O  O28  1  0.50000000  0.61781659  0.38426592  1
  O  O29  1  0.50000000  0.64356509  0.88470985  1
  O  O30  1  0.00000000  0.86494283  0.38130046  1
  O  O31  1  -0.00000000  0.86951673  0.89303629  1
