# generated using pymatgen
data_ScSiIr
_symmetry_space_group_name_H-M   'P 1'
_cell_length_a   4.07370063
_cell_length_b   6.46116647
_cell_length_c   7.36267903
_cell_angle_alpha   90.00000000
_cell_angle_beta   90.00000000
_cell_angle_gamma   90.00000000
_symmetry_Int_Tables_number   1
_chemical_formula_structural   ScSiIr
_chemical_formula_sum   'Sc4 Si4 Ir4'
_cell_volume   193.79202865
_cell_formula_units_Z   4
loop_
 _symmetry_equiv_pos_site_id
 _symmetry_equiv_pos_as_xyz
  1  'x, y, z'
loop_
 _atom_site_type_symbol
 _atom_site_label
 _atom_site_symmetry_multiplicity
 _atom_site_fract_x
 _atom_site_fract_y
 _atom_site_fract_z
 _atom_site_occupancy
  Sc  Sc0  1  0.75000000  0.48729328  0.18513121  1
  Sc  Sc1  1  0.75000000  0.98729328  0.31486879  1
  Sc  Sc2  1  0.25000000  0.51270672  0.81486879  1
  Sc  Sc3  1  0.25000000  0.01270672  0.68513121  1
  Si  Si4  1  0.75000000  0.21196112  0.87783481  1
  Si  Si5  1  0.75000000  0.71196112  0.62216519  1
  Si  Si6  1  0.25000000  0.78803888  0.12216519  1
  Si  Si7  1  0.25000000  0.28803888  0.37783481  1
  Ir  Ir8  1  0.75000000  0.33869455  0.55905103  1
  Ir  Ir9  1  0.75000000  0.83869455  0.94094897  1
  Ir  Ir10  1  0.25000000  0.66130545  0.44094897  1
  Ir  Ir11  1  0.25000000  0.16130545  0.05905103  1
