# generated using pymatgen
data_NbCoSi
_symmetry_space_group_name_H-M   'P 1'
_cell_length_a   3.66552863
_cell_length_b   6.27068141
_cell_length_c   7.06763143
_cell_angle_alpha   90.00000000
_cell_angle_beta   90.00000000
_cell_angle_gamma   90.00000000
_symmetry_Int_Tables_number   1
_chemical_formula_structural   NbCoSi
_chemical_formula_sum   'Nb4 Co4 Si4'
_cell_volume   162.45206858
_cell_formula_units_Z   4
loop_
 _symmetry_equiv_pos_site_id
 _symmetry_equiv_pos_as_xyz
  1  'x, y, z'
loop_
 _atom_site_type_symbol
 _atom_site_label
 _atom_site_symmetry_multiplicity
 _atom_site_fract_x
 _atom_site_fract_y
 _atom_site_fract_z
 _atom_site_occupancy
  Nb  Nb0  1  0.75000000  0.48000388  0.68010448  1
  Nb  Nb1  1  0.75000000  0.98000388  0.81989552  1
  Nb  Nb2  1  0.25000000  0.51999612  0.31989552  1
  Nb  Nb3  1  0.25000000  0.01999612  0.18010448  1
  Co  Co4  1  0.75000000  0.35859948  0.06363363  1
  Co  Co5  1  0.75000000  0.85859948  0.43636637  1
  Co  Co6  1  0.25000000  0.64140052  0.93636637  1
  Co  Co7  1  0.25000000  0.14140052  0.56363363  1
  Si  Si8  1  0.75000000  0.72446201  0.11748976  1
  Si  Si9  1  0.75000000  0.22446201  0.38251024  1
  Si  Si10  1  0.25000000  0.27553799  0.88251024  1
  Si  Si11  1  0.25000000  0.77553799  0.61748976  1
