# generated using pymatgen
data_DyGaPt
_symmetry_space_group_name_H-M   'P 1'
_cell_length_a   4.45458561
_cell_length_b   6.87967832
_cell_length_c   7.69253180
_cell_angle_alpha   90.00000000
_cell_angle_beta   90.00000000
_cell_angle_gamma   90.00000000
_symmetry_Int_Tables_number   1
_chemical_formula_structural   DyGaPt
_chemical_formula_sum   'Dy4 Ga4 Pt4'
_cell_volume   235.74622223
_cell_formula_units_Z   4
loop_
 _symmetry_equiv_pos_site_id
 _symmetry_equiv_pos_as_xyz
  1  'x, y, z'
loop_
 _atom_site_type_symbol
 _atom_site_label
 _atom_site_symmetry_multiplicity
 _atom_site_fract_x
 _atom_site_fract_y
 _atom_site_fract_z
 _atom_site_occupancy
  Dy  Dy0  1  0.75000000  0.51534545  0.19743124  1
  Dy  Dy1  1  0.75000000  0.01534545  0.30256876  1
  Dy  Dy2  1  0.25000000  0.48465455  0.80256876  1
  Dy  Dy3  1  0.25000000  0.98465455  0.69743124  1
  Ga  Ga4  1  0.75000000  0.17499623  0.92790223  1
  Ga  Ga5  1  0.75000000  0.67499623  0.57209777  1
  Ga  Ga6  1  0.25000000  0.82500377  0.07209777  1
  Ga  Ga7  1  0.25000000  0.32500377  0.42790223  1
  Pt  Pt8  1  0.75000000  0.27937405  0.60166023  1
  Pt  Pt9  1  0.75000000  0.77937405  0.89833977  1
  Pt  Pt10  1  0.25000000  0.72062595  0.39833977  1
  Pt  Pt11  1  0.25000000  0.22062595  0.10166023  1
