# generated using pymatgen
data_TbCo3
_symmetry_space_group_name_H-M   'P 1'
_cell_length_a   4.97258636
_cell_length_b   4.97258636
_cell_length_c   8.64045778
_cell_angle_alpha   73.27669361
_cell_angle_beta   73.27669361
_cell_angle_gamma   60.00000961
_symmetry_Int_Tables_number   1
_chemical_formula_structural   TbCo3
_chemical_formula_sum   'Tb3 Co9'
_cell_volume   174.51366435
_cell_formula_units_Z   3
loop_
 _symmetry_equiv_pos_site_id
 _symmetry_equiv_pos_as_xyz
  1  'x, y, z'
loop_
 _atom_site_type_symbol
 _atom_site_label
 _atom_site_symmetry_multiplicity
 _atom_site_fract_x
 _atom_site_fract_y
 _atom_site_fract_z
 _atom_site_occupancy
  Tb  Tb0  1  0.13966903  0.13966903  0.58099292  1
  Tb  Tb1  1  0.86033097  0.86033097  0.41900708  1
  Tb  Tb2  1  0.00000000  -0.00000000  -0.00000000  1
  Co  Co3  1  0.07915954  0.58178297  0.75727451  1
  Co  Co4  1  0.58178297  0.58178297  0.75727451  1
  Co  Co5  1  0.58178297  0.07915954  0.75727451  1
  Co  Co6  1  0.92084046  0.41821703  0.24272549  1
  Co  Co7  1  0.41821703  0.41821703  0.24272549  1
  Co  Co8  1  0.41821703  0.92084046  0.24272549  1
  Co  Co9  1  0.33463237  0.33463237  0.99610290  1
  Co  Co10  1  0.66536763  0.66536763  0.00389710  1
  Co  Co11  1  0.50000000  0.50000000  0.50000000  1
