# generated using pymatgen
data_Tm4B3C4
_symmetry_space_group_name_H-M   'P 1'
_cell_length_a   3.45069671
_cell_length_b   3.54537182
_cell_length_c   11.77295060
_cell_angle_alpha   92.83417862
_cell_angle_beta   96.17323071
_cell_angle_gamma   90.19396257
_symmetry_Int_Tables_number   1
_chemical_formula_structural   Tm4B3C4
_chemical_formula_sum   'Tm4 B3 C4'
_cell_volume   143.01447892
_cell_formula_units_Z   1
loop_
 _symmetry_equiv_pos_site_id
 _symmetry_equiv_pos_as_xyz
  1  'x, y, z'
loop_
 _atom_site_type_symbol
 _atom_site_label
 _atom_site_symmetry_multiplicity
 _atom_site_fract_x
 _atom_site_fract_y
 _atom_site_fract_z
 _atom_site_occupancy
  Tm  Tm0  1  0.80657324  0.02396325  0.65067352  1
  Tm  Tm1  1  0.19342676  0.97603675  0.34932648  1
  Tm  Tm2  1  0.38734498  0.55496395  0.86003405  1
  Tm  Tm3  1  0.61265502  0.44503605  0.13996595  1
  B  B4  1  -0.00000000  0.00000000  -0.00000000  1
  B  B5  1  0.26752579  0.50621038  0.54051883  1
  B  B6  1  0.73247421  0.49378962  0.45948117  1
  C  C7  1  0.88880006  0.06465142  0.87876477  1
  C  C8  1  0.11119994  0.93534858  0.12123523  1
  C  C9  1  0.31350660  0.52738428  0.66870248  1
  C  C10  1  0.68649340  0.47261572  0.33129752  1
