# generated using pymatgen
data_CeMgSn
_symmetry_space_group_name_H-M   'P 1'
_cell_length_a   4.64548345
_cell_length_b   7.72917563
_cell_length_c   9.09967695
_cell_angle_alpha   90.00000000
_cell_angle_beta   90.00000000
_cell_angle_gamma   90.00000000
_symmetry_Int_Tables_number   1
_chemical_formula_structural   CeMgSn
_chemical_formula_sum   'Ce4 Mg4 Sn4'
_cell_volume   326.73079363
_cell_formula_units_Z   4
loop_
 _symmetry_equiv_pos_site_id
 _symmetry_equiv_pos_as_xyz
  1  'x, y, z'
loop_
 _atom_site_type_symbol
 _atom_site_label
 _atom_site_symmetry_multiplicity
 _atom_site_fract_x
 _atom_site_fract_y
 _atom_site_fract_z
 _atom_site_occupancy
  Ce  Ce0  1  0.75000000  0.48078979  0.18178633  1
  Ce  Ce1  1  0.75000000  0.98078979  0.31821367  1
  Ce  Ce2  1  0.25000000  0.51921021  0.81821367  1
  Ce  Ce3  1  0.25000000  0.01921021  0.68178633  1
  Mg  Mg4  1  0.75000000  0.34435285  0.56859277  1
  Mg  Mg5  1  0.75000000  0.84435285  0.93140723  1
  Mg  Mg6  1  0.25000000  0.65564715  0.43140723  1
  Mg  Mg7  1  0.25000000  0.15564715  0.06859277  1
  Sn  Sn8  1  0.75000000  0.22834571  0.88734719  1
  Sn  Sn9  1  0.75000000  0.72834571  0.61265281  1
  Sn  Sn10  1  0.25000000  0.77165429  0.11265281  1
  Sn  Sn11  1  0.25000000  0.27165429  0.38734719  1
