# generated using pymatgen
data_Li9Mn2Co5O16
_symmetry_space_group_name_H-M   'P 1'
_cell_length_a   2.91285648
_cell_length_b   9.76414195
_cell_length_c   10.29475043
_cell_angle_alpha   100.32158113
_cell_angle_beta   90.00000000
_cell_angle_gamma   90.00000000
_symmetry_Int_Tables_number   1
_chemical_formula_structural   Li9Mn2Co5O16
_chemical_formula_sum   'Li9 Mn2 Co5 O16'
_cell_volume   288.06042067
_cell_formula_units_Z   1
loop_
 _symmetry_equiv_pos_site_id
 _symmetry_equiv_pos_as_xyz
  1  'x, y, z'
loop_
 _atom_site_type_symbol
 _atom_site_label
 _atom_site_symmetry_multiplicity
 _atom_site_fract_x
 _atom_site_fract_y
 _atom_site_fract_z
 _atom_site_occupancy
  Li  Li0  1  0.50000000  0.01214425  0.24576046  1
  Li  Li1  1  0.50000000  0.00261382  0.75451090  1
  Li  Li2  1  -0.00000000  0.25049485  0.36308371  1
  Li  Li3  1  -0.00000000  0.25834978  0.88677546  1
  Li  Li4  1  0.50000000  0.49190869  0.49524165  1
  Li  Li5  1  0.50000000  0.49523826  0.99915715  1
  Li  Li6  1  -0.00000000  0.74507046  0.12603010  1
  Li  Li7  1  0.00000000  0.74916181  0.62666977  1
  Li  Li8  1  0.50000000  0.24777336  0.12746120  1
  Mn  Mn9  1  -0.00000000  0.00785923  0.00761441  1
  Mn  Mn10  1  0.50000000  0.74697689  0.37583468  1
  Co  Co11  1  -0.00000000  0.00412641  0.50231414  1
  Co  Co12  1  0.50000000  0.24904599  0.62351155  1
  Co  Co13  1  -0.00000000  0.47993998  0.23269297  1
  Co  Co14  1  -0.00000000  0.49976113  0.74976902  1
  Co  Co15  1  0.50000000  0.75058886  0.87449987  1
  O  O16  1  0.50000000  0.88664286  0.05378151  1
  O  O17  1  0.50000000  0.87543445  0.54938242  1
  O  O18  1  0.00000000  0.11291863  0.17318425  1
  O  O19  1  0.00000000  0.12637032  0.68085006  1
  O  O20  1  0.50000000  0.38524419  0.31007447  1
  O  O21  1  0.50000000  0.38152351  0.80456190  1
  O  O22  1  -0.00000000  0.63553665  0.93090989  1
  O  O23  1  0.00000000  0.64017241  0.43168837  1
  O  O24  1  0.50000000  0.11659475  0.44191073  1
  O  O25  1  0.50000000  0.11003347  0.94467750  1
  O  O26  1  -0.00000000  0.36916444  0.56973600  1
  O  O27  1  -0.00000000  0.38561529  0.06788341  1
  O  O28  1  0.50000000  0.62048196  0.69491009  1
  O  O29  1  0.50000000  0.62929710  0.20654929  1
  O  O30  1  0.00000000  0.86047265  0.32273313  1
  O  O31  1  -0.00000000  0.87344358  0.82623995  1
