# generated using pymatgen
data_Tm3(CuSn)4
_symmetry_space_group_name_H-M   'P 1'
_cell_length_a   4.43312636
_cell_length_b   6.91255383
_cell_length_c   8.34409290
_cell_angle_alpha   113.79628747
_cell_angle_beta   105.40525510
_cell_angle_gamma   90.00000000
_symmetry_Int_Tables_number   1
_chemical_formula_structural   Tm3(CuSn)4
_chemical_formula_sum   'Tm3 Cu4 Sn4'
_cell_volume   223.88306508
_cell_formula_units_Z   1
loop_
 _symmetry_equiv_pos_site_id
 _symmetry_equiv_pos_as_xyz
  1  'x, y, z'
loop_
 _atom_site_type_symbol
 _atom_site_label
 _atom_site_symmetry_multiplicity
 _atom_site_fract_x
 _atom_site_fract_y
 _atom_site_fract_z
 _atom_site_occupancy
  Tm  Tm0  1  -0.00000000  0.50000000  -0.00000000  1
  Tm  Tm1  1  0.86951521  0.85755245  0.73903042  1
  Tm  Tm2  1  0.13048479  0.14244755  0.26096958  1
  Cu  Cu3  1  0.68298863  0.87790221  0.36597725  1
  Cu  Cu4  1  0.31701137  0.12209779  0.63402275  1
  Cu  Cu5  1  0.65997960  0.47531994  0.31995920  1
  Cu  Cu6  1  0.34002040  0.52468006  0.68004080  1
  Sn  Sn7  1  0.78436005  0.30099647  0.56872010  1
  Sn  Sn8  1  0.21563995  0.69900353  0.43127990  1
  Sn  Sn9  1  0.49058158  0.19370256  0.98116316  1
  Sn  Sn10  1  0.50941842  0.80629744  0.01883684  1
