# generated using pymatgen
data_GdAl4Ni
_symmetry_space_group_name_H-M   'P 1'
_cell_length_a   4.11039641
_cell_length_b   6.52962312
_cell_length_c   8.04996970
_cell_angle_alpha   90.00000000
_cell_angle_beta   104.79166082
_cell_angle_gamma   90.00000000
_symmetry_Int_Tables_number   1
_chemical_formula_structural   GdAl4Ni
_chemical_formula_sum   'Gd2 Al8 Ni2'
_cell_volume   208.89589808
_cell_formula_units_Z   2
loop_
 _symmetry_equiv_pos_site_id
 _symmetry_equiv_pos_as_xyz
  1  'x, y, z'
loop_
 _atom_site_type_symbol
 _atom_site_label
 _atom_site_symmetry_multiplicity
 _atom_site_fract_x
 _atom_site_fract_y
 _atom_site_fract_z
 _atom_site_occupancy
  Gd  Gd0  1  0.88478329  0.75000000  0.76956657  1
  Gd  Gd1  1  0.11521671  0.25000000  0.23043343  1
  Al  Al2  1  0.50000000  0.50000000  0.00000000  1
  Al  Al3  1  0.50000000  -0.00000000  0.00000000  1
  Al  Al4  1  0.07639916  0.75000000  0.15279832  1
  Al  Al5  1  0.92360084  0.25000000  0.84720168  1
  Al  Al6  1  0.68973508  0.55112619  0.37947016  1
  Al  Al7  1  0.31026492  0.44887381  0.62052984  1
  Al  Al8  1  0.68973508  0.94887381  0.37947016  1
  Al  Al9  1  0.31026492  0.05112619  0.62052984  1
  Ni  Ni10  1  0.22383603  0.75000000  0.44767206  1
  Ni  Ni11  1  0.77616397  0.25000000  0.55232794  1
