# generated using pymatgen
data_ErTc2
_symmetry_space_group_name_H-M   'P 1'
_cell_length_a   5.35382207
_cell_length_b   5.35382207
_cell_length_c   8.86738781
_cell_angle_alpha   90.00000000
_cell_angle_beta   90.00000000
_cell_angle_gamma   120.01003454
_symmetry_Int_Tables_number   1
_chemical_formula_structural   ErTc2
_chemical_formula_sum   'Er4 Tc8'
_cell_volume   220.09505158
_cell_formula_units_Z   4
loop_
 _symmetry_equiv_pos_site_id
 _symmetry_equiv_pos_as_xyz
  1  'x, y, z'
loop_
 _atom_site_type_symbol
 _atom_site_label
 _atom_site_symmetry_multiplicity
 _atom_site_fract_x
 _atom_site_fract_y
 _atom_site_fract_z
 _atom_site_occupancy
  Er  Er0  1  0.66668387  0.33331613  0.56372390  1
  Er  Er1  1  0.33331613  0.66668387  0.43627610  1
  Er  Er2  1  0.33331613  0.66668387  0.06372390  1
  Er  Er3  1  0.66668387  0.33331613  0.93627610  1
  Tc  Tc4  1  0.00000000  0.00000000  0.50000000  1
  Tc  Tc5  1  0.00000000  0.00000000  -0.00000000  1
  Tc  Tc6  1  0.17150801  0.34305365  0.75000000  1
  Tc  Tc7  1  0.17154387  0.82845613  0.75000000  1
  Tc  Tc8  1  0.65694635  0.82849199  0.75000000  1
  Tc  Tc9  1  0.82849199  0.65694635  0.25000000  1
  Tc  Tc10  1  0.82845613  0.17154387  0.25000000  1
  Tc  Tc11  1  0.34305365  0.17150801  0.25000000  1
