# generated using pymatgen
data_ZrGePt
_symmetry_space_group_name_H-M   'P 1'
_cell_length_a   4.01579069
_cell_length_b   6.73009889
_cell_length_c   7.75597112
_cell_angle_alpha   90.00000000
_cell_angle_beta   90.00000000
_cell_angle_gamma   90.00000000
_symmetry_Int_Tables_number   1
_chemical_formula_structural   ZrGePt
_chemical_formula_sum   'Zr4 Ge4 Pt4'
_cell_volume   209.61806009
_cell_formula_units_Z   4
loop_
 _symmetry_equiv_pos_site_id
 _symmetry_equiv_pos_as_xyz
  1  'x, y, z'
loop_
 _atom_site_type_symbol
 _atom_site_label
 _atom_site_symmetry_multiplicity
 _atom_site_fract_x
 _atom_site_fract_y
 _atom_site_fract_z
 _atom_site_occupancy
  Zr  Zr0  1  0.75000000  0.47255083  0.18271692  1
  Zr  Zr1  1  0.75000000  0.97255083  0.31728308  1
  Zr  Zr2  1  0.25000000  0.52744917  0.81728308  1
  Zr  Zr3  1  0.25000000  0.02744917  0.68271692  1
  Ge  Ge4  1  0.75000000  0.24515541  0.87857582  1
  Ge  Ge5  1  0.75000000  0.74515541  0.62142418  1
  Ge  Ge6  1  0.25000000  0.75484459  0.12142418  1
  Ge  Ge7  1  0.25000000  0.25484459  0.37857582  1
  Pt  Pt8  1  0.75000000  0.35478800  0.56313415  1
  Pt  Pt9  1  0.75000000  0.85478800  0.93686585  1
  Pt  Pt10  1  0.25000000  0.64521200  0.43686585  1
  Pt  Pt11  1  0.25000000  0.14521200  0.06313415  1
