# generated using pymatgen
data_SmNi3
_symmetry_space_group_name_H-M   'P 1'
_cell_length_a   5.01168990
_cell_length_b   5.01168990
_cell_length_c   8.69435006
_cell_angle_alpha   73.24885816
_cell_angle_beta   73.24885816
_cell_angle_gamma   59.99999917
_symmetry_Int_Tables_number   1
_chemical_formula_structural   SmNi3
_chemical_formula_sum   'Sm3 Ni9'
_cell_volume   178.33896857
_cell_formula_units_Z   3
loop_
 _symmetry_equiv_pos_site_id
 _symmetry_equiv_pos_as_xyz
  1  'x, y, z'
loop_
 _atom_site_type_symbol
 _atom_site_label
 _atom_site_symmetry_multiplicity
 _atom_site_fract_x
 _atom_site_fract_y
 _atom_site_fract_z
 _atom_site_occupancy
  Sm  Sm0  1  0.13891417  0.13891417  0.58325749  1
  Sm  Sm1  1  0.86108583  0.86108583  0.41674251  1
  Sm  Sm2  1  -0.00000000  0.00000000  -0.00000000  1
  Ni  Ni3  1  0.08220990  0.58077330  0.75624350  1
  Ni  Ni4  1  0.58077330  0.58077330  0.75624350  1
  Ni  Ni5  1  0.58077330  0.08220990  0.75624350  1
  Ni  Ni6  1  0.91779010  0.41922670  0.24375650  1
  Ni  Ni7  1  0.41922670  0.41922670  0.24375650  1
  Ni  Ni8  1  0.41922670  0.91779010  0.24375650  1
  Ni  Ni9  1  0.33293993  0.33293993  0.00118022  1
  Ni  Ni10  1  0.66706007  0.66706007  0.99881978  1
  Ni  Ni11  1  0.50000000  0.50000000  0.50000000  1
