# generated using pymatgen
data_Sr2H3NO6
_symmetry_space_group_name_H-M   'P 1'
_cell_length_a   3.59152148
_cell_length_b   6.70391376
_cell_length_c   6.70433026
_cell_angle_alpha   119.99794385
_cell_angle_beta   90.00000000
_cell_angle_gamma   90.00000000
_symmetry_Int_Tables_number   1
_chemical_formula_structural   Sr2H3NO6
_chemical_formula_sum   'Sr2 H3 N1 O6'
_cell_volume   139.79830841
_cell_formula_units_Z   1
loop_
 _symmetry_equiv_pos_site_id
 _symmetry_equiv_pos_as_xyz
  1  'x, y, z'
loop_
 _atom_site_type_symbol
 _atom_site_label
 _atom_site_symmetry_multiplicity
 _atom_site_fract_x
 _atom_site_fract_y
 _atom_site_fract_z
 _atom_site_occupancy
  Sr  Sr0  1  0.50000000  0.33332247  0.66667452  1
  Sr  Sr1  1  0.50000000  0.66664795  0.33332548  1
  H  H2  1  0.00000000  0.32093505  0.00000000  1
  H  H3  1  0.00000000  0.67903818  0.67904538  1
  H  H4  1  0.00000000  0.99999280  0.32095462  1
  N  N5  1  0.50000000  -0.00005334  1.00000000  1
  O  O6  1  0.50000000  0.81073107  1.00000000  1
  O  O7  1  0.50000000  0.18931865  0.18931529  1
  O  O8  1  0.50000000  0.00000336  0.81068471  1
  O  O9  1  0.00000000  0.46653348  0.00000000  1
  O  O10  1  0.00000000  0.53345210  0.53347386  1
  O  O11  1  0.00000000  0.99997824  0.46652614  1
