# generated using pymatgen
data_TeAsRu
_symmetry_space_group_name_H-M   'P 1'
_cell_length_a   6.36507285
_cell_length_b   6.44363439
_cell_length_c   6.49005711
_cell_angle_alpha   113.55771070
_cell_angle_beta   90.00000000
_cell_angle_gamma   90.00000000
_symmetry_Int_Tables_number   1
_chemical_formula_structural   TeAsRu
_chemical_formula_sum   'Te4 As4 Ru4'
_cell_volume   244.00015801
_cell_formula_units_Z   4
loop_
 _symmetry_equiv_pos_site_id
 _symmetry_equiv_pos_as_xyz
  1  'x, y, z'
loop_
 _atom_site_type_symbol
 _atom_site_label
 _atom_site_symmetry_multiplicity
 _atom_site_fract_x
 _atom_site_fract_y
 _atom_site_fract_z
 _atom_site_occupancy
  Te  Te0  1  0.12560502  0.84458980  0.13283823  1
  Te  Te1  1  0.62560502  0.15541020  0.36716177  1
  Te  Te2  1  0.87439498  0.15541020  0.86716177  1
  Te  Te3  1  0.37439498  0.84458980  0.63283823  1
  As  As4  1  0.85547215  0.64581014  0.32929209  1
  As  As5  1  0.35547215  0.35418986  0.17070791  1
  As  As6  1  0.14452785  0.35418986  0.67070791  1
  As  As7  1  0.64452785  0.64581014  0.82929209  1
  Ru  Ru8  1  0.50843867  0.71610836  0.20532802  1
  Ru  Ru9  1  0.00843867  0.28389164  0.29467198  1
  Ru  Ru10  1  0.49156133  0.28389164  0.79467198  1
  Ru  Ru11  1  0.99156133  0.71610836  0.70532802  1
