# generated using pymatgen
data_Li9Mn2Co5O16
_symmetry_space_group_name_H-M   'P 1'
_cell_length_a   2.89100021
_cell_length_b   10.63856504
_cell_length_c   10.30347298
_cell_angle_alpha   112.72238929
_cell_angle_beta   89.99999963
_cell_angle_gamma   82.19086450
_symmetry_Int_Tables_number   1
_chemical_formula_structural   Li9Mn2Co5O16
_chemical_formula_sum   'Li9 Mn2 Co5 O16'
_cell_volume   289.11078919
_cell_formula_units_Z   1
loop_
 _symmetry_equiv_pos_site_id
 _symmetry_equiv_pos_as_xyz
  1  'x, y, z'
loop_
 _atom_site_type_symbol
 _atom_site_label
 _atom_site_symmetry_multiplicity
 _atom_site_fract_x
 _atom_site_fract_y
 _atom_site_fract_z
 _atom_site_occupancy
  Li  Li0  1  0.36381924  0.27236152  0.20179774  1
  Li  Li1  1  0.13302675  0.73394650  0.54343835  1
  Li  Li2  1  0.87030596  0.25938808  0.94561695  1
  Li  Li3  1  0.87355156  0.25289687  0.44161283  1
  Li  Li4  1  0.62965924  0.74068153  0.80293249  1
  Li  Li5  1  0.37266788  0.25466424  0.68355193  1
  Li  Li6  1  0.12972582  0.74054836  0.06431870  1
  Li  Li7  1  0.62661947  0.74676107  0.32008441  1
  Li  Li8  1  0.74958392  0.50083216  0.37514866  1
  Mn  Mn9  1  0.99978023  0.00043954  -0.00034246  1
  Mn  Mn10  1  0.75045048  0.49909903  0.87419165  1
  Co  Co11  1  0.50078784  0.99842433  0.74679702  1
  Co  Co12  1  0.24609151  0.50781698  0.14845079  1
  Co  Co13  1  -0.00002148  0.00004296  0.50143661  1
  Co  Co14  1  0.49951613  0.00096773  0.25238792  1
  Co  Co15  1  0.25371398  0.49257205  0.60010741  1
  O  O16  1  0.44330543  0.11338913  0.97826816  1
  O  O17  1  0.18863923  0.62272153  0.33010780  1
  O  O18  1  0.94492770  0.11014459  0.71759458  1
  O  O19  1  0.94902899  0.10194201  0.20705873  1
  O  O20  1  0.68986372  0.62027256  0.59987189  1
  O  O21  1  0.44193330  0.11613340  0.47084241  1
  O  O22  1  0.19416181  0.61167637  0.84915360  1
  O  O23  1  0.69634278  0.60731443  0.07630186  1
  O  O24  1  0.31203656  0.37592689  0.41865329  1
  O  O25  1  0.05142902  0.89714196  0.79690651  1
  O  O26  1  0.80972685  0.38054630  0.15000670  1
  O  O27  1  0.80342257  0.39315486  0.67206805  1
  O  O28  1  0.55652941  0.88694119  0.02210094  1
  O  O29  1  0.30656729  0.38686542  0.89991529  1
  O  O30  1  0.05430779  0.89138442  0.28056388  1
  O  O31  1  0.55849902  0.88300197  0.52905531  1
