# generated using pymatgen
data_Tb5S7
_symmetry_space_group_name_H-M   'P 1'
_cell_length_a   3.82732738
_cell_length_b   6.72896572
_cell_length_c   11.65590334
_cell_angle_alpha   104.07930598
_cell_angle_beta   90.00000000
_cell_angle_gamma   106.52250603
_symmetry_Int_Tables_number   1
_chemical_formula_structural   Tb5S7
_chemical_formula_sum   'Tb5 S7'
_cell_volume   278.37153570
_cell_formula_units_Z   1
loop_
 _symmetry_equiv_pos_site_id
 _symmetry_equiv_pos_as_xyz
  1  'x, y, z'
loop_
 _atom_site_type_symbol
 _atom_site_label
 _atom_site_symmetry_multiplicity
 _atom_site_fract_x
 _atom_site_fract_y
 _atom_site_fract_z
 _atom_site_occupancy
  Tb  Tb0  1  -0.00000000  -0.00000000  -0.00000000  1
  Tb  Tb1  1  0.11240219  0.22480439  0.42147053  1
  Tb  Tb2  1  0.88759781  0.77519561  0.57852947  1
  Tb  Tb3  1  0.30121204  0.60242408  0.18841367  1
  Tb  Tb4  1  0.69878796  0.39757592  0.81158633  1
  S  S5  1  0.50000000  -0.00000000  0.50000000  1
  S  S6  1  0.65984375  0.31968750  0.05124486  1
  S  S7  1  0.34015625  0.68031250  0.94875514  1
  S  S8  1  0.95903250  0.91806500  0.21498419  1
  S  S9  1  0.04096750  0.08193500  0.78501581  1
  S  S10  1  0.25893663  0.51787325  0.64818635  1
  S  S11  1  0.74106337  0.48212675  0.35181365  1
