# generated using pymatgen
data_La2P2AuO
_symmetry_space_group_name_H-M   'P 1'
_cell_length_a   4.29286232
_cell_length_b   8.05371829
_cell_length_c   8.03550129
_cell_angle_alpha   78.15818188
_cell_angle_beta   74.50712340
_cell_angle_gamma   74.54304403
_symmetry_Int_Tables_number   1
_chemical_formula_structural   La2P2AuO
_chemical_formula_sum   'La4 P4 Au2 O2'
_cell_volume   255.33712452
_cell_formula_units_Z   2
loop_
 _symmetry_equiv_pos_site_id
 _symmetry_equiv_pos_as_xyz
  1  'x, y, z'
loop_
 _atom_site_type_symbol
 _atom_site_label
 _atom_site_symmetry_multiplicity
 _atom_site_fract_x
 _atom_site_fract_y
 _atom_site_fract_z
 _atom_site_occupancy
  La  La0  1  0.13241230  0.04750087  0.68767453  1
  La  La1  1  0.86758770  0.95249913  0.31232547  1
  La  La2  1  0.17332663  0.38514517  0.26820157  1
  La  La3  1  0.82667337  0.61485483  0.73179843  1
  P  P4  1  0.54665849  0.35807427  0.54860874  1
  P  P5  1  0.45334151  0.64192573  0.45139126  1
  P  P6  1  0.14729583  0.73172569  0.97368264  1
  P  P7  1  0.85270417  0.26827431  0.02631736  1
  Au  Au8  1  0.41156818  0.30137227  0.87549137  1
  Au  Au9  1  0.58843182  0.69862773  0.12450863  1
  O  O10  1  0.27739209  0.07483883  0.37037698  1
  O  O11  1  0.72260791  0.92516117  0.62962302  1
