# generated using pymatgen
data_Yb3(CuGe)4
_symmetry_space_group_name_H-M   'P 1'
_cell_length_a   4.22411774
_cell_length_b   6.66646176
_cell_length_c   7.94548206
_cell_angle_alpha   114.80382801
_cell_angle_beta   105.41561102
_cell_angle_gamma   90.00000000
_symmetry_Int_Tables_number   1
_chemical_formula_structural   Yb3(CuGe)4
_chemical_formula_sum   'Yb3 Cu4 Ge4'
_cell_volume   194.20029861
_cell_formula_units_Z   1
loop_
 _symmetry_equiv_pos_site_id
 _symmetry_equiv_pos_as_xyz
  1  'x, y, z'
loop_
 _atom_site_type_symbol
 _atom_site_label
 _atom_site_symmetry_multiplicity
 _atom_site_fract_x
 _atom_site_fract_y
 _atom_site_fract_z
 _atom_site_occupancy
  Yb  Yb0  1  0.00000000  0.50000000  0.00000000  1
  Yb  Yb1  1  0.86905526  0.86905526  0.73811053  1
  Yb  Yb2  1  0.13094474  0.13094474  0.26188947  1
  Cu  Cu3  1  0.67044897  0.48022252  0.34089795  1
  Cu  Cu4  1  0.67044897  0.86067543  0.34089795  1
  Cu  Cu5  1  0.32955103  0.13932457  0.65910205  1
  Cu  Cu6  1  0.32955103  0.51977748  0.65910205  1
  Ge  Ge7  1  0.78221981  0.28221981  0.56443963  1
  Ge  Ge8  1  0.21778019  0.71778019  0.43556037  1
  Ge  Ge9  1  0.50000000  0.81444382  0.00000000  1
  Ge  Ge10  1  0.50000000  0.18555618  0.00000000  1
