# generated using pymatgen
data_Eu2Ge
_symmetry_space_group_name_H-M   'P 1'
_cell_length_a   5.02673710
_cell_length_b   7.66809666
_cell_length_c   9.31588706
_cell_angle_alpha   90.00000000
_cell_angle_beta   90.00000000
_cell_angle_gamma   90.00000000
_symmetry_Int_Tables_number   1
_chemical_formula_structural   Eu2Ge
_chemical_formula_sum   'Eu8 Ge4'
_cell_volume   359.08558026
_cell_formula_units_Z   4
loop_
 _symmetry_equiv_pos_site_id
 _symmetry_equiv_pos_as_xyz
  1  'x, y, z'
loop_
 _atom_site_type_symbol
 _atom_site_label
 _atom_site_symmetry_multiplicity
 _atom_site_fract_x
 _atom_site_fract_y
 _atom_site_fract_z
 _atom_site_occupancy
  Eu  Eu0  1  0.75000000  0.48065923  0.18417938  1
  Eu  Eu1  1  0.75000000  0.98065923  0.31582062  1
  Eu  Eu2  1  0.25000000  0.51934077  0.81582062  1
  Eu  Eu3  1  0.25000000  0.01934077  0.68417938  1
  Eu  Eu4  1  0.75000000  0.34377528  0.57984358  1
  Eu  Eu5  1  0.75000000  0.84377528  0.92015642  1
  Eu  Eu6  1  0.25000000  0.65622472  0.42015642  1
  Eu  Eu7  1  0.25000000  0.15622472  0.07984358  1
  Ge  Ge8  1  0.75000000  0.25291036  0.90119533  1
  Ge  Ge9  1  0.75000000  0.75291036  0.59880467  1
  Ge  Ge10  1  0.25000000  0.74708964  0.09880467  1
  Ge  Ge11  1  0.25000000  0.24708964  0.40119533  1
