# generated using pymatgen
data_TmAsPd
_symmetry_space_group_name_H-M   'P 1'
_cell_length_a   4.10294517
_cell_length_b   6.96928783
_cell_length_c   7.91659537
_cell_angle_alpha   90.00000000
_cell_angle_beta   90.00000000
_cell_angle_gamma   90.00000000
_symmetry_Int_Tables_number   1
_chemical_formula_structural   TmAsPd
_chemical_formula_sum   'Tm4 As4 Pd4'
_cell_volume   226.37192420
_cell_formula_units_Z   4
loop_
 _symmetry_equiv_pos_site_id
 _symmetry_equiv_pos_as_xyz
  1  'x, y, z'
loop_
 _atom_site_type_symbol
 _atom_site_label
 _atom_site_symmetry_multiplicity
 _atom_site_fract_x
 _atom_site_fract_y
 _atom_site_fract_z
 _atom_site_occupancy
  Tm  Tm0  1  0.75000000  0.96878702  0.19066535  1
  Tm  Tm1  1  0.75000000  0.46878702  0.30933465  1
  Tm  Tm2  1  0.25000000  0.03121298  0.80933465  1
  Tm  Tm3  1  0.25000000  0.53121298  0.69066535  1
  As  As4  1  0.75000000  0.25261237  0.62080283  1
  As  As5  1  0.75000000  0.75261237  0.87919717  1
  As  As6  1  0.25000000  0.74738763  0.37919717  1
  As  As7  1  0.25000000  0.24738763  0.12080283  1
  Pd  Pd8  1  0.75000000  0.85604726  0.56278214  1
  Pd  Pd9  1  0.75000000  0.35604726  0.93721786  1
  Pd  Pd10  1  0.25000000  0.14395274  0.43721786  1
  Pd  Pd11  1  0.25000000  0.64395274  0.06278214  1
