# generated using pymatgen
data_TmAlPd
_symmetry_space_group_name_H-M   'P 1'
_cell_length_a   4.40292904
_cell_length_b   6.83259572
_cell_length_c   7.74416134
_cell_angle_alpha   90.00000000
_cell_angle_beta   90.00000000
_cell_angle_gamma   90.00000000
_symmetry_Int_Tables_number   1
_chemical_formula_structural   TmAlPd
_chemical_formula_sum   'Tm4 Al4 Pd4'
_cell_volume   232.97096744
_cell_formula_units_Z   4
loop_
 _symmetry_equiv_pos_site_id
 _symmetry_equiv_pos_as_xyz
  1  'x, y, z'
loop_
 _atom_site_type_symbol
 _atom_site_label
 _atom_site_symmetry_multiplicity
 _atom_site_fract_x
 _atom_site_fract_y
 _atom_site_fract_z
 _atom_site_occupancy
  Tm  Tm0  1  0.75000000  0.46789804  0.17852122  1
  Tm  Tm1  1  0.75000000  0.96789804  0.32147878  1
  Tm  Tm2  1  0.25000000  0.53210196  0.82147878  1
  Tm  Tm3  1  0.25000000  0.03210196  0.67852122  1
  Al  Al4  1  0.75000000  0.35715057  0.55997900  1
  Al  Al5  1  0.75000000  0.85715057  0.94002100  1
  Al  Al6  1  0.25000000  0.64284943  0.44002100  1
  Al  Al7  1  0.25000000  0.14284943  0.05997900  1
  Pd  Pd8  1  0.75000000  0.22971334  0.87822752  1
  Pd  Pd9  1  0.75000000  0.72971334  0.62177248  1
  Pd  Pd10  1  0.25000000  0.77028666  0.12177248  1
  Pd  Pd11  1  0.25000000  0.27028666  0.37822752  1
