# generated using pymatgen
data_NpSb2
_symmetry_space_group_name_H-M   'P 1'
_cell_length_a   4.35069106
_cell_length_b   4.35069106
_cell_length_c   17.24798680
_cell_angle_alpha   90.00000000
_cell_angle_beta   90.00000000
_cell_angle_gamma   90.40688242
_symmetry_Int_Tables_number   1
_chemical_formula_structural   NpSb2
_chemical_formula_sum   'Np4 Sb8'
_cell_volume   326.47050534
_cell_formula_units_Z   4
loop_
 _symmetry_equiv_pos_site_id
 _symmetry_equiv_pos_as_xyz
  1  'x, y, z'
loop_
 _atom_site_type_symbol
 _atom_site_label
 _atom_site_symmetry_multiplicity
 _atom_site_fract_x
 _atom_site_fract_y
 _atom_site_fract_z
 _atom_site_occupancy
  Np  Np0  1  0.36066496  0.36066496  0.89231727  1
  Np  Np1  1  0.63933504  0.63933504  0.10768273  1
  Np  Np2  1  0.13933504  0.13933504  0.39231727  1
  Np  Np3  1  0.86066496  0.86066496  0.60768273  1
  Sb  Sb4  1  0.35983387  0.35983387  0.56948492  1
  Sb  Sb5  1  0.64016613  0.64016613  0.43051508  1
  Sb  Sb6  1  0.14016613  0.14016613  0.06948492  1
  Sb  Sb7  1  0.85983387  0.85983387  0.93051508  1
  Sb  Sb8  1  0.87238913  0.37238913  0.75000000  1
  Sb  Sb9  1  0.62761087  0.12761087  0.25000000  1
  Sb  Sb10  1  0.12761087  0.62761087  0.25000000  1
  Sb  Sb11  1  0.37238913  0.87238913  0.75000000  1
