# generated using pymatgen
data_SrInPd
_symmetry_space_group_name_H-M   'P 1'
_cell_length_a   4.56081425
_cell_length_b   7.72844553
_cell_length_c   8.67842011
_cell_angle_alpha   90.00000000
_cell_angle_beta   90.00000000
_cell_angle_gamma   90.00000000
_symmetry_Int_Tables_number   1
_chemical_formula_structural   SrInPd
_chemical_formula_sum   'Sr4 In4 Pd4'
_cell_volume   305.89699112
_cell_formula_units_Z   4
loop_
 _symmetry_equiv_pos_site_id
 _symmetry_equiv_pos_as_xyz
  1  'x, y, z'
loop_
 _atom_site_type_symbol
 _atom_site_label
 _atom_site_symmetry_multiplicity
 _atom_site_fract_x
 _atom_site_fract_y
 _atom_site_fract_z
 _atom_site_occupancy
  Sr  Sr0  1  0.75000000  0.47062597  0.17881140  1
  Sr  Sr1  1  0.75000000  0.97062597  0.32118860  1
  Sr  Sr2  1  0.25000000  0.52937403  0.82118860  1
  Sr  Sr3  1  0.25000000  0.02937403  0.67881140  1
  In  In4  1  0.75000000  0.35431377  0.56536238  1
  In  In5  1  0.75000000  0.85431377  0.93463762  1
  In  In6  1  0.25000000  0.64568623  0.43463762  1
  In  In7  1  0.25000000  0.14568623  0.06536238  1
  Pd  Pd8  1  0.75000000  0.22106021  0.87842919  1
  Pd  Pd9  1  0.75000000  0.72106021  0.62157081  1
  Pd  Pd10  1  0.25000000  0.77893979  0.12157081  1
  Pd  Pd11  1  0.25000000  0.27893979  0.37842919  1
