# generated using pymatgen
data_TaFeAs
_symmetry_space_group_name_H-M   'P 1'
_cell_length_a   3.76614950
_cell_length_b   6.30413272
_cell_length_c   7.11129387
_cell_angle_alpha   90.00000000
_cell_angle_beta   90.00000000
_cell_angle_gamma   90.00000000
_symmetry_Int_Tables_number   1
_chemical_formula_structural   TaFeAs
_chemical_formula_sum   'Ta4 Fe4 As4'
_cell_volume   168.83851719
_cell_formula_units_Z   4
loop_
 _symmetry_equiv_pos_site_id
 _symmetry_equiv_pos_as_xyz
  1  'x, y, z'
loop_
 _atom_site_type_symbol
 _atom_site_label
 _atom_site_symmetry_multiplicity
 _atom_site_fract_x
 _atom_site_fract_y
 _atom_site_fract_z
 _atom_site_occupancy
  Ta  Ta0  1  0.75000000  0.47814535  0.17975834  1
  Ta  Ta1  1  0.75000000  0.97814535  0.32024166  1
  Ta  Ta2  1  0.25000000  0.52185465  0.82024166  1
  Ta  Ta3  1  0.25000000  0.02185465  0.67975834  1
  Fe  Fe4  1  0.75000000  0.35863529  0.56209471  1
  Fe  Fe5  1  0.75000000  0.85863529  0.93790529  1
  Fe  Fe6  1  0.25000000  0.64136471  0.43790529  1
  Fe  Fe7  1  0.25000000  0.14136471  0.06209471  1
  As  As8  1  0.75000000  0.22764303  0.87984274  1
  As  As9  1  0.75000000  0.72764303  0.62015726  1
  As  As10  1  0.25000000  0.77235697  0.12015726  1
  As  As11  1  0.25000000  0.27235697  0.37984274  1
