# generated using pymatgen
data_TbOs2
_symmetry_space_group_name_H-M   'P 1'
_cell_length_a   5.33831629
_cell_length_b   5.33831629
_cell_length_c   8.85238260
_cell_angle_alpha   90.00000000
_cell_angle_beta   90.00000000
_cell_angle_gamma   119.97363452
_symmetry_Int_Tables_number   1
_chemical_formula_structural   TbOs2
_chemical_formula_sum   'Tb4 Os8'
_cell_volume   218.53184427
_cell_formula_units_Z   4
loop_
 _symmetry_equiv_pos_site_id
 _symmetry_equiv_pos_as_xyz
  1  'x, y, z'
loop_
 _atom_site_type_symbol
 _atom_site_label
 _atom_site_symmetry_multiplicity
 _atom_site_fract_x
 _atom_site_fract_y
 _atom_site_fract_z
 _atom_site_occupancy
  Tb  Tb0  1  0.66671518  0.33328482  0.56536444  1
  Tb  Tb1  1  0.33328482  0.66671518  0.43463556  1
  Tb  Tb2  1  0.33328482  0.66671518  0.06536444  1
  Tb  Tb3  1  0.66671518  0.33328482  0.93463556  1
  Os  Os4  1  0.00000000  0.00000000  0.50000000  1
  Os  Os5  1  0.00000000  0.00000000  0.00000000  1
  Os  Os6  1  0.17255691  0.34495780  0.75000000  1
  Os  Os7  1  0.17232179  0.82767821  0.75000000  1
  Os  Os8  1  0.65504220  0.82744309  0.75000000  1
  Os  Os9  1  0.82744309  0.65504220  0.25000000  1
  Os  Os10  1  0.82767821  0.17232179  0.25000000  1
  Os  Os11  1  0.34495780  0.17255691  0.25000000  1
