# generated using pymatgen
data_Li9Mn2Co5O16
_symmetry_space_group_name_H-M   'P 1'
_cell_length_a   2.92330034
_cell_length_b   9.85920291
_cell_length_c   10.22806240
_cell_angle_alpha   84.58398824
_cell_angle_beta   89.99999963
_cell_angle_gamma   81.47434122
_symmetry_Int_Tables_number   1
_chemical_formula_structural   Li9Mn2Co5O16
_chemical_formula_sum   'Li9 Mn2 Co5 O16'
_cell_volume   290.19885509
_cell_formula_units_Z   1
loop_
 _symmetry_equiv_pos_site_id
 _symmetry_equiv_pos_as_xyz
  1  'x, y, z'
loop_
 _atom_site_type_symbol
 _atom_site_label
 _atom_site_symmetry_multiplicity
 _atom_site_fract_x
 _atom_site_fract_y
 _atom_site_fract_z
 _atom_site_occupancy
  Li  Li0  1  0.37073200  0.25853600  0.06170907  1
  Li  Li1  1  0.12777585  0.74444830  0.19242960  1
  Li  Li2  1  0.87646522  0.24706956  0.31907673  1
  Li  Li3  1  0.62236405  0.75527189  0.44891443  1
  Li  Li4  1  0.38006048  0.23987904  0.56489045  1
  Li  Li5  1  0.12538580  0.74922841  0.68204510  1
  Li  Li6  1  0.87602523  0.24794954  0.80331320  1
  Li  Li7  1  0.62525558  0.74948884  0.93232906  1
  Li  Li8  1  0.99797846  0.00404308  0.49921600  1
  Mn  Mn9  1  0.99948598  0.00102804  0.99889516  1
  Mn  Mn10  1  0.49866676  0.00266648  0.25797997  1
  Co  Co11  1  0.74912101  0.50175798  0.12505246  1
  Co  Co12  1  0.25023815  0.49952371  0.37510421  1
  Co  Co13  1  0.75056585  0.49886830  0.62463507  1
  Co  Co14  1  0.50400574  0.99198852  0.72651221  1
  Co  Co15  1  0.25001962  0.49996077  0.87510902  1
  O  O16  1  0.44346773  0.11306454  0.92454875  1
  O  O17  1  0.19153668  0.61692663  0.03533905  1
  O  O18  1  0.94666922  0.10666155  0.15858131  1
  O  O19  1  0.69168409  0.61663182  0.28516479  1
  O  O20  1  0.44209840  0.11580319  0.38750902  1
  O  O21  1  0.19333462  0.61333076  0.53434845  1
  O  O22  1  0.94045704  0.11908591  0.66328115  1
  O  O23  1  0.69335922  0.61328157  0.78649116  1
  O  O24  1  0.30636286  0.38727428  0.21307743  1
  O  O25  1  0.05559584  0.88880831  0.32900031  1
  O  O26  1  0.80711964  0.38576072  0.46386978  1
  O  O27  1  0.56326110  0.87347781  0.60350472  1
  O  O28  1  0.30690073  0.38619853  0.71550843  1
  O  O29  1  0.05334655  0.89330690  0.85631820  1
  O  O30  1  0.80771110  0.38457779  0.96568346  1
  O  O31  1  0.55294939  0.89410122  0.09056227  1
