# generated using pymatgen
data_Tb2Au
_symmetry_space_group_name_H-M   'P 1'
_cell_length_a   4.96810271
_cell_length_b   7.19681068
_cell_length_c   9.02568673
_cell_angle_alpha   90.00000000
_cell_angle_beta   90.00000000
_cell_angle_gamma   90.00000000
_symmetry_Int_Tables_number   1
_chemical_formula_structural   Tb2Au
_chemical_formula_sum   'Tb8 Au4'
_cell_volume   322.70886783
_cell_formula_units_Z   4
loop_
 _symmetry_equiv_pos_site_id
 _symmetry_equiv_pos_as_xyz
  1  'x, y, z'
loop_
 _atom_site_type_symbol
 _atom_site_label
 _atom_site_symmetry_multiplicity
 _atom_site_fract_x
 _atom_site_fract_y
 _atom_site_fract_z
 _atom_site_occupancy
  Tb  Tb0  1  0.75000000  0.64902617  0.58118808  1
  Tb  Tb1  1  0.75000000  0.14902617  0.91881192  1
  Tb  Tb2  1  0.25000000  0.35097383  0.41881192  1
  Tb  Tb3  1  0.25000000  0.85097383  0.08118808  1
  Tb  Tb4  1  0.75000000  0.01578966  0.32423227  1
  Tb  Tb5  1  0.75000000  0.51578966  0.17576773  1
  Tb  Tb6  1  0.25000000  0.98421034  0.67576773  1
  Tb  Tb7  1  0.25000000  0.48421034  0.82423227  1
  Au  Au8  1  0.75000000  0.24311010  0.59938105  1
  Au  Au9  1  0.75000000  0.74311010  0.90061895  1
  Au  Au10  1  0.25000000  0.75688990  0.40061895  1
  Au  Au11  1  0.25000000  0.25688990  0.09938105  1
