# generated using pymatgen
data_PrGeRh
_symmetry_space_group_name_H-M   'P 1'
_cell_length_a   4.49113987
_cell_length_b   7.57945443
_cell_length_c   7.25936029
_cell_angle_alpha   90.00000000
_cell_angle_beta   90.00000000
_cell_angle_gamma   90.00000000
_symmetry_Int_Tables_number   1
_chemical_formula_structural   PrGeRh
_chemical_formula_sum   'Pr4 Ge4 Rh4'
_cell_volume   247.11145530
_cell_formula_units_Z   4
loop_
 _symmetry_equiv_pos_site_id
 _symmetry_equiv_pos_as_xyz
  1  'x, y, z'
loop_
 _atom_site_type_symbol
 _atom_site_label
 _atom_site_symmetry_multiplicity
 _atom_site_fract_x
 _atom_site_fract_y
 _atom_site_fract_z
 _atom_site_occupancy
  Pr  Pr0  1  0.25000000  0.29973630  0.48335306  1
  Pr  Pr1  1  0.25000000  0.20026370  0.98335306  1
  Pr  Pr2  1  0.75000000  0.70026370  0.51664694  1
  Pr  Pr3  1  0.75000000  0.79973630  0.01664694  1
  Ge  Ge4  1  0.25000000  0.91325773  0.31283312  1
  Ge  Ge5  1  0.25000000  0.58674227  0.81283312  1
  Ge  Ge6  1  0.75000000  0.08674227  0.68716688  1
  Ge  Ge7  1  0.75000000  0.41325773  0.18716688  1
  Rh  Rh8  1  0.25000000  0.91503783  0.69293914  1
  Rh  Rh9  1  0.25000000  0.58496217  0.19293914  1
  Rh  Rh10  1  0.75000000  0.08496217  0.30706086  1
  Rh  Rh11  1  0.75000000  0.41503783  0.80706086  1
