# generated using pymatgen
data_Li9Mn2Co5O16
_symmetry_space_group_name_H-M   'P 1'
_cell_length_a   2.91485150
_cell_length_b   9.87052029
_cell_length_c   10.68439356
_cell_angle_alpha   72.35956967
_cell_angle_beta   82.16000455
_cell_angle_gamma   89.99999468
_symmetry_Int_Tables_number   1
_chemical_formula_structural   Li9Mn2Co5O16
_chemical_formula_sum   'Li9 Mn2 Co5 O16'
_cell_volume   289.93028745
_cell_formula_units_Z   1
loop_
 _symmetry_equiv_pos_site_id
 _symmetry_equiv_pos_as_xyz
  1  'x, y, z'
loop_
 _atom_site_type_symbol
 _atom_site_label
 _atom_site_symmetry_multiplicity
 _atom_site_fract_x
 _atom_site_fract_y
 _atom_site_fract_z
 _atom_site_occupancy
  Li  Li0  1  0.43887406  0.18559065  0.12225187  1
  Li  Li1  1  0.31081875  0.56126209  0.37836250  1
  Li  Li2  1  0.18272767  0.94592395  0.63454465  1
  Li  Li3  1  0.80716973  0.05796496  0.38566054  1
  Li  Li4  1  0.68640485  0.43648786  0.62719031  1
  Li  Li5  1  0.56503316  0.82106648  0.86993368  1
  Li  Li6  1  0.07086954  0.30698820  0.85826091  1
  Li  Li7  1  0.93904346  0.69038702  0.12191309  1
  Li  Li8  1  0.62477609  0.11991342  0.75044783  1
  Mn  Mn9  1  0.00462174  0.00113325  0.99075653  1
  Mn  Mn10  1  0.87446901  0.37173648  0.25106198  1
  Co  Co11  1  0.74952424  0.75191281  0.50095153  1
  Co  Co12  1  0.50312002  0.49894570  0.99375997  1
  Co  Co13  1  0.37484205  0.87548228  0.25031589  1
  Co  Co14  1  0.23868781  0.24655626  0.52262439  1
  Co  Co15  1  0.12429784  0.62748133  0.75140433  1
  O  O16  1  0.52724696  0.13781759  0.94550608  1
  O  O17  1  0.40426972  0.51192840  0.19146056  1
  O  O18  1  0.28241747  0.89713660  0.43516505  1
  O  O19  1  0.90928712  0.01851572  0.18142576  1
  O  O20  1  0.78789232  0.39501808  0.42421537  1
  O  O21  1  0.65635548  0.77409742  0.68728904  1
  O  O22  1  0.16235880  0.28763425  0.67528239  1
  O  O23  1  0.02837272  0.64374329  0.94325456  1
  O  O24  1  0.34796246  0.23607769  0.30407508  1
  O  O25  1  0.21948108  0.60744124  0.56103783  1
  O  O26  1  0.08527185  0.97008346  0.82945631  1
  O  O27  1  0.72201580  0.10623883  0.55596839  1
  O  O28  1  0.59074034  0.47265554  0.81851932  1
  O  O29  1  0.47072400  0.86011973  0.05855200  1
  O  O30  1  0.96431938  0.35262460  0.07136124  1
  O  O31  1  0.84600449  0.73003480  0.30799103  1
