# generated using pymatgen
data_AlFe2BO5
_symmetry_space_group_name_H-M   'P 1'
_cell_length_a   2.96451796
_cell_length_b   9.66872440
_cell_length_c   12.27848040
_cell_angle_alpha   90.00000000
_cell_angle_beta   90.00000000
_cell_angle_gamma   90.00000000
_symmetry_Int_Tables_number   1
_chemical_formula_structural   AlFe2BO5
_chemical_formula_sum   'Al4 Fe8 B4 O20'
_cell_volume   351.93939915
_cell_formula_units_Z   4
loop_
 _symmetry_equiv_pos_site_id
 _symmetry_equiv_pos_as_xyz
  1  'x, y, z'
loop_
 _atom_site_type_symbol
 _atom_site_label
 _atom_site_symmetry_multiplicity
 _atom_site_fract_x
 _atom_site_fract_y
 _atom_site_fract_z
 _atom_site_occupancy
  Al  Al0  1  -0.00000000  0.74232209  0.38409217  1
  Al  Al1  1  0.00000000  0.25767791  0.61590783  1
  Al  Al2  1  -0.00000000  0.24232209  0.11590783  1
  Al  Al3  1  -0.00000000  0.75767791  0.88409217  1
  Fe  Fe4  1  0.50000000  0.49568893  0.22569908  1
  Fe  Fe5  1  0.50000000  0.50431107  0.77430092  1
  Fe  Fe6  1  0.50000000  0.99568893  0.27430092  1
  Fe  Fe7  1  0.50000000  0.00431107  0.72569908  1
  Fe  Fe8  1  0.50000000  0.50000000  0.50000000  1
  Fe  Fe9  1  0.50000000  -0.00000000  -0.00000000  1
  Fe  Fe10  1  0.00000000  -0.00000000  0.50000000  1
  Fe  Fe11  1  -0.00000000  0.50000000  -0.00000000  1
  B  B12  1  0.00000000  0.76277495  0.13657090  1
  B  B13  1  0.00000000  0.23722505  0.86342910  1
  B  B14  1  -0.00000000  0.26277495  0.36342910  1
  B  B15  1  0.00000000  0.73722505  0.63657090  1
  O  O16  1  -0.00000000  0.83646533  0.03870460  1
  O  O17  1  0.00000000  0.16353467  0.96129540  1
  O  O18  1  -0.00000000  0.33646533  0.46129540  1
  O  O19  1  -0.00000000  0.66353467  0.53870460  1
  O  O20  1  0.50000000  0.61876677  0.35831530  1
  O  O21  1  0.50000000  0.38123323  0.64168470  1
  O  O22  1  0.50000000  0.11876677  0.14168470  1
  O  O23  1  0.50000000  0.88123323  0.85831530  1
  O  O24  1  0.00000000  0.62005496  0.13718987  1
  O  O25  1  -0.00000000  0.37994504  0.86281013  1
  O  O26  1  0.00000000  0.12005496  0.36281013  1
  O  O27  1  0.00000000  0.87994504  0.63718987  1
  O  O28  1  0.50000000  0.86897954  0.41544753  1
  O  O29  1  0.50000000  0.13102046  0.58455247  1
  O  O30  1  0.50000000  0.36897954  0.08455247  1
  O  O31  1  0.50000000  0.63102046  0.91544753  1
  O  O32  1  0.00000000  0.83120388  0.23642386  1
  O  O33  1  -0.00000000  0.16879612  0.76357614  1
  O  O34  1  0.00000000  0.33120388  0.26357614  1
  O  O35  1  -0.00000000  0.66879612  0.73642386  1
