# generated using pymatgen
data_Ba3TaNb4O15
_symmetry_space_group_name_H-M   'P 1'
_cell_length_a   4.03785770
_cell_length_b   12.83064806
_cell_length_c   12.83066425
_cell_angle_alpha   90.00000000
_cell_angle_beta   90.00000000
_cell_angle_gamma   90.00000000
_symmetry_Int_Tables_number   1
_chemical_formula_structural   Ba3TaNb4O15
_chemical_formula_sum   'Ba6 Ta2 Nb8 O30'
_cell_volume   664.73530125
_cell_formula_units_Z   2
loop_
 _symmetry_equiv_pos_site_id
 _symmetry_equiv_pos_as_xyz
  1  'x, y, z'
loop_
 _atom_site_type_symbol
 _atom_site_label
 _atom_site_symmetry_multiplicity
 _atom_site_fract_x
 _atom_site_fract_y
 _atom_site_fract_z
 _atom_site_occupancy
  Ba  Ba0  1  0.00000000  0.50000000  0.50000000  1
  Ba  Ba1  1  0.00000000  -0.00000000  0.00000000  1
  Ba  Ba2  1  0.00000000  0.16972025  0.66971855  1
  Ba  Ba3  1  0.00000000  0.83027975  0.33028145  1
  Ba  Ba4  1  0.00000000  0.33027975  0.16971855  1
  Ba  Ba5  1  -0.00000000  0.66972025  0.83028145  1
  Ta  Ta6  1  0.50000000  -0.00000000  0.50000000  1
  Ta  Ta7  1  0.50000000  0.50000000  0.00000000  1
  Nb  Nb8  1  0.50000000  0.71323155  0.57688710  1
  Nb  Nb9  1  0.50000000  0.28676845  0.42311290  1
  Nb  Nb10  1  0.50000000  0.78676845  0.07688710  1
  Nb  Nb11  1  0.50000000  0.21323155  0.92311290  1
  Nb  Nb12  1  0.50000000  0.57688434  0.28676981  1
  Nb  Nb13  1  0.50000000  0.42311566  0.71323019  1
  Nb  Nb14  1  0.50000000  0.07688434  0.21323019  1
  Nb  Nb15  1  0.50000000  0.92311566  0.78676981  1
  O  O16  1  0.00000000  -0.00000000  0.50000000  1
  O  O17  1  0.00000000  0.50000000  0.00000000  1
  O  O18  1  0.50000000  0.28104490  0.78104379  1
  O  O19  1  0.50000000  0.71895510  0.21895621  1
  O  O20  1  0.50000000  0.21895510  0.28104379  1
  O  O21  1  0.50000000  0.78104490  0.71895621  1
  O  O22  1  0.00000000  0.70951715  0.57679824  1
  O  O23  1  0.00000000  0.29048285  0.42320176  1
  O  O24  1  0.00000000  0.79048285  0.07679824  1
  O  O25  1  -0.00000000  0.20951715  0.92320176  1
  O  O26  1  -0.00000000  0.57679464  0.29048422  1
  O  O27  1  -0.00000000  0.42320536  0.70951578  1
  O  O28  1  0.00000000  0.07679464  0.20951578  1
  O  O29  1  0.00000000  0.92320536  0.79048422  1
  O  O30  1  0.50000000  0.50726934  0.84486087  1
  O  O31  1  0.50000000  0.49273066  0.15513913  1
  O  O32  1  0.50000000  0.99273066  0.34486087  1
  O  O33  1  0.50000000  0.00726934  0.65513913  1
  O  O34  1  0.50000000  0.84486110  0.49273171  1
  O  O35  1  0.50000000  0.15513890  0.50726829  1
  O  O36  1  0.50000000  0.34486110  0.00726829  1
  O  O37  1  0.50000000  0.65513890  0.99273171  1
  O  O38  1  0.50000000  0.56966631  0.63949642  1
  O  O39  1  0.50000000  0.43033369  0.36050358  1
  O  O40  1  0.50000000  0.93033369  0.13949642  1
  O  O41  1  0.50000000  0.06966631  0.86050358  1
  O  O42  1  0.50000000  0.63949451  0.43033535  1
  O  O43  1  0.50000000  0.36050549  0.56966465  1
  O  O44  1  0.50000000  0.13949451  0.06966465  1
  O  O45  1  0.50000000  0.86050549  0.93033535  1
