# generated using pymatgen
data_Ag2SnSe3
_symmetry_space_group_name_H-M   'P 1'
_cell_length_a   7.49757889
_cell_length_b   7.49757886
_cell_length_c   28.52157228
_cell_angle_alpha   92.56939040
_cell_angle_beta   92.56939038
_cell_angle_gamma   119.82389057
_symmetry_Int_Tables_number   1
_chemical_formula_structural   Ag2SnSe3
_chemical_formula_sum   'Ag16 Sn8 Se24'
_cell_volume   1385.38616280
_cell_formula_units_Z   8
loop_
 _symmetry_equiv_pos_site_id
 _symmetry_equiv_pos_as_xyz
  1  'x, y, z'
loop_
 _atom_site_type_symbol
 _atom_site_label
 _atom_site_symmetry_multiplicity
 _atom_site_fract_x
 _atom_site_fract_y
 _atom_site_fract_z
 _atom_site_occupancy
  Ag  Ag0  1  0.85354675  0.68487549  0.01437196  1
  Ag  Ag1  1  0.68487549  0.85354675  0.51437196  1
  Ag  Ag2  1  0.51977743  0.02442339  0.01455851  1
  Ag  Ag3  1  0.02442339  0.51977743  0.51455851  1
  Ag  Ag4  1  0.88660126  0.37536966  0.13951145  1
  Ag  Ag5  1  0.37536966  0.88660126  0.63951145  1
  Ag  Ag6  1  0.22640439  0.06231156  0.14016203  1
  Ag  Ag7  1  0.06231156  0.22640439  0.64016203  1
  Ag  Ag8  1  0.91614799  0.09692855  0.26442861  1
  Ag  Ag9  1  0.09692855  0.91614799  0.76442861  1
  Ag  Ag10  1  0.58614113  0.42366776  0.26454487  1
  Ag  Ag11  1  0.42366776  0.58614113  0.76454487  1
  Ag  Ag12  1  0.63237394  0.12585692  0.39030757  1
  Ag  Ag13  1  0.12585692  0.63237394  0.89030757  1
  Ag  Ag14  1  0.29228444  0.47177846  0.38960569  1
  Ag  Ag15  1  0.47177846  0.29228444  0.88960569  1
  Sn  Sn16  1  0.16736535  0.33102012  0.01900124  1
  Sn  Sn17  1  0.33102012  0.16736535  0.51900124  1
  Sn  Sn18  1  0.56362333  0.71409984  0.14365486  1
  Sn  Sn19  1  0.71409984  0.56362333  0.64365486  1
  Sn  Sn20  1  0.27308008  0.75823744  0.26908053  1
  Sn  Sn21  1  0.75823744  0.27308008  0.76908053  1
  Sn  Sn22  1  0.95754584  0.78822583  0.39368966  1
  Sn  Sn23  1  0.78822583  0.95754584  0.89368966  1
  Se  Se24  1  0.30510310  0.14194981  0.42385044  1
  Se  Se25  1  0.14194981  0.30510310  0.92385044  1
  Se  Se26  1  0.51715949  0.68523559  0.04868634  1
  Se  Se27  1  0.68523559  0.51715949  0.54868634  1
  Se  Se28  1  0.94219832  0.77245024  0.29865813  1
  Se  Se29  1  0.77245024  0.94219832  0.79865813  1
  Se  Se30  1  0.59439141  0.10147216  0.29756151  1
  Se  Se31  1  0.10147216  0.59439141  0.79756151  1
  Se  Se32  1  0.26441667  0.43284342  0.29632852  1
  Se  Se33  1  0.43284342  0.26441667  0.79632852  1
  Se  Se34  1  0.23512844  0.72905222  0.17389329  1
  Se  Se35  1  0.72905222  0.23512844  0.67389329  1
  Se  Se36  1  0.89375769  0.05181395  0.17156536  1
  Se  Se37  1  0.05181395  0.89375769  0.67156536  1
  Se  Se38  1  0.86315724  0.36224113  0.04674717  1
  Se  Se39  1  0.36224113  0.86315724  0.54674717  1
  Se  Se40  1  0.96825769  0.47412115  0.42207240  1
  Se  Se41  1  0.47412115  0.96825769  0.92207240  1
  Se  Se42  1  0.57243311  0.39892994  0.17191944  1
  Se  Se43  1  0.39892994  0.57243311  0.67191944  1
  Se  Se44  1  0.19392324  0.02435532  0.04695749  1
  Se  Se45  1  0.02435532  0.19392324  0.54695749  1
  Se  Se46  1  0.64472798  0.80359374  0.42147290  1
  Se  Se47  1  0.80359374  0.64472798  0.92147290  1
