# generated using pymatgen
data_ErCoGe
_symmetry_space_group_name_H-M   'P 1'
_cell_length_a   4.20531626
_cell_length_b   6.80868067
_cell_length_c   7.20871335
_cell_angle_alpha   90.00000000
_cell_angle_beta   90.00000000
_cell_angle_gamma   90.00000000
_symmetry_Int_Tables_number   1
_chemical_formula_structural   ErCoGe
_chemical_formula_sum   'Er4 Co4 Ge4'
_cell_volume   206.40460617
_cell_formula_units_Z   4
loop_
 _symmetry_equiv_pos_site_id
 _symmetry_equiv_pos_as_xyz
  1  'x, y, z'
loop_
 _atom_site_type_symbol
 _atom_site_label
 _atom_site_symmetry_multiplicity
 _atom_site_fract_x
 _atom_site_fract_y
 _atom_site_fract_z
 _atom_site_occupancy
  Er  Er0  1  0.75000000  0.49237700  0.69824113  1
  Er  Er1  1  0.75000000  0.99237700  0.80175887  1
  Er  Er2  1  0.25000000  0.50762300  0.30175887  1
  Er  Er3  1  0.25000000  0.00762300  0.19824113  1
  Co  Co4  1  0.75000000  0.66742583  0.07346142  1
  Co  Co5  1  0.75000000  0.16742583  0.42653858  1
  Co  Co6  1  0.25000000  0.33257417  0.92653858  1
  Co  Co7  1  0.25000000  0.83257417  0.57346142  1
  Ge  Ge8  1  0.75000000  0.30035583  0.09852441  1
  Ge  Ge9  1  0.75000000  0.80035583  0.40147559  1
  Ge  Ge10  1  0.25000000  0.69964417  0.90147559  1
  Ge  Ge11  1  0.25000000  0.19964417  0.59852441  1
