# generated using pymatgen
data_Co(AsO2)2
_symmetry_space_group_name_H-M   'P 1'
_cell_length_a   5.78190768
_cell_length_b   8.45710961
_cell_length_c   8.45710961
_cell_angle_alpha   90.00000000
_cell_angle_beta   90.00000000
_cell_angle_gamma   90.00000000
_symmetry_Int_Tables_number   1
_chemical_formula_structural   Co(AsO2)2
_chemical_formula_sum   'Co4 As8 O16'
_cell_volume   413.53766551
_cell_formula_units_Z   4
loop_
 _symmetry_equiv_pos_site_id
 _symmetry_equiv_pos_as_xyz
  1  'x, y, z'
loop_
 _atom_site_type_symbol
 _atom_site_label
 _atom_site_symmetry_multiplicity
 _atom_site_fract_x
 _atom_site_fract_y
 _atom_site_fract_z
 _atom_site_occupancy
  Co  Co0  1  0.25000000  -0.00000000  0.50000000  1
  Co  Co1  1  0.75000000  0.50000000  0.00000000  1
  Co  Co2  1  0.75000000  0.00000000  0.50000000  1
  Co  Co3  1  0.25000000  0.50000000  -0.00000000  1
  As  As4  1  0.00000000  0.18808359  0.17261692  1
  As  As5  1  0.50000000  0.82738308  0.18808359  1
  As  As6  1  -0.00000000  0.81191641  0.82738308  1
  As  As7  1  0.50000000  0.17261692  0.81191641  1
  As  As8  1  0.00000000  0.68808359  0.32738308  1
  As  As9  1  -0.00000000  0.31191641  0.67261692  1
  As  As10  1  0.50000000  0.67261692  0.68808359  1
  As  As11  1  0.50000000  0.32738308  0.31191641  1
  O  O12  1  0.25000000  0.18269063  0.31730937  1
  O  O13  1  0.75000000  0.68269063  0.18269063  1
  O  O14  1  0.25000000  0.81730937  0.68269063  1
  O  O15  1  0.75000000  0.31730937  0.81730937  1
  O  O16  1  0.75000000  0.81730937  0.68269063  1
  O  O17  1  0.25000000  0.31730937  0.81730937  1
  O  O18  1  0.75000000  0.18269063  0.31730937  1
  O  O19  1  0.25000000  0.68269063  0.18269063  1
  O  O20  1  0.00000000  0.10632165  0.63826100  1
  O  O21  1  0.50000000  0.36173900  0.10632165  1
  O  O22  1  -0.00000000  0.89367835  0.36173900  1
  O  O23  1  0.50000000  0.63826100  0.89367835  1
  O  O24  1  0.00000000  0.60632165  0.86173900  1
  O  O25  1  -0.00000000  0.39367835  0.13826100  1
  O  O26  1  0.50000000  0.13826100  0.60632165  1
  O  O27  1  0.50000000  0.86173900  0.39367835  1
