# generated using pymatgen
data_Ni(AsO2)2
_symmetry_space_group_name_H-M   'P 1'
_cell_length_a   5.75619193
_cell_length_b   8.33912796
_cell_length_c   8.33912796
_cell_angle_alpha   90.00000000
_cell_angle_beta   90.00000000
_cell_angle_gamma   90.00000000
_symmetry_Int_Tables_number   1
_chemical_formula_structural   Ni(AsO2)2
_chemical_formula_sum   'Ni4 As8 O16'
_cell_volume   400.29166036
_cell_formula_units_Z   4
loop_
 _symmetry_equiv_pos_site_id
 _symmetry_equiv_pos_as_xyz
  1  'x, y, z'
loop_
 _atom_site_type_symbol
 _atom_site_label
 _atom_site_symmetry_multiplicity
 _atom_site_fract_x
 _atom_site_fract_y
 _atom_site_fract_z
 _atom_site_occupancy
  Ni  Ni0  1  0.25000000  -0.00000000  0.50000000  1
  Ni  Ni1  1  0.75000000  0.50000000  0.00000000  1
  Ni  Ni2  1  0.75000000  -0.00000000  0.50000000  1
  Ni  Ni3  1  0.25000000  0.50000000  -0.00000000  1
  As  As4  1  0.00000000  0.18462926  0.17109129  1
  As  As5  1  0.50000000  0.82890871  0.18462926  1
  As  As6  1  0.00000000  0.81537074  0.82890871  1
  As  As7  1  0.50000000  0.17109129  0.81537074  1
  As  As8  1  0.00000000  0.68462926  0.32890871  1
  As  As9  1  0.00000000  0.31537074  0.67109129  1
  As  As10  1  0.50000000  0.67109129  0.68462926  1
  As  As11  1  0.50000000  0.32890871  0.31537074  1
  O  O12  1  0.25000000  0.18172532  0.31827468  1
  O  O13  1  0.75000000  0.68172532  0.18172532  1
  O  O14  1  0.25000000  0.81827468  0.68172532  1
  O  O15  1  0.75000000  0.31827468  0.81827468  1
  O  O16  1  0.75000000  0.81827468  0.68172532  1
  O  O17  1  0.25000000  0.31827468  0.81827468  1
  O  O18  1  0.75000000  0.18172532  0.31827468  1
  O  O19  1  0.25000000  0.68172532  0.18172532  1
  O  O20  1  0.00000000  0.10667564  0.63679385  1
  O  O21  1  0.50000000  0.36320615  0.10667564  1
  O  O22  1  0.00000000  0.89332436  0.36320615  1
  O  O23  1  0.50000000  0.63679385  0.89332436  1
  O  O24  1  0.00000000  0.60667564  0.86320615  1
  O  O25  1  0.00000000  0.39332436  0.13679385  1
  O  O26  1  0.50000000  0.13679385  0.60667564  1
  O  O27  1  0.50000000  0.86320615  0.39332436  1
