# generated using pymatgen
data_GaFe2BO5
_symmetry_space_group_name_H-M   'P 1'
_cell_length_a   3.05901216
_cell_length_b   9.67284878
_cell_length_c   12.41177806
_cell_angle_alpha   90.00000000
_cell_angle_beta   90.00000000
_cell_angle_gamma   90.00000000
_symmetry_Int_Tables_number   1
_chemical_formula_structural   GaFe2BO5
_chemical_formula_sum   'Ga4 Fe8 B4 O20'
_cell_volume   367.25659458
_cell_formula_units_Z   4
loop_
 _symmetry_equiv_pos_site_id
 _symmetry_equiv_pos_as_xyz
  1  'x, y, z'
loop_
 _atom_site_type_symbol
 _atom_site_label
 _atom_site_symmetry_multiplicity
 _atom_site_fract_x
 _atom_site_fract_y
 _atom_site_fract_z
 _atom_site_occupancy
  Ga  Ga0  1  0.00000000  0.74229312  0.38267530  1
  Ga  Ga1  1  0.00000000  0.25770688  0.61732470  1
  Ga  Ga2  1  0.00000000  0.24229312  0.11732470  1
  Ga  Ga3  1  0.00000000  0.75770688  0.88267530  1
  Fe  Fe4  1  0.50000000  0.50086640  0.22201695  1
  Fe  Fe5  1  0.50000000  0.49913360  0.77798305  1
  Fe  Fe6  1  0.50000000  0.00086640  0.27798305  1
  Fe  Fe7  1  0.50000000  0.99913360  0.72201695  1
  Fe  Fe8  1  0.50000000  0.50000000  0.50000000  1
  Fe  Fe9  1  0.50000000  -0.00000000  0.00000000  1
  Fe  Fe10  1  0.00000000  -0.00000000  0.50000000  1
  Fe  Fe11  1  0.00000000  0.50000000  0.00000000  1
  B  B12  1  0.00000000  0.76943497  0.13704173  1
  B  B13  1  0.00000000  0.23056503  0.86295827  1
  B  B14  1  0.00000000  0.26943497  0.36295827  1
  B  B15  1  0.00000000  0.73056503  0.63704173  1
  O  O16  1  -0.00000000  0.84387067  0.04065056  1
  O  O17  1  0.00000000  0.15612933  0.95934944  1
  O  O18  1  -0.00000000  0.34387067  0.45934944  1
  O  O19  1  0.00000000  0.65612933  0.54065056  1
  O  O20  1  0.50000000  0.61569493  0.35766908  1
  O  O21  1  0.50000000  0.38430507  0.64233092  1
  O  O22  1  0.50000000  0.11569493  0.14233092  1
  O  O23  1  0.50000000  0.88430507  0.85766908  1
  O  O24  1  -0.00000000  0.62614877  0.13745622  1
  O  O25  1  0.00000000  0.37385123  0.86254378  1
  O  O26  1  -0.00000000  0.12614877  0.36254378  1
  O  O27  1  0.00000000  0.87385123  0.63745622  1
  O  O28  1  0.50000000  0.87735188  0.41737977  1
  O  O29  1  0.50000000  0.12264812  0.58262023  1
  O  O30  1  0.50000000  0.37735188  0.08262023  1
  O  O31  1  0.50000000  0.62264812  0.91737977  1
  O  O32  1  0.00000000  0.84102727  0.23457414  1
  O  O33  1  0.00000000  0.15897273  0.76542586  1
  O  O34  1  0.00000000  0.34102727  0.26542586  1
  O  O35  1  0.00000000  0.65897273  0.73457414  1
