# generated using pymatgen
data_K3V2P2O8F3
_symmetry_space_group_name_H-M   'P 1'
_cell_length_a   7.50085620
_cell_length_b   7.50094880
_cell_length_c   9.26273547
_cell_angle_alpha   89.99988871
_cell_angle_beta   90.00082059
_cell_angle_gamma   76.25520966
_symmetry_Int_Tables_number   1
_chemical_formula_structural   K3V2P2O8F3
_chemical_formula_sum   'K6 V4 P4 O16 F6'
_cell_volume   506.23033048
_cell_formula_units_Z   2
loop_
 _symmetry_equiv_pos_site_id
 _symmetry_equiv_pos_as_xyz
  1  'x, y, z'
loop_
 _atom_site_type_symbol
 _atom_site_label
 _atom_site_symmetry_multiplicity
 _atom_site_fract_x
 _atom_site_fract_y
 _atom_site_fract_z
 _atom_site_occupancy
  K  K0  1  0.97244989  0.02754954  0.23801406  1
  K  K1  1  0.02750752  0.97251038  0.73801780  1
  K  K2  1  0.36066002  0.63934406  0.57931249  1
  K  K3  1  0.63931098  0.36070225  0.07928727  1
  K  K4  1  0.28471494  0.71527753  0.96429395  1
  K  K5  1  0.71528803  0.28471844  0.46438402  1
  V  V6  1  0.07231966  0.56147937  0.25398522  1
  V  V7  1  0.92770451  0.43850748  0.75395528  1
  V  V8  1  0.43852431  0.92766469  0.25398082  1
  V  V9  1  0.56147639  0.07232857  0.75396390  1
  P  P10  1  0.24363996  0.24514583  0.50073176  1
  P  P11  1  0.24508775  0.24368608  0.00047367  1
  P  P12  1  0.75634255  0.75486660  0.00048229  1
  P  P13  1  0.75487441  0.75631974  0.50072143  1
  O  O14  1  0.23222695  0.41518251  0.09782395  1
  O  O15  1  0.76777063  0.58486928  0.59791972  1
  O  O16  1  0.41513049  0.23223251  0.59792776  1
  O  O17  1  0.58481303  0.76776312  0.09782086  1
  O  O18  1  0.07087121  0.26259221  0.90553931  1
  O  O19  1  0.73741159  0.92914826  0.90553062  1
  O  O20  1  0.26262279  0.07078572  0.40565440  1
  O  O21  1  0.92920732  0.73737288  0.40566126  1
  O  O22  1  0.06651306  0.26754324  0.59329230  1
  O  O23  1  0.93354121  0.73241948  0.09319806  1
  O  O24  1  0.73245273  0.93349407  0.59330267  1
  O  O25  1  0.26756835  0.06645193  0.09319985  1
  O  O26  1  0.41820770  0.23317828  0.90564217  1
  O  O27  1  0.76682749  0.58180107  0.90564498  1
  O  O28  1  0.23319438  0.41824855  0.40574109  1
  O  O29  1  0.58174787  0.76680119  0.40573410  1
  F  F30  1  0.25817912  0.74181253  0.25152002  1
  F  F31  1  0.74182831  0.25818130  0.75151347  1
  F  F32  1  0.09852090  0.60701916  0.75491954  1
  F  F33  1  0.90146045  0.39296359  0.25494433  1
  F  F34  1  0.39297389  0.90148847  0.75492526  1
  F  F35  1  0.60703459  0.09854310  0.25494129  1
