# generated using pymatgen
data_LiAl2H6BrO6
_symmetry_space_group_name_H-M   'P 1'
_cell_length_a   5.20345655
_cell_length_b   5.20345554
_cell_length_c   14.53199959
_cell_angle_alpha   90.00000000
_cell_angle_beta   90.00000000
_cell_angle_gamma   120.00001433
_symmetry_Int_Tables_number   1
_chemical_formula_structural   LiAl2H6BrO6
_chemical_formula_sum   'Li2 Al4 H12 Br2 O12'
_cell_volume   340.75303049
_cell_formula_units_Z   2
loop_
 _symmetry_equiv_pos_site_id
 _symmetry_equiv_pos_as_xyz
  1  'x, y, z'
loop_
 _atom_site_type_symbol
 _atom_site_label
 _atom_site_symmetry_multiplicity
 _atom_site_fract_x
 _atom_site_fract_y
 _atom_site_fract_z
 _atom_site_occupancy
  Li  Li0  1  0.99999039  0.00000000  0.49999990  1
  Li  Li1  1  0.00000961  1.00000000  -0.00000010  1
  Al  Al2  1  0.33332893  0.66667025  0.49999972  1
  Al  Al3  1  0.66665868  0.33332975  0.49999972  1
  Al  Al4  1  0.66667107  0.33332975  -0.00000028  1
  Al  Al5  1  0.33334132  0.66667025  -0.00000028  1
  H  H6  1  0.68551832  0.68551107  0.13176890  1
  H  H7  1  0.00000726  0.31448893  0.13176890  1
  H  H8  1  0.31449055  0.00000000  0.13176730  1
  H  H9  1  0.31449219  0.31448675  0.86823252  1
  H  H10  1  0.00000544  0.68551325  0.86823252  1
  H  H11  1  0.68551805  1.00000000  0.86822832  1
  H  H12  1  0.31448168  0.31448893  0.63176890  1
  H  H13  1  0.99999274  0.68551107  0.63176890  1
  H  H14  1  0.68550945  1.00000000  0.63176730  1
  H  H15  1  0.68550781  0.68551325  0.36823252  1
  H  H16  1  0.99999456  0.31448675  0.36823252  1
  H  H17  1  0.31448195  0.00000000  0.36822832  1
  Br  Br18  1  0.00000156  0.00000000  0.74999955  1
  Br  Br19  1  0.99999844  -0.00000000  0.24999955  1
  O  O20  1  0.63090052  0.63090012  0.06697044  1
  O  O21  1  0.00000040  0.36909988  0.06697044  1
  O  O22  1  0.36911786  0.00000000  0.06697106  1
  O  O23  1  0.36911176  0.36910823  0.93302823  1
  O  O24  1  0.00000353  0.63089177  0.93302823  1
  O  O25  1  0.63090279  1.00000000  0.93303425  1
  O  O26  1  0.36909948  0.36909988  0.56697044  1
  O  O27  1  -0.00000040  0.63090012  0.56697044  1
  O  O28  1  0.63088214  1.00000000  0.56697106  1
  O  O29  1  0.63088824  0.63089177  0.43302823  1
  O  O30  1  0.99999647  0.36910823  0.43302823  1
  O  O31  1  0.36909721  0.00000000  0.43303425  1
