# generated using pymatgen
data_KSnI3
_symmetry_space_group_name_H-M   'P 1'
_cell_length_a   4.78961518
_cell_length_b   10.38448103
_cell_length_c   17.34593822
_cell_angle_alpha   90.00000000
_cell_angle_beta   90.00000000
_cell_angle_gamma   90.00000000
_symmetry_Int_Tables_number   1
_chemical_formula_structural   KSnI3
_chemical_formula_sum   'K4 Sn4 I12'
_cell_volume   862.74651595
_cell_formula_units_Z   4
loop_
 _symmetry_equiv_pos_site_id
 _symmetry_equiv_pos_as_xyz
  1  'x, y, z'
loop_
 _atom_site_type_symbol
 _atom_site_label
 _atom_site_symmetry_multiplicity
 _atom_site_fract_x
 _atom_site_fract_y
 _atom_site_fract_z
 _atom_site_occupancy
  K  K0  1  0.75000000  0.08077927  0.67242092  1
  K  K1  1  0.25000000  0.91921973  0.32757908  1
  K  K2  1  0.75000000  0.58077927  0.82757908  1
  K  K3  1  0.25000000  0.41922073  0.17242092  1
  Sn  Sn4  1  0.25000000  0.16183128  0.93942981  1
  Sn  Sn5  1  0.75000000  0.83816872  0.06057019  1
  Sn  Sn6  1  0.25000000  0.66183128  0.56057019  1
  Sn  Sn7  1  0.75000000  0.33816872  0.43942981  1
  I  I8  1  0.75000000  0.34119604  0.00353508  1
  I  I9  1  0.25000000  0.65880396  0.99646492  1
  I  I10  1  0.75000000  0.84119604  0.49646492  1
  I  I11  1  0.25000000  0.15880296  0.50353508  1
  I  I12  1  0.25000000  0.02580240  0.11775230  1
  I  I13  1  0.75000000  0.97419660  0.88224870  1
  I  I14  1  0.25000000  0.52580340  0.38224870  1
  I  I15  1  0.75000000  0.47419760  0.61775130  1
  I  I16  1  0.25000000  0.29952395  0.78582531  1
  I  I17  1  0.75000000  0.70047605  0.21417469  1
  I  I18  1  0.25000000  0.79952395  0.71417369  1
  I  I19  1  0.75000000  0.20047605  0.28582631  1
