# generated using pymatgen
data_CsBaI3
_symmetry_space_group_name_H-M   'P 1'
_cell_length_a   5.26961122
_cell_length_b   10.77526867
_cell_length_c   18.81991808
_cell_angle_alpha   90.00000000
_cell_angle_beta   90.00000000
_cell_angle_gamma   90.00000000
_symmetry_Int_Tables_number   1
_chemical_formula_structural   CsBaI3
_chemical_formula_sum   'Cs4 Ba4 I12'
_cell_volume   1068.62273962
_cell_formula_units_Z   4
loop_
 _symmetry_equiv_pos_site_id
 _symmetry_equiv_pos_as_xyz
  1  'x, y, z'
loop_
 _atom_site_type_symbol
 _atom_site_label
 _atom_site_symmetry_multiplicity
 _atom_site_fract_x
 _atom_site_fract_y
 _atom_site_fract_z
 _atom_site_occupancy
  Cs  Cs0  1  0.75000000  0.08033837  0.67623456  1
  Cs  Cs1  1  0.25000000  0.91966163  0.32376544  1
  Cs  Cs2  1  0.75000000  0.58033837  0.82376544  1
  Cs  Cs3  1  0.25000000  0.41966163  0.17623456  1
  Ba  Ba4  1  0.25000000  0.17112147  0.93820622  1
  Ba  Ba5  1  0.75000000  0.82887853  0.06179378  1
  Ba  Ba6  1  0.25000000  0.67112147  0.56179378  1
  Ba  Ba7  1  0.75000000  0.32887853  0.43820622  1
  I  I8  1  0.75000000  0.34103252  0.00834279  1
  I  I9  1  0.25000000  0.65896748  0.99165721  1
  I  I10  1  0.75000000  0.84103252  0.49165721  1
  I  I11  1  0.25000000  0.15896748  0.50834279  1
  I  I12  1  0.25000000  0.02992333  0.10639235  1
  I  I13  1  0.75000000  0.97007667  0.89360765  1
  I  I14  1  0.25000000  0.52992333  0.39360765  1
  I  I15  1  0.75000000  0.47007667  0.60639235  1
  I  I16  1  0.25000000  0.30732355  0.77717305  1
  I  I17  1  0.75000000  0.69267645  0.22282695  1
  I  I18  1  0.25000000  0.80732355  0.72282695  1
  I  I19  1  0.75000000  0.19267645  0.27717305  1
