# generated using pymatgen
data_Li9Mn2Co5O16
_symmetry_space_group_name_H-M   'P 1'
_cell_length_a   2.89184705
_cell_length_b   10.64964220
_cell_length_c   10.26333225
_cell_angle_alpha   112.81635339
_cell_angle_beta   89.99999963
_cell_angle_gamma   82.19673841
_symmetry_Int_Tables_number   1
_chemical_formula_structural   Li9Mn2Co5O16
_chemical_formula_sum   'Li9 Mn2 Co5 O16'
_cell_volume   288.17070948
_cell_formula_units_Z   1
loop_
 _symmetry_equiv_pos_site_id
 _symmetry_equiv_pos_as_xyz
  1  'x, y, z'
loop_
 _atom_site_type_symbol
 _atom_site_label
 _atom_site_symmetry_multiplicity
 _atom_site_fract_x
 _atom_site_fract_y
 _atom_site_fract_z
 _atom_site_occupancy
  Li  Li0  1  0.37399867  0.25200265  0.19087864  1
  Li  Li1  1  0.12429987  0.75140025  0.55885356  1
  Li  Li2  1  0.87115710  0.25768579  0.93605158  1
  Li  Li3  1  0.87384773  0.25230455  0.44558756  1
  Li  Li4  1  0.63011831  0.73976339  0.81002096  1
  Li  Li5  1  0.37742460  0.24515081  0.67246354  1
  Li  Li6  1  0.12488905  0.75022190  0.07269026  1
  Li  Li7  1  0.61989703  0.76020593  0.31351675  1
  Li  Li8  1  0.00225629  0.99548742  0.49958584  1
  Mn  Mn9  1  0.00081417  0.99837166  0.00019090  1
  Mn  Mn10  1  0.50143431  0.99713138  0.74079615  1
  Co  Co11  1  0.74925395  0.50149209  0.37408913  1
  Co  Co12  1  0.25121946  0.49756108  0.12466428  1
  Co  Co13  1  0.75044362  0.49911275  0.87503853  1
  Co  Co14  1  0.49538756  0.00922489  0.27641536  1
  Co  Co15  1  0.24901789  0.50196422  0.62640928  1
  O  O16  1  0.44728070  0.10543859  0.96174192  1
  O  O17  1  0.19521087  0.60957826  0.34248307  1
  O  O18  1  0.94416045  0.11167910  0.72673833  1
  O  O19  1  0.94745895  0.10508210  0.19651419  1
  O  O20  1  0.69196908  0.61606184  0.59860507  1
  O  O21  1  0.43675551  0.12648898  0.45696746  1
  O  O22  1  0.19285787  0.61428426  0.84316433  1
  O  O23  1  0.69287658  0.61424684  0.09108563  1
  O  O24  1  0.30323109  0.39353782  0.40654575  1
  O  O25  1  0.05325962  0.89348077  0.78958773  1
  O  O26  1  0.81066280  0.37867439  0.15213188  1
  O  O27  1  0.80745581  0.38508838  0.65759706  1
  O  O28  1  0.55696863  0.88606273  0.01927010  1
  O  O29  1  0.30771676  0.38456649  0.90658859  1
  O  O30  1  0.05909435  0.88181129  0.27793160  1
  O  O31  1  0.55758130  0.88483739  0.55579497  1
