# generated using pymatgen
data_CsY(MoO4)2
_symmetry_space_group_name_H-M   'P 1'
_cell_length_a   5.12047798
_cell_length_b   8.23016845
_cell_length_c   9.64931380
_cell_angle_alpha   90.00000000
_cell_angle_beta   90.00000000
_cell_angle_gamma   90.00000000
_symmetry_Int_Tables_number   1
_chemical_formula_structural   CsY(MoO4)2
_chemical_formula_sum   'Cs2 Y2 Mo4 O16'
_cell_volume   406.64520637
_cell_formula_units_Z   2
loop_
 _symmetry_equiv_pos_site_id
 _symmetry_equiv_pos_as_xyz
  1  'x, y, z'
loop_
 _atom_site_type_symbol
 _atom_site_label
 _atom_site_symmetry_multiplicity
 _atom_site_fract_x
 _atom_site_fract_y
 _atom_site_fract_z
 _atom_site_occupancy
  Cs  Cs0  1  0.00000000  0.75000000  0.50000000  1
  Cs  Cs1  1  0.00000000  0.25000000  0.50000000  1
  Y  Y2  1  0.00000000  0.75000000  0.00000000  1
  Y  Y3  1  0.00000000  0.25000000  0.00000000  1
  Mo  Mo4  1  0.47631685  -0.00000000  0.80757764  1
  Mo  Mo5  1  0.52368315  -0.00000000  0.19242236  1
  Mo  Mo6  1  0.52368315  0.50000000  0.80757764  1
  Mo  Mo7  1  0.47631685  0.50000000  0.19242236  1
  O  O8  1  0.73908131  0.67469963  0.81531228  1
  O  O9  1  0.26091869  0.32530037  0.18468772  1
  O  O10  1  0.26091869  0.67469963  0.18468772  1
  O  O11  1  0.26091869  0.82530037  0.81531228  1
  O  O12  1  0.73908131  0.32530037  0.81531228  1
  O  O13  1  0.73908131  0.17469963  0.18468772  1
  O  O14  1  0.73908131  0.82530037  0.18468772  1
  O  O15  1  0.26091869  0.17469963  0.81531228  1
  O  O16  1  0.75149410  -0.00000000  0.93507949  1
  O  O17  1  0.24850590  -0.00000000  0.06492051  1
  O  O18  1  0.24850590  0.50000000  0.93507949  1
  O  O19  1  0.75149410  0.50000000  0.06492051  1
  O  O20  1  0.61106015  -0.00000000  0.64104192  1
  O  O21  1  0.38893985  -0.00000000  0.35895808  1
  O  O22  1  0.38893985  0.50000000  0.64104192  1
  O  O23  1  0.61106015  0.50000000  0.35895808  1
