# generated using pymatgen
data_Cs2VHO4
_symmetry_space_group_name_H-M   'P 1'
_cell_length_a   5.49593174
_cell_length_b   6.96833453
_cell_length_c   9.04751166
_cell_angle_alpha   90.00000000
_cell_angle_beta   90.00000000
_cell_angle_gamma   113.22547396
_symmetry_Int_Tables_number   1
_chemical_formula_structural   Cs2VHO4
_chemical_formula_sum   'Cs4 V2 H2 O8'
_cell_volume   318.41691393
_cell_formula_units_Z   2
loop_
 _symmetry_equiv_pos_site_id
 _symmetry_equiv_pos_as_xyz
  1  'x, y, z'
loop_
 _atom_site_type_symbol
 _atom_site_label
 _atom_site_symmetry_multiplicity
 _atom_site_fract_x
 _atom_site_fract_y
 _atom_site_fract_z
 _atom_site_occupancy
  Cs  Cs0  1  0.38417791  0.76835682  0.05102719  1
  Cs  Cs1  1  0.61582109  0.23164418  0.55102819  1
  Cs  Cs2  1  0.94036210  0.88072721  0.39575624  1
  Cs  Cs3  1  0.05963690  0.11927379  0.89575624  1
  V  V4  1  0.30399557  0.60799013  0.62278309  1
  V  V5  1  0.69600443  0.39200987  0.12278209  1
  H  H6  1  0.83054619  0.66109338  0.72175302  1
  H  H7  1  0.16945281  0.33890662  0.22175302  1
  O  O8  1  0.62890344  0.25780788  0.95879686  1
  O  O9  1  0.61120312  0.67039781  0.71937677  1
  O  O10  1  0.38879688  0.32960219  0.21937777  1
  O  O11  1  0.37109656  0.74219312  0.45879786  1
  O  O12  1  0.94080630  0.32960219  0.21937777  1
  O  O13  1  0.05919470  0.67039781  0.71937677  1
  O  O14  1  0.82780506  0.65561112  0.09012905  1
  O  O15  1  0.17219394  0.34438788  0.59013005  1
