# generated using pymatgen
data_KSnBr3
_symmetry_space_group_name_H-M   'P 1'
_cell_length_a   4.51932881
_cell_length_b   9.65116543
_cell_length_c   16.28049253
_cell_angle_alpha   90.00000000
_cell_angle_beta   90.00000000
_cell_angle_gamma   90.00000000
_symmetry_Int_Tables_number   1
_chemical_formula_structural   KSnBr3
_chemical_formula_sum   'K4 Sn4 Br12'
_cell_volume   710.10282342
_cell_formula_units_Z   4
loop_
 _symmetry_equiv_pos_site_id
 _symmetry_equiv_pos_as_xyz
  1  'x, y, z'
loop_
 _atom_site_type_symbol
 _atom_site_label
 _atom_site_symmetry_multiplicity
 _atom_site_fract_x
 _atom_site_fract_y
 _atom_site_fract_z
 _atom_site_occupancy
  K  K0  1  0.75000000  0.08081056  0.67253965  1
  K  K1  1  0.25000000  0.91918844  0.32746035  1
  K  K2  1  0.75000000  0.58081056  0.82746035  1
  K  K3  1  0.25000000  0.41918944  0.17253965  1
  Sn  Sn4  1  0.25000000  0.16370826  0.93818748  1
  Sn  Sn5  1  0.75000000  0.83629174  0.06181252  1
  Sn  Sn6  1  0.25000000  0.66370826  0.56181252  1
  Sn  Sn7  1  0.75000000  0.33629174  0.43818748  1
  Br  Br8  1  0.75000000  0.34077921  0.00313046  1
  Br  Br9  1  0.25000000  0.65922079  0.99686954  1
  Br  Br10  1  0.75000000  0.84077921  0.49686954  1
  Br  Br11  1  0.25000000  0.15921979  0.50313046  1
  Br  Br12  1  0.25000000  0.02494410  0.11875031  1
  Br  Br13  1  0.75000000  0.97505490  0.88125069  1
  Br  Br14  1  0.25000000  0.52494510  0.38125069  1
  Br  Br15  1  0.75000000  0.47505590  0.61874931  1
  Br  Br16  1  0.25000000  0.29898385  0.78645468  1
  Br  Br17  1  0.75000000  0.70101615  0.21354532  1
  Br  Br18  1  0.25000000  0.79898385  0.71354432  1
  Br  Br19  1  0.75000000  0.20101615  0.28645568  1
