# generated using pymatgen
data_Ba3NaEu3(Si3O10)2
_symmetry_space_group_name_H-M   'P 1'
_cell_length_a   5.65464993
_cell_length_b   12.50432933
_cell_length_c   15.00704030
_cell_angle_alpha   90.00000000
_cell_angle_beta   90.00000000
_cell_angle_gamma   103.06802027
_symmetry_Int_Tables_number   1
_chemical_formula_structural   Ba3NaEu3(Si3O10)2
_chemical_formula_sum   'Ba6 Na2 Eu6 Si12 O40'
_cell_volume   1033.63154313
_cell_formula_units_Z   2
loop_
 _symmetry_equiv_pos_site_id
 _symmetry_equiv_pos_as_xyz
  1  'x, y, z'
loop_
 _atom_site_type_symbol
 _atom_site_label
 _atom_site_symmetry_multiplicity
 _atom_site_fract_x
 _atom_site_fract_y
 _atom_site_fract_z
 _atom_site_occupancy
  Ba  Ba0  1  0.82362436  0.83782398  0.75000000  1
  Ba  Ba1  1  0.98580038  0.16217602  0.25000000  1
  Ba  Ba2  1  0.14977435  0.48615710  0.11327365  1
  Ba  Ba3  1  0.66361725  0.51384290  0.88672635  1
  Ba  Ba4  1  0.14977435  0.48615710  0.38672635  1
  Ba  Ba5  1  0.66361725  0.51384290  0.61327365  1
  Na  Na6  1  0.44532800  0.22289717  0.75000000  1
  Na  Na7  1  0.22243083  0.77710283  0.25000000  1
  Eu  Eu8  1  0.36366276  0.77953540  0.96901618  1
  Eu  Eu9  1  0.58412736  0.22046460  0.03098382  1
  Eu  Eu10  1  0.36366276  0.77953540  0.53098382  1
  Eu  Eu11  1  0.58412736  0.22046460  0.46901618  1
  Eu  Eu12  1  0.97304676  1.00000000  0.00000000  1
  Eu  Eu13  1  0.97304676  1.00000000  0.50000000  1
  Si  Si14  1  0.78771324  0.69709830  0.05789314  1
  Si  Si15  1  0.09061495  0.30290170  0.94210686  1
  Si  Si16  1  0.78771324  0.69709830  0.44210686  1
  Si  Si17  1  0.09061495  0.30290170  0.55789314  1
  Si  Si18  1  0.25641412  0.63982883  0.75000000  1
  Si  Si19  1  0.61658529  0.36017117  0.25000000  1
  Si  Si20  1  0.41771565  0.99975311  0.85953132  1
  Si  Si21  1  0.41796253  0.00024689  0.14046868  1
  Si  Si22  1  0.41771565  0.99975311  0.64046868  1
  Si  Si23  1  0.41796253  0.00024689  0.35953132  1
  Si  Si24  1  0.07059668  0.38038564  0.75000000  1
  Si  Si25  1  0.69021104  0.61961436  0.25000000  1
  O  O26  1  0.43462097  0.02636256  0.75000000  1
  O  O27  1  0.40825841  0.97363744  0.25000000  1
  O  O28  1  0.85100917  0.68380289  0.16552591  1
  O  O29  1  0.16720628  0.31619711  0.83447409  1
  O  O30  1  0.85100917  0.68380289  0.33447409  1
  O  O31  1  0.16720628  0.31619711  0.66552591  1
  O  O32  1  0.26267474  0.50376178  0.75000000  1
  O  O33  1  0.75891296  0.49623822  0.25000000  1
  O  O34  1  0.51823725  0.62236734  0.03193902  1
  O  O35  1  0.89586991  0.37763266  0.96806098  1
  O  O36  1  0.51823725  0.62236734  0.46806098  1
  O  O37  1  0.89586991  0.37763266  0.53193902  1
  O  O38  1  0.42237410  0.69012672  0.83701776  1
  O  O39  1  0.73224738  0.30987328  0.16298224  1
  O  O40  1  0.42237410  0.69012672  0.66298224  1
  O  O41  1  0.73224738  0.30987328  0.33701776  1
  O  O42  1  0.99690311  0.65291791  0.00288944  1
  O  O43  1  0.34398520  0.34708209  0.99711056  1
  O  O44  1  0.99690311  0.65291791  0.49711056  1
  O  O45  1  0.34398520  0.34708209  0.50288944  1
  O  O46  1  0.16900433  0.90516870  0.88277484  1
  O  O47  1  0.26383563  0.09483130  0.11722516  1
  O  O48  1  0.16900433  0.90516870  0.61722516  1
  O  O49  1  0.26383563  0.09483130  0.38277484  1
  O  O50  1  0.39406798  0.11148472  0.91128346  1
  O  O51  1  0.28258326  0.88851528  0.08871654  1
  O  O52  1  0.39406798  0.11148472  0.58871654  1
  O  O53  1  0.28258326  0.88851528  0.41128346  1
  O  O54  1  0.76631027  0.82176194  0.03399407  1
  O  O55  1  0.94454834  0.17823806  0.96600593  1
  O  O56  1  0.76631027  0.82176194  0.46600593  1
  O  O57  1  0.94454834  0.17823806  0.53399407  1
  O  O58  1  0.64301359  0.94587885  0.89040103  1
  O  O59  1  0.69713474  0.05412115  0.10959897  1
  O  O60  1  0.64301359  0.94587885  0.60959897  1
  O  O61  1  0.69713474  0.05412115  0.39040103  1
  O  O62  1  0.97418321  0.64795988  0.75000000  1
  O  O63  1  0.32622332  0.35204012  0.25000000  1
  O  O64  1  0.40639789  0.61757090  0.25000000  1
  O  O65  1  0.78882699  0.38242910  0.75000000  1
