# generated using pymatgen
data_Li9Mn2Co5O16
_symmetry_space_group_name_H-M   'P 1'
_cell_length_a   2.89971763
_cell_length_b   15.35251529
_cell_length_c   6.64162645
_cell_angle_alpha   92.24961546
_cell_angle_beta   77.39086010
_cell_angle_gamma   90.00000051
_symmetry_Int_Tables_number   1
_chemical_formula_structural   Li9Mn2Co5O16
_chemical_formula_sum   'Li9 Mn2 Co5 O16'
_cell_volume   288.30712157
_cell_formula_units_Z   1
loop_
 _symmetry_equiv_pos_site_id
 _symmetry_equiv_pos_as_xyz
  1  'x, y, z'
loop_
 _atom_site_type_symbol
 _atom_site_label
 _atom_site_symmetry_multiplicity
 _atom_site_fract_x
 _atom_site_fract_y
 _atom_site_fract_z
 _atom_site_occupancy
  Li  Li0  1  0.30709959  0.06467654  0.38580083  1
  Li  Li1  1  0.94136905  0.18427426  0.11726190  1
  Li  Li2  1  0.56412121  0.30724787  0.87175759  1
  Li  Li3  1  0.68573510  0.94221804  0.62852980  1
  Li  Li4  1  0.06477140  0.81156258  0.87045721  1
  Li  Li5  1  0.43734271  0.69099173  0.12531459  1
  Li  Li6  1  0.18704396  0.43804702  0.62591209  1
  Li  Li7  1  0.81088444  0.56518893  0.37823112  1
  Li  Li8  1  0.62562887  0.12198322  0.74874226  1
  Mn  Mn9  1  0.00597246  0.00309397  0.98805507  1
  Mn  Mn10  1  0.87167137  0.37378849  0.25665726  1
  Co  Co11  1  0.23507449  0.24025627  0.52985101  1
  Co  Co12  1  0.50001784  0.50138732  -0.00003568  1
  Co  Co13  1  0.12857760  0.62479997  0.74284479  1
  Co  Co14  1  0.75128708  0.75046406  0.49742584  1
  Co  Co15  1  0.37391916  0.87622569  0.25216167  1
  O  O16  1  0.47151003  0.08270236  0.05697995  1
  O  O17  1  0.09896916  0.22459751  0.80206168  1
  O  O18  1  0.73236158  0.34076362  0.53527684  1
  O  O19  1  0.85452571  0.96381827  0.29094858  1
  O  O20  1  0.22426952  0.83944815  0.55146097  1
  O  O21  1  0.59828908  0.71204444  0.80342183  1
  O  O22  1  0.34454980  0.45721965  0.31090040  1
  O  O23  1  0.97455556  0.58391375  0.05088889  1
  O  O24  1  0.14300957  0.02782052  0.71398085  1
  O  O25  1  0.78314989  0.16327320  0.43370022  1
  O  O26  1  0.40465431  0.29409024  0.19069139  1
  O  O27  1  0.52577692  0.91570385  0.94844616  1
  O  O28  1  0.90345906  0.78714045  0.19308188  1
  O  O29  1  0.27909178  0.65870247  0.44181644  1
  O  O30  1  0.01744695  0.41624777  0.96510609  1
  O  O31  1  0.65386476  0.53630779  0.69227048  1
