# generated using pymatgen
data_IrO3
_symmetry_space_group_name_H-M   'P 1'
_cell_length_a   7.13411661
_cell_length_b   7.34132090
_cell_length_c   7.29490475
_cell_angle_alpha   90.00000000
_cell_angle_beta   90.00000000
_cell_angle_gamma   89.98451258
_symmetry_Int_Tables_number   1
_chemical_formula_structural   IrO3
_chemical_formula_sum   'Ir8 O24'
_cell_volume   382.06215583
_cell_formula_units_Z   8
loop_
 _symmetry_equiv_pos_site_id
 _symmetry_equiv_pos_as_xyz
  1  'x, y, z'
loop_
 _atom_site_type_symbol
 _atom_site_label
 _atom_site_symmetry_multiplicity
 _atom_site_fract_x
 _atom_site_fract_y
 _atom_site_fract_z
 _atom_site_occupancy
  Ir  Ir0  1  0.25024711  0.49845029  0.25113756  1
  Ir  Ir1  1  0.75023016  0.50121598  0.24868699  1
  Ir  Ir2  1  0.24976984  0.99878402  0.24868699  1
  Ir  Ir3  1  0.74975289  0.00154971  0.25113756  1
  Ir  Ir4  1  0.74975289  0.50154971  0.74886244  1
  Ir  Ir5  1  0.24976984  0.49878402  0.75131301  1
  Ir  Ir6  1  0.75023016  0.00121598  0.75131301  1
  Ir  Ir7  1  0.25024711  0.99845029  0.74886244  1
  O  O8  1  0.32911892  0.49996144  0.00091025  1
  O  O9  1  0.82916380  0.49978975  0.49924307  1
  O  O10  1  0.17083620  0.00021025  0.49924307  1
  O  O11  1  0.67088108  0.00003856  0.00091025  1
  O  O12  1  0.67088108  0.50003856  0.99909075  1
  O  O13  1  0.17083620  0.50021025  0.50075693  1
  O  O14  1  0.82916380  0.99978975  0.50075693  1
  O  O15  1  0.32911892  -0.00003856  0.99909075  1
  O  O16  1  0.00025215  0.92634081  0.82838752  1
  O  O17  1  0.50013741  0.07374322  0.67154492  1
  O  O18  1  0.49986259  0.42625678  0.67154492  1
  O  O19  1  0.99974785  0.57365919  0.82838752  1
  O  O20  1  0.99974785  0.07365919  0.17161248  1
  O  O21  1  0.49986259  0.92625678  0.32845508  1
  O  O22  1  0.50013741  0.57374322  0.32845508  1
  O  O23  1  0.00025215  0.42634081  0.17161248  1
  O  O24  1  0.32489853  0.24910870  0.27300651  1
  O  O25  1  0.82496450  0.25099013  0.77311599  1
  O  O26  1  0.17503550  0.24900987  0.77311599  1
  O  O27  1  0.67510147  0.75089130  0.72699349  1
  O  O28  1  0.67510147  0.25089130  0.27300651  1
  O  O29  1  0.17503550  0.74900987  0.22688501  1
  O  O30  1  0.82496450  0.75099013  0.22688501  1
  O  O31  1  0.32489853  0.74910870  0.72699349  1
