# generated using pymatgen
data_LiEu3O4
_symmetry_space_group_name_H-M   'P 1'
_cell_length_a   11.74007469
_cell_length_b   11.51308338
_cell_length_c   3.45547710
_cell_angle_alpha   90.00000000
_cell_angle_beta   90.00000000
_cell_angle_gamma   90.00000000
_symmetry_Int_Tables_number   1
_chemical_formula_structural   LiEu3O4
_chemical_formula_sum   'Li4 Eu12 O16'
_cell_volume   467.05769209
_cell_formula_units_Z   4
loop_
 _symmetry_equiv_pos_site_id
 _symmetry_equiv_pos_as_xyz
  1  'x, y, z'
loop_
 _atom_site_type_symbol
 _atom_site_label
 _atom_site_symmetry_multiplicity
 _atom_site_fract_x
 _atom_site_fract_y
 _atom_site_fract_z
 _atom_site_occupancy
  Li  Li0  1  0.59458807  0.65162853  0.25000000  1
  Li  Li1  1  0.90541193  0.15162853  0.25000000  1
  Li  Li2  1  0.40541193  0.34837147  0.75000000  1
  Li  Li3  1  0.09458807  0.84837147  0.75000000  1
  Eu  Eu4  1  0.29575614  0.85884563  0.25000000  1
  Eu  Eu5  1  0.20424386  0.35884563  0.25000000  1
  Eu  Eu6  1  0.70424386  0.14115437  0.75000000  1
  Eu  Eu7  1  0.79575614  0.64115437  0.75000000  1
  Eu  Eu8  1  0.88893034  0.89802903  0.25000000  1
  Eu  Eu9  1  0.61106966  0.39802903  0.25000000  1
  Eu  Eu10  1  0.11106966  0.10197097  0.75000000  1
  Eu  Eu11  1  0.38893034  0.60197097  0.75000000  1
  Eu  Eu12  1  0.07272258  0.63123121  0.25000000  1
  Eu  Eu13  1  0.42727742  0.13123121  0.25000000  1
  Eu  Eu14  1  0.92727742  0.36876879  0.75000000  1
  Eu  Eu15  1  0.57272258  0.86876879  0.75000000  1
  O  O16  1  0.45883429  0.73944648  0.25000000  1
  O  O17  1  0.04116571  0.23944648  0.25000000  1
  O  O18  1  0.54116571  0.26055352  0.75000000  1
  O  O19  1  0.95883429  0.76055352  0.75000000  1
  O  O20  1  0.10563750  0.94737622  0.25000000  1
  O  O21  1  0.39436250  0.44737622  0.25000000  1
  O  O22  1  0.89436250  0.05262378  0.75000000  1
  O  O23  1  0.60563750  0.55262378  0.75000000  1
  O  O24  1  0.88326594  0.52038026  0.25000000  1
  O  O25  1  0.61673406  0.02038026  0.25000000  1
  O  O26  1  0.11673406  0.47961974  0.75000000  1
  O  O27  1  0.38326594  0.97961974  0.75000000  1
  O  O28  1  0.71748628  0.76805481  0.25000000  1
  O  O29  1  0.78251372  0.26805481  0.25000000  1
  O  O30  1  0.28251372  0.23194519  0.75000000  1
  O  O31  1  0.21748628  0.73194519  0.75000000  1
