# generated using pymatgen
data_CsReN2
_symmetry_space_group_name_H-M   'P 1'
_cell_length_a   6.15055920
_cell_length_b   12.20838205
_cell_length_c   17.54187220
_cell_angle_alpha   90.00111060
_cell_angle_beta   90.00734462
_cell_angle_gamma   90.05864930
_symmetry_Int_Tables_number   1
_chemical_formula_structural   CsReN2
_chemical_formula_sum   'Cs16 Re16 N32'
_cell_volume   1317.19000416
_cell_formula_units_Z   16
loop_
 _symmetry_equiv_pos_site_id
 _symmetry_equiv_pos_as_xyz
  1  'x, y, z'
loop_
 _atom_site_type_symbol
 _atom_site_label
 _atom_site_symmetry_multiplicity
 _atom_site_fract_x
 _atom_site_fract_y
 _atom_site_fract_z
 _atom_site_occupancy
  Cs  Cs0  1  0.25042556  0.99985164  0.43737393  1
  Cs  Cs1  1  0.74899773  0.50108326  0.56363181  1
  Cs  Cs2  1  0.75038380  0.50047894  0.06305373  1
  Cs  Cs3  1  0.24956316  0.99946686  0.93770840  1
  Cs  Cs4  1  0.74957444  0.00014836  0.56262607  1
  Cs  Cs5  1  0.25100227  0.49891674  0.43636819  1
  Cs  Cs6  1  0.24961620  0.49952106  0.93694627  1
  Cs  Cs7  1  0.75043684  0.00053314  0.06229160  1
  Cs  Cs8  1  0.30611217  0.24921510  0.31103198  1
  Cs  Cs9  1  0.80655404  0.24997908  0.68924082  1
  Cs  Cs10  1  0.69572667  0.75119358  0.18880688  1
  Cs  Cs11  1  0.19690775  0.74983356  0.81204559  1
  Cs  Cs12  1  0.69388783  0.75078490  0.68896802  1
  Cs  Cs13  1  0.19344596  0.75002092  0.31075918  1
  Cs  Cs14  1  0.30427333  0.24880642  0.81119312  1
  Cs  Cs15  1  0.80309225  0.25016644  0.18795441  1
  Re  Re16  1  0.75128712  0.00162124  0.31184958  1
  Re  Re17  1  0.24864566  0.50015284  0.68840957  1
  Re  Re18  1  0.25092273  0.49927706  0.18727152  1
  Re  Re19  1  0.74945660  0.99936174  0.81276715  1
  Re  Re20  1  0.24871288  0.99837876  0.68815042  1
  Re  Re21  1  0.75135434  0.49984716  0.31159043  1
  Re  Re22  1  0.74907727  0.50072294  0.81272848  1
  Re  Re23  1  0.25054340  0.00063826  0.18723285  1
  Re  Re24  1  0.78232059  0.25093705  0.43891121  1
  Re  Re25  1  0.28205506  0.24961843  0.56315338  1
  Re  Re26  1  0.22478310  0.74979176  0.06215860  1
  Re  Re27  1  0.72535583  0.74999461  0.93886447  1
  Re  Re28  1  0.21767941  0.74906295  0.56108879  1
  Re  Re29  1  0.71794494  0.75038157  0.43684662  1
  Re  Re30  1  0.77521690  0.25020824  0.93784140  1
  Re  Re31  1  0.27464417  0.25000539  0.06113553  1
  N  N32  1  0.04149875  0.25074851  0.49602642  1
  N  N33  1  0.54228258  0.25074686  0.50602945  1
  N  N34  1  0.96377918  0.74970722  0.00606542  1
  N  N35  1  0.46369244  0.74962988  0.99520143  1
  N  N36  1  0.95850125  0.74925149  0.50397358  1
  N  N37  1  0.45771742  0.74925314  0.49397055  1
  N  N38  1  0.03622082  0.25029278  0.99393458  1
  N  N39  1  0.53630756  0.25037012  0.00479857  1
  N  N40  1  0.76510951  0.37581952  0.37561142  1
  N  N41  1  0.26363130  0.12386161  0.62540276  1
  N  N42  1  0.24157382  0.87504506  0.12463021  1
  N  N43  1  0.74292926  0.62516611  0.87609615  1
  N  N44  1  0.23489049  0.62418048  0.62438858  1
  N  N45  1  0.73636870  0.87613839  0.37459724  1
  N  N46  1  0.75842618  0.12495494  0.87536979  1
  N  N47  1  0.25707074  0.37483389  0.12390385  1
  N  N48  1  0.76529625  0.12609582  0.37548516  1
  N  N49  1  0.26373424  0.37424505  0.62641617  1
  N  N50  1  0.24213105  0.62452166  0.12452616  1
  N  N51  1  0.74327603  0.87533437  0.87650392  1
  N  N52  1  0.23470375  0.87390418  0.62451484  1
  N  N53  1  0.73626576  0.62575495  0.37358383  1
  N  N54  1  0.75786895  0.37547834  0.87547384  1
  N  N55  1  0.25672397  0.12466563  0.12349608  1
  N  N56  1  0.50201646  0.49834755  0.24887380  1
  N  N57  1  0.99883342  0.99904782  0.75029953  1
  N  N58  1  0.50192821  0.00227790  0.24898372  1
  N  N59  1  0.99853321  0.50019847  0.75040371  1
  N  N60  1  0.49798354  0.50165245  0.75112620  1
  N  N61  1  0.00116658  0.00095218  0.24970047  1
  N  N62  1  0.49807179  0.99772210  0.75101628  1
  N  N63  1  0.00146679  0.49980153  0.24959629  1
