# generated using pymatgen
data_K2RuBr6
_symmetry_space_group_name_H-M   'P 1'
_cell_length_a   7.45010266
_cell_length_b   10.68138076
_cell_length_c   14.93640373
_cell_angle_alpha   90.00000000
_cell_angle_beta   90.00000000
_cell_angle_gamma   90.00000000
_symmetry_Int_Tables_number   1
_chemical_formula_structural   K2RuBr6
_chemical_formula_sum   'K8 Ru4 Br24'
_cell_volume   1188.59992344
_cell_formula_units_Z   4
loop_
 _symmetry_equiv_pos_site_id
 _symmetry_equiv_pos_as_xyz
  1  'x, y, z'
loop_
 _atom_site_type_symbol
 _atom_site_label
 _atom_site_symmetry_multiplicity
 _atom_site_fract_x
 _atom_site_fract_y
 _atom_site_fract_z
 _atom_site_occupancy
  K  K0  1  0.84081964  0.49950156  0.35526397  1
  K  K1  1  0.65918036  0.49950156  0.85526397  1
  K  K2  1  0.34081964  0.99950156  0.14473603  1
  K  K3  1  0.65918036  0.00049844  0.85526397  1
  K  K4  1  0.15918036  0.99950156  0.64473603  1
  K  K5  1  0.15918036  0.50049844  0.64473603  1
  K  K6  1  0.34081964  0.50049844  0.14473603  1
  K  K7  1  0.84081964  0.00049844  0.35526397  1
  Ru  Ru8  1  0.69132756  0.75000000  0.61853670  1
  Ru  Ru9  1  0.19132756  0.25000000  0.88146330  1
  Ru  Ru10  1  0.30867244  0.25000000  0.38146330  1
  Ru  Ru11  1  0.80867244  0.75000000  0.11853670  1
  Br  Br12  1  0.42814694  0.75000000  0.72532534  1
  Br  Br13  1  0.40045816  0.25000000  0.74743070  1
  Br  Br14  1  0.19918029  0.01548909  0.87803692  1
  Br  Br15  1  0.69918029  0.51548909  0.62196308  1
  Br  Br16  1  0.45948053  0.25000000  0.98592363  1
  Br  Br17  1  0.04051947  0.25000000  0.48592363  1
  Br  Br18  1  0.80081971  0.98451091  0.12196308  1
  Br  Br19  1  0.07185306  0.75000000  0.22532534  1
  Br  Br20  1  0.30081971  0.01548909  0.37803692  1
  Br  Br21  1  0.19918029  0.48451091  0.87803692  1
  Br  Br22  1  0.09954184  0.25000000  0.24743070  1
  Br  Br23  1  0.69918029  0.98451091  0.62196308  1
  Br  Br24  1  0.80081971  0.51548909  0.12196308  1
  Br  Br25  1  0.90045816  0.75000000  0.75256930  1
  Br  Br26  1  0.95948053  0.75000000  0.51407637  1
  Br  Br27  1  0.54051947  0.75000000  0.01407637  1
  Br  Br28  1  0.57185306  0.25000000  0.27467466  1
  Br  Br29  1  0.59954184  0.75000000  0.25256930  1
  Br  Br30  1  0.92814694  0.25000000  0.77467466  1
  Br  Br31  1  0.30081971  0.48451091  0.37803692  1
  Br  Br32  1  0.01424378  0.75000000  0.99195585  1
  Br  Br33  1  0.51424378  0.25000000  0.50804415  1
  Br  Br34  1  0.48575622  0.75000000  0.49195585  1
  Br  Br35  1  0.98575622  0.25000000  0.00804415  1
