# generated using pymatgen
data_Sc(P2Ru3)2
_symmetry_space_group_name_H-M   'P 1'
_cell_length_a   3.66284713
_cell_length_b   6.96533477
_cell_length_c   6.96533477
_cell_angle_alpha   120.00209425
_cell_angle_beta   90.00000000
_cell_angle_gamma   90.00000000
_symmetry_Int_Tables_number   1
_chemical_formula_structural   Sc(P2Ru3)2
_chemical_formula_sum   'Sc1 P4 Ru6'
_cell_volume   153.89490730
_cell_formula_units_Z   1
loop_
 _symmetry_equiv_pos_site_id
 _symmetry_equiv_pos_as_xyz
  1  'x, y, z'
loop_
 _atom_site_type_symbol
 _atom_site_label
 _atom_site_symmetry_multiplicity
 _atom_site_fract_x
 _atom_site_fract_y
 _atom_site_fract_z
 _atom_site_occupancy
  Sc  Sc0  1  -0.00000000  0.00000152  -0.00000152  1
  P  P1  1  0.50000000  0.81344750  0.18655250  1
  P  P2  1  0.50000000  0.37310654  0.18655480  1
  P  P3  1  0.50000000  0.81344520  0.62689346  1
  P  P4  1  -0.00000000  0.33331591  0.66668409  1
  Ru  Ru5  1  0.50000000  0.19649872  0.80350128  1
  Ru  Ru6  1  0.50000000  0.60699207  0.80349201  1
  Ru  Ru7  1  0.50000000  0.19650799  0.39300793  1
  Ru  Ru8  1  0.00000000  0.53584888  0.46415112  1
  Ru  Ru9  1  0.00000000  0.92828875  0.46415308  1
  Ru  Ru10  1  0.00000000  0.53584692  0.07171125  1
