# generated using pymatgen
data_NaMn2P2O9
_symmetry_space_group_name_H-M   'P 1'
_cell_length_a   6.42415357
_cell_length_b   7.49910650
_cell_length_c   14.07601022
_cell_angle_alpha   90.00000000
_cell_angle_beta   90.00000000
_cell_angle_gamma   90.00000000
_symmetry_Int_Tables_number   1
_chemical_formula_structural   NaMn2P2O9
_chemical_formula_sum   'Na4 Mn8 P8 O36'
_cell_volume   678.11758876
_cell_formula_units_Z   4
loop_
 _symmetry_equiv_pos_site_id
 _symmetry_equiv_pos_as_xyz
  1  'x, y, z'
loop_
 _atom_site_type_symbol
 _atom_site_label
 _atom_site_symmetry_multiplicity
 _atom_site_fract_x
 _atom_site_fract_y
 _atom_site_fract_z
 _atom_site_occupancy
  Na  Na0  1  0.75000000  0.89760854  0.78299059  1
  Na  Na1  1  0.75000000  0.60239146  0.28299059  1
  Na  Na2  1  0.25000100  0.39760754  0.71700941  1
  Na  Na3  1  0.25000100  0.10239146  0.21700941  1
  Mn  Mn4  1  0.75000000  0.35412248  0.87660534  1
  Mn  Mn5  1  0.25000100  0.64587752  0.12339466  1
  Mn  Mn6  1  0.25000100  0.85412248  0.62339466  1
  Mn  Mn7  1  0.75000000  0.14587752  0.37660534  1
  Mn  Mn8  1  0.50000000  -0.00000000  0.00000000  1
  Mn  Mn9  1  0.50000000  0.50000000  0.50000000  1
  Mn  Mn10  1  -0.00000000  0.50000000  0.50000000  1
  Mn  Mn11  1  0.00000000  0.00000000  0.00000000  1
  P  P12  1  0.25000100  0.36858124  0.93414720  1
  P  P13  1  0.75000000  0.63141876  0.06585380  1
  P  P14  1  0.75000000  0.86858124  0.56585280  1
  P  P15  1  0.25000100  0.13141976  0.43414720  1
  P  P16  1  0.75000000  0.39938905  0.69005602  1
  P  P17  1  0.75000000  0.10061095  0.19005602  1
  P  P18  1  0.25000100  0.89938905  0.80994398  1
  P  P19  1  0.25000100  0.60060995  0.30994398  1
  O  O20  1  0.05285810  0.59580297  0.37280706  1
  O  O21  1  0.55285710  0.40419603  0.62719294  1
  O  O22  1  0.94714190  0.09580297  0.12719294  1
  O  O23  1  0.44714190  0.90419703  0.87280706  1
  O  O24  1  0.94714190  0.40419603  0.62719294  1
  O  O25  1  0.44714190  0.59580297  0.37280706  1
  O  O26  1  0.05285810  0.90419703  0.87280706  1
  O  O27  1  0.55285710  0.09580297  0.12719294  1
  O  O28  1  0.25000100  0.31786384  0.48505853  1
  O  O29  1  0.75000000  0.68213716  0.51494147  1
  O  O30  1  0.75000000  0.81786284  0.01494047  1
  O  O31  1  0.25000100  0.18213716  0.98505853  1
  O  O32  1  0.75000000  0.12768591  0.94568949  1
  O  O33  1  0.25000100  0.87231409  0.05430951  1
  O  O34  1  0.25000100  0.62768591  0.55430951  1
  O  O35  1  0.75000000  0.37231509  0.44569049  1
  O  O36  1  0.75000000  0.22782387  0.75385013  1
  O  O37  1  0.25000100  0.77217613  0.24615087  1
  O  O38  1  0.25000100  0.72782387  0.74614987  1
  O  O39  1  0.75000000  0.27217713  0.25384913  1
  O  O40  1  0.43969630  0.12371782  0.36686591  1
  O  O41  1  0.93969630  0.87628218  0.63313409  1
  O  O42  1  0.56030370  0.62371682  0.13313409  1
  O  O43  1  0.06030370  0.37628218  0.86686591  1
  O  O44  1  0.56030370  0.87628218  0.63313409  1
  O  O45  1  0.06030370  0.12371782  0.36686591  1
  O  O46  1  0.43969630  0.37628218  0.86686591  1
  O  O47  1  0.93969630  0.62371682  0.13313409  1
  O  O48  1  0.75000000  0.48070761  0.99390241  1
  O  O49  1  0.25000100  0.04446516  0.73088615  1
  O  O50  1  0.25000100  0.45553384  0.23088615  1
  O  O51  1  0.75000000  0.54446516  0.76911385  1
  O  O52  1  0.75000000  0.01929239  0.49390241  1
  O  O53  1  0.25000100  0.98070761  0.50609759  1
  O  O54  1  0.25000100  0.51929139  0.00609659  1
  O  O55  1  0.75000000  0.95553484  0.26911385  1
