# generated using pymatgen
data_Li9Mn2Co5O16
_symmetry_space_group_name_H-M   'P 1'
_cell_length_a   2.89788190
_cell_length_b   12.99639177
_cell_length_c   7.78764317
_cell_angle_alpha   87.59448149
_cell_angle_beta   79.27727145
_cell_angle_gamma   89.99999850
_symmetry_Int_Tables_number   1
_chemical_formula_structural   Li9Mn2Co5O16
_chemical_formula_sum   'Li9 Mn2 Co5 O16'
_cell_volume   287.91396724
_cell_formula_units_Z   1
loop_
 _symmetry_equiv_pos_site_id
 _symmetry_equiv_pos_as_xyz
  1  'x, y, z'
loop_
 _atom_site_type_symbol
 _atom_site_label
 _atom_site_symmetry_multiplicity
 _atom_site_fract_x
 _atom_site_fract_y
 _atom_site_fract_z
 _atom_site_occupancy
  Li  Li0  1  0.55987909  0.18284505  0.88024182  1
  Li  Li1  1  0.68925460  0.56377170  0.62149081  1
  Li  Li2  1  0.80849235  0.94862233  0.38301529  1
  Li  Li3  1  0.93371305  0.29944637  0.13257389  1
  Li  Li4  1  0.05808886  0.69344028  0.88382227  1
  Li  Li5  1  0.19301257  0.06296831  0.61397487  1
  Li  Li6  1  0.31582701  0.43369700  0.36834597  1
  Li  Li7  1  0.43883641  0.81413652  0.12232718  1
  Li  Li8  1  0.37865665  0.12553862  0.24268670  1
  Mn  Mn9  1  0.99556349  0.00447375  0.00887302  1
  Mn  Mn10  1  0.12706363  0.37290170  0.74587273  1
  Co  Co11  1  0.25025116  0.75143362  0.49949769  1
  Co  Co12  1  0.49861069  0.50173659  0.00277862  1
  Co  Co13  1  0.62580165  0.87802894  0.74839669  1
  Co  Co14  1  0.75943426  0.23568964  0.48113147  1
  Co  Co15  1  0.87199188  0.62436569  0.25601623  1
  O  O16  1  0.58293921  0.02404005  0.83412157  1
  O  O17  1  0.70781783  0.40403188  0.58436434  1
  O  O18  1  0.83336810  0.77543776  0.33326381  1
  O  O19  1  0.97294583  0.14153956  0.05410833  1
  O  O20  1  0.08963140  0.51927194  0.82073720  1
  O  O21  1  0.21172064  0.90654707  0.57655872  1
  O  O22  1  0.33936741  0.28141339  0.32126519  1
  O  O23  1  0.46539414  0.65209854  0.06921173  1
  O  O24  1  0.54207934  0.34722810  0.91584133  1
  O  O25  1  0.66499887  0.72909925  0.67000227  1
  O  O26  1  0.77643439  0.10067061  0.44713123  1
  O  O27  1  0.91377167  0.47318789  0.17245666  1
  O  O28  1  0.03423757  0.85367202  0.93152485  1
  O  O29  1  0.16141261  0.23435730  0.67717478  1
  O  O30  1  0.28390958  0.59421312  0.43218085  1
  O  O31  1  0.41549407  0.97009543  0.16901187  1
