# generated using pymatgen
data_K6Sn2S7
_symmetry_space_group_name_H-M   'P 1'
_cell_length_a   9.81852523
_cell_length_b   13.30360641
_cell_length_c   14.63882613
_cell_angle_alpha   90.00000000
_cell_angle_beta   90.00000000
_cell_angle_gamma   90.00000000
_symmetry_Int_Tables_number   1
_chemical_formula_structural   K6Sn2S7
_chemical_formula_sum   'K24 Sn8 S28'
_cell_volume   1912.14974852
_cell_formula_units_Z   4
loop_
 _symmetry_equiv_pos_site_id
 _symmetry_equiv_pos_as_xyz
  1  'x, y, z'
loop_
 _atom_site_type_symbol
 _atom_site_label
 _atom_site_symmetry_multiplicity
 _atom_site_fract_x
 _atom_site_fract_y
 _atom_site_fract_z
 _atom_site_occupancy
  K  K0  1  0.97291149  0.83943904  0.18691989  1
  K  K1  1  0.52708851  0.16056096  0.68691989  1
  K  K2  1  0.02708851  0.33943904  0.31308011  1
  K  K3  1  0.47291149  0.66056096  0.81308011  1
  K  K4  1  0.72039314  0.85867194  0.93645379  1
  K  K5  1  0.77960686  0.14132806  0.43645379  1
  K  K6  1  0.27960686  0.35867194  0.56354621  1
  K  K7  1  0.22039314  0.64132806  0.06354621  1
  K  K8  1  0.75418883  0.89112370  0.63310261  1
  K  K9  1  0.74581117  0.10887630  0.13310261  1
  K  K10  1  0.24581117  0.39112370  0.86689739  1
  K  K11  1  0.25418883  0.60887630  0.36689739  1
  K  K12  1  0.56129699  0.81780405  0.38409407  1
  K  K13  1  0.93870301  0.18219595  0.88409407  1
  K  K14  1  0.43870301  0.31780405  0.11590593  1
  K  K15  1  0.06129699  0.68219595  0.61590593  1
  K  K16  1  0.64489808  0.65415286  0.13741219  1
  K  K17  1  0.85510192  0.34584714  0.63741219  1
  K  K18  1  0.35510192  0.15415286  0.36258781  1
  K  K19  1  0.14489808  0.84584714  0.86258781  1
  K  K20  1  0.63879975  0.57023742  0.58541839  1
  K  K21  1  0.86120025  0.42976258  0.08541839  1
  K  K22  1  0.36120025  0.07023742  0.91458161  1
  K  K23  1  0.13879975  0.92976258  0.41458161  1
  Sn  Sn24  1  0.92407549  0.60767934  0.85715288  1
  Sn  Sn25  1  0.57592451  0.39232066  0.35715288  1
  Sn  Sn26  1  0.07592451  0.10767934  0.64284712  1
  Sn  Sn27  1  0.42407549  0.89232066  0.14284712  1
  Sn  Sn28  1  0.87743192  0.60873762  0.38193209  1
  Sn  Sn29  1  0.62256808  0.39126238  0.88193209  1
  Sn  Sn30  1  0.12256808  0.10873762  0.11806791  1
  Sn  Sn31  1  0.37743192  0.89126238  0.61806791  1
  S  S32  1  0.62607748  0.57653937  0.36114967  1
  S  S33  1  0.87392252  0.42346063  0.86114967  1
  S  S34  1  0.37392252  0.07653937  0.13885033  1
  S  S35  1  0.12607748  0.92346063  0.63885033  1
  S  S36  1  0.97207736  0.59158069  0.23304532  1
  S  S37  1  0.52792264  0.40841931  0.73304532  1
  S  S38  1  0.02792264  0.09158069  0.26695468  1
  S  S39  1  0.47207736  0.90841931  0.76695468  1
  S  S40  1  0.51648275  0.50596925  0.98782164  1
  S  S41  1  0.98351725  0.49403075  0.48782164  1
  S  S42  1  0.48351725  0.00596925  0.51217836  1
  S  S43  1  0.01648275  0.99403075  0.01217836  1
  S  S44  1  0.65806745  0.89146202  0.18635757  1
  S  S45  1  0.84193255  0.10853798  0.68635757  1
  S  S46  1  0.34193255  0.39146202  0.31364243  1
  S  S47  1  0.15806745  0.60853798  0.81364243  1
  S  S48  1  0.78402711  0.69672944  0.75068893  1
  S  S49  1  0.71597289  0.30327056  0.25068893  1
  S  S50  1  0.21597289  0.19672944  0.74931107  1
  S  S51  1  0.28402711  0.80327056  0.24931107  1
  S  S52  1  0.90673517  0.67592567  0.00774140  1
  S  S53  1  0.59326483  0.32407433  0.50774140  1
  S  S54  1  0.09326483  0.17592567  0.49225860  1
  S  S55  1  0.40673517  0.82407433  0.99225860  1
  S  S56  1  0.88129331  0.77612395  0.44334581  1
  S  S57  1  0.61870669  0.22387605  0.94334581  1
  S  S58  1  0.11870669  0.27612395  0.05665419  1
  S  S59  1  0.38129331  0.72387605  0.55665419  1
