# generated using pymatgen
data_Rb2GeS3
_symmetry_space_group_name_H-M   'P 1'
_cell_length_a   7.01757752
_cell_length_b   7.73421989
_cell_length_c   8.85411264
_cell_angle_alpha   73.04888035
_cell_angle_beta   66.65360074
_cell_angle_gamma   63.02056426
_symmetry_Int_Tables_number   1
_chemical_formula_structural   Rb2GeS3
_chemical_formula_sum   'Rb4 Ge2 S6'
_cell_volume   389.51193135
_cell_formula_units_Z   2
loop_
 _symmetry_equiv_pos_site_id
 _symmetry_equiv_pos_as_xyz
  1  'x, y, z'
loop_
 _atom_site_type_symbol
 _atom_site_label
 _atom_site_symmetry_multiplicity
 _atom_site_fract_x
 _atom_site_fract_y
 _atom_site_fract_z
 _atom_site_occupancy
  S  S0  1  0.61432313  0.16940104  0.60195270  1
  S  S1  1  0.38567687  0.83059896  0.39804730  1
  S  S2  1  0.79310771  0.63720599  0.77657860  1
  S  S3  1  0.74193011  0.00000000  0.00000000  1
  S  S4  1  0.25806989  0.00000000  0.00000000  1
  S  S5  1  0.20689229  0.36279401  0.22342140  1
  Ge  Ge6  1  0.38090759  0.05603483  0.18214998  1
  Ge  Ge7  1  0.61909241  0.94396517  0.81785002  1
  Rb  Rb8  1  0.08353349  0.20039979  0.63253324  1
  Rb  Rb9  1  0.91646651  0.79960021  0.36746676  1
  Rb  Rb10  1  0.68861855  0.43778248  0.18498041  1
  Rb  Rb11  1  0.31138145  0.56221752  0.81501959  1
