# generated using pymatgen
data_KSbS2
_symmetry_space_group_name_H-M   'P 1'
_cell_length_a   6.48603969
_cell_length_b   6.48603968
_cell_length_c   6.97694976
_cell_angle_alpha   111.02034442
_cell_angle_beta   111.02034445
_cell_angle_gamma   93.73826740
_symmetry_Int_Tables_number   1
_chemical_formula_structural   KSbS2
_chemical_formula_sum   'K2 Sb2 S4'
_cell_volume   249.33622356
_cell_formula_units_Z   2
loop_
 _symmetry_equiv_pos_site_id
 _symmetry_equiv_pos_as_xyz
  1  'x, y, z'
loop_
 _atom_site_type_symbol
 _atom_site_label
 _atom_site_symmetry_multiplicity
 _atom_site_fract_x
 _atom_site_fract_y
 _atom_site_fract_z
 _atom_site_occupancy
  S  S0  1  0.21954402  0.37334675  0.27988137  1
  S  S1  1  0.62665325  0.78045598  0.22011863  1
  S  S2  1  0.37334675  0.21954402  0.77988137  1
  S  S3  1  0.78045598  0.62665325  0.72011863  1
  K  K4  1  0.85782747  0.14217253  0.75000000  1
  K  K5  1  0.14217253  0.85782747  0.25000000  1
  Sb  Sb6  1  0.58509237  0.41490763  0.25000000  1
  Sb  Sb7  1  0.41490763  0.58509237  0.75000000  1
