# generated using pymatgen
data_Li9Mn2Co5O16
_symmetry_space_group_name_H-M   'P 1'
_cell_length_a   2.89427073
_cell_length_b   16.97154883
_cell_length_c   5.89930486
_cell_angle_alpha   89.76304570
_cell_angle_beta   90.00000000
_cell_angle_gamma   90.00000000
_symmetry_Int_Tables_number   1
_chemical_formula_structural   Li9Mn2Co5O16
_chemical_formula_sum   'Li9 Mn2 Co5 O16'
_cell_volume   289.77289295
_cell_formula_units_Z   1
loop_
 _symmetry_equiv_pos_site_id
 _symmetry_equiv_pos_as_xyz
  1  'x, y, z'
loop_
 _atom_site_type_symbol
 _atom_site_label
 _atom_site_symmetry_multiplicity
 _atom_site_fract_x
 _atom_site_fract_y
 _atom_site_fract_z
 _atom_site_occupancy
  Li  Li0  1  0.50000000  0.12649006  0.25420022  1
  Li  Li1  1  0.50000000  0.37350994  0.74579978  1
  Li  Li2  1  0.50000000  0.63275345  0.25741659  1
  Li  Li3  1  0.00000000  0.25000000  -0.00000000  1
  Li  Li4  1  0.00000000  0.50566996  0.50230283  1
  Li  Li5  1  0.00000000  0.75000000  -0.00000000  1
  Li  Li6  1  0.50000000  0.86724655  0.74258341  1
  Li  Li7  1  0.00000000  0.99433004  0.49769717  1
  Li  Li8  1  0.00000000  0.75000000  0.50000000  1
  Mn  Mn9  1  0.00000000  0.99919782  0.00182510  1
  Mn  Mn10  1  -0.00000000  0.50080218  0.99817490  1
  Co  Co11  1  0.00000000  0.25000000  0.50000000  1
  Co  Co12  1  0.50000000  0.37451782  0.25280327  1
  Co  Co13  1  0.50000000  0.63947176  0.73751447  1
  Co  Co14  1  0.50000000  0.86052824  0.26248553  1
  Co  Co15  1  0.50000000  0.12548218  0.74719673  1
  O  O16  1  0.50000000  0.00531144  0.22094747  1
  O  O17  1  0.50000000  0.25117403  0.73595480  1
  O  O18  1  0.50000000  0.50126548  0.22033835  1
  O  O19  1  -0.00000000  0.11726959  0.97638968  1
  O  O20  1  -0.00000000  0.37276375  0.47930114  1
  O  O21  1  -0.00000000  0.61286468  0.97834232  1
  O  O22  1  0.50000000  0.74403953  0.75652945  1
  O  O23  1  0.00000000  0.87732387  0.48142428  1
  O  O24  1  0.50000000  0.24882597  0.26404520  1
  O  O25  1  0.50000000  0.49468856  0.77905253  1
  O  O26  1  0.50000000  0.75596047  0.24347055  1
  O  O27  1  0.00000000  0.38273041  0.02361032  1
  O  O28  1  -0.00000000  0.62267613  0.51857572  1
  O  O29  1  -0.00000000  0.88713532  0.02165768  1
  O  O30  1  0.50000000  0.99873452  0.77966165  1
  O  O31  1  0.00000000  0.12723625  0.52069886  1
