# generated using pymatgen
data_In
_symmetry_space_group_name_H-M   'P 1'
_cell_length_a   3.33286124
_cell_length_b   3.33286132
_cell_length_c   8.68534992
_cell_angle_alpha   78.93825350
_cell_angle_beta   101.06174520
_cell_angle_gamma   119.99998821
_symmetry_Int_Tables_number   1
_chemical_formula_structural   In
_chemical_formula_sum   In3
_cell_volume   81.47485591
_cell_formula_units_Z   3
loop_
 _symmetry_equiv_pos_site_id
 _symmetry_equiv_pos_as_xyz
  1  'x, y, z'
loop_
 _atom_site_type_symbol
 _atom_site_label
 _atom_site_symmetry_multiplicity
 _atom_site_fract_x
 _atom_site_fract_y
 _atom_site_fract_z
 _atom_site_occupancy
  In  In0  1  -0.00000000  0.00000000  0.00000000  1
  In  In1  1  0.77833683  0.22166417  0.33500848  1
  In  In2  1  0.22166417  0.77833683  0.66499152  1
