# generated using pymatgen
data_Li9Mn2Co5O16
_symmetry_space_group_name_H-M   'P 1'
_cell_length_a   2.92884090
_cell_length_b   9.76328509
_cell_length_c   10.23107656
_cell_angle_alpha   100.31540493
_cell_angle_beta   90.00000000
_cell_angle_gamma   90.00000000
_symmetry_Int_Tables_number   1
_chemical_formula_structural   Li9Mn2Co5O16
_chemical_formula_sum   'Li9 Mn2 Co5 O16'
_cell_volume   287.83009807
_cell_formula_units_Z   1
loop_
 _symmetry_equiv_pos_site_id
 _symmetry_equiv_pos_as_xyz
  1  'x, y, z'
loop_
 _atom_site_type_symbol
 _atom_site_label
 _atom_site_symmetry_multiplicity
 _atom_site_fract_x
 _atom_site_fract_y
 _atom_site_fract_z
 _atom_site_occupancy
  Li  Li0  1  0.50000000  0.00636913  0.24738567  1
  Li  Li1  1  0.50000000  0.00214313  0.75185198  1
  Li  Li2  1  -0.00000000  0.24482504  0.36590209  1
  Li  Li3  1  0.00000000  0.25517496  0.88409791  1
  Li  Li4  1  0.50000000  0.49785687  0.49814802  1
  Li  Li5  1  0.50000000  0.49363087  0.00261433  1
  Li  Li6  1  -0.00000000  0.75000000  0.12500000  1
  Li  Li7  1  -0.00000000  0.75000000  0.62500000  1
  Li  Li8  1  0.50000000  0.25000000  0.12500000  1
  Mn  Mn9  1  -0.00000000  0.00789960  0.00736278  1
  Mn  Mn10  1  -0.00000000  0.49210040  0.24263722  1
  Co  Co11  1  -0.00000000  0.99926282  0.49986210  1
  Co  Co12  1  0.50000000  0.25000000  0.62500000  1
  Co  Co13  1  -0.00000000  0.50073718  0.75013790  1
  Co  Co14  1  0.50000000  0.74880222  0.37572626  1
  Co  Co15  1  0.50000000  0.75119778  0.87427374  1
  O  O16  1  0.50000000  0.88656773  0.05343007  1
  O  O17  1  0.50000000  0.87969816  0.55570437  1
  O  O18  1  0.00000000  0.11298226  0.17337595  1
  O  O19  1  -0.00000000  0.13209297  0.68029010  1
  O  O20  1  0.50000000  0.38993752  0.30598222  1
  O  O21  1  0.50000000  0.38259140  0.80550707  1
  O  O22  1  -0.00000000  0.63524220  0.92927687  1
  O  O23  1  -0.00000000  0.62529895  0.42279585  1
  O  O24  1  0.50000000  0.11740860  0.44449293  1
  O  O25  1  0.50000000  0.11006248  0.94401778  1
  O  O26  1  0.00000000  0.36790703  0.56970990  1
  O  O27  1  0.00000000  0.38701774  0.07662405  1
  O  O28  1  0.50000000  0.62030184  0.69429563  1
  O  O29  1  0.50000000  0.61343227  0.19656993  1
  O  O30  1  0.00000000  0.86475780  0.32072313  1
  O  O31  1  -0.00000000  0.87470105  0.82720415  1
