# generated using pymatgen
data_Li9Mn2Co5O16
_symmetry_space_group_name_H-M   'P 1'
_cell_length_a   2.92118938
_cell_length_b   8.37299872
_cell_length_c   11.77962285
_cell_angle_alpha   89.70669512
_cell_angle_beta   90.00000000
_cell_angle_gamma   90.00000000
_symmetry_Int_Tables_number   1
_chemical_formula_structural   Li9Mn2Co5O16
_chemical_formula_sum   'Li9 Mn2 Co5 O16'
_cell_volume   288.11537400
_cell_formula_units_Z   1
loop_
 _symmetry_equiv_pos_site_id
 _symmetry_equiv_pos_as_xyz
  1  'x, y, z'
loop_
 _atom_site_type_symbol
 _atom_site_label
 _atom_site_symmetry_multiplicity
 _atom_site_fract_x
 _atom_site_fract_y
 _atom_site_fract_z
 _atom_site_occupancy
  Li  Li0  1  0.50000000  0.24933718  0.11915186  1
  Li  Li1  1  0.50000000  0.75000000  0.37500000  1
  Li  Li2  1  0.50000000  0.25066282  0.63084814  1
  Li  Li3  1  -0.00000000  0.48334229  0.99891398  1
  Li  Li4  1  0.00000000  0.00224068  0.25208464  1
  Li  Li5  1  -0.00000000  0.49775932  0.49791536  1
  Li  Li6  1  0.50000000  0.75000000  0.87500000  1
  Li  Li7  1  -0.00000000  0.01665771  0.75108602  1
  Li  Li8  1  0.50000000  0.25000000  0.87500000  1
  Mn  Mn9  1  -0.00000000  0.01141172  0.99715970  1
  Mn  Mn10  1  0.00000000  0.48858828  0.75284030  1
  Co  Co11  1  0.00000000  0.49967306  0.24861314  1
  Co  Co12  1  -0.00000000  0.00032694  0.50138686  1
  Co  Co13  1  0.50000000  0.75007824  0.12363227  1
  Co  Co14  1  0.50000000  0.25000000  0.37500000  1
  Co  Co15  1  0.50000000  0.74992176  0.62636773  1
  O  O16  1  0.50000000  0.99691558  0.11183781  1
  O  O17  1  0.50000000  0.49742505  0.36569349  1
  O  O18  1  0.50000000  0.99461297  0.61904777  1
  O  O19  1  0.00000000  0.22941707  0.00162296  1
  O  O20  1  0.00000000  0.74757100  0.24062996  1
  O  O21  1  -0.00000000  0.24594011  0.49096979  1
  O  O22  1  0.50000000  0.50228162  0.86173576  1
  O  O23  1  -0.00000000  0.73535012  0.74152848  1
  O  O24  1  0.50000000  0.50538703  0.13095223  1
  O  O25  1  0.50000000  0.00257495  0.38430651  1
  O  O26  1  0.50000000  0.50308442  0.63816219  1
  O  O27  1  0.00000000  0.76464988  0.00847152  1
  O  O28  1  0.00000000  0.25405989  0.25903021  1
  O  O29  1  -0.00000000  0.75242900  0.50937004  1
  O  O30  1  0.50000000  0.99771838  0.88826424  1
  O  O31  1  -0.00000000  0.27058293  0.74837704  1
