# generated using pymatgen
data_Tm5Ge3C
_symmetry_space_group_name_H-M   'P 1'
_cell_length_a   6.30421806
_cell_length_b   8.41780976
_cell_length_c   8.42019058
_cell_angle_alpha   119.99064149
_cell_angle_beta   90.00000000
_cell_angle_gamma   90.00000000
_symmetry_Int_Tables_number   1
_chemical_formula_structural   Tm5Ge3C
_chemical_formula_sum   'Tm10 Ge6 C2'
_cell_volume   387.01146733
_cell_formula_units_Z   2
loop_
 _symmetry_equiv_pos_site_id
 _symmetry_equiv_pos_as_xyz
  1  'x, y, z'
loop_
 _atom_site_type_symbol
 _atom_site_label
 _atom_site_symmetry_multiplicity
 _atom_site_fract_x
 _atom_site_fract_y
 _atom_site_fract_z
 _atom_site_occupancy
  Tm  Tm0  1  0.50000020  0.33327536  0.66658364  1
  Tm  Tm1  1  0.50000020  0.66669172  0.33341636  1
  Tm  Tm2  1  0.00000020  0.66672464  0.33341636  1
  Tm  Tm3  1  0.00000020  0.33330828  0.66658364  1
  Tm  Tm4  1  0.74999579  0.22150643  1.00000000  1
  Tm  Tm5  1  0.75000179  0.77834372  0.77822793  1
  Tm  Tm6  1  0.75000179  0.00011579  0.22177207  1
  Tm  Tm7  1  0.24999579  0.77849357  0.00000000  1
  Tm  Tm8  1  0.25000179  0.22165628  0.22177207  1
  Tm  Tm9  1  0.25000179  0.99988421  0.77822793  1
  Ge  Ge10  1  0.75000790  0.59651030  1.00000000  1
  Ge  Ge11  1  0.74999611  0.40343114  0.40347703  1
  Ge  Ge12  1  0.74999611  -0.00004590  0.59652297  1
  Ge  Ge13  1  0.25000790  0.40348970  0.00000000  1
  Ge  Ge14  1  0.24999611  0.59656886  0.59652297  1
  Ge  Ge15  1  0.24999611  0.00004590  0.40347703  1
  C  C16  1  0.50000010  0.99999417  1.00000000  1
  C  C17  1  0.00000010  0.00000583  0.00000000  1
