# generated using pymatgen
data_Ta3CrS6
_symmetry_space_group_name_H-M   'P 1'
_cell_length_a   5.76442792
_cell_length_b   5.76427349
_cell_length_c   12.22357676
_cell_angle_alpha   90.00013898
_cell_angle_beta   90.00000000
_cell_angle_gamma   120.00089000
_symmetry_Int_Tables_number   1
_chemical_formula_structural   Ta3CrS6
_chemical_formula_sum   'Ta6 Cr2 S12'
_cell_volume   351.74329832
_cell_formula_units_Z   2
loop_
 _symmetry_equiv_pos_site_id
 _symmetry_equiv_pos_as_xyz
  1  'x, y, z'
loop_
 _atom_site_type_symbol
 _atom_site_label
 _atom_site_symmetry_multiplicity
 _atom_site_fract_x
 _atom_site_fract_y
 _atom_site_fract_z
 _atom_site_occupancy
  Ta  Ta0  1  0.00003345  -0.00000000  0.50000000  1
  Ta  Ta1  1  0.00002188  1.00000000  0.00000000  1
  Ta  Ta2  1  0.66670117  0.33331815  0.00212884  1
  Ta  Ta3  1  0.33338302  0.66668185  0.99787116  1
  Ta  Ta4  1  0.33333061  0.66665757  0.50212811  1
  Ta  Ta5  1  0.66667303  0.33334243  0.49787189  1
  Cr  Cr6  1  0.66656312  0.33335867  0.75006453  1
  Cr  Cr7  1  0.33320445  0.66664133  0.24993547  1
  S  S8  1  0.66771929  0.00010154  0.62948742  1
  S  S9  1  0.33240758  0.33227687  0.62950224  1
  S  S10  1  0.99986138  0.66755783  0.62949088  1
  S  S11  1  0.66761775  -0.00010154  0.37051258  1
  S  S12  1  0.00013072  0.66772313  0.37049776  1
  S  S13  1  0.33230354  0.33244217  0.37050912  1
  S  S14  1  0.33230903  0.99990269  0.12948566  1
  S  S15  1  0.66763635  0.66772342  0.12947966  1
  S  S16  1  0.00015103  0.33241771  0.12949414  1
  S  S17  1  0.33240634  0.00009731  0.87051434  1
  S  S18  1  -0.00008708  0.33227658  0.87052034  1
  S  S19  1  0.66773332  0.66758229  0.87050586  1
