# generated using pymatgen
data_TbWC2
_symmetry_space_group_name_H-M   'P 1'
_cell_length_a   3.40390635
_cell_length_b   5.74934833
_cell_length_c   10.84121783
_cell_angle_alpha   90.00000000
_cell_angle_beta   90.00000000
_cell_angle_gamma   90.00000000
_symmetry_Int_Tables_number   1
_chemical_formula_structural   TbWC2
_chemical_formula_sum   'Tb4 W4 C8'
_cell_volume   212.16527048
_cell_formula_units_Z   4
loop_
 _symmetry_equiv_pos_site_id
 _symmetry_equiv_pos_as_xyz
  1  'x, y, z'
loop_
 _atom_site_type_symbol
 _atom_site_label
 _atom_site_symmetry_multiplicity
 _atom_site_fract_x
 _atom_site_fract_y
 _atom_site_fract_z
 _atom_site_occupancy
  Tb  Tb0  1  0.75000000  0.41482635  0.63710758  1
  Tb  Tb1  1  0.75000000  0.91482635  0.86289242  1
  Tb  Tb2  1  0.25000000  0.58517365  0.36289242  1
  Tb  Tb3  1  0.25000000  0.08517365  0.13710758  1
  W  W4  1  0.75000000  0.09573343  0.38962975  1
  W  W5  1  0.75000000  0.59573343  0.11037025  1
  W  W6  1  0.25000000  0.90426657  0.61037025  1
  W  W7  1  0.25000000  0.40426657  0.88962975  1
  C  C8  1  0.75000000  0.33915974  0.25277154  1
  C  C9  1  0.75000000  0.83915974  0.24722846  1
  C  C10  1  0.25000000  0.66084026  0.74722846  1
  C  C11  1  0.25000000  0.16084026  0.75277154  1
  C  C12  1  0.75000000  0.77953672  0.51569349  1
  C  C13  1  0.75000000  0.27953672  0.98430651  1
  C  C14  1  0.25000000  0.22046328  0.48430651  1
  C  C15  1  0.25000000  0.72046328  0.01569349  1
