# generated using pymatgen
data_Ta5Ge3B
_symmetry_space_group_name_H-M   'P 1'
_cell_length_a   5.37120578
_cell_length_b   7.74525808
_cell_length_c   7.74434460
_cell_angle_alpha   120.00390446
_cell_angle_beta   90.00000000
_cell_angle_gamma   90.00000000
_symmetry_Int_Tables_number   1
_chemical_formula_structural   Ta5Ge3B
_chemical_formula_sum   'Ta10 Ge6 B2'
_cell_volume   279.00108848
_cell_formula_units_Z   2
loop_
 _symmetry_equiv_pos_site_id
 _symmetry_equiv_pos_as_xyz
  1  'x, y, z'
loop_
 _atom_site_type_symbol
 _atom_site_label
 _atom_site_symmetry_multiplicity
 _atom_site_fract_x
 _atom_site_fract_y
 _atom_site_fract_z
 _atom_site_occupancy
  Ta  Ta0  1  0.50000010  0.33332426  0.66668223  1
  Ta  Ta1  1  0.50000010  0.66664203  0.33331777  1
  Ta  Ta2  1  0.00000010  0.66667574  0.33331777  1
  Ta  Ta3  1  0.00000010  0.33335797  0.66668223  1
  Ta  Ta4  1  0.74999980  0.24373189  1.00000000  1
  Ta  Ta5  1  0.74999966  0.75630999  0.75626579  1
  Ta  Ta6  1  0.74999966  0.00004421  0.24373421  1
  Ta  Ta7  1  0.24999980  0.75626811  0.00000000  1
  Ta  Ta8  1  0.24999966  0.24369001  0.24373421  1
  Ta  Ta9  1  0.24999966  0.99995579  0.75626579  1
  Ge  Ge10  1  0.74998970  0.59972829  1.00000000  1
  Ge  Ge11  1  0.75000562  0.40036229  0.40037752  1
  Ge  Ge12  1  0.75000562  0.99998477  0.59962248  1
  Ge  Ge13  1  0.24998970  0.40027171  0.00000000  1
  Ge  Ge14  1  0.25000562  0.59963771  0.59962248  1
  Ge  Ge15  1  0.25000562  0.00001523  0.40037752  1
  B  B16  1  0.49999974  0.00000909  0.00000000  1
  B  B17  1  0.99999974  0.99999091  1.00000000  1
