# generated using pymatgen
data_Tb2Ni12P7
_symmetry_space_group_name_H-M   'P 1'
_cell_length_a   3.69006177
_cell_length_b   9.04287061
_cell_length_c   9.04250151
_cell_angle_alpha   119.98652782
_cell_angle_beta   90.00000000
_cell_angle_gamma   90.00000000
_symmetry_Int_Tables_number   1
_chemical_formula_structural   Tb2Ni12P7
_chemical_formula_sum   'Tb2 Ni12 P7'
_cell_volume   261.34735914
_cell_formula_units_Z   1
loop_
 _symmetry_equiv_pos_site_id
 _symmetry_equiv_pos_as_xyz
  1  'x, y, z'
loop_
 _atom_site_type_symbol
 _atom_site_label
 _atom_site_symmetry_multiplicity
 _atom_site_fract_x
 _atom_site_fract_y
 _atom_site_fract_z
 _atom_site_occupancy
  Tb  Tb0  1  -0.00000000  0.66660716  0.33326833  1
  Tb  Tb1  1  0.50000000  0.33348124  0.66685203  1
  Ni  Ni2  1  -0.00000000  0.37363621  0.94028073  1
  Ni  Ni3  1  0.00000000  0.05979830  0.43347258  1
  Ni  Ni4  1  -0.00000000  0.56655215  0.62625632  1
  Ni  Ni5  1  0.00000000  0.87788047  0.72603167  1
  Ni  Ni6  1  0.00000000  0.27396997  0.15186002  1
  Ni  Ni7  1  0.00000000  0.84817075  0.12207924  1
  Ni  Ni8  1  0.50000000  0.95163045  0.56953507  1
  Ni  Ni9  1  0.50000000  0.43034719  0.38203076  1
  Ni  Ni10  1  0.50000000  0.61804145  0.04834798  1
  Ni  Ni11  1  0.50000000  0.12291650  0.90582852  1
  Ni  Ni12  1  0.50000000  0.09416878  0.21707677  1
  Ni  Ni13  1  0.50000000  0.78292740  0.87716669  1
  P  P14  1  0.00000000  0.11204407  0.70605342  1
  P  P15  1  0.00000000  0.29397747  0.40597556  1
  P  P16  1  -0.00000000  0.59394497  0.88795553  1
  P  P17  1  0.50000000  0.70604616  0.59598727  1
  P  P18  1  0.50000000  0.40402931  0.11005245  1
  P  P19  1  0.50000000  0.88981864  0.29393185  1
  P  P20  1  0.00000000  0.00001137  0.99995723  1
