# generated using pymatgen
data_PrScS3
_symmetry_space_group_name_H-M   'P 1'
_cell_length_a   6.53540019
_cell_length_b   7.18761284
_cell_length_c   9.62115952
_cell_angle_alpha   90.00000000
_cell_angle_beta   90.00000000
_cell_angle_gamma   90.00000000
_symmetry_Int_Tables_number   1
_chemical_formula_structural   PrScS3
_chemical_formula_sum   'Pr4 Sc4 S12'
_cell_volume   451.94363841
_cell_formula_units_Z   4
loop_
 _symmetry_equiv_pos_site_id
 _symmetry_equiv_pos_as_xyz
  1  'x, y, z'
loop_
 _atom_site_type_symbol
 _atom_site_label
 _atom_site_symmetry_multiplicity
 _atom_site_fract_x
 _atom_site_fract_y
 _atom_site_fract_z
 _atom_site_occupancy
  Pr  Pr0  1  0.53778454  0.40358682  0.99129745  1
  Pr  Pr1  1  0.46221546  0.59641318  0.49129745  1
  Pr  Pr2  1  0.03778454  0.09641318  0.49129745  1
  Pr  Pr3  1  0.96221546  0.90358682  0.99129745  1
  Sc  Sc4  1  0.00157944  0.49621880  0.24012220  1
  Sc  Sc5  1  0.99842056  0.50378120  0.74012220  1
  Sc  Sc6  1  0.50157944  0.00378120  0.74012220  1
  Sc  Sc7  1  0.49842056  0.99621880  0.24012220  1
  S  S8  1  0.82144731  0.18955101  0.80210213  1
  S  S9  1  0.17855269  0.81044899  0.30210213  1
  S  S10  1  0.32144731  0.31044899  0.30210213  1
  S  S11  1  0.67855269  0.68955101  0.80210213  1
  S  S12  1  0.81848212  0.18651841  0.18059107  1
  S  S13  1  0.18151788  0.81348159  0.68059107  1
  S  S14  1  0.31848212  0.31348159  0.68059107  1
  S  S15  1  0.68151788  0.68651841  0.18059107  1
  S  S16  1  0.87409913  0.46398241  0.49088714  1
  S  S17  1  0.12590087  0.53601759  0.99088714  1
  S  S18  1  0.37409913  0.03601759  0.99088714  1
  S  S19  1  0.62590087  0.96398241  0.49088714  1
