# generated using pymatgen
data_Li9Mn2Co5O16
_symmetry_space_group_name_H-M   'P 1'
_cell_length_a   5.11680903
_cell_length_b   9.78090184
_cell_length_c   5.80963274
_cell_angle_alpha   90.00000000
_cell_angle_beta   90.00000000
_cell_angle_gamma   99.18176358
_symmetry_Int_Tables_number   1
_chemical_formula_structural   Li9Mn2Co5O16
_chemical_formula_sum   'Li9 Mn2 Co5 O16'
_cell_volume   287.02931891
_cell_formula_units_Z   1
loop_
 _symmetry_equiv_pos_site_id
 _symmetry_equiv_pos_as_xyz
  1  'x, y, z'
loop_
 _atom_site_type_symbol
 _atom_site_label
 _atom_site_symmetry_multiplicity
 _atom_site_fract_x
 _atom_site_fract_y
 _atom_site_fract_z
 _atom_site_occupancy
  Li  Li0  1  0.25982788  0.26587552  0.24363927  1
  Li  Li1  1  0.74017212  0.73412448  0.24363927  1
  Li  Li2  1  0.75918877  0.25999548  0.50000000  1
  Li  Li3  1  0.24081123  0.74000452  0.50000000  1
  Li  Li4  1  0.25982788  0.26587552  0.75636073  1
  Li  Li5  1  0.74017212  0.73412448  0.75636073  1
  Li  Li6  1  0.74651512  0.26411474  -0.00000000  1
  Li  Li7  1  0.25348488  0.73588526  -0.00000000  1
  Li  Li8  1  0.50000000  0.50000000  -0.00000000  1
  Mn  Mn9  1  0.00000000  0.00000000  -0.00000000  1
  Mn  Mn10  1  0.00000000  0.00000000  0.50000000  1
  Co  Co11  1  0.50000000  0.00000000  0.24517043  1
  Co  Co12  1  0.00000000  0.50000000  0.24330766  1
  Co  Co13  1  0.50000000  0.50000000  0.50000000  1
  Co  Co14  1  0.50000000  0.00000000  0.75482957  1
  Co  Co15  1  0.00000000  0.50000000  0.75669234  1
  O  O16  1  0.89444584  0.11459693  0.25489708  1
  O  O17  1  0.36122576  0.61011105  0.26972862  1
  O  O18  1  0.36470332  0.10383965  0.50000000  1
  O  O19  1  0.84645854  0.61209774  0.50000000  1
  O  O20  1  0.89444584  0.11459693  0.74510292  1
  O  O21  1  0.36122576  0.61011105  0.73027138  1
  O  O22  1  0.40055712  0.11721910  -0.00000000  1
  O  O23  1  0.89203034  0.62007328  -0.00000000  1
  O  O24  1  0.63877424  0.38988895  0.26972862  1
  O  O25  1  0.10555416  0.88540307  0.25489708  1
  O  O26  1  0.15354146  0.38790226  0.50000000  1
  O  O27  1  0.63529668  0.89616035  0.50000000  1
  O  O28  1  0.63877424  0.38988895  0.73027138  1
  O  O29  1  0.10555416  0.88540307  0.74510292  1
  O  O30  1  0.10796966  0.37992672  -0.00000000  1
  O  O31  1  0.59944288  0.88278090  -0.00000000  1
