# generated using pymatgen
data_SmBN2
_symmetry_space_group_name_H-M   'P 1'
_cell_length_a   6.87314353
_cell_length_b   7.32179818
_cell_length_c   7.32179801
_cell_angle_alpha   110.67906355
_cell_angle_beta   108.23455678
_cell_angle_gamma   108.23455636
_symmetry_Int_Tables_number   1
_chemical_formula_structural   SmBN2
_chemical_formula_sum   'Sm6 B6 N12'
_cell_volume   287.85302716
_cell_formula_units_Z   6
loop_
 _symmetry_equiv_pos_site_id
 _symmetry_equiv_pos_as_xyz
  1  'x, y, z'
loop_
 _atom_site_type_symbol
 _atom_site_label
 _atom_site_symmetry_multiplicity
 _atom_site_fract_x
 _atom_site_fract_y
 _atom_site_fract_z
 _atom_site_occupancy
  Sm  Sm0  1  0.24887722  0.54573185  0.45415068  1
  Sm  Sm1  1  0.79472654  0.54584932  0.09158117  1
  Sm  Sm2  1  0.70314537  0.90841883  0.45426815  1
  Sm  Sm3  1  0.74887722  0.45415068  0.54573185  1
  Sm  Sm4  1  0.20314537  0.45426815  0.90841883  1
  Sm  Sm5  1  0.29472654  0.09158117  0.54584932  1
  B  B6  1  0.86759448  0.12087939  0.24094544  1
  B  B7  1  0.62664904  0.75905456  0.87993395  1
  B  B8  1  0.74671509  0.12006605  0.87912061  1
  B  B9  1  0.36759448  0.24094544  0.12087939  1
  B  B10  1  0.24671509  0.87912061  0.12006605  1
  B  B11  1  0.12664904  0.87993395  0.75905456  1
  N  N12  1  0.86967357  0.24721652  0.12340587  1
  N  N13  1  0.74626770  0.87659413  0.12381065  1
  N  N14  1  0.62245705  0.87618935  0.75278348  1
  N  N15  1  0.36967357  0.12340587  0.24721652  1
  N  N16  1  0.12245705  0.75278348  0.87618935  1
  N  N17  1  0.24626770  0.12381065  0.87659413  1
  N  N18  1  0.50571845  0.51371951  0.75754191  1
  N  N19  1  0.74817654  0.24245809  0.75617761  1
  N  N20  1  0.99199894  0.24382239  0.48628049  1
  N  N21  1  0.00571845  0.75754191  0.51371951  1
  N  N22  1  0.49199894  0.48628049  0.24382239  1
  N  N23  1  0.24817654  0.75617761  0.24245809  1
