# generated using pymatgen
data_Zn2MoSeO7
_symmetry_space_group_name_H-M   'P 1'
_cell_length_a   5.25000209
_cell_length_b   7.26880655
_cell_length_c   8.49005764
_cell_angle_alpha   90.00000000
_cell_angle_beta   90.00000000
_cell_angle_gamma   98.47953705
_symmetry_Int_Tables_number   1
_chemical_formula_structural   Zn2MoSeO7
_chemical_formula_sum   'Zn4 Mo2 Se2 O14'
_cell_volume   320.44952783
_cell_formula_units_Z   2
loop_
 _symmetry_equiv_pos_site_id
 _symmetry_equiv_pos_as_xyz
  1  'x, y, z'
loop_
 _atom_site_type_symbol
 _atom_site_label
 _atom_site_symmetry_multiplicity
 _atom_site_fract_x
 _atom_site_fract_y
 _atom_site_fract_z
 _atom_site_occupancy
  Zn  Zn0  1  0.93724203  0.49149507  0.95664319  1
  Zn  Zn1  1  0.06275797  0.50850493  0.45664319  1
  Zn  Zn2  1  0.53444879  0.77358504  0.13637762  1
  Zn  Zn3  1  0.46555121  0.22641496  0.63637762  1
  Mo  Mo4  1  0.07423833  0.01495891  0.96866350  1
  Mo  Mo5  1  0.92576167  0.98504109  0.46866350  1
  Se  Se6  1  0.54244277  0.38216561  0.25900147  1
  Se  Se7  1  0.45755723  0.61783439  0.75900147  1
  O  O8  1  0.70454982  0.37627272  0.43877937  1
  O  O9  1  0.29545018  0.62372728  0.93877937  1
  O  O10  1  0.76415350  0.54569475  0.16164993  1
  O  O11  1  0.23584650  0.45430525  0.66164993  1
  O  O12  1  0.80129418  0.82964644  0.95055460  1
  O  O13  1  0.19870582  0.17035356  0.45055460  1
  O  O14  1  0.33733711  0.54804278  0.29218864  1
  O  O15  1  0.66266289  0.45195722  0.79218864  1
  O  O16  1  0.28258207  0.95429428  0.12212628  1
  O  O17  1  0.71741793  0.04570572  0.62212628  1
  O  O18  1  0.25050137  0.04617700  0.78822022  1
  O  O19  1  0.74949863  0.95382300  0.28822022  1
  O  O20  1  0.97319917  0.23257219  0.01853518  1
  O  O21  1  0.02680083  0.76742781  0.51853518  1
