# generated using pymatgen
data_Ho3Ni7B2
_symmetry_space_group_name_H-M   'P 1'
_cell_length_a   5.02167875
_cell_length_b   5.02167875
_cell_length_c   14.20718305
_cell_angle_alpha   90.00000000
_cell_angle_beta   90.00000000
_cell_angle_gamma   120.08000707
_symmetry_Int_Tables_number   1
_chemical_formula_structural   Ho3Ni7B2
_chemical_formula_sum   'Ho6 Ni14 B4'
_cell_volume   310.01718306
_cell_formula_units_Z   2
loop_
 _symmetry_equiv_pos_site_id
 _symmetry_equiv_pos_as_xyz
  1  'x, y, z'
loop_
 _atom_site_type_symbol
 _atom_site_label
 _atom_site_symmetry_multiplicity
 _atom_site_fract_x
 _atom_site_fract_y
 _atom_site_fract_z
 _atom_site_occupancy
  Ho  Ho0  1  0.66660056  0.33339944  0.03146656  1
  Ho  Ho1  1  0.33339944  0.66660056  0.96853344  1
  Ho  Ho2  1  0.33339944  0.66660056  0.53146656  1
  Ho  Ho3  1  0.66660056  0.33339944  0.46853344  1
  Ho  Ho4  1  0.66671228  0.33328772  0.25000000  1
  Ho  Ho5  1  0.33328772  0.66671228  0.75000000  1
  Ni  Ni6  1  0.83433588  0.66847347  0.64887472  1
  Ni  Ni7  1  0.83423482  0.16576518  0.64878320  1
  Ni  Ni8  1  0.33152653  0.16566412  0.64887472  1
  Ni  Ni9  1  0.16566412  0.33152653  0.35112528  1
  Ni  Ni10  1  0.16576518  0.83423482  0.35121680  1
  Ni  Ni11  1  0.66847347  0.83433588  0.35112528  1
  Ni  Ni12  1  0.16566412  0.33152653  0.14887472  1
  Ni  Ni13  1  0.16576518  0.83423482  0.14878320  1
  Ni  Ni14  1  0.66847347  0.83433588  0.14887472  1
  Ni  Ni15  1  0.83433588  0.66847347  0.85112528  1
  Ni  Ni16  1  0.83423482  0.16576518  0.85121680  1
  Ni  Ni17  1  0.33152653  0.16566412  0.85112528  1
  Ni  Ni18  1  -0.00000000  0.00000000  0.50000000  1
  Ni  Ni19  1  -0.00000000  0.00000000  0.00000000  1
  B  B20  1  0.66636706  0.33363294  0.75000000  1
  B  B21  1  0.33363294  0.66636706  0.25000000  1
  B  B22  1  0.00019059  -0.00019059  0.75000000  1
  B  B23  1  -0.00019059  0.00019059  0.25000000  1
