# generated using pymatgen
data_CsBaPS4
_symmetry_space_group_name_H-M   'P 1'
_cell_length_a   6.94674935
_cell_length_b   10.24380968
_cell_length_c   11.98540742
_cell_angle_alpha   90.00000000
_cell_angle_beta   90.00000000
_cell_angle_gamma   90.00000000
_symmetry_Int_Tables_number   1
_chemical_formula_structural   CsBaPS4
_chemical_formula_sum   'Cs4 Ba4 P4 S16'
_cell_volume   852.89571365
_cell_formula_units_Z   4
loop_
 _symmetry_equiv_pos_site_id
 _symmetry_equiv_pos_as_xyz
  1  'x, y, z'
loop_
 _atom_site_type_symbol
 _atom_site_label
 _atom_site_symmetry_multiplicity
 _atom_site_fract_x
 _atom_site_fract_y
 _atom_site_fract_z
 _atom_site_occupancy
  Cs  Cs0  1  0.25000000  0.85940992  0.92828164  1
  Cs  Cs1  1  0.25000000  0.64059008  0.42828164  1
  Cs  Cs2  1  0.75000000  0.14059008  0.07171836  1
  Cs  Cs3  1  0.75000000  0.35940992  0.57171836  1
  Ba  Ba4  1  0.25000000  0.40018454  0.85118343  1
  Ba  Ba5  1  0.25000000  0.09981546  0.35118343  1
  Ba  Ba6  1  0.75000000  0.59981546  0.14881657  1
  Ba  Ba7  1  0.75000000  0.90018454  0.64881657  1
  P  P8  1  0.25000000  0.11630471  0.67582952  1
  P  P9  1  0.25000000  0.38369529  0.17582952  1
  P  P10  1  0.75000000  0.88369529  0.32417048  1
  P  P11  1  0.75000000  0.61630471  0.82417048  1
  S  S12  1  0.00919028  0.12714111  0.77477115  1
  S  S13  1  0.49080972  0.37285889  0.27477115  1
  S  S14  1  0.50919028  0.87285889  0.22522885  1
  S  S15  1  0.99080972  0.62714111  0.72522885  1
  S  S16  1  0.99080972  0.87285889  0.22522885  1
  S  S17  1  0.50919028  0.62714111  0.72522885  1
  S  S18  1  0.49080972  0.12714111  0.77477115  1
  S  S19  1  0.00919028  0.37285889  0.27477115  1
  S  S20  1  0.25000000  0.27514039  0.57092719  1
  S  S21  1  0.25000000  0.22485961  0.07092719  1
  S  S22  1  0.75000000  0.72485961  0.42907281  1
  S  S23  1  0.75000000  0.77514039  0.92907281  1
  S  S24  1  0.25000000  0.94366567  0.58754006  1
  S  S25  1  0.25000000  0.55633433  0.08754006  1
  S  S26  1  0.75000000  0.05633433  0.41245994  1
  S  S27  1  0.75000000  0.44366567  0.91245994  1
