# generated using pymatgen
data_SrTi(PO4)2
_symmetry_space_group_name_H-M   'P 1'
_cell_length_a   5.23720074
_cell_length_b   8.22423889
_cell_length_c   8.73668853
_cell_angle_alpha   115.15415686
_cell_angle_beta   107.44106543
_cell_angle_gamma   90.00000000
_symmetry_Int_Tables_number   1
_chemical_formula_structural   SrTi(PO4)2
_chemical_formula_sum   'Sr2 Ti2 P4 O16'
_cell_volume   321.40484609
_cell_formula_units_Z   2
loop_
 _symmetry_equiv_pos_site_id
 _symmetry_equiv_pos_as_xyz
  1  'x, y, z'
loop_
 _atom_site_type_symbol
 _atom_site_label
 _atom_site_symmetry_multiplicity
 _atom_site_fract_x
 _atom_site_fract_y
 _atom_site_fract_z
 _atom_site_occupancy
  Sr  Sr0  1  0.80650691  0.25000000  0.00000000  1
  Sr  Sr1  1  0.19349309  0.75000000  1.00000000  1
  Ti  Ti2  1  0.00000000  0.50000000  0.50000000  1
  Ti  Ti3  1  0.50000000  0.00000000  0.50000000  1
  P  P4  1  0.40315465  0.25609461  0.28418719  1
  P  P5  1  0.11896746  0.24390539  0.71581281  1
  P  P6  1  0.59684535  0.74390539  0.71581281  1
  P  P7  1  0.88103254  0.75609461  0.28418719  1
  O  O8  1  0.20122346  0.39627592  0.32807544  1
  O  O9  1  0.87314803  0.10372408  0.67192456  1
  O  O10  1  0.79877654  0.60372408  0.67192456  1
  O  O11  1  0.12685197  0.89627592  0.32807544  1
  O  O12  1  0.66581554  0.35539306  0.29303055  1
  O  O13  1  0.37278500  0.14460694  0.70696945  1
  O  O14  1  0.33418446  0.64460694  0.70696945  1
  O  O15  1  0.62721500  0.85539306  0.29303055  1
  O  O16  1  0.48365605  0.19201600  0.43306801  1
  O  O17  1  0.05058803  0.30798400  0.56693199  1
  O  O18  1  0.51634395  0.80798400  0.56693199  1
  O  O19  1  0.94941197  0.69201600  0.43306801  1
  O  O20  1  0.26989406  0.10400524  0.09685444  1
  O  O21  1  0.17303961  0.39599476  0.90314556  1
  O  O22  1  0.73010594  0.89599476  0.90314556  1
  O  O23  1  0.82696039  0.60400524  0.09685444  1
