# generated using pymatgen
data_BaFe2(P2O7)2
_symmetry_space_group_name_H-M   'P 1'
_cell_length_a   6.25709967
_cell_length_b   6.33049698
_cell_length_c   7.98498899
_cell_angle_alpha   96.49321919
_cell_angle_beta   101.24456174
_cell_angle_gamma   105.88036018
_symmetry_Int_Tables_number   1
_chemical_formula_structural   BaFe2(P2O7)2
_chemical_formula_sum   'Ba1 Fe2 P4 O14'
_cell_volume   293.69800125
_cell_formula_units_Z   1
loop_
 _symmetry_equiv_pos_site_id
 _symmetry_equiv_pos_as_xyz
  1  'x, y, z'
loop_
 _atom_site_type_symbol
 _atom_site_label
 _atom_site_symmetry_multiplicity
 _atom_site_fract_x
 _atom_site_fract_y
 _atom_site_fract_z
 _atom_site_occupancy
  Ba  Ba0  1  0.00000000  0.00000000  -0.00000000  1
  Fe  Fe1  1  0.37500189  0.69155690  0.22994176  1
  Fe  Fe2  1  0.62499811  0.30844310  0.77005824  1
  P  P3  1  0.52006944  0.75567026  0.66530054  1
  P  P4  1  0.47993056  0.24432974  0.33469946  1
  P  P5  1  0.81537162  0.53338045  0.19439185  1
  P  P6  1  0.18462838  0.46661955  0.80560815  1
  O  O7  1  0.53062618  0.77064872  0.47948883  1
  O  O8  1  0.46937382  0.22935128  0.52051117  1
  O  O9  1  0.56930456  0.98161504  0.78235642  1
  O  O10  1  0.43069544  0.01838496  0.21764358  1
  O  O11  1  0.68574451  0.63966027  0.75709045  1
  O  O12  1  0.31425549  0.36033973  0.24290955  1
  O  O13  1  0.26162056  0.60432181  0.65730329  1
  O  O14  1  0.73837944  0.39567819  0.34269671  1
  O  O15  1  0.06371329  0.67411233  0.26873643  1
  O  O16  1  0.93628671  0.32588767  0.73126357  1
  O  O17  1  0.21876107  0.64072961  0.96704636  1
  O  O18  1  0.78123893  0.35927039  0.03295364  1
  O  O19  1  0.67082155  0.69276943  0.16317391  1
  O  O20  1  0.32917845  0.30723057  0.83682609  1
