# generated using pymatgen
data_CoH2Cl2O
_symmetry_space_group_name_H-M   'P 1'
_cell_length_a   3.54404713
_cell_length_b   8.84533229
_cell_length_c   11.31043797
_cell_angle_alpha   90.00000000
_cell_angle_beta   90.00000000
_cell_angle_gamma   90.00000000
_symmetry_Int_Tables_number   1
_chemical_formula_structural   CoH2Cl2O
_chemical_formula_sum   'Co4 H8 Cl8 O4'
_cell_volume   354.56271438
_cell_formula_units_Z   4
loop_
 _symmetry_equiv_pos_site_id
 _symmetry_equiv_pos_as_xyz
  1  'x, y, z'
loop_
 _atom_site_type_symbol
 _atom_site_label
 _atom_site_symmetry_multiplicity
 _atom_site_fract_x
 _atom_site_fract_y
 _atom_site_fract_z
 _atom_site_occupancy
  Co  Co0  1  0.75000000  0.32111288  0.98185253  1
  Co  Co1  1  0.75000000  0.82111288  0.51814747  1
  Co  Co2  1  0.25000000  0.67888712  0.01814747  1
  Co  Co3  1  0.25000000  0.17888712  0.48185253  1
  H  H4  1  0.75000000  0.19295704  0.76628275  1
  H  H5  1  0.75000000  0.69295704  0.73371725  1
  H  H6  1  0.25000000  0.80704296  0.23371725  1
  H  H7  1  0.25000000  0.30704296  0.26628275  1
  H  H8  1  0.75000000  0.05367636  0.85827448  1
  H  H9  1  0.75000000  0.55367636  0.64172552  1
  H  H10  1  0.25000000  0.94632364  0.14172552  1
  H  H11  1  0.25000000  0.44632364  0.35827448  1
  Cl  Cl12  1  0.25000000  0.19241285  0.09272170  1
  Cl  Cl13  1  0.25000000  0.69241285  0.40727830  1
  Cl  Cl14  1  0.75000000  0.80758715  0.90727830  1
  Cl  Cl15  1  0.75000000  0.30758715  0.59272170  1
  Cl  Cl16  1  0.75000000  0.53306416  0.12598287  1
  Cl  Cl17  1  0.75000000  0.03306416  0.37401713  1
  Cl  Cl18  1  0.25000000  0.46693584  0.87401713  1
  Cl  Cl19  1  0.25000000  0.96693584  0.62598287  1
  O  O20  1  0.75000000  0.16462722  0.85052997  1
  O  O21  1  0.75000000  0.66462722  0.64947003  1
  O  O22  1  0.25000000  0.83537278  0.14947003  1
  O  O23  1  0.25000000  0.33537278  0.35052997  1
