# generated using pymatgen
data_Ce2Ni12As7
_symmetry_space_group_name_H-M   'P 1'
_cell_length_a   3.89754601
_cell_length_b   9.40279470
_cell_length_c   9.40250107
_cell_angle_alpha   120.00376052
_cell_angle_beta   90.00000000
_cell_angle_gamma   90.00000000
_symmetry_Int_Tables_number   1
_chemical_formula_structural   Ce2Ni12As7
_chemical_formula_sum   'Ce2 Ni12 As7'
_cell_volume   298.40477564
_cell_formula_units_Z   1
loop_
 _symmetry_equiv_pos_site_id
 _symmetry_equiv_pos_as_xyz
  1  'x, y, z'
loop_
 _atom_site_type_symbol
 _atom_site_label
 _atom_site_symmetry_multiplicity
 _atom_site_fract_x
 _atom_site_fract_y
 _atom_site_fract_z
 _atom_site_occupancy
  Ce  Ce0  1  -0.00000000  0.66665587  0.33331438  1
  Ce  Ce1  1  0.50000000  0.33331533  0.66668555  1
  Ni  Ni2  1  -0.00000000  0.38255895  0.94858460  1
  Ni  Ni3  1  -0.00000000  0.05143558  0.43405464  1
  Ni  Ni4  1  0.00000000  0.56599272  0.61738894  1
  Ni  Ni5  1  -0.00000000  0.87339123  0.72227507  1
  Ni  Ni6  1  -0.00000000  0.27769482  0.15106315  1
  Ni  Ni7  1  0.00000000  0.84889753  0.12665055  1
  Ni  Ni8  1  0.50000000  0.95553896  0.57460424  1
  Ni  Ni9  1  0.50000000  0.42539963  0.38092056  1
  Ni  Ni10  1  0.50000000  0.61910794  0.04449931  1
  Ni  Ni11  1  0.50000000  0.11500290  0.90374772  1
  Ni  Ni12  1  0.50000000  0.09624429  0.21123599  1
  Ni  Ni13  1  0.50000000  0.78874255  0.88499153  1
  As  As14  1  -0.00000000  0.11375787  0.71239829  1
  As  As15  1  -0.00000000  0.28761982  0.40134458  1
  As  As16  1  -0.00000000  0.59866826  0.88626047  1
  As  As17  1  0.50000000  0.70622374  0.59882020  1
  As  As18  1  0.50000000  0.40116662  0.10743308  1
  As  As19  1  0.50000000  0.89259670  0.29375039  1
  As  As20  1  -0.00000000  0.99998869  -0.00002322  1
