# generated using pymatgen
data_Ag5PSeO4
_symmetry_space_group_name_H-M   'P 1'
_cell_length_a   6.98528637
_cell_length_b   6.98528637
_cell_length_c   7.36352413
_cell_angle_alpha   90.00000000
_cell_angle_beta   90.00000000
_cell_angle_gamma   90.00000000
_symmetry_Int_Tables_number   1
_chemical_formula_structural   Ag5PSeO4
_chemical_formula_sum   'Ag10 P2 Se2 O8'
_cell_volume   359.29745813
_cell_formula_units_Z   2
loop_
 _symmetry_equiv_pos_site_id
 _symmetry_equiv_pos_as_xyz
  1  'x, y, z'
loop_
 _atom_site_type_symbol
 _atom_site_label
 _atom_site_symmetry_multiplicity
 _atom_site_fract_x
 _atom_site_fract_y
 _atom_site_fract_z
 _atom_site_occupancy
  Ag  Ag0  1  0.53071279  0.96928721  0.19572103  1
  Ag  Ag1  1  0.96928721  0.96928721  0.19572103  1
  Ag  Ag2  1  0.53071279  0.53071279  0.19572103  1
  Ag  Ag3  1  0.96928721  0.53071279  0.19572103  1
  Ag  Ag4  1  0.46928721  0.03071279  0.80427897  1
  Ag  Ag5  1  0.03071279  0.03071279  0.80427897  1
  Ag  Ag6  1  0.46928721  0.46928721  0.80427897  1
  Ag  Ag7  1  0.03071279  0.46928721  0.80427897  1
  Ag  Ag8  1  0.75000000  0.75000000  0.46965716  1
  Ag  Ag9  1  0.25000000  0.25000000  0.53034284  1
  P  P10  1  0.25000000  0.75000000  0.50000000  1
  P  P11  1  0.75000000  0.25000000  0.50000000  1
  Se  Se12  1  0.75000000  0.75000000  0.00047068  1
  Se  Se13  1  0.25000000  0.25000000  0.99952932  1
  O  O14  1  0.25000000  0.56627391  0.37678741  1
  O  O15  1  0.25000000  0.93372609  0.37678741  1
  O  O16  1  0.56627391  0.25000000  0.37678741  1
  O  O17  1  0.93372609  0.25000000  0.37678741  1
  O  O18  1  0.75000000  0.43372609  0.62321259  1
  O  O19  1  0.75000000  0.06627391  0.62321259  1
  O  O20  1  0.43372609  0.75000000  0.62321259  1
  O  O21  1  0.06627391  0.75000000  0.62321259  1
