# generated using pymatgen
data_NdIn2Ni9
_symmetry_space_group_name_H-M   'P 1'
_cell_length_a   4.86127254
_cell_length_b   8.28083954
_cell_length_c   8.28083954
_cell_angle_alpha   90.00000000
_cell_angle_beta   90.00000000
_cell_angle_gamma   90.00000000
_symmetry_Int_Tables_number   1
_chemical_formula_structural   NdIn2Ni9
_chemical_formula_sum   'Nd2 In4 Ni18'
_cell_volume   333.34865595
_cell_formula_units_Z   2
loop_
 _symmetry_equiv_pos_site_id
 _symmetry_equiv_pos_as_xyz
  1  'x, y, z'
loop_
 _atom_site_type_symbol
 _atom_site_label
 _atom_site_symmetry_multiplicity
 _atom_site_fract_x
 _atom_site_fract_y
 _atom_site_fract_z
 _atom_site_occupancy
  Nd  Nd0  1  -0.00000000  0.50000000  0.50000000  1
  Nd  Nd1  1  -0.00000000  0.00000000  0.00000000  1
  In  In2  1  -0.00000000  0.62400421  0.12400421  1
  In  In3  1  -0.00000000  0.37599579  0.87599579  1
  In  In4  1  -0.00000000  0.87599579  0.62400421  1
  In  In5  1  -0.00000000  0.12400421  0.37599579  1
  Ni  Ni6  1  0.75193880  0.17664499  0.67664499  1
  Ni  Ni7  1  0.75193880  0.82335501  0.32335501  1
  Ni  Ni8  1  0.75193880  0.32335501  0.17664499  1
  Ni  Ni9  1  0.75193880  0.67664499  0.82335501  1
  Ni  Ni10  1  0.24806120  0.82335501  0.32335501  1
  Ni  Ni11  1  0.24806120  0.17664499  0.67664499  1
  Ni  Ni12  1  0.24806120  0.67664499  0.82335501  1
  Ni  Ni13  1  0.24806120  0.32335501  0.17664499  1
  Ni  Ni14  1  0.50000000  0.70883057  0.56444964  1
  Ni  Ni15  1  0.50000000  0.29116943  0.43555036  1
  Ni  Ni16  1  0.50000000  0.79116943  0.06444964  1
  Ni  Ni17  1  0.50000000  0.20883057  0.93555036  1
  Ni  Ni18  1  0.50000000  0.56444964  0.29116943  1
  Ni  Ni19  1  0.50000000  0.43555036  0.70883057  1
  Ni  Ni20  1  0.50000000  0.06444964  0.20883057  1
  Ni  Ni21  1  0.50000000  0.93555036  0.79116943  1
  Ni  Ni22  1  0.50000000  0.00000000  0.50000000  1
  Ni  Ni23  1  0.50000000  0.50000000  0.00000000  1
