# generated using pymatgen
data_Cs3SbS3
_symmetry_space_group_name_H-M   'P 1'
_cell_length_a   10.48149957
_cell_length_b   10.48149957
_cell_length_c   10.48149957
_cell_angle_alpha   90.00000000
_cell_angle_beta   90.00000000
_cell_angle_gamma   90.00000000
_symmetry_Int_Tables_number   1
_chemical_formula_structural   Cs3SbS3
_chemical_formula_sum   'Cs12 Sb4 S12'
_cell_volume   1151.51675782
_cell_formula_units_Z   4
loop_
 _symmetry_equiv_pos_site_id
 _symmetry_equiv_pos_as_xyz
  1  'x, y, z'
loop_
 _atom_site_type_symbol
 _atom_site_label
 _atom_site_symmetry_multiplicity
 _atom_site_fract_x
 _atom_site_fract_y
 _atom_site_fract_z
 _atom_site_occupancy
  Cs  Cs0  1  0.44199298  0.94199298  0.55800702  1
  Cs  Cs1  1  0.94199298  0.55800702  0.44199298  1
  Cs  Cs2  1  0.55800702  0.44199298  0.94199298  1
  Cs  Cs3  1  0.05800702  0.05800702  0.05800702  1
  Cs  Cs4  1  0.94057214  0.44057214  0.05942786  1
  Cs  Cs5  1  0.44057214  0.05942786  0.94057214  1
  Cs  Cs6  1  0.05942786  0.94057214  0.44057214  1
  Cs  Cs7  1  0.55942786  0.55942786  0.55942786  1
  Cs  Cs8  1  0.67948314  0.17948314  0.32051686  1
  Cs  Cs9  1  0.17948314  0.32051686  0.67948314  1
  Cs  Cs10  1  0.32051686  0.67948314  0.17948314  1
  Cs  Cs11  1  0.82051686  0.82051686  0.82051686  1
  Sb  Sb12  1  0.22461848  0.72461848  0.77538152  1
  Sb  Sb13  1  0.72461848  0.77538152  0.22461848  1
  Sb  Sb14  1  0.77538152  0.22461848  0.72461848  1
  Sb  Sb15  1  0.27538152  0.27538152  0.27538152  1
  S  S16  1  0.15822223  0.94920367  0.75837231  1
  S  S17  1  0.24162769  0.65822223  0.55079633  1
  S  S18  1  0.44920367  0.74162769  0.84177777  1
  S  S19  1  0.65822223  0.55079633  0.24162769  1
  S  S20  1  0.74162769  0.84177777  0.44920367  1
  S  S21  1  0.94920367  0.75837231  0.15822223  1
  S  S22  1  0.84177777  0.44920367  0.74162769  1
  S  S23  1  0.75837231  0.15822223  0.94920367  1
  S  S24  1  0.55079633  0.24162769  0.65822223  1
  S  S25  1  0.34177777  0.05079633  0.25837231  1
  S  S26  1  0.25837231  0.34177777  0.05079633  1
  S  S27  1  0.05079633  0.25837231  0.34177777  1
