# generated using pymatgen
data_SrZnAsHO5
_symmetry_space_group_name_H-M   'P 1'
_cell_length_a   6.13909134
_cell_length_b   7.76811672
_cell_length_c   9.42450196
_cell_angle_alpha   90.00000000
_cell_angle_beta   90.00000000
_cell_angle_gamma   90.00000000
_symmetry_Int_Tables_number   1
_chemical_formula_structural   SrZnAsHO5
_chemical_formula_sum   'Sr4 Zn4 As4 H4 O20'
_cell_volume   449.44675232
_cell_formula_units_Z   4
loop_
 _symmetry_equiv_pos_site_id
 _symmetry_equiv_pos_as_xyz
  1  'x, y, z'
loop_
 _atom_site_type_symbol
 _atom_site_label
 _atom_site_symmetry_multiplicity
 _atom_site_fract_x
 _atom_site_fract_y
 _atom_site_fract_z
 _atom_site_occupancy
  Sr  Sr0  1  0.02844217  0.36585606  0.83196908  1
  Sr  Sr1  1  0.52844217  0.13414394  0.16803092  1
  Sr  Sr2  1  0.97155783  0.86585606  0.66803092  1
  Sr  Sr3  1  0.47155783  0.63414394  0.33196908  1
  Zn  Zn4  1  0.26608469  0.76518819  0.98956629  1
  Zn  Zn5  1  0.76608469  0.73481181  0.01043371  1
  Zn  Zn6  1  0.73391531  0.26518819  0.51043371  1
  Zn  Zn7  1  0.23391531  0.23481181  0.48956629  1
  As  As8  1  0.98582389  0.37890649  0.18290052  1
  As  As9  1  0.48582389  0.12109351  0.81709948  1
  As  As10  1  0.01417611  0.87890649  0.31709948  1
  As  As11  1  0.51417611  0.62109351  0.68290052  1
  H  H12  1  0.98952755  0.99714482  0.98725916  1
  H  H13  1  0.48952755  0.50285518  0.01274084  1
  H  H14  1  0.01047245  0.49714482  0.51274084  1
  H  H15  1  0.51047245  0.00285518  0.48725916  1
  O  O16  1  0.00960134  0.55452915  0.06796578  1
  O  O17  1  0.50960134  0.94547085  0.93203422  1
  O  O18  1  0.99039866  0.05452915  0.43203422  1
  O  O19  1  0.49039866  0.44547085  0.56796578  1
  O  O20  1  0.93314052  0.20852319  0.07064770  1
  O  O21  1  0.43314052  0.29147681  0.92935230  1
  O  O22  1  0.06685948  0.70852319  0.42935230  1
  O  O23  1  0.56685948  0.79147681  0.57064770  1
  O  O24  1  0.27071308  0.64315808  0.77411425  1
  O  O25  1  0.77071308  0.85684192  0.22588575  1
  O  O26  1  0.72928692  0.14315808  0.72588575  1
  O  O27  1  0.22928692  0.35684192  0.27411425  1
  O  O28  1  0.74106072  0.60804439  0.79147742  1
  O  O29  1  0.24106072  0.89195561  0.20852258  1
  O  O30  1  0.25893928  0.10804439  0.70852258  1
  O  O31  1  0.75893928  0.39195561  0.29147742  1
  O  O32  1  0.99711982  0.88735651  0.93402258  1
  O  O33  1  0.49711982  0.61264349  0.06597742  1
  O  O34  1  0.00288018  0.38735651  0.56597742  1
  O  O35  1  0.50288018  0.11264349  0.43402258  1
