# generated using pymatgen
data_Li9Mn2Co5O16
_symmetry_space_group_name_H-M   'P 1'
_cell_length_a   5.18460574
_cell_length_b   10.18255409
_cell_length_c   5.78362047
_cell_angle_alpha   106.49888028
_cell_angle_beta   89.99999979
_cell_angle_gamma   98.41971126
_symmetry_Int_Tables_number   1
_chemical_formula_structural   Li9Mn2Co5O16
_chemical_formula_sum   'Li9 Mn2 Co5 O16'
_cell_volume   289.32616870
_cell_formula_units_Z   1
loop_
 _symmetry_equiv_pos_site_id
 _symmetry_equiv_pos_as_xyz
  1  'x, y, z'
loop_
 _atom_site_type_symbol
 _atom_site_label
 _atom_site_symmetry_multiplicity
 _atom_site_fract_x
 _atom_site_fract_y
 _atom_site_fract_z
 _atom_site_occupancy
  Li  Li0  1  0.50000000  0.00000000  0.75000000  1
  Li  Li1  1  0.74985539  0.25421572  0.62710786  1
  Li  Li2  1  0.00000000  0.50000000  0.49639304  1
  Li  Li3  1  0.25095194  0.74145130  0.37072565  1
  Li  Li4  1  0.50000000  0.00000000  0.25000000  1
  Li  Li5  1  0.74904806  0.25854870  0.12927435  1
  Li  Li6  1  1.00000000  0.50000000  0.00360696  1
  Li  Li7  1  0.25014461  0.74578428  0.87289214  1
  Li  Li8  1  0.50000000  0.50000000  0.25000000  1
  Mn  Mn9  1  0.00401049  0.00151680  0.00075840  1
  Mn  Mn10  1  0.99598951  0.99848320  0.49924160  1
  Co  Co11  1  0.26521323  0.25936018  0.88325139  1
  Co  Co12  1  0.50000000  0.50000000  0.75000000  1
  Co  Co13  1  0.73478677  0.74063982  0.61674861  1
  Co  Co14  1  0.26521323  0.25936018  0.37610879  1
  Co  Co15  1  0.73478677  0.74063982  0.12389121  1
  O  O16  1  0.11459306  0.88693186  0.69503762  1
  O  O17  1  0.34912638  0.13343191  0.56671596  1
  O  O18  1  0.60479197  0.38054386  0.45932719  1
  O  O19  1  0.87756554  0.64044488  0.32022244  1
  O  O20  1  0.11459306  0.88693186  0.19189424  1
  O  O21  1  0.36434500  0.12658409  0.06329205  1
  O  O22  1  0.60479197  0.38054386  0.92121667  1
  O  O23  1  0.83785376  0.61508382  0.80754191  1
  O  O24  1  0.88540694  0.11306814  0.80496238  1
  O  O25  1  0.16214624  0.38491618  0.69245809  1
  O  O26  1  0.39520803  0.61945614  0.57878333  1
  O  O27  1  0.63565500  0.87341591  0.43670795  1
  O  O28  1  0.88540694  0.11306814  0.30810576  1
  O  O29  1  0.12243446  0.35955512  0.17977756  1
  O  O30  1  0.39520803  0.61945614  0.04067281  1
  O  O31  1  0.65087362  0.86656809  0.93328404  1
