# generated using pymatgen
data_Sc3Si3Pt
_symmetry_space_group_name_H-M   'P 1'
_cell_length_a   4.05748762
_cell_length_b   10.25578922
_cell_length_c   11.72495718
_cell_angle_alpha   90.00000000
_cell_angle_beta   90.00000000
_cell_angle_gamma   90.00000000
_symmetry_Int_Tables_number   1
_chemical_formula_structural   Sc3Si3Pt
_chemical_formula_sum   'Sc12 Si12 Pt4'
_cell_volume   487.90756877
_cell_formula_units_Z   4
loop_
 _symmetry_equiv_pos_site_id
 _symmetry_equiv_pos_as_xyz
  1  'x, y, z'
loop_
 _atom_site_type_symbol
 _atom_site_label
 _atom_site_symmetry_multiplicity
 _atom_site_fract_x
 _atom_site_fract_y
 _atom_site_fract_z
 _atom_site_occupancy
  Sc  Sc0  1  0.25000000  0.87624924  0.02131887  1
  Sc  Sc1  1  0.25000000  0.62375076  0.52131887  1
  Sc  Sc2  1  0.75000000  0.12375076  0.97868113  1
  Sc  Sc3  1  0.75000000  0.37624924  0.47868113  1
  Sc  Sc4  1  0.25000000  0.91974887  0.59945433  1
  Sc  Sc5  1  0.25000000  0.58025113  0.09945433  1
  Sc  Sc6  1  0.75000000  0.08025113  0.40054567  1
  Sc  Sc7  1  0.75000000  0.41974887  0.90054567  1
  Sc  Sc8  1  0.25000000  0.65916154  0.80086496  1
  Sc  Sc9  1  0.25000000  0.84083846  0.30086496  1
  Sc  Sc10  1  0.75000000  0.34083846  0.19913504  1
  Sc  Sc11  1  0.75000000  0.15916154  0.69913504  1
  Si  Si12  1  0.25000000  0.01661886  0.82399406  1
  Si  Si13  1  0.25000000  0.48338114  0.32399406  1
  Si  Si14  1  0.75000000  0.98338114  0.17600594  1
  Si  Si15  1  0.75000000  0.51661886  0.67600594  1
  Si  Si16  1  0.25000000  0.24705118  0.84413949  1
  Si  Si17  1  0.25000000  0.25294882  0.34413949  1
  Si  Si18  1  0.75000000  0.75294882  0.15586051  1
  Si  Si19  1  0.75000000  0.74705118  0.65586051  1
  Si  Si20  1  0.25000000  0.18842415  0.54311970  1
  Si  Si21  1  0.25000000  0.31157585  0.04311970  1
  Si  Si22  1  0.75000000  0.81157585  0.45688030  1
  Si  Si23  1  0.75000000  0.68842415  0.95688030  1
  Pt  Pt24  1  0.25000000  0.38714348  0.67814298  1
  Pt  Pt25  1  0.25000000  0.11285652  0.17814298  1
  Pt  Pt26  1  0.75000000  0.61285652  0.32185702  1
  Pt  Pt27  1  0.75000000  0.88714348  0.82185702  1
