# generated using pymatgen
data_Ba3NaSm3(Si3O10)2
_symmetry_space_group_name_H-M   'P 1'
_cell_length_a   5.62404155
_cell_length_b   12.44749883
_cell_length_c   14.93099261
_cell_angle_alpha   90.00000000
_cell_angle_beta   90.00000000
_cell_angle_gamma   103.05642501
_symmetry_Int_Tables_number   1
_chemical_formula_structural   Ba3NaSm3(Si3O10)2
_chemical_formula_sum   'Ba6 Na2 Sm6 Si12 O40'
_cell_volume   1018.22619435
_cell_formula_units_Z   2
loop_
 _symmetry_equiv_pos_site_id
 _symmetry_equiv_pos_as_xyz
  1  'x, y, z'
loop_
 _atom_site_type_symbol
 _atom_site_label
 _atom_site_symmetry_multiplicity
 _atom_site_fract_x
 _atom_site_fract_y
 _atom_site_fract_z
 _atom_site_occupancy
  Ba  Ba0  1  0.15073091  0.16385637  0.25000000  1
  Ba  Ba1  1  0.98687454  0.83614363  0.75000000  1
  Ba  Ba2  1  0.82557725  0.51366141  0.88654811  1
  Ba  Ba3  1  0.31191584  0.48633859  0.11345189  1
  Ba  Ba4  1  0.82557725  0.51366141  0.61345189  1
  Ba  Ba5  1  0.31191584  0.48633859  0.38654811  1
  Na  Na6  1  0.75482491  0.22260196  0.75000000  1
  Na  Na7  1  0.53222296  0.77739804  0.25000000  1
  Sm  Sm8  1  0.60690383  0.22125563  0.03064216  1
  Sm  Sm9  1  0.38564820  0.77874437  0.96935784  1
  Sm  Sm10  1  0.60690383  0.22125563  0.46935784  1
  Sm  Sm11  1  0.38564820  0.77874437  0.53064216  1
  Sm  Sm12  1  0.99492284  0.00000000  -0.00000000  1
  Sm  Sm13  1  0.99492284  0.00000000  0.50000000  1
  Si  Si14  1  0.71752482  0.36052108  0.25000000  1
  Si  Si15  1  0.35700374  0.63947892  0.75000000  1
  Si  Si16  1  0.18830440  0.30304699  0.94264398  1
  Si  Si17  1  0.88525741  0.69695301  0.05735602  1
  Si  Si18  1  0.18830440  0.30304699  0.55735602  1
  Si  Si19  1  0.88525741  0.69695301  0.44264398  1
  Si  Si20  1  0.55728306  0.99871587  0.86011243  1
  Si  Si21  1  0.55856719  0.00128413  0.13988757  1
  Si  Si22  1  0.55728306  0.99871587  0.63988757  1
  Si  Si23  1  0.55856719  0.00128413  0.36011243  1
  Si  Si24  1  0.28545541  0.37989272  0.75000000  1
  Si  Si25  1  0.90556269  0.62010728  0.25000000  1
  O  O26  1  0.21071539  0.17828625  0.96735409  1
  O  O27  1  0.03242914  0.82171375  0.03264591  1
  O  O28  1  0.21071539  0.17828625  0.53264591  1
  O  O29  1  0.03242914  0.82171375  0.46735409  1
  O  O30  1  0.45837919  0.37828937  0.96810274  1
  O  O31  1  0.08008983  0.62171063  0.03189726  1
  O  O32  1  0.45837919  0.37828937  0.53189726  1
  O  O33  1  0.08008983  0.62171063  0.46810274  1
  O  O34  1  0.56680842  0.02603711  0.75000000  1
  O  O35  1  0.54077131  0.97396289  0.25000000  1
  O  O36  1  0.12425648  0.31519198  0.83453012  1
  O  O37  1  0.80906450  0.68480802  0.16546988  1
  O  O38  1  0.12425648  0.31519198  0.66546988  1
  O  O39  1  0.80906450  0.68480802  0.33453012  1
  O  O40  1  0.71133189  0.49703624  0.25000000  1
  O  O41  1  0.21429565  0.50296376  0.75000000  1
  O  O42  1  0.27639954  0.94619779  0.89159420  1
  O  O43  1  0.33020176  0.05380221  0.10840580  1
  O  O44  1  0.27639954  0.94619779  0.60840580  1
  O  O45  1  0.33020176  0.05380221  0.39159420  1
  O  O46  1  0.97543757  0.34585974  0.99699298  1
  O  O47  1  0.62957784  0.65414026  0.00300702  1
  O  O48  1  0.97543757  0.34585974  0.50300702  1
  O  O49  1  0.62957784  0.65414026  0.49699298  1
  O  O50  1  0.55388533  0.31057762  0.16213454  1
  O  O51  1  0.24330771  0.68942238  0.83786546  1
  O  O52  1  0.55388533  0.31057762  0.33786546  1
  O  O53  1  0.24330771  0.68942238  0.66213454  1
  O  O54  1  0.80819006  0.09649122  0.11681307  1
  O  O55  1  0.71169883  0.90350878  0.88318693  1
  O  O56  1  0.80819006  0.09649122  0.38318693  1
  O  O57  1  0.71169883  0.90350878  0.61681307  1
  O  O58  1  0.00167755  0.35355093  0.25000000  1
  O  O59  1  0.64812662  0.64644907  0.75000000  1
  O  O60  1  0.69516765  0.10910299  0.91354422  1
  O  O61  1  0.58606467  0.89089701  0.08645578  1
  O  O62  1  0.69516765  0.10910299  0.58645578  1
  O  O63  1  0.58606467  0.89089701  0.41354422  1
  O  O64  1  0.57028919  0.38162073  0.75000000  1
  O  O65  1  0.18866846  0.61837927  0.25000000  1
