# generated using pymatgen
data_DyCo3P2
_symmetry_space_group_name_H-M   'P 1'
_cell_length_a   3.69411668
_cell_length_b   10.52727724
_cell_length_c   12.15606410
_cell_angle_alpha   90.00000000
_cell_angle_beta   90.00000000
_cell_angle_gamma   90.00000000
_symmetry_Int_Tables_number   1
_chemical_formula_structural   DyCo3P2
_chemical_formula_sum   'Dy6 Co18 P12'
_cell_volume   472.73706066
_cell_formula_units_Z   6
loop_
 _symmetry_equiv_pos_site_id
 _symmetry_equiv_pos_as_xyz
  1  'x, y, z'
loop_
 _atom_site_type_symbol
 _atom_site_label
 _atom_site_symmetry_multiplicity
 _atom_site_fract_x
 _atom_site_fract_y
 _atom_site_fract_z
 _atom_site_occupancy
  Dy  Dy0  1  0.75000000  0.25000000  0.47642764  1
  Dy  Dy1  1  0.25000000  0.75000000  0.52357236  1
  Dy  Dy2  1  0.25000000  0.93332741  0.79425189  1
  Dy  Dy3  1  0.25000000  0.56667259  0.79425189  1
  Dy  Dy4  1  0.75000000  0.06667259  0.20574811  1
  Dy  Dy5  1  0.75000000  0.43332741  0.20574811  1
  Co  Co6  1  0.25000000  0.25000000  0.84093586  1
  Co  Co7  1  0.75000000  0.75000000  0.15906414  1
  Co  Co8  1  0.25000000  0.25000000  0.29704222  1
  Co  Co9  1  0.75000000  0.75000000  0.70295778  1
  Co  Co10  1  0.75000000  0.25000000  0.01434467  1
  Co  Co11  1  0.25000000  0.75000000  0.98565533  1
  Co  Co12  1  0.25000000  0.41698263  0.00601735  1
  Co  Co13  1  0.25000000  0.08301737  0.00601735  1
  Co  Co14  1  0.75000000  0.58301737  0.99398265  1
  Co  Co15  1  0.75000000  0.91698263  0.99398265  1
  Co  Co16  1  0.25000000  0.45338163  0.56885270  1
  Co  Co17  1  0.25000000  0.04661837  0.56885270  1
  Co  Co18  1  0.75000000  0.54661837  0.43114730  1
  Co  Co19  1  0.75000000  0.95338163  0.43114730  1
  Co  Co20  1  0.25000000  0.87065638  0.29141411  1
  Co  Co21  1  0.25000000  0.62934362  0.29141411  1
  Co  Co22  1  0.75000000  0.12934362  0.70858589  1
  Co  Co23  1  0.75000000  0.37065638  0.70858589  1
  P  P24  1  0.25000000  0.25000000  0.11756400  1
  P  P25  1  0.75000000  0.75000000  0.88243600  1
  P  P26  1  0.25000000  0.25000000  0.65538709  1
  P  P27  1  0.75000000  0.75000000  0.34461291  1
  P  P28  1  0.25000000  0.43979443  0.38394870  1
  P  P29  1  0.25000000  0.06020557  0.38394870  1
  P  P30  1  0.75000000  0.56020557  0.61605130  1
  P  P31  1  0.75000000  0.93979443  0.61605130  1
  P  P32  1  0.25000000  0.90155818  0.10676729  1
  P  P33  1  0.25000000  0.59844182  0.10676729  1
  P  P34  1  0.75000000  0.09844182  0.89323271  1
  P  P35  1  0.75000000  0.40155818  0.89323271  1
