# generated using pymatgen
data_Dy8In3Co
_symmetry_space_group_name_H-M   'P 1'
_cell_length_a   6.98323110
_cell_length_b   10.39085331
_cell_length_c   10.39085331
_cell_angle_alpha   120.02570754
_cell_angle_beta   90.00000000
_cell_angle_gamma   90.00000000
_symmetry_Int_Tables_number   1
_chemical_formula_structural   Dy8In3Co
_chemical_formula_sum   'Dy16 In6 Co2'
_cell_volume   652.79514106
_cell_formula_units_Z   2
loop_
 _symmetry_equiv_pos_site_id
 _symmetry_equiv_pos_as_xyz
  1  'x, y, z'
loop_
 _atom_site_type_symbol
 _atom_site_label
 _atom_site_symmetry_multiplicity
 _atom_site_fract_x
 _atom_site_fract_y
 _atom_site_fract_z
 _atom_site_occupancy
  Dy  Dy0  1  0.48832847  0.46608035  0.53391965  1
  Dy  Dy1  1  0.48836903  0.06825176  0.53405803  1
  Dy  Dy2  1  0.48836903  0.46594197  0.93174824  1
  Dy  Dy3  1  0.98832847  0.53391965  0.46608035  1
  Dy  Dy4  1  0.98836903  0.93174824  0.46594197  1
  Dy  Dy5  1  0.98836903  0.53405803  0.06825176  1
  Dy  Dy6  1  0.27770904  0.82272781  0.17727219  1
  Dy  Dy7  1  0.27738276  0.35450550  0.17722057  1
  Dy  Dy8  1  0.27738276  0.82277943  0.64549450  1
  Dy  Dy9  1  0.77770904  0.17727219  0.82272781  1
  Dy  Dy10  1  0.77738276  0.64549450  0.82277943  1
  Dy  Dy11  1  0.77738276  0.17722057  0.35450550  1
  Dy  Dy12  1  0.09816714  0.33328427  0.66671573  1
  Dy  Dy13  1  0.59816714  0.66671573  0.33328427  1
  Dy  Dy14  1  0.49901976  0.00008459  0.99991541  1
  Dy  Dy15  1  0.99901976  0.99991541  0.00008459  1
  In  In16  1  0.24047091  0.16383690  0.83616310  1
  In  In17  1  0.24030675  0.67247402  0.83615724  1
  In  In18  1  0.24030675  0.16384276  0.32752598  1
  In  In19  1  0.74047091  0.83616310  0.16383690  1
  In  In20  1  0.74030675  0.32752598  0.16384276  1
  In  In21  1  0.74030675  0.83615724  0.67247402  1
  Co  Co22  1  0.71118761  0.33340228  0.66659772  1
  Co  Co23  1  0.21118761  0.66659772  0.33340228  1
