# generated using pymatgen
data_La21Mn8Sn7C12
_symmetry_space_group_name_H-M   'P 1'
_cell_length_a   11.68527736
_cell_length_b   11.68527736
_cell_length_c   11.68527736
_cell_angle_alpha   60.00000000
_cell_angle_beta   60.00000000
_cell_angle_gamma   60.00000000
_symmetry_Int_Tables_number   1
_chemical_formula_structural   La21Mn8Sn7C12
_chemical_formula_sum   'La21 Mn8 Sn7 C12'
_cell_volume   1128.24151888
_cell_formula_units_Z   1
loop_
 _symmetry_equiv_pos_site_id
 _symmetry_equiv_pos_as_xyz
  1  'x, y, z'
loop_
 _atom_site_type_symbol
 _atom_site_label
 _atom_site_symmetry_multiplicity
 _atom_site_fract_x
 _atom_site_fract_y
 _atom_site_fract_z
 _atom_site_occupancy
  La  La0  1  0.66027576  0.00000000  -0.00000000  1
  La  La1  1  0.66027576  -0.00000000  0.33972424  1
  La  La2  1  0.66027576  0.33972424  0.00000000  1
  La  La3  1  0.00000000  0.66027576  0.33972424  1
  La  La4  1  -0.00000000  0.66027576  0.00000000  1
  La  La5  1  0.33972424  0.66027576  -0.00000000  1
  La  La6  1  -0.00000000  0.33972424  0.66027576  1
  La  La7  1  0.33972424  0.00000000  0.66027576  1
  La  La8  1  -0.00000000  0.00000000  0.66027576  1
  La  La9  1  0.33972424  -0.00000000  0.00000000  1
  La  La10  1  0.00000000  0.33972424  -0.00000000  1
  La  La11  1  0.00000000  -0.00000000  0.33972424  1
  La  La12  1  0.90278231  0.36573923  0.36573923  1
  La  La13  1  0.36573923  0.90278231  0.36573923  1
  La  La14  1  0.36573923  0.36573923  0.90278231  1
  La  La15  1  0.36573923  0.36573923  0.36573923  1
  La  La16  1  0.09721769  0.63426077  0.63426077  1
  La  La17  1  0.63426077  0.09721769  0.63426077  1
  La  La18  1  0.63426077  0.63426077  0.09721769  1
  La  La19  1  0.63426077  0.63426077  0.63426077  1
  La  La20  1  0.50000000  0.50000000  0.50000000  1
  Mn  Mn21  1  0.40705156  0.19764948  0.19764948  1
  Mn  Mn22  1  0.19764948  0.40705156  0.19764948  1
  Mn  Mn23  1  0.19764948  0.19764948  0.40705156  1
  Mn  Mn24  1  0.19764948  0.19764948  0.19764948  1
  Mn  Mn25  1  0.59294844  0.80235052  0.80235052  1
  Mn  Mn26  1  0.80235052  0.59294844  0.80235052  1
  Mn  Mn27  1  0.80235052  0.80235052  0.59294844  1
  Mn  Mn28  1  0.80235052  0.80235052  0.80235052  1
  Sn  Sn29  1  0.71028127  0.28971873  0.28971873  1
  Sn  Sn30  1  0.71028127  0.28971873  0.71028127  1
  Sn  Sn31  1  0.71028127  0.71028127  0.28971873  1
  Sn  Sn32  1  0.28971873  0.71028127  0.71028127  1
  Sn  Sn33  1  0.28971873  0.71028127  0.28971873  1
  Sn  Sn34  1  0.28971873  0.28971873  0.71028127  1
  Sn  Sn35  1  -0.00000000  -0.00000000  -0.00000000  1
  C  C36  1  0.39186108  0.10813892  0.10813892  1
  C  C37  1  0.39186108  0.10813892  0.39186108  1
  C  C38  1  0.39186108  0.39186108  0.10813892  1
  C  C39  1  0.10813892  0.39186108  0.39186108  1
  C  C40  1  0.10813892  0.39186108  0.10813892  1
  C  C41  1  0.10813892  0.10813892  0.39186108  1
  C  C42  1  0.60813892  0.89186108  0.89186108  1
  C  C43  1  0.60813892  0.89186108  0.60813892  1
  C  C44  1  0.60813892  0.60813892  0.89186108  1
  C  C45  1  0.89186108  0.60813892  0.60813892  1
  C  C46  1  0.89186108  0.60813892  0.89186108  1
  C  C47  1  0.89186108  0.89186108  0.60813892  1
