# generated using pymatgen
data_Dy2B6Os
_symmetry_space_group_name_H-M   'P 1'
_cell_length_a   3.66470223
_cell_length_b   9.16789098
_cell_length_c   11.54407028
_cell_angle_alpha   90.00000000
_cell_angle_beta   90.00000000
_cell_angle_gamma   90.00000000
_symmetry_Int_Tables_number   1
_chemical_formula_structural   Dy2B6Os
_chemical_formula_sum   'Dy8 B24 Os4'
_cell_volume   387.85294619
_cell_formula_units_Z   4
loop_
 _symmetry_equiv_pos_site_id
 _symmetry_equiv_pos_as_xyz
  1  'x, y, z'
loop_
 _atom_site_type_symbol
 _atom_site_label
 _atom_site_symmetry_multiplicity
 _atom_site_fract_x
 _atom_site_fract_y
 _atom_site_fract_z
 _atom_site_occupancy
  Dy  Dy0  1  -0.00000000  0.32223290  0.41361426  1
  Dy  Dy1  1  -0.00000000  0.67776710  0.58638574  1
  Dy  Dy2  1  -0.00000000  0.82223290  0.08638574  1
  Dy  Dy3  1  -0.00000000  0.17776710  0.91361426  1
  Dy  Dy4  1  -0.00000000  0.94491790  0.37336468  1
  Dy  Dy5  1  -0.00000000  0.05508210  0.62663532  1
  Dy  Dy6  1  0.00000000  0.44491790  0.12663532  1
  Dy  Dy7  1  -0.00000000  0.55508210  0.87336468  1
  B  B8  1  0.50000000  0.55428085  0.43298602  1
  B  B9  1  0.50000000  0.44571915  0.56701398  1
  B  B10  1  0.50000000  0.05428085  0.06701398  1
  B  B11  1  0.50000000  0.94571915  0.93298602  1
  B  B12  1  0.50000000  0.74827153  0.42049865  1
  B  B13  1  0.50000000  0.25172847  0.57950135  1
  B  B14  1  0.50000000  0.24827153  0.07950135  1
  B  B15  1  0.50000000  0.75172847  0.92049865  1
  B  B16  1  0.50000000  0.79143118  0.26762009  1
  B  B17  1  0.50000000  0.20856882  0.73237991  1
  B  B18  1  0.50000000  0.29143118  0.23237991  1
  B  B19  1  0.50000000  0.70856882  0.76762009  1
  B  B20  1  0.50000000  0.63276298  0.18576154  1
  B  B21  1  0.50000000  0.36723702  0.81423846  1
  B  B22  1  0.50000000  0.13276298  0.31423846  1
  B  B23  1  0.50000000  0.86723702  0.68576154  1
  B  B24  1  0.50000000  0.98440390  0.21307360  1
  B  B25  1  0.50000000  0.01559610  0.78692640  1
  B  B26  1  0.50000000  0.48440390  0.28692640  1
  B  B27  1  0.50000000  0.51559610  0.71307360  1
  B  B28  1  0.50000000  0.61118850  0.03083394  1
  B  B29  1  0.50000000  0.38881150  0.96916606  1
  B  B30  1  0.50000000  0.11118850  0.46916606  1
  B  B31  1  0.50000000  0.88881150  0.53083394  1
  Os  Os32  1  0.00000000  0.63824828  0.32161184  1
  Os  Os33  1  -0.00000000  0.36175172  0.67838816  1
  Os  Os34  1  0.00000000  0.13824828  0.17838816  1
  Os  Os35  1  0.00000000  0.86175172  0.82161184  1
