# generated using pymatgen
data_CsFe2F6
_symmetry_space_group_name_H-M   'P 1'
_cell_length_a   7.37055326
_cell_length_b   7.61124559
_cell_length_c   10.60913111
_cell_angle_alpha   90.00000000
_cell_angle_beta   90.00000000
_cell_angle_gamma   90.00000000
_symmetry_Int_Tables_number   1
_chemical_formula_structural   CsFe2F6
_chemical_formula_sum   'Cs4 Fe8 F24'
_cell_volume   595.16261153
_cell_formula_units_Z   4
loop_
 _symmetry_equiv_pos_site_id
 _symmetry_equiv_pos_as_xyz
  1  'x, y, z'
loop_
 _atom_site_type_symbol
 _atom_site_label
 _atom_site_symmetry_multiplicity
 _atom_site_fract_x
 _atom_site_fract_y
 _atom_site_fract_z
 _atom_site_occupancy
  Cs  Cs0  1  0.48840852  0.25000000  0.12587804  1
  Cs  Cs1  1  0.98840852  0.25000000  0.37412196  1
  Cs  Cs2  1  0.51159148  0.75000000  0.87412196  1
  Cs  Cs3  1  0.01159148  0.75000000  0.62587804  1
  Fe  Fe4  1  0.27885328  0.25000000  0.76232095  1
  Fe  Fe5  1  0.77885328  0.25000000  0.73767905  1
  Fe  Fe6  1  0.72114672  0.75000000  0.23767905  1
  Fe  Fe7  1  0.22114672  0.75000000  0.26232095  1
  Fe  Fe8  1  0.50000000  0.00000000  0.50000000  1
  Fe  Fe9  1  0.00000000  0.50000000  0.00000000  1
  Fe  Fe10  1  0.50000000  0.50000000  0.50000000  1
  Fe  Fe11  1  0.00000000  0.00000000  -0.00000000  1
  F  F12  1  0.65064575  0.97429627  0.35076162  1
  F  F13  1  0.15064575  0.52570373  0.14923838  1
  F  F14  1  0.34935425  0.47429627  0.64923838  1
  F  F15  1  0.84935425  0.02570373  0.85076162  1
  F  F16  1  0.34935425  0.02570373  0.64923838  1
  F  F17  1  0.84935425  0.47429627  0.85076162  1
  F  F18  1  0.65064575  0.52570373  0.35076162  1
  F  F19  1  0.15064575  0.97429627  0.14923838  1
  F  F20  1  0.21885144  0.44190187  0.90486944  1
  F  F21  1  0.71885144  0.05809813  0.59513056  1
  F  F22  1  0.78114856  0.94190187  0.09513056  1
  F  F23  1  0.28114856  0.55809813  0.40486944  1
  F  F24  1  0.78114856  0.55809813  0.09513056  1
  F  F25  1  0.28114856  0.94190187  0.40486944  1
  F  F26  1  0.21885144  0.05809813  0.90486944  1
  F  F27  1  0.71885144  0.44190187  0.59513056  1
  F  F28  1  0.95903933  0.25000000  0.05018981  1
  F  F29  1  0.45903933  0.25000000  0.44981019  1
  F  F30  1  0.04096067  0.75000000  0.94981019  1
  F  F31  1  0.54096067  0.75000000  0.55018981  1
  F  F32  1  0.03824623  0.25000000  0.67412228  1
  F  F33  1  0.53824623  0.25000000  0.82587772  1
  F  F34  1  0.96175377  0.75000000  0.32587772  1
  F  F35  1  0.46175377  0.75000000  0.17412228  1
