# generated using pymatgen
data_KSi2HO5
_symmetry_space_group_name_H-M   'P 1'
_cell_length_a   4.81117136
_cell_length_b   8.26638201
_cell_length_c   12.66688578
_cell_angle_alpha   90.00000000
_cell_angle_beta   90.00000000
_cell_angle_gamma   90.00000000
_symmetry_Int_Tables_number   1
_chemical_formula_structural   KSi2HO5
_chemical_formula_sum   'K4 Si8 H4 O20'
_cell_volume   503.77446580
_cell_formula_units_Z   4
loop_
 _symmetry_equiv_pos_site_id
 _symmetry_equiv_pos_as_xyz
  1  'x, y, z'
loop_
 _atom_site_type_symbol
 _atom_site_label
 _atom_site_symmetry_multiplicity
 _atom_site_fract_x
 _atom_site_fract_y
 _atom_site_fract_z
 _atom_site_occupancy
  K  K0  1  0.96296583  0.25000000  0.53846063  1
  K  K1  1  0.53703417  0.25000000  0.03846063  1
  K  K2  1  0.03703417  0.75000000  0.46153937  1
  K  K3  1  0.46296583  0.75000000  0.96153937  1
  Si  Si4  1  0.47406115  0.56191968  0.68667014  1
  Si  Si5  1  0.02593885  0.93808032  0.18667014  1
  Si  Si6  1  0.52593885  0.06191968  0.31332986  1
  Si  Si7  1  0.97406115  0.43808032  0.81332986  1
  Si  Si8  1  0.52593885  0.43808032  0.31332986  1
  Si  Si9  1  0.97406115  0.06191968  0.81332986  1
  Si  Si10  1  0.47406115  0.93808032  0.68667014  1
  Si  Si11  1  0.02593885  0.56191968  0.18667014  1
  H  H12  1  0.50000000  0.00000000  0.50000000  1
  H  H13  1  -0.00000000  0.50000000  0.00000000  1
  H  H14  1  0.50000000  0.50000000  0.50000000  1
  H  H15  1  0.00000000  0.00000000  0.00000000  1
  O  O16  1  0.24648307  0.55043068  0.78350943  1
  O  O17  1  0.25351693  0.94956932  0.28350943  1
  O  O18  1  0.75351693  0.05043068  0.21649057  1
  O  O19  1  0.74648307  0.44956932  0.71649057  1
  O  O20  1  0.75351693  0.44956932  0.21649057  1
  O  O21  1  0.74648307  0.05043068  0.71649057  1
  O  O22  1  0.24648307  0.94956932  0.78350943  1
  O  O23  1  0.25351693  0.55043068  0.28350943  1
  O  O24  1  0.34451930  0.50582976  0.57514542  1
  O  O25  1  0.15548070  0.99417024  0.07514542  1
  O  O26  1  0.65548070  0.00582976  0.42485458  1
  O  O27  1  0.84451930  0.49417024  0.92485458  1
  O  O28  1  0.65548070  0.49417024  0.42485458  1
  O  O29  1  0.84451930  0.00582976  0.92485458  1
  O  O30  1  0.34451930  0.99417024  0.57514542  1
  O  O31  1  0.15548070  0.50582976  0.07514542  1
  O  O32  1  0.08802268  0.25000000  0.81589168  1
  O  O33  1  0.41197732  0.25000000  0.31589168  1
  O  O34  1  0.91197732  0.75000000  0.18410832  1
  O  O35  1  0.58802268  0.75000000  0.68410832  1
