# generated using pymatgen
data_Tm2B6Os
_symmetry_space_group_name_H-M   'P 1'
_cell_length_a   3.62378559
_cell_length_b   9.08143230
_cell_length_c   11.45854955
_cell_angle_alpha   90.00000000
_cell_angle_beta   90.00000000
_cell_angle_gamma   90.00000000
_symmetry_Int_Tables_number   1
_chemical_formula_structural   Tm2B6Os
_chemical_formula_sum   'Tm8 B24 Os4'
_cell_volume   377.09128067
_cell_formula_units_Z   4
loop_
 _symmetry_equiv_pos_site_id
 _symmetry_equiv_pos_as_xyz
  1  'x, y, z'
loop_
 _atom_site_type_symbol
 _atom_site_label
 _atom_site_symmetry_multiplicity
 _atom_site_fract_x
 _atom_site_fract_y
 _atom_site_fract_z
 _atom_site_occupancy
  Tm  Tm0  1  -0.00000000  0.32115814  0.41373308  1
  Tm  Tm1  1  -0.00000000  0.67884186  0.58626692  1
  Tm  Tm2  1  0.00000000  0.82115814  0.08626692  1
  Tm  Tm3  1  0.00000000  0.17884186  0.91373308  1
  Tm  Tm4  1  0.00000000  0.94497146  0.37368750  1
  Tm  Tm5  1  -0.00000000  0.05502854  0.62631250  1
  Tm  Tm6  1  -0.00000000  0.44497146  0.12631250  1
  Tm  Tm7  1  0.00000000  0.55502854  0.87368750  1
  B  B8  1  0.50000000  0.55388731  0.43353372  1
  B  B9  1  0.50000000  0.44611269  0.56646628  1
  B  B10  1  0.50000000  0.05388731  0.06646628  1
  B  B11  1  0.50000000  0.94611269  0.93353372  1
  B  B12  1  0.50000000  0.74916650  0.42086311  1
  B  B13  1  0.50000000  0.25083350  0.57913689  1
  B  B14  1  0.50000000  0.24916650  0.07913689  1
  B  B15  1  0.50000000  0.75083350  0.92086311  1
  B  B16  1  0.50000000  0.79229950  0.26704274  1
  B  B17  1  0.50000000  0.20770050  0.73295726  1
  B  B18  1  0.50000000  0.29229950  0.23295726  1
  B  B19  1  0.50000000  0.70770050  0.76704274  1
  B  B20  1  0.50000000  0.63221525  0.18490713  1
  B  B21  1  0.50000000  0.36778475  0.81509287  1
  B  B22  1  0.50000000  0.13221525  0.31509287  1
  B  B23  1  0.50000000  0.86778475  0.68490713  1
  B  B24  1  0.50000000  0.98289685  0.21332439  1
  B  B25  1  0.50000000  0.01710315  0.78667561  1
  B  B26  1  0.50000000  0.48289685  0.28667561  1
  B  B27  1  0.50000000  0.51710315  0.71332439  1
  B  B28  1  0.50000000  0.60901044  0.03019490  1
  B  B29  1  0.50000000  0.39098956  0.96980510  1
  B  B30  1  0.50000000  0.10901044  0.46980510  1
  B  B31  1  0.50000000  0.89098956  0.53019490  1
  Os  Os32  1  -0.00000000  0.63816933  0.32133229  1
  Os  Os33  1  0.00000000  0.36183067  0.67866771  1
  Os  Os34  1  -0.00000000  0.13816933  0.17866771  1
  Os  Os35  1  0.00000000  0.86183067  0.82133229  1
