# generated using pymatgen
data_Y2ZrS5
_symmetry_space_group_name_H-M   'P 1'
_cell_length_a   7.27188656
_cell_length_b   7.76803020
_cell_length_c   11.61566680
_cell_angle_alpha   90.00000000
_cell_angle_beta   90.00000000
_cell_angle_gamma   90.00000000
_symmetry_Int_Tables_number   1
_chemical_formula_structural   Y2ZrS5
_chemical_formula_sum   'Y8 Zr4 S20'
_cell_volume   656.14850902
_cell_formula_units_Z   4
loop_
 _symmetry_equiv_pos_site_id
 _symmetry_equiv_pos_as_xyz
  1  'x, y, z'
loop_
 _atom_site_type_symbol
 _atom_site_label
 _atom_site_symmetry_multiplicity
 _atom_site_fract_x
 _atom_site_fract_y
 _atom_site_fract_z
 _atom_site_occupancy
  Y  Y0  1  0.97757493  0.00264433  0.17903359  1
  Y  Y1  1  0.52242507  0.49735567  0.67903359  1
  Y  Y2  1  0.02242507  0.50264433  0.82096641  1
  Y  Y3  1  0.47757493  0.99735567  0.32096641  1
  Y  Y4  1  0.02242507  0.99735567  0.82096641  1
  Y  Y5  1  0.47757493  0.50264433  0.32096641  1
  Y  Y6  1  0.97757493  0.49735567  0.17903359  1
  Y  Y7  1  0.52242507  0.00264433  0.67903359  1
  Zr  Zr8  1  0.42231841  0.75000000  0.00631363  1
  Zr  Zr9  1  0.07768159  0.75000000  0.50631363  1
  Zr  Zr10  1  0.57768159  0.25000000  0.99368637  1
  Zr  Zr11  1  0.92231841  0.25000000  0.49368637  1
  S  S12  1  0.66098225  0.53714493  0.90510677  1
  S  S13  1  0.83901775  0.96285507  0.40510677  1
  S  S14  1  0.33901775  0.03714493  0.09489323  1
  S  S15  1  0.16098225  0.46285507  0.59489323  1
  S  S16  1  0.33901775  0.46285507  0.09489323  1
  S  S17  1  0.16098225  0.03714493  0.59489323  1
  S  S18  1  0.66098225  0.96285507  0.90510677  1
  S  S19  1  0.83901775  0.53714493  0.40510677  1
  S  S20  1  0.66960188  0.75000000  0.18171950  1
  S  S21  1  0.83039812  0.75000000  0.68171950  1
  S  S22  1  0.33039812  0.25000000  0.81828050  1
  S  S23  1  0.16960188  0.25000000  0.31828050  1
  S  S24  1  0.05187664  0.75000000  0.00217465  1
  S  S25  1  0.44812336  0.75000000  0.50217465  1
  S  S26  1  0.94812336  0.25000000  0.99782535  1
  S  S27  1  0.55187664  0.25000000  0.49782535  1
  S  S28  1  0.30980114  0.75000000  0.79161094  1
  S  S29  1  0.19019886  0.75000000  0.29161094  1
  S  S30  1  0.69019886  0.25000000  0.20838906  1
  S  S31  1  0.80980114  0.25000000  0.70838906  1
