# generated using pymatgen
data_Dy(BRu)4
_symmetry_space_group_name_H-M   'P 1'
_cell_length_a   7.49555302
_cell_length_b   7.49555302
_cell_length_c   9.20942713
_cell_angle_alpha   114.01338637
_cell_angle_beta   114.01338637
_cell_angle_gamma   90.00000000
_symmetry_Int_Tables_number   1
_chemical_formula_structural   Dy(BRu)4
_chemical_formula_sum   'Dy4 B16 Ru16'
_cell_volume   423.13863543
_cell_formula_units_Z   4
loop_
 _symmetry_equiv_pos_site_id
 _symmetry_equiv_pos_as_xyz
  1  'x, y, z'
loop_
 _atom_site_type_symbol
 _atom_site_label
 _atom_site_symmetry_multiplicity
 _atom_site_fract_x
 _atom_site_fract_y
 _atom_site_fract_z
 _atom_site_occupancy
  Dy  Dy0  1  0.12500000  0.37500000  0.25000000  1
  Dy  Dy1  1  0.62500000  0.87500000  0.25000000  1
  Dy  Dy2  1  0.87500000  0.62500000  0.75000000  1
  Dy  Dy3  1  0.37500000  0.12500000  0.75000000  1
  B  B4  1  0.79026055  0.34735073  0.91443032  1
  B  B5  1  0.62416976  0.84735073  0.91443032  1
  B  B6  1  0.84735073  0.29026055  0.41443032  1
  B  B7  1  0.06707959  0.79026055  0.41443032  1
  B  B8  1  0.20973945  0.65264927  0.08556968  1
  B  B9  1  0.37583024  0.15264927  0.08556968  1
  B  B10  1  0.15264927  0.70973945  0.58556968  1
  B  B11  1  0.93292041  0.20973945  0.58556968  1
  B  B12  1  0.29026055  0.56707959  0.91443032  1
  B  B13  1  0.12416976  0.06707959  0.91443032  1
  B  B14  1  0.34735073  0.12416976  0.41443032  1
  B  B15  1  0.56707959  0.62416976  0.41443032  1
  B  B16  1  0.70973945  0.43292041  0.08556968  1
  B  B17  1  0.87583024  0.93292041  0.08556968  1
  B  B18  1  0.65264927  0.87583024  0.58556968  1
  B  B19  1  0.43292041  0.37583024  0.58556968  1
  Ru  Ru20  1  0.94777195  0.66448456  0.12665004  1
  Ru  Ru21  1  0.67887810  0.16448456  0.12665004  1
  Ru  Ru22  1  0.16448456  0.44777195  0.62665004  1
  Ru  Ru23  1  0.96216548  0.94777195  0.62665004  1
  Ru  Ru24  1  0.05222805  0.33551544  0.87334996  1
  Ru  Ru25  1  0.32112190  0.83551544  0.87334996  1
  Ru  Ru26  1  0.83551544  0.55222805  0.37334996  1
  Ru  Ru27  1  0.03783452  0.05222805  0.37334996  1
  Ru  Ru28  1  0.44777195  0.46216548  0.12665004  1
  Ru  Ru29  1  0.17887810  0.96216548  0.12665004  1
  Ru  Ru30  1  0.66448456  0.17887810  0.62665004  1
  Ru  Ru31  1  0.46216548  0.67887810  0.62665004  1
  Ru  Ru32  1  0.55222805  0.53783452  0.87334996  1
  Ru  Ru33  1  0.82112190  0.03783452  0.87334996  1
  Ru  Ru34  1  0.33551544  0.82112190  0.37334996  1
  Ru  Ru35  1  0.53783452  0.32112190  0.37334996  1
