# generated using pymatgen
data_Li9Mn2Co5O16
_symmetry_space_group_name_H-M   'P 1'
_cell_length_a   2.88062811
_cell_length_b   15.30090527
_cell_length_c   6.66037479
_cell_angle_alpha   92.33156274
_cell_angle_beta   77.51104781
_cell_angle_gamma   90.00000051
_symmetry_Int_Tables_number   1
_chemical_formula_structural   Li9Mn2Co5O16
_chemical_formula_sum   'Li9 Mn2 Co5 O16'
_cell_volume   286.36880805
_cell_formula_units_Z   1
loop_
 _symmetry_equiv_pos_site_id
 _symmetry_equiv_pos_as_xyz
  1  'x, y, z'
loop_
 _atom_site_type_symbol
 _atom_site_label
 _atom_site_symmetry_multiplicity
 _atom_site_fract_x
 _atom_site_fract_y
 _atom_site_fract_z
 _atom_site_occupancy
  Li  Li0  1  0.31185797  0.06794441  0.37628405  1
  Li  Li1  1  0.93523579  0.19317114  0.12952842  1
  Li  Li2  1  0.56476421  0.30682886  0.87047158  1
  Li  Li3  1  0.68687439  0.93688874  0.62625122  1
  Li  Li4  1  0.06616730  0.81415294  0.86766540  1
  Li  Li5  1  0.43383270  0.68584706  0.13233460  1
  Li  Li6  1  0.18814203  0.43205559  0.62371595  1
  Li  Li7  1  0.81312561  0.56311126  0.37374878  1
  Li  Li8  1  0.25000000  0.25000000  0.50000000  1
  Mn  Mn9  1  0.00253733  0.00090458  0.99492534  1
  Mn  Mn10  1  0.49746267  0.49909542  0.00507466  1
  Co  Co11  1  0.63983389  0.13374287  0.72033222  1
  Co  Co12  1  0.86016611  0.36625713  0.27966778  1
  Co  Co13  1  0.12526367  0.62648277  0.74947267  1
  Co  Co14  1  0.75000000  0.75000000  0.50000000  1
  Co  Co15  1  0.37473633  0.87351723  0.25052733  1
  O  O16  1  0.46956198  0.07998173  0.06087604  1
  O  O17  1  0.09384421  0.21192520  0.81231158  1
  O  O18  1  0.72512126  0.34934287  0.54975748  1
  O  O19  1  0.85685525  0.95915924  0.28628951  1
  O  O20  1  0.22056350  0.84024201  0.55887301  1
  O  O21  1  0.59779056  0.70923340  0.80441888  1
  O  O22  1  0.35792063  0.46503584  0.28415874  1
  O  O23  1  0.97004067  0.58333223  0.05991867  1
  O  O24  1  0.14207937  0.03496416  0.71584126  1
  O  O25  1  0.77487874  0.15065713  0.45024252  1
  O  O26  1  0.40615579  0.28807480  0.18768842  1
  O  O27  1  0.52995933  0.91666777  0.94008133  1
  O  O28  1  0.90220944  0.79076660  0.19558112  1
  O  O29  1  0.27943650  0.65975799  0.44112699  1
  O  O30  1  0.03043802  0.42001827  0.93912396  1
  O  O31  1  0.64314475  0.54084076  0.71371049  1
