# generated using pymatgen
data_V2AsO6
_symmetry_space_group_name_H-M   'P 1'
_cell_length_a   4.84245922
_cell_length_b   9.03467540
_cell_length_c   9.64377112
_cell_angle_alpha   90.00000000
_cell_angle_beta   90.00000000
_cell_angle_gamma   90.00000000
_symmetry_Int_Tables_number   1
_chemical_formula_structural   V2AsO6
_chemical_formula_sum   'V8 As4 O24'
_cell_volume   421.91544159
_cell_formula_units_Z   4
loop_
 _symmetry_equiv_pos_site_id
 _symmetry_equiv_pos_as_xyz
  1  'x, y, z'
loop_
 _atom_site_type_symbol
 _atom_site_label
 _atom_site_symmetry_multiplicity
 _atom_site_fract_x
 _atom_site_fract_y
 _atom_site_fract_z
 _atom_site_occupancy
  V  V0  1  0.10255089  0.66754130  0.89102191  1
  V  V1  1  0.39744911  0.33245870  0.39102191  1
  V  V2  1  0.60255089  0.83245870  0.10897809  1
  V  V3  1  0.89744911  0.16754130  0.60897809  1
  V  V4  1  0.11340907  0.00611834  0.90436905  1
  V  V5  1  0.38659093  0.99388166  0.40436905  1
  V  V6  1  0.61340907  0.49388166  0.09563095  1
  V  V7  1  0.88659093  0.50611834  0.59563095  1
  As  As8  1  0.88619375  0.15891810  0.19098223  1
  As  As9  1  0.61380625  0.84108190  0.69098223  1
  As  As10  1  0.38619375  0.34108190  0.80901777  1
  As  As11  1  0.11380625  0.65891810  0.30901777  1
  O  O12  1  0.91779487  0.15432253  0.01541362  1
  O  O13  1  0.58220513  0.84567747  0.51541362  1
  O  O14  1  0.41779487  0.34567747  0.98458638  1
  O  O15  1  0.08220513  0.65432253  0.48458638  1
  O  O16  1  0.71203871  0.32207934  0.23394765  1
  O  O17  1  0.78796129  0.67792066  0.73394765  1
  O  O18  1  0.21203871  0.17792066  0.76605235  1
  O  O19  1  0.28796129  0.82207934  0.26605235  1
  O  O20  1  0.71245701  0.00132812  0.24801513  1
  O  O21  1  0.78754299  0.99867188  0.74801513  1
  O  O22  1  0.21245701  0.49867188  0.75198487  1
  O  O23  1  0.28754299  0.50132812  0.25198487  1
  O  O24  1  0.20632002  0.16237014  0.27203317  1
  O  O25  1  0.29367998  0.83762986  0.77203317  1
  O  O26  1  0.70632002  0.33762986  0.72796683  1
  O  O27  1  0.79367998  0.66237014  0.22796683  1
  O  O28  1  0.41349849  0.66204430  0.01853522  1
  O  O29  1  0.08650151  0.33795570  0.51853522  1
  O  O30  1  0.91349849  0.83795570  0.98146478  1
  O  O31  1  0.58650151  0.16204430  0.48146478  1
  O  O32  1  0.39542117  0.98504205  0.00627800  1
  O  O33  1  0.10457883  0.01495795  0.50627800  1
  O  O34  1  0.89542117  0.51495795  0.99372200  1
  O  O35  1  0.60457883  0.48504205  0.49372200  1
