# generated using pymatgen
data_Ba3Te3(BrO4)2
_symmetry_space_group_name_H-M   'P 1'
_cell_length_a   6.05719958
_cell_length_b   12.85045506
_cell_length_c   18.47771265
_cell_angle_alpha   90.00000000
_cell_angle_beta   90.00000000
_cell_angle_gamma   90.00000000
_symmetry_Int_Tables_number   1
_chemical_formula_structural   Ba3Te3(BrO4)2
_chemical_formula_sum   'Ba12 Te12 Br8 O32'
_cell_volume   1438.26396571
_cell_formula_units_Z   4
loop_
 _symmetry_equiv_pos_site_id
 _symmetry_equiv_pos_as_xyz
  1  'x, y, z'
loop_
 _atom_site_type_symbol
 _atom_site_label
 _atom_site_symmetry_multiplicity
 _atom_site_fract_x
 _atom_site_fract_y
 _atom_site_fract_z
 _atom_site_occupancy
  Ba  Ba0  1  0.75000000  0.62775925  0.01553550  1
  Ba  Ba1  1  0.75000000  0.12775925  0.48446450  1
  Ba  Ba2  1  0.25000000  0.37224075  0.98446450  1
  Ba  Ba3  1  0.25000000  0.87224075  0.51553550  1
  Ba  Ba4  1  0.75000000  0.45844643  0.80299185  1
  Ba  Ba5  1  0.75000000  0.95844643  0.69700815  1
  Ba  Ba6  1  0.25000000  0.54155357  0.19700815  1
  Ba  Ba7  1  0.25000000  0.04155357  0.30299185  1
  Ba  Ba8  1  0.75000000  0.14248164  0.91790271  1
  Ba  Ba9  1  0.75000000  0.64248164  0.58209729  1
  Ba  Ba10  1  0.25000000  0.85751836  0.08209729  1
  Ba  Ba11  1  0.25000000  0.35751836  0.41790271  1
  Te  Te12  1  0.25000000  0.62936229  0.89271859  1
  Te  Te13  1  0.25000000  0.12936229  0.60728141  1
  Te  Te14  1  0.75000000  0.37063771  0.10728141  1
  Te  Te15  1  0.75000000  0.87063771  0.39271859  1
  Te  Te16  1  0.25000000  0.25339130  0.79832383  1
  Te  Te17  1  0.25000000  0.75339130  0.70167617  1
  Te  Te18  1  0.75000000  0.74660870  0.20167617  1
  Te  Te19  1  0.75000000  0.24660870  0.29832383  1
  Te  Te20  1  0.25000000  0.95686341  0.84270024  1
  Te  Te21  1  0.25000000  0.45686341  0.65729976  1
  Te  Te22  1  0.75000000  0.04313659  0.15729976  1
  Te  Te23  1  0.75000000  0.54313659  0.34270024  1
  Br  Br24  1  0.75000000  0.90203682  0.00196092  1
  Br  Br25  1  0.75000000  0.40203682  0.49803908  1
  Br  Br26  1  0.25000000  0.09796318  0.99803908  1
  Br  Br27  1  0.25000000  0.59796318  0.50196092  1
  Br  Br28  1  0.75000000  0.74735102  0.81528323  1
  Br  Br29  1  0.75000000  0.24735102  0.68471677  1
  Br  Br30  1  0.25000000  0.25264898  0.18471677  1
  Br  Br31  1  0.25000000  0.75264898  0.31528323  1
  O  O32  1  0.25000000  0.69894275  0.98213949  1
  O  O33  1  0.25000000  0.19894275  0.51786051  1
  O  O34  1  0.75000000  0.30105725  0.01786051  1
  O  O35  1  0.75000000  0.80105725  0.48213949  1
  O  O36  1  0.01752955  0.53402219  0.91172090  1
  O  O37  1  0.48247045  0.03402219  0.58827910  1
  O  O38  1  0.51752955  0.46597781  0.08827910  1
  O  O39  1  0.98247045  0.96597781  0.41172090  1
  O  O40  1  0.98247045  0.46597781  0.08827910  1
  O  O41  1  0.51752955  0.96597781  0.41172090  1
  O  O42  1  0.48247045  0.53402219  0.91172090  1
  O  O43  1  0.01752955  0.03402219  0.58827910  1
  O  O44  1  0.02025714  0.28864373  0.86165196  1
  O  O45  1  0.47974286  0.78864373  0.63834804  1
  O  O46  1  0.52025714  0.71135627  0.13834804  1
  O  O47  1  0.97974286  0.21135627  0.36165196  1
  O  O48  1  0.97974286  0.71135627  0.13834804  1
  O  O49  1  0.52025714  0.21135627  0.36165196  1
  O  O50  1  0.47974286  0.28864373  0.86165196  1
  O  O51  1  0.02025714  0.78864373  0.63834804  1
  O  O52  1  0.25000000  0.89735626  0.74311749  1
  O  O53  1  0.25000000  0.39735626  0.75688251  1
  O  O54  1  0.75000000  0.10264374  0.25688251  1
  O  O55  1  0.75000000  0.60264374  0.24311749  1
  O  O56  1  0.01290196  0.04305915  0.81954244  1
  O  O57  1  0.48709804  0.54305915  0.68045756  1
  O  O58  1  0.51290196  0.95694085  0.18045756  1
  O  O59  1  0.98709804  0.45694085  0.31954244  1
  O  O60  1  0.98709804  0.95694085  0.18045756  1
  O  O61  1  0.51290196  0.45694085  0.31954244  1
  O  O62  1  0.48709804  0.04305915  0.81954244  1
  O  O63  1  0.01290196  0.54305915  0.68045756  1
