# generated using pymatgen
data_TlNiCl3
_symmetry_space_group_name_H-M   'P 1'
_cell_length_a   5.90338825
_cell_length_b   6.98362607
_cell_length_c   6.98362607
_cell_angle_alpha   120.00000370
_cell_angle_beta   90.00000000
_cell_angle_gamma   90.00000000
_symmetry_Int_Tables_number   1
_chemical_formula_structural   TlNiCl3
_chemical_formula_sum   'Tl2 Ni2 Cl6'
_cell_volume   249.34112645
_cell_formula_units_Z   2
loop_
 _symmetry_equiv_pos_site_id
 _symmetry_equiv_pos_as_xyz
  1  'x, y, z'
loop_
 _atom_site_type_symbol
 _atom_site_label
 _atom_site_symmetry_multiplicity
 _atom_site_fract_x
 _atom_site_fract_y
 _atom_site_fract_z
 _atom_site_occupancy
  Tl  Tl0  1  0.25000000  0.66666700  0.33333300  1
  Tl  Tl1  1  0.75000000  0.33333300  0.66666700  1
  Ni  Ni2  1  -0.00000000  -0.00000000  -0.00000000  1
  Ni  Ni3  1  0.50000000  -0.00000000  -0.00000000  1
  Cl  Cl4  1  0.75000000  0.84349149  0.15650851  1
  Cl  Cl5  1  0.25000000  0.15650851  0.84349149  1
  Cl  Cl6  1  0.75000000  0.31301702  0.15650851  1
  Cl  Cl7  1  0.25000000  0.68698298  0.84349149  1
  Cl  Cl8  1  0.75000000  0.84349149  0.68698298  1
  Cl  Cl9  1  0.25000000  0.15650851  0.31301702  1
