# generated using pymatgen
data_Li9Mn2Co5O16
_symmetry_space_group_name_H-M   'P 1'
_cell_length_a   2.91617943
_cell_length_b   9.79520511
_cell_length_c   10.68103936
_cell_angle_alpha   72.43873472
_cell_angle_beta   82.15393168
_cell_angle_gamma   89.99999481
_symmetry_Int_Tables_number   1
_chemical_formula_structural   Li9Mn2Co5O16
_chemical_formula_sum   'Li9 Mn2 Co5 O16'
_cell_volume   287.88290307
_cell_formula_units_Z   1
loop_
 _symmetry_equiv_pos_site_id
 _symmetry_equiv_pos_as_xyz
  1  'x, y, z'
loop_
 _atom_site_type_symbol
 _atom_site_label
 _atom_site_symmetry_multiplicity
 _atom_site_fract_x
 _atom_site_fract_y
 _atom_site_fract_z
 _atom_site_occupancy
  Li  Li0  1  0.43414903  0.17839235  0.13170194  1
  Li  Li1  1  0.30684693  0.57401006  0.38630614  1
  Li  Li2  1  0.19315307  0.92598994  0.61369386  1
  Li  Li3  1  0.80968100  0.05693658  0.38063800  1
  Li  Li4  1  0.69031900  0.44306342  0.61936200  1
  Li  Li5  1  0.56711594  0.81449172  0.86576811  1
  Li  Li6  1  0.06585097  0.32160765  0.86829806  1
  Li  Li7  1  0.93288406  0.68550828  0.13423189  1
  Li  Li8  1  0.75000000  0.75000000  0.50000000  1
  Mn  Mn9  1  0.99856994  0.99828243  0.00286013  1
  Mn  Mn10  1  0.50143006  0.50171757  0.99713987  1
  Co  Co11  1  0.87284269  0.37446532  0.25431463  1
  Co  Co12  1  0.62715731  0.12553468  0.74568537  1
  Co  Co13  1  0.36365487  0.86983348  0.27269026  1
  Co  Co14  1  0.25000000  0.25000000  0.50000000  1
  Co  Co15  1  0.13634513  0.63016652  0.72730974  1
  O  O16  1  0.52824490  0.13858797  0.94351020  1
  O  O17  1  0.41092680  0.51920244  0.17814639  1
  O  O18  1  0.28730709  0.91038227  0.42538583  1
  O  O19  1  0.91324694  0.02167130  0.17350611  1
  O  O20  1  0.78193433  0.39663505  0.43613134  1
  O  O21  1  0.65239513  0.77293178  0.69520975  1
  O  O22  1  0.15435014  0.26831412  0.69129973  1
  O  O23  1  0.02630652  0.63790809  0.94738696  1
  O  O24  1  0.34564986  0.23168588  0.30870027  1
  O  O25  1  0.21269291  0.58961773  0.57461417  1
  O  O26  1  0.08907320  0.98079756  0.82185361  1
  O  O27  1  0.71806567  0.10336495  0.56386866  1
  O  O28  1  0.58675306  0.47832870  0.82649389  1
  O  O29  1  0.47369348  0.86209191  0.05261304  1
  O  O30  1  0.97175510  0.36141203  0.05648980  1
  O  O31  1  0.84760487  0.72706822  0.30479025  1
