# generated using pymatgen
data_Ca10Si3Pt7
_symmetry_space_group_name_H-M   'P 1'
_cell_length_a   8.83389572
_cell_length_b   8.83391084
_cell_length_c   13.85546690
_cell_angle_alpha   90.00000000
_cell_angle_beta   90.00000000
_cell_angle_gamma   119.99994421
_symmetry_Int_Tables_number   1
_chemical_formula_structural   Ca10Si3Pt7
_chemical_formula_sum   'Ca20 Si6 Pt14'
_cell_volume   936.39119437
_cell_formula_units_Z   2
loop_
 _symmetry_equiv_pos_site_id
 _symmetry_equiv_pos_as_xyz
  1  'x, y, z'
loop_
 _atom_site_type_symbol
 _atom_site_label
 _atom_site_symmetry_multiplicity
 _atom_site_fract_x
 _atom_site_fract_y
 _atom_site_fract_z
 _atom_site_occupancy
  Ca  Ca0  1  0.99999664  0.74100318  0.60644582  1
  Ca  Ca1  1  0.74101407  1.00000000  0.60644188  1
  Ca  Ca2  1  0.25899346  0.25899682  0.60644582  1
  Ca  Ca3  1  0.99999166  0.25899208  0.39355517  1
  Ca  Ca4  1  0.25898010  0.00000000  0.39355408  1
  Ca  Ca5  1  0.74099958  0.74100792  0.39355517  1
  Ca  Ca6  1  0.00000336  0.25899682  0.10644582  1
  Ca  Ca7  1  0.25898593  0.00000000  0.10644188  1
  Ca  Ca8  1  0.74100654  0.74100318  0.10644582  1
  Ca  Ca9  1  0.00000834  0.74100792  0.89355517  1
  Ca  Ca10  1  0.74101990  1.00000000  0.89355408  1
  Ca  Ca11  1  0.25900042  0.25899208  0.89355517  1
  Ca  Ca12  1  0.33332266  0.66667159  0.49999982  1
  Ca  Ca13  1  0.66665108  0.33332841  0.49999982  1
  Ca  Ca14  1  0.66667734  0.33332841  -0.00000018  1
  Ca  Ca15  1  0.33334892  0.66667159  -0.00000018  1
  Ca  Ca16  1  0.66668810  0.33331630  0.74999948  1
  Ca  Ca17  1  0.33337180  0.66668370  0.74999948  1
  Ca  Ca18  1  0.33331190  0.66668370  0.24999948  1
  Ca  Ca19  1  0.66662820  0.33331630  0.24999948  1
  Si  Si20  1  0.00001252  0.28118078  0.74999913  1
  Si  Si21  1  0.28117447  1.00000000  0.74999954  1
  Si  Si22  1  0.71883174  0.71881922  0.74999913  1
  Si  Si23  1  0.99998748  0.71881922  0.24999913  1
  Si  Si24  1  0.71882553  0.00000000  0.24999954  1
  Si  Si25  1  0.28116826  0.28118078  0.24999913  1
  Pt  Pt26  1  0.99999947  -0.00000000  0.74999886  1
  Pt  Pt27  1  0.00000053  0.00000000  0.24999886  1
  Pt  Pt28  1  0.99998243  0.40909959  0.59940344  1
  Pt  Pt29  1  0.40910528  1.00000000  0.59940245  1
  Pt  Pt30  1  0.59088284  0.59090041  0.59940344  1
  Pt  Pt31  1  0.99999189  0.59088943  0.40059930  1
  Pt  Pt32  1  0.59088674  0.00000000  0.40059886  1
  Pt  Pt33  1  0.40910245  0.40911057  0.40059930  1
  Pt  Pt34  1  0.00001757  0.59090041  0.09940344  1
  Pt  Pt35  1  0.59089472  0.00000000  0.09940245  1
  Pt  Pt36  1  0.40911716  0.40909959  0.09940344  1
  Pt  Pt37  1  0.00000811  0.40911057  0.90059930  1
  Pt  Pt38  1  0.40911326  1.00000000  0.90059886  1
  Pt  Pt39  1  0.59089755  0.59088943  0.90059930  1
