# generated using pymatgen
data_Ti6Be15Cu8
_symmetry_space_group_name_H-M   'P 1'
_cell_length_a   7.60312782
_cell_length_b   7.60312782
_cell_length_c   7.60312782
_cell_angle_alpha   60.00000000
_cell_angle_beta   60.00000000
_cell_angle_gamma   60.00000000
_symmetry_Int_Tables_number   1
_chemical_formula_structural   Ti6Be15Cu8
_chemical_formula_sum   'Ti6 Be15 Cu8'
_cell_volume   310.78630802
_cell_formula_units_Z   1
loop_
 _symmetry_equiv_pos_site_id
 _symmetry_equiv_pos_as_xyz
  1  'x, y, z'
loop_
 _atom_site_type_symbol
 _atom_site_label
 _atom_site_symmetry_multiplicity
 _atom_site_fract_x
 _atom_site_fract_y
 _atom_site_fract_z
 _atom_site_occupancy
  Ti  Ti0  1  0.69703630  0.69703630  0.30296370  1
  Ti  Ti1  1  0.30296370  0.30296370  0.69703630  1
  Ti  Ti2  1  0.69703630  0.30296370  0.69703630  1
  Ti  Ti3  1  0.30296370  0.69703630  0.30296370  1
  Ti  Ti4  1  0.30296370  0.69703630  0.69703630  1
  Ti  Ti5  1  0.69703630  0.30296370  0.30296370  1
  Be  Be6  1  0.67348239  0.67348239  0.67348239  1
  Be  Be7  1  0.32651761  0.32651761  0.32651761  1
  Be  Be8  1  0.97955282  0.67348239  0.67348239  1
  Be  Be9  1  0.67348239  0.97955282  0.67348239  1
  Be  Be10  1  0.02044718  0.32651761  0.32651761  1
  Be  Be11  1  0.32651761  0.02044718  0.32651761  1
  Be  Be12  1  0.67348239  0.67348239  0.97955282  1
  Be  Be13  1  0.32651761  0.32651761  0.02044718  1
  Be  Be14  1  0.00000000  -0.00000000  0.50000000  1
  Be  Be15  1  0.50000000  0.50000000  -0.00000000  1
  Be  Be16  1  0.00000000  0.50000000  -0.00000000  1
  Be  Be17  1  0.50000000  -0.00000000  0.50000000  1
  Be  Be18  1  0.50000000  -0.00000000  -0.00000000  1
  Be  Be19  1  0.00000000  0.50000000  0.50000000  1
  Be  Be20  1  0.00000000  -0.00000000  -0.00000000  1
  Cu  Cu21  1  0.87797202  0.87797202  0.87797202  1
  Cu  Cu22  1  0.12202798  0.12202798  0.12202798  1
  Cu  Cu23  1  0.36608394  0.87797202  0.87797202  1
  Cu  Cu24  1  0.87797202  0.36608394  0.87797202  1
  Cu  Cu25  1  0.63391606  0.12202798  0.12202798  1
  Cu  Cu26  1  0.12202798  0.63391606  0.12202798  1
  Cu  Cu27  1  0.87797202  0.87797202  0.36608394  1
  Cu  Cu28  1  0.12202798  0.12202798  0.63391606  1
