# generated using pymatgen
data_Ti5CoSb2
_symmetry_space_group_name_H-M   'P 1'
_cell_length_a   5.04471036
_cell_length_b   7.84447266
_cell_length_c   7.84447266
_cell_angle_alpha   84.06549622
_cell_angle_beta   71.24358177
_cell_angle_gamma   71.24358177
_symmetry_Int_Tables_number   1
_chemical_formula_structural   Ti5CoSb2
_chemical_formula_sum   'Ti10 Co2 Sb4'
_cell_volume   278.33420452
_cell_formula_units_Z   2
loop_
 _symmetry_equiv_pos_site_id
 _symmetry_equiv_pos_as_xyz
  1  'x, y, z'
loop_
 _atom_site_type_symbol
 _atom_site_label
 _atom_site_symmetry_multiplicity
 _atom_site_fract_x
 _atom_site_fract_y
 _atom_site_fract_z
 _atom_site_occupancy
  Ti  Ti0  1  0.25000000  0.50000000  0.50000000  1
  Ti  Ti1  1  0.75000000  0.50000000  0.50000000  1
  Ti  Ti2  1  0.07040702  0.13004075  0.72914522  1
  Ti  Ti3  1  0.92959298  0.86995925  0.27085478  1
  Ti  Ti4  1  0.79955224  0.27085478  0.13004075  1
  Ti  Ti5  1  0.42959298  0.27085478  0.86995925  1
  Ti  Ti6  1  0.20044776  0.72914522  0.86995925  1
  Ti  Ti7  1  0.57040702  0.72914522  0.13004075  1
  Ti  Ti8  1  0.70044776  0.86995925  0.72914522  1
  Ti  Ti9  1  0.29955224  0.13004075  0.27085478  1
  Co  Co10  1  0.25000000  0.00000000  0.00000000  1
  Co  Co11  1  0.75000000  0.00000000  0.00000000  1
  Sb  Sb12  1  0.16459811  0.50000000  0.17080377  1
  Sb  Sb13  1  0.83540189  0.50000000  0.82919623  1
  Sb  Sb14  1  0.33540189  0.82919623  0.50000000  1
  Sb  Sb15  1  0.66459811  0.17080377  0.50000000  1
