# generated using pymatgen
data_Tm2(Al3Rh)3
_symmetry_space_group_name_H-M   'P 1'
_cell_length_a   7.52904346
_cell_length_b   7.57220194
_cell_length_c   9.45143698
_cell_angle_alpha   90.00000000
_cell_angle_beta   90.00000000
_cell_angle_gamma   120.18980369
_symmetry_Int_Tables_number   1
_chemical_formula_structural   Tm2(Al3Rh)3
_chemical_formula_sum   'Tm4 Al18 Rh6'
_cell_volume   465.75406972
_cell_formula_units_Z   2
loop_
 _symmetry_equiv_pos_site_id
 _symmetry_equiv_pos_as_xyz
  1  'x, y, z'
loop_
 _atom_site_type_symbol
 _atom_site_label
 _atom_site_symmetry_multiplicity
 _atom_site_fract_x
 _atom_site_fract_y
 _atom_site_fract_z
 _atom_site_occupancy
  Tm  Tm0  1  0.67265733  0.66851702  0.25000000  1
  Tm  Tm1  1  0.32734267  0.33148298  0.75000000  1
  Tm  Tm2  1  0.32734267  0.99585969  0.25000000  1
  Tm  Tm3  1  0.67265733  0.00414031  0.75000000  1
  Al  Al4  1  0.00000000  0.12434619  0.25000000  1
  Al  Al5  1  0.00000000  0.87565381  0.75000000  1
  Al  Al6  1  0.33329706  0.33404733  0.07349398  1
  Al  Al7  1  0.66670294  0.66595267  0.92650602  1
  Al  Al8  1  0.66670294  0.66595267  0.57349398  1
  Al  Al9  1  0.66670294  0.00075028  0.42650602  1
  Al  Al10  1  0.33329706  0.33404733  0.42650602  1
  Al  Al11  1  0.33329706  0.99924972  0.57349398  1
  Al  Al12  1  0.33329706  0.99924972  0.92650602  1
  Al  Al13  1  0.66670294  0.00075028  0.07349398  1
  Al  Al14  1  0.00000000  0.33365056  0.55558985  1
  Al  Al15  1  0.00000000  0.66634944  0.44441015  1
  Al  Al16  1  0.00000000  0.66634944  0.05558985  1
  Al  Al17  1  0.00000000  0.33365056  0.94441015  1
  Al  Al18  1  0.21064308  0.54757689  0.25000000  1
  Al  Al19  1  0.78935692  0.45242311  0.75000000  1
  Al  Al20  1  0.78935692  0.33693381  0.25000000  1
  Al  Al21  1  0.21064308  0.66306619  0.75000000  1
  Rh  Rh22  1  0.65544755  0.32772378  0.00000000  1
  Rh  Rh23  1  0.34455245  0.67227622  0.00000000  1
  Rh  Rh24  1  0.34455245  0.67227622  0.50000000  1
  Rh  Rh25  1  0.65544755  0.32772378  0.50000000  1
  Rh  Rh26  1  0.00000000  0.00000000  -0.00000000  1
  Rh  Rh27  1  0.00000000  0.00000000  0.50000000  1
