# generated using pymatgen
data_Tm2FeSi2
_symmetry_space_group_name_H-M   'P 1'
_cell_length_a   4.10659651
_cell_length_b   5.54260067
_cell_length_c   8.83978324
_cell_angle_alpha   82.57389583
_cell_angle_beta   76.56869851
_cell_angle_gamma   68.25615616
_symmetry_Int_Tables_number   1
_chemical_formula_structural   Tm2FeSi2
_chemical_formula_sum   'Tm4 Fe2 Si4'
_cell_volume   181.56900407
_cell_formula_units_Z   2
loop_
 _symmetry_equiv_pos_site_id
 _symmetry_equiv_pos_as_xyz
  1  'x, y, z'
loop_
 _atom_site_type_symbol
 _atom_site_label
 _atom_site_symmetry_multiplicity
 _atom_site_fract_x
 _atom_site_fract_y
 _atom_site_fract_z
 _atom_site_occupancy
  Tm  Tm0  1  0.99941567  0.67261723  0.32855143  1
  Tm  Tm1  1  0.00058433  0.32738277  0.67144857  1
  Tm  Tm2  1  0.81209257  0.26680295  0.10901192  1
  Tm  Tm3  1  0.18790743  0.73319705  0.89098808  1
  Fe  Fe4  1  0.72916973  0.91697488  0.62468567  1
  Fe  Fe5  1  0.27083027  0.08302512  0.37531433  1
  Si  Si6  1  0.65175177  0.26023974  0.43625671  1
  Si  Si7  1  0.34824823  0.73976026  0.56374329  1
  Si  Si8  1  0.50245123  0.86902992  0.12606762  1
  Si  Si9  1  0.49754877  0.13097008  0.87393238  1
