# generated using pymatgen
data_Li9Mn2Co5O16
_symmetry_space_group_name_H-M   'P 1'
_cell_length_a   2.88765230
_cell_length_b   5.11333590
_cell_length_c   20.73705480
_cell_angle_alpha   98.20614427
_cell_angle_beta   89.99999952
_cell_angle_gamma   73.59861162
_symmetry_Int_Tables_number   1
_chemical_formula_structural   Li9Mn2Co5O16
_chemical_formula_sum   'Li9 Mn2 Co5 O16'
_cell_volume   290.46423727
_cell_formula_units_Z   1
loop_
 _symmetry_equiv_pos_site_id
 _symmetry_equiv_pos_as_xyz
  1  'x, y, z'
loop_
 _atom_site_type_symbol
 _atom_site_label
 _atom_site_symmetry_multiplicity
 _atom_site_fract_x
 _atom_site_fract_y
 _atom_site_fract_z
 _atom_site_occupancy
  Li  Li0  1  0.24692626  0.50614749  0.06863601  1
  Li  Li1  1  0.73567030  0.52865939  0.19522738  1
  Li  Li2  1  0.26432970  0.47134061  0.30477262  1
  Li  Li3  1  0.75307374  0.49385251  0.43136399  1
  Li  Li4  1  0.24892099  0.50215802  0.56258699  1
  Li  Li5  1  0.74988093  0.50023815  0.69107631  1
  Li  Li6  1  0.25011907  0.49976185  0.80892369  1
  Li  Li7  1  0.75107901  0.49784198  0.93741301  1
  Li  Li8  1  -0.00000000  0.00000000  0.25000000  1
  Mn  Mn9  1  0.99909094  0.00181811  0.00116665  1
  Mn  Mn10  1  0.00090906  0.99818189  0.49883335  1
  Co  Co11  1  0.48828566  0.02342869  0.13690025  1
  Co  Co12  1  0.51171434  0.97657131  0.36309975  1
  Co  Co13  1  0.50018889  0.99962221  0.62558278  1
  Co  Co14  1  -0.00000000  0.00000000  0.75000000  1
  Co  Co15  1  0.49981111  0.00037779  0.87441722  1
  O  O16  1  0.38620040  0.22759919  0.97314191  1
  O  O17  1  0.89428564  0.21142872  0.08642559  1
  O  O18  1  0.37543154  0.24913692  0.21237072  1
  O  O19  1  0.88603843  0.22792315  0.34798137  1
  O  O20  1  0.38714909  0.22570182  0.47531417  1
  O  O21  1  0.89364892  0.21270216  0.59029830  1
  O  O22  1  0.38284941  0.23430118  0.72031080  1
  O  O23  1  0.88600255  0.22799490  0.84520956  1
  O  O24  1  0.11396157  0.77207685  0.15201863  1
  O  O25  1  0.62456846  0.75086308  0.28762928  1
  O  O26  1  0.10571436  0.78857128  0.41357441  1
  O  O27  1  0.61379960  0.77240081  0.52685809  1
  O  O28  1  0.11399745  0.77200510  0.65479044  1
  O  O29  1  0.61715059  0.76569882  0.77968920  1
  O  O30  1  0.10635108  0.78729784  0.90970170  1
  O  O31  1  0.61285091  0.77429818  0.02468583  1
