# generated using pymatgen
data_LaSiPt
_symmetry_space_group_name_H-M   'P 1'
_cell_length_a   4.27780779
_cell_length_b   4.27780779
_cell_length_c   7.94541391
_cell_angle_alpha   105.61665258
_cell_angle_beta   105.61665258
_cell_angle_gamma   90.00000000
_symmetry_Int_Tables_number   1
_chemical_formula_structural   LaSiPt
_chemical_formula_sum   'La2 Si2 Pt2'
_cell_volume   134.44916709
_cell_formula_units_Z   2
loop_
 _symmetry_equiv_pos_site_id
 _symmetry_equiv_pos_as_xyz
  1  'x, y, z'
loop_
 _atom_site_type_symbol
 _atom_site_label
 _atom_site_symmetry_multiplicity
 _atom_site_fract_x
 _atom_site_fract_y
 _atom_site_fract_z
 _atom_site_occupancy
  La  La0  1  0.58018744  0.58018744  0.16037489  1
  La  La1  1  0.83018744  0.33018744  0.66037489  1
  Si  Si2  1  0.99969399  0.99969399  0.99938798  1
  Si  Si3  1  0.24969399  0.74969399  0.49938798  1
  Pt  Pt4  1  0.16711857  0.16711857  0.33423713  1
  Pt  Pt5  1  0.41711857  0.91711857  0.83423713  1
