# generated using pymatgen
data_Y3BCl3
_symmetry_space_group_name_H-M   'P 1'
_cell_length_a   9.48012947
_cell_length_b   9.48012947
_cell_length_c   9.48012947
_cell_angle_alpha   109.47122063
_cell_angle_beta   109.47122063
_cell_angle_gamma   109.47122063
_symmetry_Int_Tables_number   1
_chemical_formula_structural   Y3BCl3
_chemical_formula_sum   'Y12 B4 Cl12'
_cell_volume   655.87475428
_cell_formula_units_Z   4
loop_
 _symmetry_equiv_pos_site_id
 _symmetry_equiv_pos_as_xyz
  1  'x, y, z'
loop_
 _atom_site_type_symbol
 _atom_site_label
 _atom_site_symmetry_multiplicity
 _atom_site_fract_x
 _atom_site_fract_y
 _atom_site_fract_z
 _atom_site_occupancy
  Y  Y0  1  0.76565973  0.51565973  0.53131947  1
  Y  Y1  1  0.73434027  0.76565973  0.25000000  1
  Y  Y2  1  0.51565973  0.98434027  0.25000000  1
  Y  Y3  1  0.51565973  0.53131947  0.76565973  1
  Y  Y4  1  0.76565973  0.25000000  0.73434027  1
  Y  Y5  1  0.98434027  0.73434027  0.96868053  1
  Y  Y6  1  0.73434027  0.96868053  0.98434027  1
  Y  Y7  1  0.98434027  0.25000000  0.51565973  1
  Y  Y8  1  0.53131947  0.76565973  0.51565973  1
  Y  Y9  1  0.25000000  0.51565973  0.98434027  1
  Y  Y10  1  0.96868053  0.98434027  0.73434027  1
  Y  Y11  1  0.25000000  0.73434027  0.76565973  1
  B  B12  1  0.75000000  0.75000000  0.75000000  1
  B  B13  1  0.75000000  0.00000000  0.50000000  1
  B  B14  1  0.50000000  0.75000000  0.00000000  1
  B  B15  1  0.00000000  0.50000000  0.75000000  1
  Cl  Cl16  1  0.25585504  0.24414496  0.75000000  1
  Cl  Cl17  1  0.24414496  0.49414496  0.48828993  1
  Cl  Cl18  1  0.00585504  0.25585504  0.01171007  1
  Cl  Cl19  1  0.24414496  0.75000000  0.25585504  1
  Cl  Cl20  1  0.25585504  0.01171007  0.00585504  1
  Cl  Cl21  1  0.49414496  0.00585504  0.75000000  1
  Cl  Cl22  1  0.49414496  0.48828993  0.24414496  1
  Cl  Cl23  1  0.00585504  0.75000000  0.49414496  1
  Cl  Cl24  1  0.75000000  0.25585504  0.24414496  1
  Cl  Cl25  1  0.01171007  0.00585504  0.25585504  1
  Cl  Cl26  1  0.75000000  0.49414496  0.00585504  1
  Cl  Cl27  1  0.48828993  0.24414496  0.49414496  1
