# generated using pymatgen
data_Sr4FeRh2O9
_symmetry_space_group_name_H-M   'P 1'
_cell_length_a   8.13220535
_cell_length_b   9.73712110
_cell_length_c   9.73707797
_cell_angle_alpha   120.00014325
_cell_angle_beta   90.00019080
_cell_angle_gamma   89.99999998
_symmetry_Int_Tables_number   1
_chemical_formula_structural   Sr4FeRh2O9
_chemical_formula_sum   'Sr12 Fe3 Rh6 O27'
_cell_volume   667.72488232
_cell_formula_units_Z   3
loop_
 _symmetry_equiv_pos_site_id
 _symmetry_equiv_pos_as_xyz
  1  'x, y, z'
loop_
 _atom_site_type_symbol
 _atom_site_label
 _atom_site_symmetry_multiplicity
 _atom_site_fract_x
 _atom_site_fract_y
 _atom_site_fract_z
 _atom_site_occupancy
  Sr  Sr0  1  0.49999926  0.32647636  0.32647385  1
  Sr  Sr1  1  0.50000074  0.00000250  0.67352615  1
  Sr  Sr2  1  0.50000000  0.67352252  1.00000000  1
  Sr  Sr3  1  0.75400159  0.97259929  0.30521328  1
  Sr  Sr4  1  0.75400300  0.33261758  0.02740217  1
  Sr  Sr5  1  0.24599841  0.66738600  0.69478672  1
  Sr  Sr6  1  0.75400196  0.69477944  0.66737877  1
  Sr  Sr7  1  0.24599700  0.30521541  0.97259783  1
  Sr  Sr8  1  0.24599804  0.02740068  0.33262123  1
  Sr  Sr9  1  0.00000046  0.36364181  0.36363922  1
  Sr  Sr10  1  0.99999954  0.00000259  0.63636078  1
  Sr  Sr11  1  -0.00000000  0.63636148  0.00000000  1
  Fe  Fe12  1  0.23492437  0.66666786  0.33333301  1
  Fe  Fe13  1  0.76507563  0.33333385  0.66666699  1
  Fe  Fe14  1  0.00000000  0.00000008  -0.00000000  1
  Rh  Rh15  1  0.57068208  0.66666365  0.33333294  1
  Rh  Rh16  1  0.42931792  0.33332971  0.66666706  1
  Rh  Rh17  1  0.66165990  -0.00000023  0.00000098  1
  Rh  Rh18  1  0.33834010  0.99999879  -0.00000098  1
  Rh  Rh19  1  0.89467745  0.66666724  0.33333189  1
  Rh  Rh20  1  0.10532255  0.33333435  0.66666811  1
  O  O21  1  0.73412449  0.65000412  0.15746578  1
  O  O22  1  0.73412494  0.50746502  0.35000101  1
  O  O23  1  0.26587551  0.49253833  0.84253422  1
  O  O24  1  0.73412522  0.84253464  0.49253588  1
  O  O25  1  0.26587506  0.15746402  0.64999899  1
  O  O26  1  0.26587478  0.34999876  0.50746412  1
  O  O27  1  0.50000030  0.83625534  0.83625593  1
  O  O28  1  0.49999970  -0.00000059  0.16374407  1
  O  O29  1  0.50000000  0.16374102  0.00000000  1
  O  O30  1  0.82421885  0.83814030  0.99269327  1
  O  O31  1  0.82421738  0.15455319  0.16185849  1
  O  O32  1  0.17578115  0.84544703  0.00730673  1
  O  O33  1  0.82421817  0.00730544  0.84544455  1
  O  O34  1  0.17578262  0.99269470  0.83814151  1
  O  O35  1  0.17578183  0.16186088  0.15455545  1
  O  O36  1  0.59127523  0.49550304  0.68195901  1
  O  O37  1  0.59127818  0.18645255  0.50449407  1
  O  O38  1  0.40872477  0.81354403  0.31804099  1
  O  O39  1  0.59127798  0.31804415  0.81354850  1
  O  O40  1  0.40872182  0.68195848  0.49550593  1
  O  O41  1  0.40872202  0.50449566  0.18645150  1
  O  O42  1  0.94456159  0.50011134  0.68156002  1
  O  O43  1  0.94456046  0.18144884  0.49989252  1
  O  O44  1  0.05543841  0.81855132  0.31843998  1
  O  O45  1  0.94456312  0.31844139  0.81855165  1
  O  O46  1  0.05543954  0.68155631  0.50010748  1
  O  O47  1  0.05543688  0.49988974  0.18144835  1
