# generated using pymatgen
data_Sm2(Ga3Ir)3
_symmetry_space_group_name_H-M   'P 1'
_cell_length_a   7.62645492
_cell_length_b   7.62645492
_cell_length_c   9.58569505
_cell_angle_alpha   90.00000000
_cell_angle_beta   90.00000000
_cell_angle_gamma   119.89318968
_symmetry_Int_Tables_number   1
_chemical_formula_structural   Sm2(Ga3Ir)3
_chemical_formula_sum   'Sm4 Ga18 Ir6'
_cell_volume   483.35484641
_cell_formula_units_Z   2
loop_
 _symmetry_equiv_pos_site_id
 _symmetry_equiv_pos_as_xyz
  1  'x, y, z'
loop_
 _atom_site_type_symbol
 _atom_site_label
 _atom_site_symmetry_multiplicity
 _atom_site_fract_x
 _atom_site_fract_y
 _atom_site_fract_z
 _atom_site_occupancy
  Sm  Sm0  1  0.66792790  0.99702843  0.25000000  1
  Sm  Sm1  1  0.33207210  0.00297157  0.75000000  1
  Sm  Sm2  1  0.99702843  0.66792790  0.25000000  1
  Sm  Sm3  1  0.00297157  0.33207210  0.75000000  1
  Ga  Ga4  1  0.12773750  0.12773750  0.25000000  1
  Ga  Ga5  1  0.87226250  0.87226250  0.75000000  1
  Ga  Ga6  1  0.33385276  0.00064261  0.07844294  1
  Ga  Ga7  1  0.66614724  0.99935739  0.92155706  1
  Ga  Ga8  1  0.66614724  0.99935739  0.57844294  1
  Ga  Ga9  1  0.00064261  0.33385276  0.42155706  1
  Ga  Ga10  1  0.33385276  0.00064261  0.42155706  1
  Ga  Ga11  1  0.99935739  0.66614724  0.57844294  1
  Ga  Ga12  1  0.99935739  0.66614724  0.92155706  1
  Ga  Ga13  1  0.00064261  0.33385276  0.07844294  1
  Ga  Ga14  1  0.33377508  0.33377508  0.56109905  1
  Ga  Ga15  1  0.66622492  0.66622492  0.43890095  1
  Ga  Ga16  1  0.66622492  0.66622492  0.06109905  1
  Ga  Ga17  1  0.33377508  0.33377508  0.93890095  1
  Ga  Ga18  1  0.54436422  0.33813717  0.25000000  1
  Ga  Ga19  1  0.45563578  0.66186283  0.75000000  1
  Ga  Ga20  1  0.33813717  0.54436422  0.25000000  1
  Ga  Ga21  1  0.66186283  0.45563578  0.75000000  1
  Ir  Ir22  1  0.32896857  0.67103143  -0.00000000  1
  Ir  Ir23  1  0.67103143  0.32896857  -0.00000000  1
  Ir  Ir24  1  0.67103143  0.32896857  0.50000000  1
  Ir  Ir25  1  0.32896857  0.67103143  0.50000000  1
  Ir  Ir26  1  0.00000000  0.00000000  -0.00000000  1
  Ir  Ir27  1  0.00000000  0.00000000  0.50000000  1
