# generated using pymatgen
data_Tb4CdIr
_symmetry_space_group_name_H-M   'P 1'
_cell_length_a   9.69445531
_cell_length_b   9.69445531
_cell_length_c   9.69445531
_cell_angle_alpha   60.00000000
_cell_angle_beta   60.00000000
_cell_angle_gamma   60.00000000
_symmetry_Int_Tables_number   1
_chemical_formula_structural   Tb4CdIr
_chemical_formula_sum   'Tb16 Cd4 Ir4'
_cell_volume   644.25120733
_cell_formula_units_Z   4
loop_
 _symmetry_equiv_pos_site_id
 _symmetry_equiv_pos_as_xyz
  1  'x, y, z'
loop_
 _atom_site_type_symbol
 _atom_site_label
 _atom_site_symmetry_multiplicity
 _atom_site_fract_x
 _atom_site_fract_y
 _atom_site_fract_z
 _atom_site_occupancy
  Tb  Tb0  1  0.65105219  0.65105219  0.65105219  1
  Tb  Tb1  1  0.04684342  0.65105219  0.65105219  1
  Tb  Tb2  1  0.65105219  0.04684342  0.65105219  1
  Tb  Tb3  1  0.65105219  0.65105219  0.04684342  1
  Tb  Tb4  1  0.81081589  0.81081589  0.18918411  1
  Tb  Tb5  1  0.18918411  0.18918411  0.81081589  1
  Tb  Tb6  1  0.81081589  0.18918411  0.81081589  1
  Tb  Tb7  1  0.18918411  0.81081589  0.18918411  1
  Tb  Tb8  1  0.18918411  0.81081589  0.81081589  1
  Tb  Tb9  1  0.81081589  0.18918411  0.18918411  1
  Tb  Tb10  1  0.43722831  0.43722831  0.06277169  1
  Tb  Tb11  1  0.06277169  0.06277169  0.43722831  1
  Tb  Tb12  1  0.43722831  0.06277169  0.43722831  1
  Tb  Tb13  1  0.06277169  0.43722831  0.06277169  1
  Tb  Tb14  1  0.06277169  0.43722831  0.43722831  1
  Tb  Tb15  1  0.43722831  0.06277169  0.06277169  1
  Cd  Cd16  1  0.41879738  0.41879738  0.41879738  1
  Cd  Cd17  1  0.74360785  0.41879738  0.41879738  1
  Cd  Cd18  1  0.41879738  0.74360785  0.41879738  1
  Cd  Cd19  1  0.41879738  0.41879738  0.74360785  1
  Ir  Ir20  1  0.85806697  0.85806697  0.85806697  1
  Ir  Ir21  1  0.42579910  0.85806697  0.85806697  1
  Ir  Ir22  1  0.85806697  0.42579910  0.85806697  1
  Ir  Ir23  1  0.85806697  0.85806697  0.42579910  1
