# generated using pymatgen
data_RbScF4
_symmetry_space_group_name_H-M   'P 1'
_cell_length_a   4.13409370
_cell_length_b   6.99313614
_cell_length_c   8.07720323
_cell_angle_alpha   90.00000000
_cell_angle_beta   90.00000000
_cell_angle_gamma   107.19245062
_symmetry_Int_Tables_number   1
_chemical_formula_structural   RbScF4
_chemical_formula_sum   'Rb2 Sc2 F8'
_cell_volume   223.08016618
_cell_formula_units_Z   2
loop_
 _symmetry_equiv_pos_site_id
 _symmetry_equiv_pos_as_xyz
  1  'x, y, z'
loop_
 _atom_site_type_symbol
 _atom_site_label
 _atom_site_symmetry_multiplicity
 _atom_site_fract_x
 _atom_site_fract_y
 _atom_site_fract_z
 _atom_site_occupancy
  Rb  Rb0  1  0.27141420  0.54282839  0.25000000  1
  Rb  Rb1  1  0.72858580  0.45717161  0.75000000  1
  Sc  Sc2  1  0.00000000  0.00000000  0.00000000  1
  Sc  Sc3  1  0.00000000  0.00000000  0.50000000  1
  F  F4  1  0.50000000  0.00000000  0.00000000  1
  F  F5  1  0.50000000  0.00000000  0.50000000  1
  F  F6  1  0.14634882  0.29269764  0.54602082  1
  F  F7  1  0.85365118  0.70730236  0.45397918  1
  F  F8  1  0.85365118  0.70730236  0.04602082  1
  F  F9  1  0.14634882  0.29269764  0.95397918  1
  F  F10  1  0.03242861  0.06485721  0.25000000  1
  F  F11  1  0.96757139  0.93514279  0.75000000  1
