# generated using pymatgen
data_RuF6
_symmetry_space_group_name_H-M   'P 1'
_cell_length_a   4.97027947
_cell_length_b   8.59887105
_cell_length_c   9.39862193
_cell_angle_alpha   90.00000000
_cell_angle_beta   90.00000000
_cell_angle_gamma   90.00000000
_symmetry_Int_Tables_number   1
_chemical_formula_structural   RuF6
_chemical_formula_sum   'Ru4 F24'
_cell_volume   401.68575006
_cell_formula_units_Z   4
loop_
 _symmetry_equiv_pos_site_id
 _symmetry_equiv_pos_as_xyz
  1  'x, y, z'
loop_
 _atom_site_type_symbol
 _atom_site_label
 _atom_site_symmetry_multiplicity
 _atom_site_fract_x
 _atom_site_fract_y
 _atom_site_fract_z
 _atom_site_occupancy
  Ru  Ru0  1  0.58087610  0.75000000  0.87073369  1
  Ru  Ru1  1  0.41912390  0.25000000  0.12926631  1
  Ru  Ru2  1  0.08087610  0.25000000  0.62926631  1
  Ru  Ru3  1  0.91912390  0.75000000  0.37073369  1
  F  F4  1  0.27697161  0.75000000  0.98626178  1
  F  F5  1  0.72302839  0.25000000  0.01373822  1
  F  F6  1  0.77697161  0.25000000  0.51373822  1
  F  F7  1  0.22302839  0.75000000  0.48626178  1
  F  F8  1  0.88489448  0.75000000  0.75473397  1
  F  F9  1  0.11510552  0.25000000  0.24526603  1
  F  F10  1  0.38489448  0.25000000  0.74526603  1
  F  F11  1  0.61510552  0.75000000  0.25473397  1
  F  F12  1  0.73613878  0.90238560  0.98479662  1
  F  F13  1  0.26386122  0.09761440  0.01520338  1
  F  F14  1  0.23613878  0.09761440  0.51520338  1
  F  F15  1  0.26386122  0.40238560  0.01520338  1
  F  F16  1  0.76386122  0.90238560  0.48479662  1
  F  F17  1  0.73613878  0.59761440  0.98479662  1
  F  F18  1  0.76386122  0.59761440  0.48479662  1
  F  F19  1  0.23613878  0.40238560  0.51520338  1
  F  F20  1  0.42669874  0.90266199  0.75703317  1
  F  F21  1  0.57330126  0.09733801  0.24296683  1
  F  F22  1  0.92669874  0.09733801  0.74296683  1
  F  F23  1  0.57330126  0.40266199  0.24296683  1
  F  F24  1  0.07330126  0.90266199  0.25703317  1
  F  F25  1  0.42669874  0.59733801  0.75703317  1
  F  F26  1  0.07330126  0.59733801  0.25703317  1
  F  F27  1  0.92669874  0.40266199  0.74296683  1
