# generated using pymatgen
data_Sc2TiB2Ir5
_symmetry_space_group_name_H-M   'P 1'
_cell_length_a   3.15141648
_cell_length_b   9.38864897
_cell_length_c   9.38864897
_cell_angle_alpha   90.00000000
_cell_angle_beta   90.00000000
_cell_angle_gamma   90.00000000
_symmetry_Int_Tables_number   1
_chemical_formula_structural   Sc2TiB2Ir5
_chemical_formula_sum   'Sc4 Ti2 B4 Ir10'
_cell_volume   277.78705595
_cell_formula_units_Z   2
loop_
 _symmetry_equiv_pos_site_id
 _symmetry_equiv_pos_as_xyz
  1  'x, y, z'
loop_
 _atom_site_type_symbol
 _atom_site_label
 _atom_site_symmetry_multiplicity
 _atom_site_fract_x
 _atom_site_fract_y
 _atom_site_fract_z
 _atom_site_occupancy
  Sc  Sc0  1  -0.00000000  0.17516075  0.67516075  1
  Sc  Sc1  1  0.00000000  0.82483925  0.32483925  1
  Sc  Sc2  1  0.00000000  0.32483925  0.17516075  1
  Sc  Sc3  1  -0.00000000  0.67516075  0.82483925  1
  Ti  Ti4  1  -0.00000000  -0.00000000  0.00000000  1
  Ti  Ti5  1  -0.00000000  0.50000000  0.50000000  1
  B  B6  1  0.00000000  0.62198970  0.12198970  1
  B  B7  1  -0.00000000  0.37801030  0.87801030  1
  B  B8  1  -0.00000000  0.87801030  0.62198970  1
  B  B9  1  0.00000000  0.12198970  0.37801030  1
  Ir  Ir10  1  0.50000000  0.07149131  0.21703646  1
  Ir  Ir11  1  0.50000000  0.92850869  0.78296354  1
  Ir  Ir12  1  0.50000000  0.78296354  0.07149131  1
  Ir  Ir13  1  0.50000000  0.42850869  0.71703646  1
  Ir  Ir14  1  0.50000000  0.21703646  0.92850869  1
  Ir  Ir15  1  0.50000000  0.57149131  0.28296354  1
  Ir  Ir16  1  0.50000000  0.71703646  0.57149131  1
  Ir  Ir17  1  0.50000000  0.28296354  0.42850869  1
  Ir  Ir18  1  0.50000000  0.00000000  0.50000000  1
  Ir  Ir19  1  0.50000000  0.50000000  0.00000000  1
