# generated using pymatgen
data_Li9Mn2Co5O16
_symmetry_space_group_name_H-M   'P 1'
_cell_length_a   2.88746475
_cell_length_b   5.10412745
_cell_length_c   20.63907216
_cell_angle_alpha   98.42257147
_cell_angle_beta   89.99999952
_cell_angle_gamma   73.56928097
_symmetry_Int_Tables_number   1
_chemical_formula_structural   Li9Mn2Co5O16
_chemical_formula_sum   'Li9 Mn2 Co5 O16'
_cell_volume   288.33454787
_cell_formula_units_Z   1
loop_
 _symmetry_equiv_pos_site_id
 _symmetry_equiv_pos_as_xyz
  1  'x, y, z'
loop_
 _atom_site_type_symbol
 _atom_site_label
 _atom_site_symmetry_multiplicity
 _atom_site_fract_x
 _atom_site_fract_y
 _atom_site_fract_z
 _atom_site_occupancy
  Li  Li0  1  0.24779498  0.50441004  0.06840985  1
  Li  Li1  1  0.76798959  0.46402082  0.17807226  1
  Li  Li2  1  0.25364857  0.49270287  0.30469615  1
  Li  Li3  1  0.75323904  0.49352192  0.43873292  1
  Li  Li4  1  0.24395475  0.51209050  0.56531924  1
  Li  Li5  1  0.75127177  0.49745646  0.69183488  1
  Li  Li6  1  0.24535932  0.50928137  0.81102271  1
  Li  Li7  1  0.74687798  0.50624405  0.94104055  1
  Li  Li8  1  0.49850026  0.00299948  0.12250896  1
  Mn  Mn9  1  0.99028767  0.01942467  0.00429510  1
  Mn  Mn10  1  0.49999420  0.00001160  0.37396447  1
  Co  Co11  1  0.01468894  0.97062213  0.23621161  1
  Co  Co12  1  0.00219598  0.99560804  0.50184230  1
  Co  Co13  1  0.49699633  0.00600735  0.62686549  1
  Co  Co14  1  0.99909512  0.00180976  0.75102688  1
  Co  Co15  1  0.49793958  0.00412084  0.87558246  1
  O  O16  1  0.38201314  0.23597373  0.97095332  1
  O  O17  1  0.88290456  0.23419088  0.08452851  1
  O  O18  1  0.38776653  0.22446694  0.22159745  1
  O  O19  1  0.88657911  0.22684178  0.35042085  1
  O  O20  1  0.39151335  0.21697329  0.46607755  1
  O  O21  1  0.88778811  0.22442377  0.59396212  1
  O  O22  1  0.38009475  0.23981050  0.72279437  1
  O  O23  1  0.88808254  0.22383491  0.84633530  1
  O  O24  1  0.12900018  0.74199963  0.16078477  1
  O  O25  1  0.60686853  0.78626295  0.28931457  1
  O  O26  1  0.11175577  0.77648847  0.40404094  1
  O  O27  1  0.61981294  0.76037412  0.52811398  1
  O  O28  1  0.10968615  0.78062770  0.65628605  1
  O  O29  1  0.61661862  0.76676276  0.78030528  1
  O  O30  1  0.10248092  0.79503817  0.90792352  1
  O  O31  1  0.60720075  0.78559850  0.02513560  1
