# generated using pymatgen
data_Ti4Cr2Ge5
_symmetry_space_group_name_H-M   'P 1'
_cell_length_a   5.19160498
_cell_length_b   8.33643226
_cell_length_c   9.22327114
_cell_angle_alpha   63.41373444
_cell_angle_beta   74.07321826
_cell_angle_gamma   90.89154277
_symmetry_Int_Tables_number   1
_chemical_formula_structural   Ti4Cr2Ge5
_chemical_formula_sum   'Ti8 Cr4 Ge10'
_cell_volume   338.79384029
_cell_formula_units_Z   2
loop_
 _symmetry_equiv_pos_site_id
 _symmetry_equiv_pos_as_xyz
  1  'x, y, z'
loop_
 _atom_site_type_symbol
 _atom_site_label
 _atom_site_symmetry_multiplicity
 _atom_site_fract_x
 _atom_site_fract_y
 _atom_site_fract_z
 _atom_site_occupancy
  Ti  Ti0  1  0.50000000  0.50000000  0.50000000  1
  Ti  Ti1  1  0.00000000  0.00000000  0.50000000  1
  Ti  Ti2  1  0.08863153  0.80970140  0.82154692  1
  Ti  Ti3  1  0.08982154  0.36875168  0.82154692  1
  Ti  Ti4  1  0.91017846  0.63124832  0.17845308  1
  Ti  Ti5  1  0.91136847  0.19029860  0.17845308  1
  Ti  Ti6  1  0.75748080  0.99972688  0.00000000  1
  Ti  Ti7  1  0.24251920  0.00027312  1.00000000  1
  Cr  Cr8  1  0.34990184  0.34990184  0.30019631  1
  Cr  Cr9  1  0.65009816  0.65009816  0.69980369  1
  Cr  Cr10  1  0.50000000  0.00000000  0.50000000  1
  Cr  Cr11  1  0.00000000  0.50000000  0.50000000  1
  Ge  Ge12  1  0.20975001  0.70975001  0.58049998  1
  Ge  Ge13  1  0.79024999  0.29024999  0.41950002  1
  Ge  Ge14  1  0.73824620  0.49782779  1.00000000  1
  Ge  Ge15  1  0.26175380  0.50217221  0.00000000  1
  Ge  Ge16  1  0.17314787  0.17314787  0.65370426  1
  Ge  Ge17  1  0.82685213  0.82685213  0.34629574  1
  Ge  Ge18  1  0.39900230  0.08995914  0.21698586  1
  Ge  Ge19  1  0.38401185  0.69305501  0.21698586  1
  Ge  Ge20  1  0.61598815  0.30694499  0.78301414  1
  Ge  Ge21  1  0.60099770  0.91004086  0.78301414  1
