# generated using pymatgen
data_NaCr(PS3)2
_symmetry_space_group_name_H-M   'P 1'
_cell_length_a   6.94543281
_cell_length_b   6.94543281
_cell_length_c   11.26207043
_cell_angle_alpha   102.45972703
_cell_angle_beta   102.45972703
_cell_angle_gamma   107.47615052
_symmetry_Int_Tables_number   1
_chemical_formula_structural   NaCr(PS3)2
_chemical_formula_sum   'Na2 Cr2 P4 S12'
_cell_volume   482.49024100
_cell_formula_units_Z   2
loop_
 _symmetry_equiv_pos_site_id
 _symmetry_equiv_pos_as_xyz
  1  'x, y, z'
loop_
 _atom_site_type_symbol
 _atom_site_label
 _atom_site_symmetry_multiplicity
 _atom_site_fract_x
 _atom_site_fract_y
 _atom_site_fract_z
 _atom_site_occupancy
  Na  Na0  1  0.66493998  0.66493998  0.32987996  1
  Na  Na1  1  0.91493998  0.41493998  0.82987996  1
  Cr  Cr2  1  0.00030078  0.00030078  0.00060157  1
  Cr  Cr3  1  0.25030078  0.75030078  0.50060157  1
  P  P4  1  0.66911999  0.78687597  0.67811004  1
  P  P5  1  0.00899005  0.89123407  0.67811004  1
  P  P6  1  0.03687597  0.41911999  0.17811004  1
  P  P7  1  0.14123407  0.75899005  0.17811004  1
  S  S8  1  0.69390773  0.71443828  0.84675208  1
  S  S9  1  0.15284435  0.13231380  0.84675208  1
  S  S10  1  0.96443828  0.44390773  0.34675208  1
  S  S11  1  0.38231380  0.90284435  0.34675208  1
  S  S12  1  0.47131942  0.53675669  0.52435606  1
  S  S13  1  0.05303664  0.98759937  0.52435606  1
  S  S14  1  0.78675669  0.22131942  0.02435606  1
  S  S15  1  0.23759937  0.80303664  0.02435606  1
  S  S16  1  0.56343539  0.02604737  0.65877106  1
  S  S17  1  0.09533567  0.63272369  0.65877106  1
  S  S18  1  0.27604737  0.31343539  0.15877106  1
  S  S19  1  0.88272369  0.84533567  0.15877106  1
