# generated using pymatgen
data_Na2MgCrF7
_symmetry_space_group_name_H-M   'P 1'
_cell_length_a   7.27035764
_cell_length_b   7.37778406
_cell_length_c   7.37778406
_cell_angle_alpha   61.16941664
_cell_angle_beta   60.48050966
_cell_angle_gamma   60.48050966
_symmetry_Int_Tables_number   1
_chemical_formula_structural   Na2MgCrF7
_chemical_formula_sum   'Na4 Mg2 Cr2 F14'
_cell_volume   284.28683781
_cell_formula_units_Z   2
loop_
 _symmetry_equiv_pos_site_id
 _symmetry_equiv_pos_as_xyz
  1  'x, y, z'
loop_
 _atom_site_type_symbol
 _atom_site_label
 _atom_site_symmetry_multiplicity
 _atom_site_fract_x
 _atom_site_fract_y
 _atom_site_fract_z
 _atom_site_occupancy
  Na  Na0  1  0.24760506  0.61553917  0.88925071  1
  Na  Na1  1  0.75239494  0.11074929  0.38446083  1
  Na  Na2  1  0.25095853  0.61215665  0.38784335  1
  Na  Na3  1  0.74904147  0.61215665  0.38784335  1
  Mg  Mg4  1  0.25045310  0.11244244  0.88755756  1
  Mg  Mg5  1  0.74954690  0.11244244  0.88755756  1
  Cr  Cr6  1  0.24948247  0.11250457  0.38853049  1
  Cr  Cr7  1  0.75051753  0.61146951  0.88749543  1
  F  F8  1  0.34167302  0.79133439  0.52531957  1
  F  F9  1  0.65832698  0.47468043  0.20866561  1
  F  F10  1  0.56228340  0.06382607  0.20439488  1
  F  F11  1  0.43771660  0.79560512  0.93617393  1
  F  F12  1  0.83050435  0.79560512  0.93617393  1
  F  F13  1  0.16949565  0.06382607  0.20439488  1
  F  F14  1  0.33104027  0.16045245  0.57102138  1
  F  F15  1  0.66895973  0.42897862  0.83954755  1
  F  F16  1  0.06251410  0.42897862  0.83954755  1
  F  F17  1  0.93748590  0.16045245  0.57102138  1
  F  F18  1  -0.00000000  0.01088319  0.98911681  1
  F  F19  1  0.15707378  0.43375747  0.25209497  1
  F  F20  1  0.84292622  0.74790503  0.56624253  1
  F  F21  1  0.50000000  0.21375425  0.78624575  1
