# generated using pymatgen
data_V3OF7
_symmetry_space_group_name_H-M   'P 1'
_cell_length_a   15.35959809
_cell_length_b   9.97050977
_cell_length_c   4.02737294
_cell_angle_alpha   90.00000000
_cell_angle_beta   90.00000000
_cell_angle_gamma   90.00000000
_symmetry_Int_Tables_number   1
_chemical_formula_structural   V3OF7
_chemical_formula_sum   'V12 O4 F28'
_cell_volume   616.76406605
_cell_formula_units_Z   4
loop_
 _symmetry_equiv_pos_site_id
 _symmetry_equiv_pos_as_xyz
  1  'x, y, z'
loop_
 _atom_site_type_symbol
 _atom_site_label
 _atom_site_symmetry_multiplicity
 _atom_site_fract_x
 _atom_site_fract_y
 _atom_site_fract_z
 _atom_site_occupancy
  V  V0  1  0.03979418  0.25000000  0.48922017  1
  V  V1  1  0.17929780  0.57344626  0.49570223  1
  V  V2  1  0.17929780  0.92655374  0.49570223  1
  V  V3  1  0.32070220  0.07344626  0.99570223  1
  V  V4  1  0.32070220  0.42655374  0.99570223  1
  V  V5  1  0.46020582  0.75000000  0.98922017  1
  V  V6  1  0.53979418  0.25000000  0.01077983  1
  V  V7  1  0.67929780  0.57344626  0.00429777  1
  V  V8  1  0.67929780  0.92655374  0.00429777  1
  V  V9  1  0.82070220  0.07344626  0.50429777  1
  V  V10  1  0.82070220  0.42655374  0.50429777  1
  V  V11  1  0.96020582  0.75000000  0.51077983  1
  O  O12  1  0.20721099  0.75000000  0.49481422  1
  O  O13  1  0.29278901  0.25000000  0.99481422  1
  O  O14  1  0.70721099  0.75000000  0.00518578  1
  O  O15  1  0.79278901  0.25000000  0.50518578  1
  F  F16  1  0.03675060  0.25000000  0.98902993  1
  F  F17  1  0.05240898  0.61378291  0.51072454  1
  F  F18  1  0.05240898  0.88621709  0.51072454  1
  F  F19  1  0.13419483  0.11617307  0.49006830  1
  F  F20  1  0.13419483  0.38382693  0.49006830  1
  F  F21  1  0.19840399  0.96542820  0.99483505  1
  F  F22  1  0.19840399  0.53457180  0.99483505  1
  F  F23  1  0.30159601  0.03457180  0.49483505  1
  F  F24  1  0.30159601  0.46542820  0.49483505  1
  F  F25  1  0.36580517  0.61617307  0.99006830  1
  F  F26  1  0.36580517  0.88382693  0.99006830  1
  F  F27  1  0.44759102  0.11378291  0.01072454  1
  F  F28  1  0.44759102  0.38621709  0.01072454  1
  F  F29  1  0.46324940  0.75000000  0.48902993  1
  F  F30  1  0.53675060  0.25000000  0.51097007  1
  F  F31  1  0.55240898  0.61378291  0.98927546  1
  F  F32  1  0.55240898  0.88621709  0.98927546  1
  F  F33  1  0.63419483  0.11617307  0.00993170  1
  F  F34  1  0.63419483  0.38382693  0.00993170  1
  F  F35  1  0.69840399  0.53457180  0.50516495  1
  F  F36  1  0.69840399  0.96542820  0.50516495  1
  F  F37  1  0.80159601  0.03457180  0.00516495  1
  F  F38  1  0.80159601  0.46542820  0.00516495  1
  F  F39  1  0.86580517  0.61617307  0.50993170  1
  F  F40  1  0.86580517  0.88382693  0.50993170  1
  F  F41  1  0.94759102  0.11378291  0.48927546  1
  F  F42  1  0.94759102  0.38621709  0.48927546  1
  F  F43  1  0.96324940  0.75000000  0.01097007  1
