# generated using pymatgen
data_MnPb(SO4)2
_symmetry_space_group_name_H-M   'P 1'
_cell_length_a   6.85897710
_cell_length_b   6.85897710
_cell_length_c   13.99021591
_cell_angle_alpha   90.00000000
_cell_angle_beta   90.00000000
_cell_angle_gamma   90.00000000
_symmetry_Int_Tables_number   1
_chemical_formula_structural   MnPb(SO4)2
_chemical_formula_sum   'Mn4 Pb4 S8 O32'
_cell_volume   658.17763796
_cell_formula_units_Z   4
loop_
 _symmetry_equiv_pos_site_id
 _symmetry_equiv_pos_as_xyz
  1  'x, y, z'
loop_
 _atom_site_type_symbol
 _atom_site_label
 _atom_site_symmetry_multiplicity
 _atom_site_fract_x
 _atom_site_fract_y
 _atom_site_fract_z
 _atom_site_occupancy
  Mn  Mn0  1  0.16635976  0.16635976  0.00000000  1
  Mn  Mn1  1  0.83364024  0.83364024  0.50000000  1
  Mn  Mn2  1  0.33364024  0.66635976  0.25000000  1
  Mn  Mn3  1  0.66635976  0.33364024  0.75000000  1
  Pb  Pb4  1  0.74970069  0.74970069  0.00000000  1
  Pb  Pb5  1  0.25029931  0.25029931  0.50000000  1
  Pb  Pb6  1  0.75029931  0.24970069  0.25000000  1
  Pb  Pb7  1  0.24970069  0.75029931  0.75000000  1
  S  S8  1  0.24662290  0.17377544  0.24290127  1
  S  S9  1  0.75337710  0.82622456  0.74290127  1
  S  S10  1  0.32622456  0.74662290  0.49290127  1
  S  S11  1  0.25337710  0.67377544  0.00709873  1
  S  S12  1  0.67377544  0.25337710  0.99290127  1
  S  S13  1  0.74662290  0.32622456  0.50709873  1
  S  S14  1  0.17377544  0.24662290  0.75709873  1
  S  S15  1  0.82622456  0.75337710  0.25709873  1
  O  O16  1  0.11547668  0.20749325  0.32627192  1
  O  O17  1  0.88452332  0.79250675  0.82627192  1
  O  O18  1  0.29250675  0.61547668  0.57627192  1
  O  O19  1  0.38452332  0.70749325  0.92372808  1
  O  O20  1  0.70749325  0.38452332  0.07627192  1
  O  O21  1  0.61547668  0.29250675  0.42372808  1
  O  O22  1  0.20749325  0.11547668  0.67372808  1
  O  O23  1  0.79250675  0.88452332  0.17372808  1
  O  O24  1  0.12400685  0.17082129  0.15512661  1
  O  O25  1  0.87599315  0.82917871  0.65512661  1
  O  O26  1  0.32917871  0.62400685  0.40512661  1
  O  O27  1  0.37599315  0.67082129  0.09487339  1
  O  O28  1  0.67082129  0.37599315  0.90512661  1
  O  O29  1  0.62400685  0.32917871  0.59487339  1
  O  O30  1  0.17082129  0.12400685  0.84487339  1
  O  O31  1  0.82917871  0.87599315  0.34487339  1
  O  O32  1  0.49088513  0.13976629  0.00439784  1
  O  O33  1  0.50911487  0.86023371  0.50439784  1
  O  O34  1  0.36023371  0.99088513  0.25439784  1
  O  O35  1  0.00911487  0.63976629  0.24560216  1
  O  O36  1  0.63976629  0.00911487  0.75439784  1
  O  O37  1  0.99088513  0.36023371  0.74560216  1
  O  O38  1  0.13976629  0.49088513  0.99560216  1
  O  O39  1  0.86023371  0.50911487  0.49560216  1
  O  O40  1  0.38916588  0.33976940  0.23709117  1
  O  O41  1  0.61083412  0.66023060  0.73709117  1
  O  O42  1  0.16023060  0.88916588  0.48709117  1
  O  O43  1  0.11083412  0.83976940  0.01290883  1
  O  O44  1  0.83976940  0.11083412  0.98709117  1
  O  O45  1  0.88916588  0.16023060  0.51290883  1
  O  O46  1  0.33976940  0.38916588  0.76290883  1
  O  O47  1  0.66023060  0.61083412  0.26290883  1
