# generated using pymatgen
data_Na4Er2(IrO4)3
_symmetry_space_group_name_H-M   'P 1'
_cell_length_a   3.18992299
_cell_length_b   9.45705833
_cell_length_c   9.45705833
_cell_angle_alpha   120.00000228
_cell_angle_beta   90.00000000
_cell_angle_gamma   90.00000000
_symmetry_Int_Tables_number   1
_chemical_formula_structural   Na4Er2(IrO4)3
_chemical_formula_sum   'Na4 Er2 Ir3 O12'
_cell_volume   247.07167268
_cell_formula_units_Z   1
loop_
 _symmetry_equiv_pos_site_id
 _symmetry_equiv_pos_as_xyz
  1  'x, y, z'
loop_
 _atom_site_type_symbol
 _atom_site_label
 _atom_site_symmetry_multiplicity
 _atom_site_fract_x
 _atom_site_fract_y
 _atom_site_fract_z
 _atom_site_occupancy
  Na  Na0  1  0.50000000  0.30036235  0.30036235  1
  Na  Na1  1  0.50000000  1.00000000  0.69963765  1
  Na  Na2  1  0.50000000  0.69963765  1.00000000  1
  Na  Na3  1  0.00000000  -0.00000000  -0.00000000  1
  Er  Er4  1  0.50000000  0.66666700  0.33333300  1
  Er  Er5  1  0.50000000  0.33333300  0.66666700  1
  Ir  Ir6  1  0.00000000  0.66754918  0.66754918  1
  Ir  Ir7  1  0.00000000  0.00000000  0.33245082  1
  Ir  Ir8  1  -0.00000000  0.33245082  0.00000000  1
  O  O9  1  0.50000000  0.80195685  0.80195685  1
  O  O10  1  0.50000000  0.00000000  0.19804315  1
  O  O11  1  0.50000000  0.19804315  0.00000000  1
  O  O12  1  0.50000000  0.54037272  0.54037272  1
  O  O13  1  0.50000000  1.00000000  0.45962728  1
  O  O14  1  0.50000000  0.45962728  1.00000000  1
  O  O15  1  -0.00000000  0.75635030  0.21974259  1
  O  O16  1  0.00000000  0.46339229  0.24364970  1
  O  O17  1  -0.00000000  0.53660771  0.78025741  1
  O  O18  1  0.00000000  0.78025741  0.53660771  1
  O  O19  1  0.00000000  0.21974259  0.75635030  1
  O  O20  1  0.00000000  0.24364970  0.46339229  1
