# generated using pymatgen
data_Rb3TmV2O8
_symmetry_space_group_name_H-M   'P 1'
_cell_length_a   6.03389934
_cell_length_b   6.03389934
_cell_length_c   7.88732614
_cell_angle_alpha   90.00000000
_cell_angle_beta   90.00000000
_cell_angle_gamma   119.99999998
_symmetry_Int_Tables_number   1
_chemical_formula_structural   Rb3TmV2O8
_chemical_formula_sum   'Rb3 Tm1 V2 O8'
_cell_volume   248.68898646
_cell_formula_units_Z   1
loop_
 _symmetry_equiv_pos_site_id
 _symmetry_equiv_pos_as_xyz
  1  'x, y, z'
loop_
 _atom_site_type_symbol
 _atom_site_label
 _atom_site_symmetry_multiplicity
 _atom_site_fract_x
 _atom_site_fract_y
 _atom_site_fract_z
 _atom_site_occupancy
  Rb  Rb0  1  0.66666700  0.33333300  0.30686203  1
  Rb  Rb1  1  0.33333300  0.66666700  0.69313797  1
  Rb  Rb2  1  -0.00000000  -0.00000000  -0.00000000  1
  Tm  Tm3  1  -0.00000000  -0.00000000  0.50000000  1
  V  V4  1  0.66666700  0.33333300  0.74380061  1
  V  V5  1  0.33333300  0.66666700  0.25619939  1
  O  O6  1  0.66666700  0.33333300  0.95734851  1
  O  O7  1  0.33333300  0.66666700  0.04265149  1
  O  O8  1  0.82584953  0.65169906  0.66684622  1
  O  O9  1  0.17415047  0.34830094  0.33315378  1
  O  O10  1  0.82584953  0.17415047  0.66684622  1
  O  O11  1  0.17415047  0.82584953  0.33315378  1
  O  O12  1  0.34830094  0.17415047  0.66684622  1
  O  O13  1  0.65169906  0.82584953  0.33315378  1
