# generated using pymatgen
data_Rb2Co2(SO4)3
_symmetry_space_group_name_H-M   'P 1'
_cell_length_a   10.17153338
_cell_length_b   10.17153338
_cell_length_c   10.17153338
_cell_angle_alpha   90.00000000
_cell_angle_beta   90.00000000
_cell_angle_gamma   90.00000000
_symmetry_Int_Tables_number   1
_chemical_formula_structural   Rb2Co2(SO4)3
_chemical_formula_sum   'Rb8 Co8 S12 O48'
_cell_volume   1052.34777216
_cell_formula_units_Z   4
loop_
 _symmetry_equiv_pos_site_id
 _symmetry_equiv_pos_as_xyz
  1  'x, y, z'
loop_
 _atom_site_type_symbol
 _atom_site_label
 _atom_site_symmetry_multiplicity
 _atom_site_fract_x
 _atom_site_fract_y
 _atom_site_fract_z
 _atom_site_occupancy
  Rb  Rb0  1  0.04790307  0.04790307  0.04790307  1
  Rb  Rb1  1  0.45209693  0.95209693  0.54790307  1
  Rb  Rb2  1  0.95209693  0.54790307  0.45209693  1
  Rb  Rb3  1  0.54790307  0.45209693  0.95209693  1
  Rb  Rb4  1  0.81669698  0.81669698  0.81669698  1
  Rb  Rb5  1  0.68330302  0.18330302  0.31669698  1
  Rb  Rb6  1  0.18330302  0.31669698  0.68330302  1
  Rb  Rb7  1  0.31669698  0.68330302  0.18330302  1
  Co  Co8  1  0.33470851  0.33470851  0.33470851  1
  Co  Co9  1  0.16529149  0.66529149  0.83470851  1
  Co  Co10  1  0.66529149  0.83470851  0.16529149  1
  Co  Co11  1  0.83470851  0.16529149  0.66529149  1
  Co  Co12  1  0.59712105  0.59712105  0.59712105  1
  Co  Co13  1  0.90287895  0.40287895  0.09712105  1
  Co  Co14  1  0.40287895  0.09712105  0.90287895  1
  Co  Co15  1  0.09712105  0.90287895  0.40287895  1
  S  S16  1  0.01858781  0.21587563  0.37567107  1
  S  S17  1  0.48141219  0.78412437  0.87567107  1
  S  S18  1  0.98141219  0.71587563  0.12432893  1
  S  S19  1  0.37567107  0.01858781  0.21587563  1
  S  S20  1  0.51858781  0.28412437  0.62432893  1
  S  S21  1  0.87567107  0.48141219  0.78412437  1
  S  S22  1  0.12432893  0.98141219  0.71587563  1
  S  S23  1  0.62432893  0.51858781  0.28412437  1
  S  S24  1  0.21587563  0.37567107  0.01858781  1
  S  S25  1  0.71587563  0.12432893  0.98141219  1
  S  S26  1  0.28412437  0.62432893  0.51858781  1
  S  S27  1  0.78412437  0.87567107  0.48141219  1
  O  O28  1  0.00945436  0.07646407  0.33025621  1
  O  O29  1  0.49054564  0.92353593  0.83025621  1
  O  O30  1  0.99054564  0.57646407  0.16974379  1
  O  O31  1  0.33025621  0.00945436  0.07646407  1
  O  O32  1  0.50945436  0.42353593  0.66974379  1
  O  O33  1  0.83025621  0.49054564  0.92353593  1
  O  O34  1  0.16974379  0.99054564  0.57646407  1
  O  O35  1  0.66974379  0.50945436  0.42353593  1
  O  O36  1  0.07646407  0.33025621  0.00945436  1
  O  O37  1  0.57646407  0.16974379  0.99054564  1
  O  O38  1  0.42353593  0.66974379  0.50945436  1
  O  O39  1  0.92353593  0.83025621  0.49054564  1
  O  O40  1  0.26540404  0.50076094  0.44191507  1
  O  O41  1  0.23459596  0.49923906  0.94191507  1
  O  O42  1  0.73459596  0.00076094  0.05808493  1
  O  O43  1  0.44191507  0.26540404  0.50076094  1
  O  O44  1  0.76540404  0.99923906  0.55808493  1
  O  O45  1  0.94191507  0.23459596  0.49923906  1
  O  O46  1  0.05808493  0.73459596  0.00076094  1
  O  O47  1  0.55808493  0.76540404  0.99923906  1
  O  O48  1  0.50076094  0.44191507  0.26540404  1
  O  O49  1  0.00076094  0.05808493  0.73459596  1
  O  O50  1  0.99923906  0.55808493  0.76540404  1
  O  O51  1  0.49923906  0.94191507  0.23459596  1
  O  O52  1  0.04111004  0.80260390  0.22520802  1
  O  O53  1  0.45888996  0.19739610  0.72520802  1
  O  O54  1  0.95888996  0.30260390  0.27479198  1
  O  O55  1  0.22520802  0.04111004  0.80260390  1
  O  O56  1  0.54111004  0.69739610  0.77479198  1
  O  O57  1  0.72520802  0.45888996  0.19739610  1
  O  O58  1  0.27479198  0.95888996  0.30260390  1
  O  O59  1  0.77479198  0.54111004  0.69739610  1
  O  O60  1  0.80260390  0.22520802  0.04111004  1
  O  O61  1  0.30260390  0.27479198  0.95888996  1
  O  O62  1  0.69739610  0.77479198  0.54111004  1
  O  O63  1  0.19739610  0.72520802  0.45888996  1
  O  O64  1  0.15724436  0.25275834  0.40201772  1
  O  O65  1  0.34275564  0.74724166  0.90201772  1
  O  O66  1  0.84275564  0.75275834  0.09798228  1
  O  O67  1  0.40201772  0.15724436  0.25275834  1
  O  O68  1  0.65724436  0.24724166  0.59798228  1
  O  O69  1  0.90201772  0.34275564  0.74724166  1
  O  O70  1  0.09798228  0.84275564  0.75275834  1
  O  O71  1  0.59798228  0.65724436  0.24724166  1
  O  O72  1  0.25275834  0.40201772  0.15724436  1
  O  O73  1  0.75275834  0.09798228  0.84275564  1
  O  O74  1  0.24724166  0.59798228  0.65724436  1
  O  O75  1  0.74724166  0.90201772  0.34275564  1
