# generated using pymatgen
data_K3DyF6
_symmetry_space_group_name_H-M   'P 1'
_cell_length_a   6.42905061
_cell_length_b   6.63642971
_cell_length_c   9.17957593
_cell_angle_alpha   90.00000000
_cell_angle_beta   90.16955630
_cell_angle_gamma   90.00000000
_symmetry_Int_Tables_number   1
_chemical_formula_structural   K3DyF6
_chemical_formula_sum   'K6 Dy2 F12'
_cell_volume   391.65354325
_cell_formula_units_Z   2
loop_
 _symmetry_equiv_pos_site_id
 _symmetry_equiv_pos_as_xyz
  1  'x, y, z'
loop_
 _atom_site_type_symbol
 _atom_site_label
 _atom_site_symmetry_multiplicity
 _atom_site_fract_x
 _atom_site_fract_y
 _atom_site_fract_z
 _atom_site_occupancy
  K  K0  1  0.00000000  0.00000000  0.50000000  1
  K  K1  1  0.50000000  0.50000000  -0.00000000  1
  K  K2  1  0.98702649  0.54886411  0.25383454  1
  K  K3  1  0.01297351  0.45113589  0.74616546  1
  K  K4  1  0.51297351  0.04886411  0.24616546  1
  K  K5  1  0.48702649  0.95113589  0.75383454  1
  Dy  Dy6  1  0.00000000  0.00000000  -0.00000000  1
  Dy  Dy7  1  0.50000000  0.50000000  0.50000000  1
  F  F8  1  0.83277314  0.27276484  0.06613566  1
  F  F9  1  0.16722686  0.72723516  0.93386434  1
  F  F10  1  0.66722686  0.77276484  0.43386434  1
  F  F11  1  0.33277314  0.22723516  0.56613566  1
  F  F12  1  0.10843112  0.94707332  0.22392758  1
  F  F13  1  0.89156888  0.05292668  0.77607242  1
  F  F14  1  0.39156888  0.44707332  0.27607242  1
  F  F15  1  0.60843112  0.55292668  0.72392758  1
  F  F16  1  0.72098240  0.82655918  0.04942027  1
  F  F17  1  0.27901760  0.17344082  0.95057973  1
  F  F18  1  0.77901760  0.32655918  0.45057973  1
  F  F19  1  0.22098240  0.67344082  0.54942027  1
