# generated using pymatgen
data_KSm(SO4)2
_symmetry_space_group_name_H-M   'P 1'
_cell_length_a   7.24682223
_cell_length_b   8.73633910
_cell_length_c   10.65723752
_cell_angle_alpha   92.19922257
_cell_angle_beta   90.00000000
_cell_angle_gamma   90.00000000
_symmetry_Int_Tables_number   1
_chemical_formula_structural   KSm(SO4)2
_chemical_formula_sum   'K4 Sm4 S8 O32'
_cell_volume   674.22015745
_cell_formula_units_Z   4
loop_
 _symmetry_equiv_pos_site_id
 _symmetry_equiv_pos_as_xyz
  1  'x, y, z'
loop_
 _atom_site_type_symbol
 _atom_site_label
 _atom_site_symmetry_multiplicity
 _atom_site_fract_x
 _atom_site_fract_y
 _atom_site_fract_z
 _atom_site_occupancy
  K  K0  1  0.84954048  0.43736549  0.65768119  1
  K  K1  1  0.15045952  0.56263451  0.34231881  1
  K  K2  1  0.34954048  0.56263451  0.84231881  1
  K  K3  1  0.65045952  0.43736549  0.15768119  1
  Sm  Sm4  1  0.66886894  0.94425901  0.65101776  1
  Sm  Sm5  1  0.33113106  0.05574099  0.34898224  1
  Sm  Sm6  1  0.16886894  0.05574099  0.84898224  1
  Sm  Sm7  1  0.83113106  0.94425901  0.15101776  1
  S  S8  1  0.66646485  0.18115893  0.89036390  1
  S  S9  1  0.33353515  0.81884107  0.10963610  1
  S  S10  1  0.16646485  0.81884107  0.60963610  1
  S  S11  1  0.83353515  0.18115893  0.39036390  1
  S  S12  1  0.84342621  0.72893890  0.91095811  1
  S  S13  1  0.15657379  0.27106110  0.08904189  1
  S  S14  1  0.34342621  0.27106110  0.58904189  1
  S  S15  1  0.65657379  0.72893890  0.41095811  1
  O  O16  1  0.31772005  0.87441254  0.98067870  1
  O  O17  1  0.68227995  0.12558746  0.01932130  1
  O  O18  1  0.81772005  0.12558746  0.51932130  1
  O  O19  1  0.18227995  0.87441254  0.48067870  1
  O  O20  1  0.01145673  0.90635987  0.67645771  1
  O  O21  1  0.98854327  0.09364013  0.32354229  1
  O  O22  1  0.51145673  0.09364013  0.82354229  1
  O  O23  1  0.48854327  0.90635987  0.17645771  1
  O  O24  1  0.63964784  0.34613475  0.89191673  1
  O  O25  1  0.36035216  0.65386525  0.10808327  1
  O  O26  1  0.13964784  0.65386525  0.60808327  1
  O  O27  1  0.86035216  0.34613475  0.39191673  1
  O  O28  1  0.74691007  0.70268732  0.53468494  1
  O  O29  1  0.25308993  0.29731268  0.46531506  1
  O  O30  1  0.24691007  0.29731268  0.96531506  1
  O  O31  1  0.75308993  0.70268732  0.03468494  1
  O  O32  1  0.94538831  0.87881095  0.93869765  1
  O  O33  1  0.05461169  0.12118905  0.06130235  1
  O  O34  1  0.44538831  0.12118905  0.56130235  1
  O  O35  1  0.55461169  0.87881095  0.43869765  1
  O  O36  1  0.96875254  0.60701566  0.87081562  1
  O  O37  1  0.03124746  0.39298434  0.12918438  1
  O  O38  1  0.46875254  0.39298434  0.62918438  1
  O  O39  1  0.53124746  0.60701566  0.37081562  1
  O  O40  1  0.33288604  0.86378429  0.69053751  1
  O  O41  1  0.66711396  0.13621571  0.30946249  1
  O  O42  1  0.83288604  0.13621571  0.80946249  1
  O  O43  1  0.16711396  0.86378429  0.19053751  1
  O  O44  1  0.69970481  0.75585125  0.81323710  1
  O  O45  1  0.30029519  0.24414875  0.18676290  1
  O  O46  1  0.19970481  0.24414875  0.68676290  1
  O  O47  1  0.80029519  0.75585125  0.31323710  1
