# generated using pymatgen
data_KCd(PO3)3
_symmetry_space_group_name_H-M   'P 1'
_cell_length_a   6.90203921
_cell_length_b   6.90203921
_cell_length_c   10.34047998
_cell_angle_alpha   90.00000000
_cell_angle_beta   90.00000000
_cell_angle_gamma   119.99999611
_symmetry_Int_Tables_number   1
_chemical_formula_structural   KCd(PO3)3
_chemical_formula_sum   'K2 Cd2 P6 O18'
_cell_volume   426.60524597
_cell_formula_units_Z   2
loop_
 _symmetry_equiv_pos_site_id
 _symmetry_equiv_pos_as_xyz
  1  'x, y, z'
loop_
 _atom_site_type_symbol
 _atom_site_label
 _atom_site_symmetry_multiplicity
 _atom_site_fract_x
 _atom_site_fract_y
 _atom_site_fract_z
 _atom_site_occupancy
  K  K0  1  0.33333300  0.66666700  0.00000000  1
  K  K1  1  0.33333300  0.66666700  0.50000000  1
  Cd  Cd2  1  -0.00000000  0.00000000  0.00000000  1
  Cd  Cd3  1  -0.00000000  0.00000000  0.50000000  1
  P  P4  1  0.89166647  0.28732079  0.75000000  1
  P  P5  1  0.39565433  0.10833353  0.75000000  1
  P  P6  1  0.39565433  0.28732079  0.25000000  1
  P  P7  1  0.71267921  0.60434567  0.75000000  1
  P  P8  1  0.71267921  0.10833353  0.25000000  1
  P  P9  1  0.89166647  0.60434567  0.25000000  1
  O  O10  1  0.72606370  0.72139616  0.87511492  1
  O  O11  1  0.99533246  0.27393630  0.87511492  1
  O  O12  1  0.72606370  0.72139616  0.62488508  1
  O  O13  1  0.99533246  0.72139616  0.37511492  1
  O  O14  1  0.27860384  0.00466754  0.87511492  1
  O  O15  1  0.99533246  0.27393630  0.62488508  1
  O  O16  1  0.27860384  0.27393630  0.37511492  1
  O  O17  1  0.99533246  0.72139616  0.12488508  1
  O  O18  1  0.27860384  0.00466754  0.62488508  1
  O  O19  1  0.27860384  0.27393630  0.12488508  1
  O  O20  1  0.72606370  0.00466754  0.37511492  1
  O  O21  1  0.72606370  0.00466754  0.12488508  1
  O  O22  1  0.89564998  0.52391229  0.75000000  1
  O  O23  1  0.62826231  0.10435002  0.75000000  1
  O  O24  1  0.62826231  0.52391229  0.25000000  1
  O  O25  1  0.47608771  0.37173769  0.75000000  1
  O  O26  1  0.47608771  0.10435002  0.25000000  1
  O  O27  1  0.89564998  0.37173769  0.25000000  1
