# generated using pymatgen
data_K3ErF6
_symmetry_space_group_name_H-M   'P 1'
_cell_length_a   6.36614092
_cell_length_b   6.58375566
_cell_length_c   9.11804185
_cell_angle_alpha   90.00000000
_cell_angle_beta   90.35456354
_cell_angle_gamma   90.00000000
_symmetry_Int_Tables_number   1
_chemical_formula_structural   K3ErF6
_chemical_formula_sum   'K6 Er2 F12'
_cell_volume   382.15823119
_cell_formula_units_Z   2
loop_
 _symmetry_equiv_pos_site_id
 _symmetry_equiv_pos_as_xyz
  1  'x, y, z'
loop_
 _atom_site_type_symbol
 _atom_site_label
 _atom_site_symmetry_multiplicity
 _atom_site_fract_x
 _atom_site_fract_y
 _atom_site_fract_z
 _atom_site_occupancy
  K  K0  1  0.00000000  -0.00000000  0.50000000  1
  K  K1  1  0.50000000  0.50000000  -0.00000000  1
  K  K2  1  0.98710682  0.54993204  0.25337861  1
  K  K3  1  0.01289318  0.45006796  0.74662139  1
  K  K4  1  0.51289318  0.04993204  0.24662139  1
  K  K5  1  0.48710682  0.95006796  0.75337861  1
  Er  Er6  1  0.00000000  -0.00000000  -0.00000000  1
  Er  Er7  1  0.50000000  0.50000000  0.50000000  1
  F  F8  1  0.83237335  0.27204434  0.06519904  1
  F  F9  1  0.16762665  0.72795566  0.93480096  1
  F  F10  1  0.66762665  0.77204434  0.43480096  1
  F  F11  1  0.33237335  0.22795566  0.56519904  1
  F  F12  1  0.10670375  0.94869329  0.22306465  1
  F  F13  1  0.89329625  0.05130671  0.77693535  1
  F  F14  1  0.39329625  0.44869329  0.27693535  1
  F  F15  1  0.60670375  0.55130671  0.72306465  1
  F  F16  1  0.72189478  0.82529815  0.04823346  1
  F  F17  1  0.27810522  0.17470185  0.95176654  1
  F  F18  1  0.77810522  0.32529815  0.45176654  1
  F  F19  1  0.22189478  0.67470185  0.54823346  1
