# generated using pymatgen
data_LaHfF7
_symmetry_space_group_name_H-M   'P 1'
_cell_length_a   5.90417253
_cell_length_b   6.37091283
_cell_length_c   8.57507151
_cell_angle_alpha   101.85242396
_cell_angle_beta   90.00000000
_cell_angle_gamma   90.00000000
_symmetry_Int_Tables_number   1
_chemical_formula_structural   LaHfF7
_chemical_formula_sum   'La2 Hf2 F14'
_cell_volume   315.67421509
_cell_formula_units_Z   2
loop_
 _symmetry_equiv_pos_site_id
 _symmetry_equiv_pos_as_xyz
  1  'x, y, z'
loop_
 _atom_site_type_symbol
 _atom_site_label
 _atom_site_symmetry_multiplicity
 _atom_site_fract_x
 _atom_site_fract_y
 _atom_site_fract_z
 _atom_site_occupancy
  La  La0  1  0.70184607  0.65717660  0.68817923  1
  La  La1  1  0.20184607  0.34282340  0.31182077  1
  Hf  Hf2  1  0.71063068  0.81301330  0.22486391  1
  Hf  Hf3  1  0.21063068  0.18698670  0.77513609  1
  F  F4  1  0.88083113  0.44457658  0.47220009  1
  F  F5  1  0.38083113  0.55542342  0.52779991  1
  F  F6  1  0.41703310  0.93319767  0.76680779  1
  F  F7  1  0.91703310  0.06680233  0.23319221  1
  F  F8  1  0.95021605  0.97782773  0.76350862  1
  F  F9  1  0.45021605  0.02217227  0.23649138  1
  F  F10  1  0.00472891  0.44190217  0.78672990  1
  F  F11  1  0.50472891  0.55809783  0.21327010  1
  F  F12  1  0.70574290  0.75918610  0.98504551  1
  F  F13  1  0.20574290  0.24081390  0.01495449  1
  F  F14  1  0.71356188  0.85782983  0.46379504  1
  F  F15  1  0.21356188  0.14217017  0.53620496  1
  F  F16  1  0.49176929  0.37080066  0.78324883  1
  F  F17  1  0.99176929  0.62919934  0.21675117  1
