# generated using pymatgen
data_LiCaVF6
_symmetry_space_group_name_H-M   'P 1'
_cell_length_a   5.20900764
_cell_length_b   5.20900764
_cell_length_c   9.89646957
_cell_angle_alpha   90.00000000
_cell_angle_beta   90.00000000
_cell_angle_gamma   120.00000685
_symmetry_Int_Tables_number   1
_chemical_formula_structural   LiCaVF6
_chemical_formula_sum   'Li2 Ca2 V2 F12'
_cell_volume   232.55243114
_cell_formula_units_Z   2
loop_
 _symmetry_equiv_pos_site_id
 _symmetry_equiv_pos_as_xyz
  1  'x, y, z'
loop_
 _atom_site_type_symbol
 _atom_site_label
 _atom_site_symmetry_multiplicity
 _atom_site_fract_x
 _atom_site_fract_y
 _atom_site_fract_z
 _atom_site_occupancy
  Li  Li0  1  0.33333300  0.66666700  0.75000000  1
  Li  Li1  1  0.66666700  0.33333300  0.25000000  1
  Ca  Ca2  1  -0.00000000  -0.00000000  -0.00000000  1
  Ca  Ca3  1  -0.00000000  -0.00000000  0.50000000  1
  V  V4  1  0.66666700  0.33333300  0.75000000  1
  V  V5  1  0.33333300  0.66666700  0.25000000  1
  F  F6  1  0.98631686  0.34678476  0.86199842  1
  F  F7  1  0.01368314  0.65321524  0.13800158  1
  F  F8  1  0.36046790  0.01368314  0.86199842  1
  F  F9  1  0.36046790  0.34678476  0.63800158  1
  F  F10  1  0.63953210  0.98631686  0.13800158  1
  F  F11  1  0.63953210  0.65321524  0.36199842  1
  F  F12  1  0.65321524  0.63953210  0.86199842  1
  F  F13  1  0.65321524  0.01368314  0.63800158  1
  F  F14  1  0.34678476  0.36046790  0.13800158  1
  F  F15  1  0.34678476  0.98631686  0.36199842  1
  F  F16  1  0.98631686  0.63953210  0.63800158  1
  F  F17  1  0.01368314  0.36046790  0.36199842  1
