# generated using pymatgen
data_Li2Mg10B12Rh19
_symmetry_space_group_name_H-M   'P 1'
_cell_length_a   2.87906760
_cell_length_b   13.93290321
_cell_length_c   26.68494911
_cell_angle_alpha   90.00000000
_cell_angle_beta   90.00000000
_cell_angle_gamma   90.00000000
_symmetry_Int_Tables_number   1
_chemical_formula_structural   Li2Mg10B12Rh19
_chemical_formula_sum   'Li4 Mg20 B24 Rh38'
_cell_volume   1070.43391655
_cell_formula_units_Z   2
loop_
 _symmetry_equiv_pos_site_id
 _symmetry_equiv_pos_as_xyz
  1  'x, y, z'
loop_
 _atom_site_type_symbol
 _atom_site_label
 _atom_site_symmetry_multiplicity
 _atom_site_fract_x
 _atom_site_fract_y
 _atom_site_fract_z
 _atom_site_occupancy
  Li  Li0  1  -0.00000000  0.01137670  0.04437933  1
  Li  Li1  1  -0.00000000  0.98862330  0.95562067  1
  Li  Li2  1  -0.00000000  0.48862330  0.54437933  1
  Li  Li3  1  -0.00000000  0.51137670  0.45562067  1
  Mg  Mg4  1  -0.00000000  0.03725570  0.22837113  1
  Mg  Mg5  1  -0.00000000  0.96274430  0.77162887  1
  Mg  Mg6  1  -0.00000000  0.46274430  0.72837113  1
  Mg  Mg7  1  -0.00000000  0.53725570  0.27162887  1
  Mg  Mg8  1  -0.00000000  0.34592097  0.03268433  1
  Mg  Mg9  1  -0.00000000  0.65407903  0.96731567  1
  Mg  Mg10  1  -0.00000000  0.15407903  0.53268433  1
  Mg  Mg11  1  -0.00000000  0.84592097  0.46731567  1
  Mg  Mg12  1  -0.00000000  0.06782193  0.32923259  1
  Mg  Mg13  1  -0.00000000  0.93217807  0.67076741  1
  Mg  Mg14  1  -0.00000000  0.43217807  0.82923259  1
  Mg  Mg15  1  -0.00000000  0.56782193  0.17076741  1
  Mg  Mg16  1  0.00000000  0.25901219  0.35880008  1
  Mg  Mg17  1  -0.00000000  0.74098781  0.64119992  1
  Mg  Mg18  1  -0.00000000  0.24098781  0.85880008  1
  Mg  Mg19  1  0.00000000  0.75901219  0.14119992  1
  Mg  Mg20  1  0.00000000  0.21502646  0.18597447  1
  Mg  Mg21  1  0.00000000  0.78497354  0.81402553  1
  Mg  Mg22  1  -0.00000000  0.28497354  0.68597447  1
  Mg  Mg23  1  -0.00000000  0.71502646  0.31402553  1
  B  B24  1  -0.00000000  0.32268296  0.26317899  1
  B  B25  1  -0.00000000  0.67731704  0.73682101  1
  B  B26  1  -0.00000000  0.17731704  0.76317899  1
  B  B27  1  -0.00000000  0.82268296  0.23682101  1
  B  B28  1  -0.00000000  0.38431209  0.14310878  1
  B  B29  1  0.00000000  0.61568791  0.85689122  1
  B  B30  1  -0.00000000  0.11568791  0.64310878  1
  B  B31  1  -0.00000000  0.88431209  0.35689122  1
  B  B32  1  -0.00000000  0.16799936  0.08353370  1
  B  B33  1  -0.00000000  0.83200064  0.91646630  1
  B  B34  1  -0.00000000  0.33200064  0.58353370  1
  B  B35  1  -0.00000000  0.66799936  0.41646630  1
  B  B36  1  -0.00000000  0.45430098  0.36968178  1
  B  B37  1  -0.00000000  0.54569902  0.63031822  1
  B  B38  1  -0.00000000  0.04569902  0.86968178  1
  B  B39  1  -0.00000000  0.95430098  0.13031822  1
  B  B40  1  -0.00000000  0.05680737  0.44432176  1
  B  B41  1  -0.00000000  0.94319263  0.55567824  1
  B  B42  1  -0.00000000  0.44319263  0.94432176  1
  B  B43  1  -0.00000000  0.55680737  0.05567824  1
  B  B44  1  -0.00000000  0.29128480  0.46134098  1
  B  B45  1  -0.00000000  0.70871520  0.53865902  1
  B  B46  1  -0.00000000  0.20871520  0.96134098  1
  B  B47  1  -0.00000000  0.79128480  0.03865902  1
  Rh  Rh48  1  0.50000000  0.27760347  0.11143776  1
  Rh  Rh49  1  0.50000000  0.72239653  0.88856224  1
  Rh  Rh50  1  0.50000000  0.22239653  0.61143776  1
  Rh  Rh51  1  0.50000000  0.77760347  0.38856224  1
  Rh  Rh52  1  0.50000000  0.07346300  0.12413241  1
  Rh  Rh53  1  0.50000000  0.92653700  0.87586759  1
  Rh  Rh54  1  0.50000000  0.42653700  0.62413241  1
  Rh  Rh55  1  0.50000000  0.57346300  0.37586759  1
  Rh  Rh56  1  0.50000000  0.17387800  0.43881594  1
  Rh  Rh57  1  0.50000000  0.82612200  0.56118406  1
  Rh  Rh58  1  0.50000000  0.32612200  0.93881594  1
  Rh  Rh59  1  0.50000000  0.67387800  0.06118406  1
  Rh  Rh60  1  0.50000000  0.37679236  0.41735435  1
  Rh  Rh61  1  0.50000000  0.62320764  0.58264565  1
  Rh  Rh62  1  0.50000000  0.12320764  0.91735435  1
  Rh  Rh63  1  0.50000000  0.87679236  0.08264565  1
  Rh  Rh64  1  0.50000000  0.17082987  0.02105379  1
  Rh  Rh65  1  0.50000000  0.82917013  0.97894621  1
  Rh  Rh66  1  0.50000000  0.32917013  0.52105379  1
  Rh  Rh67  1  0.50000000  0.67082987  0.47894621  1
  Rh  Rh68  1  0.50000000  0.47618224  0.10292929  1
  Rh  Rh69  1  0.50000000  0.52381776  0.89707071  1
  Rh  Rh70  1  0.50000000  0.02381776  0.60292929  1
  Rh  Rh71  1  0.50000000  0.97618224  0.39707071  1
  Rh  Rh72  1  0.50000000  0.00000000  0.50000000  1
  Rh  Rh73  1  0.50000000  0.50000000  0.00000000  1
  Rh  Rh74  1  0.50000000  0.20858680  0.27191367  1
  Rh  Rh75  1  0.50000000  0.79141320  0.72808633  1
  Rh  Rh76  1  0.50000000  0.29141320  0.77191367  1
  Rh  Rh77  1  0.50000000  0.70858680  0.22808633  1
  Rh  Rh78  1  0.50000000  0.40172084  0.31295177  1
  Rh  Rh79  1  0.50000000  0.59827916  0.68704823  1
  Rh  Rh80  1  0.50000000  0.09827916  0.81295177  1
  Rh  Rh81  1  0.50000000  0.90172084  0.18704823  1
  Rh  Rh82  1  0.50000000  0.39014820  0.20522842  1
  Rh  Rh83  1  0.50000000  0.60985180  0.79477158  1
  Rh  Rh84  1  0.50000000  0.10985180  0.70522842  1
  Rh  Rh85  1  0.50000000  0.89014820  0.29477158  1
