# generated using pymatgen
data_V4OF12
_symmetry_space_group_name_H-M   'P 1'
_cell_length_a   8.08884781
_cell_length_b   3.92096391
_cell_length_c   8.43752808
_cell_angle_alpha   88.52990614
_cell_angle_beta   79.39981276
_cell_angle_gamma   76.78031158
_symmetry_Int_Tables_number   1
_chemical_formula_structural   V4OF12
_chemical_formula_sum   'V4 O1 F12'
_cell_volume   256.03047436
_cell_formula_units_Z   1
loop_
 _symmetry_equiv_pos_site_id
 _symmetry_equiv_pos_as_xyz
  1  'x, y, z'
loop_
 _atom_site_type_symbol
 _atom_site_label
 _atom_site_symmetry_multiplicity
 _atom_site_fract_x
 _atom_site_fract_y
 _atom_site_fract_z
 _atom_site_occupancy
  V  V0  1  0.17303625  0.92997581  0.63547055  1
  V  V1  1  0.21218525  0.90013170  0.00195753  1
  V  V2  1  0.79943702  0.07766022  0.37825194  1
  V  V3  1  0.80958809  0.10524363  0.97715188  1
  O  O4  1  0.02588479  -0.00004004  0.85847263  1
  F  F5  1  0.20155010  0.40498205  0.00681081  1
  F  F6  1  0.16787211  0.43284548  0.64268654  1
  F  F7  1  0.37122994  0.81815129  0.12499696  1
  F  F8  1  0.33528049  0.86531935  0.46236889  1
  F  F9  1  0.34433310  0.84397781  0.78524765  1
  F  F10  1  0.67014564  0.15675930  0.18773156  1
  F  F11  1  0.61452569  0.13302611  0.53590999  1
  F  F12  1  0.65577836  0.19669203  0.84997712  1
  F  F13  1  0.82884278  0.56374747  0.36089082  1
  F  F14  1  0.99214404  0.99727104  0.16323886  1
  F  F15  1  0.80607639  0.60589056  0.99177093  1
  F  F16  1  0.97787095  0.01015518  0.53103636  1
