# generated using pymatgen
data_Mn2Tl2(MoO4)3
_symmetry_space_group_name_H-M   'P 1'
_cell_length_a   11.15984249
_cell_length_b   11.15984249
_cell_length_c   11.15984249
_cell_angle_alpha   90.00000000
_cell_angle_beta   90.00000000
_cell_angle_gamma   90.00000000
_symmetry_Int_Tables_number   1
_chemical_formula_structural   Mn2Tl2(MoO4)3
_chemical_formula_sum   'Mn8 Tl8 Mo12 O48'
_cell_volume   1389.87004530
_cell_formula_units_Z   4
loop_
 _symmetry_equiv_pos_site_id
 _symmetry_equiv_pos_as_xyz
  1  'x, y, z'
loop_
 _atom_site_type_symbol
 _atom_site_label
 _atom_site_symmetry_multiplicity
 _atom_site_fract_x
 _atom_site_fract_y
 _atom_site_fract_z
 _atom_site_occupancy
  Mn  Mn0  1  0.33557181  0.33557181  0.33557181  1
  Mn  Mn1  1  0.16442819  0.66442819  0.83557181  1
  Mn  Mn2  1  0.66442819  0.83557181  0.16442819  1
  Mn  Mn3  1  0.83557181  0.16442819  0.66442819  1
  Mn  Mn4  1  0.60600524  0.60600524  0.60600524  1
  Mn  Mn5  1  0.89399476  0.39399476  0.10600524  1
  Mn  Mn6  1  0.39399476  0.10600524  0.89399476  1
  Mn  Mn7  1  0.10600524  0.89399476  0.39399476  1
  Tl  Tl8  1  0.05929218  0.05929218  0.05929218  1
  Tl  Tl9  1  0.44070782  0.94070782  0.55929218  1
  Tl  Tl10  1  0.94070782  0.55929218  0.44070782  1
  Tl  Tl11  1  0.55929218  0.44070782  0.94070782  1
  Tl  Tl12  1  0.82422493  0.82422493  0.82422493  1
  Tl  Tl13  1  0.67577507  0.17577507  0.32422493  1
  Tl  Tl14  1  0.17577507  0.32422493  0.67577507  1
  Tl  Tl15  1  0.32422493  0.67577507  0.17577507  1
  Mo  Mo16  1  0.02183076  0.21013802  0.37695899  1
  Mo  Mo17  1  0.47816924  0.78986198  0.87695899  1
  Mo  Mo18  1  0.97816924  0.71013802  0.12304101  1
  Mo  Mo19  1  0.37695899  0.02183076  0.21013802  1
  Mo  Mo20  1  0.52183076  0.28986198  0.62304101  1
  Mo  Mo21  1  0.87695899  0.47816924  0.78986198  1
  Mo  Mo22  1  0.12304101  0.97816924  0.71013802  1
  Mo  Mo23  1  0.62304101  0.52183076  0.28986198  1
  Mo  Mo24  1  0.21013802  0.37695899  0.02183076  1
  Mo  Mo25  1  0.71013802  0.12304101  0.97816924  1
  Mo  Mo26  1  0.28986198  0.62304101  0.52183076  1
  Mo  Mo27  1  0.78986198  0.87695899  0.47816924  1
  O  O28  1  0.01924600  0.05760059  0.32181724  1
  O  O29  1  0.48075400  0.94239941  0.82181724  1
  O  O30  1  0.98075400  0.55760059  0.17818276  1
  O  O31  1  0.32181724  0.01924600  0.05760059  1
  O  O32  1  0.51924600  0.44239941  0.67818276  1
  O  O33  1  0.82181724  0.48075400  0.94239941  1
  O  O34  1  0.17818276  0.98075400  0.55760059  1
  O  O35  1  0.67818276  0.51924600  0.44239941  1
  O  O36  1  0.05760059  0.32181724  0.01924600  1
  O  O37  1  0.55760059  0.17818276  0.98075400  1
  O  O38  1  0.44239941  0.67818276  0.51924600  1
  O  O39  1  0.94239941  0.82181724  0.48075400  1
  O  O40  1  0.27498590  0.48699226  0.43859568  1
  O  O41  1  0.22501410  0.51300774  0.93859568  1
  O  O42  1  0.72501410  0.98699226  0.06140432  1
  O  O43  1  0.43859568  0.27498590  0.48699226  1
  O  O44  1  0.77498590  0.01300774  0.56140432  1
  O  O45  1  0.93859568  0.22501410  0.51300774  1
  O  O46  1  0.06140432  0.72501410  0.98699226  1
  O  O47  1  0.56140432  0.77498590  0.01300774  1
  O  O48  1  0.48699226  0.43859568  0.27498590  1
  O  O49  1  0.98699226  0.06140432  0.72501410  1
  O  O50  1  0.01300774  0.56140432  0.77498590  1
  O  O51  1  0.51300774  0.93859568  0.22501410  1
  O  O52  1  0.04932830  0.80524226  0.23142504  1
  O  O53  1  0.45067170  0.19475774  0.73142504  1
  O  O54  1  0.95067170  0.30524226  0.26857496  1
  O  O55  1  0.23142504  0.04932830  0.80524226  1
  O  O56  1  0.54932830  0.69475774  0.76857496  1
  O  O57  1  0.73142504  0.45067170  0.19475774  1
  O  O58  1  0.26857496  0.95067170  0.30524226  1
  O  O59  1  0.76857496  0.54932830  0.69475774  1
  O  O60  1  0.80524226  0.23142504  0.04932830  1
  O  O61  1  0.30524226  0.26857496  0.95067170  1
  O  O62  1  0.69475774  0.76857496  0.54932830  1
  O  O63  1  0.19475774  0.73142504  0.45067170  1
  O  O64  1  0.17318499  0.25654095  0.40623758  1
  O  O65  1  0.32681501  0.74345905  0.90623758  1
  O  O66  1  0.82681501  0.75654095  0.09376242  1
  O  O67  1  0.40623758  0.17318499  0.25654095  1
  O  O68  1  0.67318499  0.24345905  0.59376242  1
  O  O69  1  0.90623758  0.32681501  0.74345905  1
  O  O70  1  0.09376242  0.82681501  0.75654095  1
  O  O71  1  0.59376242  0.67318499  0.24345905  1
  O  O72  1  0.25654095  0.40623758  0.17318499  1
  O  O73  1  0.75654095  0.09376242  0.82681501  1
  O  O74  1  0.24345905  0.59376242  0.67318499  1
  O  O75  1  0.74345905  0.90623758  0.32681501  1
