# generated using pymatgen
data_ErFeGe2O7
_symmetry_space_group_name_H-M   'P 1'
_cell_length_a   6.68358626
_cell_length_b   8.73195453
_cell_length_c   9.89029847
_cell_angle_alpha   90.00000000
_cell_angle_beta   101.34797094
_cell_angle_gamma   90.00000000
_symmetry_Int_Tables_number   1
_chemical_formula_structural   ErFeGe2O7
_chemical_formula_sum   'Er4 Fe4 Ge8 O28'
_cell_volume   565.92123006
_cell_formula_units_Z   4
loop_
 _symmetry_equiv_pos_site_id
 _symmetry_equiv_pos_as_xyz
  1  'x, y, z'
loop_
 _atom_site_type_symbol
 _atom_site_label
 _atom_site_symmetry_multiplicity
 _atom_site_fract_x
 _atom_site_fract_y
 _atom_site_fract_z
 _atom_site_occupancy
  Er  Er0  1  0.24974608  0.04769008  0.24967556  1
  Er  Er1  1  0.75025392  0.95230992  0.75032444  1
  Er  Er2  1  0.75025392  0.54769008  0.75032444  1
  Er  Er3  1  0.24974608  0.45230992  0.24967556  1
  Fe  Fe4  1  0.24995915  0.05744963  0.74986254  1
  Fe  Fe5  1  0.75004085  0.94255037  0.25013746  1
  Fe  Fe6  1  0.75004085  0.55744963  0.25013746  1
  Fe  Fe7  1  0.24995915  0.44255037  0.74986254  1
  Ge  Ge8  1  0.02062383  0.25000000  0.94749153  1
  Ge  Ge9  1  0.97937617  0.75000000  0.05250847  1
  Ge  Ge10  1  0.95609147  0.25000000  0.46285327  1
  Ge  Ge11  1  0.04390853  0.75000000  0.53714673  1
  Ge  Ge12  1  0.54520398  0.25000000  0.03659575  1
  Ge  Ge13  1  0.45479602  0.75000000  0.96340425  1
  Ge  Ge14  1  0.48000128  0.25000000  0.55178005  1
  Ge  Ge15  1  0.51999872  0.75000000  0.44821995  1
  O  O16  1  0.74902858  0.25000000  0.55055291  1
  O  O17  1  0.25097142  0.75000000  0.44944709  1
  O  O18  1  0.75005054  0.25000000  0.94677304  1
  O  O19  1  0.24994946  0.75000000  0.05322696  1
  O  O20  1  0.33930796  0.25000000  0.38299050  1
  O  O21  1  0.66069204  0.75000000  0.61700950  1
  O  O22  1  0.34370291  0.25000000  0.88532690  1
  O  O23  1  0.65629709  0.75000000  0.11467310  1
  O  O24  1  0.15534568  0.25000000  0.61533898  1
  O  O25  1  0.84465432  0.75000000  0.38466102  1
  O  O26  1  0.15869260  0.25000000  0.11726186  1
  O  O27  1  0.84130740  0.75000000  0.88273814  1
  O  O28  1  0.52303992  0.57618063  0.35631361  1
  O  O29  1  0.47696008  0.42381937  0.64368639  1
  O  O30  1  0.47696008  0.07618063  0.64368639  1
  O  O31  1  0.52303992  0.92381937  0.35631361  1
  O  O32  1  0.96144541  0.08554503  0.35737351  1
  O  O33  1  0.03855459  0.91445497  0.64262649  1
  O  O34  1  0.03855459  0.58554503  0.64262649  1
  O  O35  1  0.96144541  0.41445497  0.35737351  1
  O  O36  1  0.53924476  0.08583427  0.14254767  1
  O  O37  1  0.46075524  0.91416573  0.85745233  1
  O  O38  1  0.46075524  0.58583427  0.85745233  1
  O  O39  1  0.53924476  0.41416573  0.14254767  1
  O  O40  1  0.97626686  0.57577009  0.14342162  1
  O  O41  1  0.02373314  0.42422991  0.85657838  1
  O  O42  1  0.02373314  0.07577009  0.85657838  1
  O  O43  1  0.97626686  0.92422991  0.14342162  1
