# generated using pymatgen
data_EuSi2Pt
_symmetry_space_group_name_H-M   'P 1'
_cell_length_a   4.18221892
_cell_length_b   4.36506935
_cell_length_c   8.78642786
_cell_angle_alpha   104.38276159
_cell_angle_beta   90.00000000
_cell_angle_gamma   90.00000000
_symmetry_Int_Tables_number   1
_chemical_formula_structural   EuSi2Pt
_chemical_formula_sum   'Eu2 Si4 Pt2'
_cell_volume   155.37484223
_cell_formula_units_Z   2
loop_
 _symmetry_equiv_pos_site_id
 _symmetry_equiv_pos_as_xyz
  1  'x, y, z'
loop_
 _atom_site_type_symbol
 _atom_site_label
 _atom_site_symmetry_multiplicity
 _atom_site_fract_x
 _atom_site_fract_y
 _atom_site_fract_z
 _atom_site_occupancy
  Eu  Eu0  1  0.25000000  0.39453111  0.78906223  1
  Eu  Eu1  1  0.75000000  0.60546889  0.21093777  1
  Si  Si2  1  0.25000000  0.74789437  0.49578875  1
  Si  Si3  1  0.75000000  0.25210563  0.50421125  1
  Si  Si4  1  0.25000000  0.03727964  0.07455928  1
  Si  Si5  1  0.75000000  0.96272036  0.92544072  1
  Pt  Pt6  1  0.25000000  0.17914737  0.35829473  1
  Pt  Pt7  1  0.75000000  0.82085263  0.64170527  1
