# generated using pymatgen
data_Hf9Re4O3
_symmetry_space_group_name_H-M   'P 1'
_cell_length_a   8.54563432
_cell_length_b   8.45699232
_cell_length_c   8.45699232
_cell_angle_alpha   120.00000171
_cell_angle_beta   90.00000000
_cell_angle_gamma   90.00000000
_symmetry_Int_Tables_number   1
_chemical_formula_structural   Hf9Re4O3
_chemical_formula_sum   'Hf18 Re8 O6'
_cell_volume   529.30598076
_cell_formula_units_Z   2
loop_
 _symmetry_equiv_pos_site_id
 _symmetry_equiv_pos_as_xyz
  1  'x, y, z'
loop_
 _atom_site_type_symbol
 _atom_site_label
 _atom_site_symmetry_multiplicity
 _atom_site_fract_x
 _atom_site_fract_y
 _atom_site_fract_z
 _atom_site_occupancy
  Hf  Hf0  1  0.75000000  0.54766289  0.45233711  1
  Hf  Hf1  1  0.25000000  0.45233711  0.54766289  1
  Hf  Hf2  1  0.75000000  0.90467422  0.45233711  1
  Hf  Hf3  1  0.25000000  0.09532578  0.54766289  1
  Hf  Hf4  1  0.75000000  0.54766289  0.09532578  1
  Hf  Hf5  1  0.25000000  0.45233711  0.90467422  1
  Hf  Hf6  1  0.43741899  0.79828693  0.20171307  1
  Hf  Hf7  1  0.56258101  0.20171307  0.79828693  1
  Hf  Hf8  1  0.43741899  0.40342614  0.20171307  1
  Hf  Hf9  1  0.93741899  0.20171307  0.79828693  1
  Hf  Hf10  1  0.56258101  0.59657386  0.79828693  1
  Hf  Hf11  1  0.06258101  0.79828693  0.20171307  1
  Hf  Hf12  1  0.43741899  0.79828693  0.59657386  1
  Hf  Hf13  1  0.93741899  0.59657386  0.79828693  1
  Hf  Hf14  1  0.56258101  0.20171307  0.40342614  1
  Hf  Hf15  1  0.06258101  0.40342614  0.20171307  1
  Hf  Hf16  1  0.93741899  0.20171307  0.40342614  1
  Hf  Hf17  1  0.06258101  0.79828693  0.59657386  1
  Re  Re18  1  0.75000000  0.88981551  0.11018449  1
  Re  Re19  1  0.25000000  0.11018449  0.88981551  1
  Re  Re20  1  0.75000000  0.22036898  0.11018449  1
  Re  Re21  1  0.25000000  0.77963102  0.88981551  1
  Re  Re22  1  0.75000000  0.88981551  0.77963102  1
  Re  Re23  1  0.25000000  0.11018449  0.22036898  1
  Re  Re24  1  -0.00000000  -0.00000000  0.00000000  1
  Re  Re25  1  0.50000000  -0.00000000  0.00000000  1
  O  O26  1  0.00000000  0.50000000  0.50000000  1
  O  O27  1  -0.00000000  -0.00000000  0.50000000  1
  O  O28  1  0.50000000  0.50000000  0.50000000  1
  O  O29  1  -0.00000000  0.50000000  0.00000000  1
  O  O30  1  0.50000000  -0.00000000  0.50000000  1
  O  O31  1  0.50000000  0.50000000  0.00000000  1
