# generated using pymatgen
data_K2ScSn(AsO4)3
_symmetry_space_group_name_H-M   'P 1'
_cell_length_a   10.57720697
_cell_length_b   10.57720697
_cell_length_c   10.57720697
_cell_angle_alpha   90.00000000
_cell_angle_beta   90.00000000
_cell_angle_gamma   90.00000000
_symmetry_Int_Tables_number   1
_chemical_formula_structural   K2ScSn(AsO4)3
_chemical_formula_sum   'K8 Sc4 Sn4 As12 O48'
_cell_volume   1183.34943441
_cell_formula_units_Z   4
loop_
 _symmetry_equiv_pos_site_id
 _symmetry_equiv_pos_as_xyz
  1  'x, y, z'
loop_
 _atom_site_type_symbol
 _atom_site_label
 _atom_site_symmetry_multiplicity
 _atom_site_fract_x
 _atom_site_fract_y
 _atom_site_fract_z
 _atom_site_occupancy
  K  K0  1  0.81855917  0.81855917  0.81855917  1
  K  K1  1  0.68144083  0.18144083  0.31855917  1
  K  K2  1  0.18144083  0.31855917  0.68144083  1
  K  K3  1  0.31855917  0.68144083  0.18144083  1
  K  K4  1  0.04592385  0.04592385  0.04592385  1
  K  K5  1  0.45407615  0.95407615  0.54592385  1
  K  K6  1  0.95407615  0.54592385  0.45407615  1
  K  K7  1  0.54592385  0.45407615  0.95407615  1
  Sc  Sc8  1  0.61061034  0.61061034  0.61061034  1
  Sc  Sc9  1  0.88938966  0.38938966  0.11061034  1
  Sc  Sc10  1  0.38938966  0.11061034  0.88938966  1
  Sc  Sc11  1  0.11061034  0.88938966  0.38938966  1
  Sn  Sn12  1  0.33736136  0.33736136  0.33736136  1
  Sn  Sn13  1  0.16263864  0.66263864  0.83736136  1
  Sn  Sn14  1  0.66263864  0.83736136  0.16263864  1
  Sn  Sn15  1  0.83736136  0.16263864  0.66263864  1
  As  As16  1  0.02588693  0.20588218  0.37895399  1
  As  As17  1  0.47411307  0.79411782  0.87895399  1
  As  As18  1  0.97411307  0.70588218  0.12104601  1
  As  As19  1  0.37895399  0.02588693  0.20588218  1
  As  As20  1  0.52588693  0.29411782  0.62104601  1
  As  As21  1  0.87895399  0.47411307  0.79411782  1
  As  As22  1  0.12104601  0.97411307  0.70588218  1
  As  As23  1  0.62104601  0.52588693  0.29411782  1
  As  As24  1  0.20588218  0.37895399  0.02588693  1
  As  As25  1  0.70588218  0.12104601  0.97411307  1
  As  As26  1  0.29411782  0.62104601  0.52588693  1
  As  As27  1  0.79411782  0.87895399  0.47411307  1
  O  O28  1  0.05337064  0.80428611  0.22066028  1
  O  O29  1  0.44662936  0.19571389  0.72066028  1
  O  O30  1  0.94662936  0.30428611  0.27933972  1
  O  O31  1  0.22066028  0.05337064  0.80428611  1
  O  O32  1  0.55337064  0.69571389  0.77933972  1
  O  O33  1  0.72066028  0.44662936  0.19571389  1
  O  O34  1  0.27933972  0.94662936  0.30428611  1
  O  O35  1  0.77933972  0.55337064  0.69571389  1
  O  O36  1  0.80428611  0.22066028  0.05337064  1
  O  O37  1  0.30428611  0.27933972  0.94662936  1
  O  O38  1  0.69571389  0.77933972  0.55337064  1
  O  O39  1  0.19571389  0.72066028  0.44662936  1
  O  O40  1  0.18161125  0.24396817  0.40981979  1
  O  O41  1  0.31838875  0.75603183  0.90981979  1
  O  O42  1  0.81838875  0.74396817  0.09018021  1
  O  O43  1  0.40981979  0.18161125  0.24396817  1
  O  O44  1  0.68161125  0.25603183  0.59018021  1
  O  O45  1  0.90981979  0.31838875  0.75603183  1
  O  O46  1  0.09018021  0.81838875  0.74396817  1
  O  O47  1  0.59018021  0.68161125  0.25603183  1
  O  O48  1  0.24396817  0.40981979  0.18161125  1
  O  O49  1  0.74396817  0.09018021  0.81838875  1
  O  O50  1  0.25603183  0.59018021  0.68161125  1
  O  O51  1  0.75603183  0.90981979  0.31838875  1
  O  O52  1  0.01635928  0.05467156  0.32434350  1
  O  O53  1  0.48364072  0.94532844  0.82434350  1
  O  O54  1  0.98364072  0.55467156  0.17565650  1
  O  O55  1  0.32434350  0.01635928  0.05467156  1
  O  O56  1  0.51635928  0.44532844  0.67565650  1
  O  O57  1  0.82434350  0.48364072  0.94532844  1
  O  O58  1  0.17565650  0.98364072  0.55467156  1
  O  O59  1  0.67565650  0.51635928  0.44532844  1
  O  O60  1  0.05467156  0.32434350  0.01635928  1
  O  O61  1  0.55467156  0.17565650  0.98364072  1
  O  O62  1  0.44532844  0.67565650  0.51635928  1
  O  O63  1  0.94532844  0.82434350  0.48364072  1
  O  O64  1  0.26427011  0.47587318  0.45625350  1
  O  O65  1  0.23572989  0.52412682  0.95625350  1
  O  O66  1  0.73572989  0.97587318  0.04374650  1
  O  O67  1  0.45625350  0.26427011  0.47587318  1
  O  O68  1  0.76427011  0.02412682  0.54374650  1
  O  O69  1  0.95625350  0.23572989  0.52412682  1
  O  O70  1  0.04374650  0.73572989  0.97587318  1
  O  O71  1  0.54374650  0.76427011  0.02412682  1
  O  O72  1  0.47587318  0.45625350  0.26427011  1
  O  O73  1  0.97587318  0.04374650  0.73572989  1
  O  O74  1  0.02412682  0.54374650  0.76427011  1
  O  O75  1  0.52412682  0.95625350  0.23572989  1
