# generated using pymatgen
data_GdInO3
_symmetry_space_group_name_H-M   'P 1'
_cell_length_a   6.41948729
_cell_length_b   6.41948729
_cell_length_c   12.45464526
_cell_angle_alpha   90.00000000
_cell_angle_beta   90.00000000
_cell_angle_gamma   120.00000854
_symmetry_Int_Tables_number   1
_chemical_formula_structural   GdInO3
_chemical_formula_sum   'Gd6 In6 O18'
_cell_volume   444.49066343
_cell_formula_units_Z   6
loop_
 _symmetry_equiv_pos_site_id
 _symmetry_equiv_pos_as_xyz
  1  'x, y, z'
loop_
 _atom_site_type_symbol
 _atom_site_label
 _atom_site_symmetry_multiplicity
 _atom_site_fract_x
 _atom_site_fract_y
 _atom_site_fract_z
 _atom_site_occupancy
  Gd  Gd0  1  0.66666700  0.33333300  0.96167229  1
  Gd  Gd1  1  0.33333300  0.66666700  0.46167229  1
  Gd  Gd2  1  0.66666700  0.33333300  0.46167229  1
  Gd  Gd3  1  0.33333300  0.66666700  0.96167229  1
  Gd  Gd4  1  0.00000000  0.00000000  0.99702571  1
  Gd  Gd5  1  0.00000000  0.00000000  0.49702571  1
  In  In6  1  0.66650897  0.66650897  0.72670272  1
  In  In7  1  0.00000000  0.33349103  0.72670272  1
  In  In8  1  0.33349103  0.33349103  0.22670272  1
  In  In9  1  1.00000000  0.66650897  0.22670272  1
  In  In10  1  0.33349103  0.00000000  0.72670272  1
  In  In11  1  0.66650897  1.00000000  0.22670272  1
  O  O12  1  0.69212986  0.69212986  0.89714311  1
  O  O13  1  1.00000000  0.30787014  0.89714311  1
  O  O14  1  0.30787014  0.30787014  0.39714311  1
  O  O15  1  0.00000000  0.69212986  0.39714311  1
  O  O16  1  0.30787014  1.00000000  0.89714311  1
  O  O17  1  0.69212986  0.00000000  0.39714311  1
  O  O18  1  0.64055933  0.64055933  0.55758691  1
  O  O19  1  0.00000000  0.35944067  0.55758691  1
  O  O20  1  0.35944067  0.35944067  0.05758691  1
  O  O21  1  1.00000000  0.64055933  0.05758691  1
  O  O22  1  0.35944067  0.00000000  0.55758691  1
  O  O23  1  0.64055933  1.00000000  0.05758691  1
  O  O24  1  0.00000000  0.00000000  0.69692451  1
  O  O25  1  0.00000000  0.00000000  0.19692451  1
  O  O26  1  0.66666700  0.33333300  0.75214851  1
  O  O27  1  0.33333300  0.66666700  0.25214851  1
  O  O28  1  0.66666700  0.33333300  0.25214851  1
  O  O29  1  0.33333300  0.66666700  0.75214851  1
