# generated using pymatgen
data_V9O22
_symmetry_space_group_name_H-M   'P 1'
_cell_length_a   5.55045520
_cell_length_b   9.76014396
_cell_length_c   14.16998492
_cell_angle_alpha   89.98552094
_cell_angle_beta   91.87002704
_cell_angle_gamma   90.00313992
_symmetry_Int_Tables_number   1
_chemical_formula_structural   V9O22
_chemical_formula_sum   'V18 O44'
_cell_volume   767.22517046
_cell_formula_units_Z   2
loop_
 _symmetry_equiv_pos_site_id
 _symmetry_equiv_pos_as_xyz
  1  'x, y, z'
loop_
 _atom_site_type_symbol
 _atom_site_label
 _atom_site_symmetry_multiplicity
 _atom_site_fract_x
 _atom_site_fract_y
 _atom_site_fract_z
 _atom_site_occupancy
  V  V0  1  0.01862132  0.01652324  0.63717199  1
  V  V1  1  0.00016284  0.32568520  0.28461104  1
  V  V2  1  0.03262605  0.01097384  0.14248773  1
  V  V3  1  0.23110427  0.77505008  0.99507156  1
  V  V4  1  0.26932637  0.27492058  0.50493145  1
  V  V5  1  0.47999042  0.51675408  0.86274656  1
  V  V6  1  0.46755720  0.51083147  0.35746404  1
  V  V7  1  0.49720391  0.17485608  0.78099436  1
  V  V8  1  0.49869579  0.99208465  0.49003768  1
  V  V9  1  0.53346777  0.49743350  0.64681014  1
  V  V10  1  0.49982507  0.82566466  0.21539128  1
  V  V11  1  0.51793027  0.48114378  0.14384536  1
  V  V12  1  0.75114235  0.72530830  0.50228980  1
  V  V13  1  0.74911618  0.22552627  0.99755333  1
  V  V14  1  0.96703026  0.99772128  0.85320079  1
  V  V15  1  0.00305082  0.67492006  0.71884958  1
  V  V16  1  0.98007588  0.98122947  0.35621704  1
  V  V17  1  0.99811335  0.49254062  0.01034595  1
  O  O18  1  0.00226268  0.85157410  0.74551255  1
  O  O19  1  0.01507332  0.66936256  0.94212949  1
  O  O20  1  0.01582895  0.16477504  0.57603746  1
  O  O21  1  0.01283514  0.31874864  0.40458644  1
  O  O22  1  0.02663316  0.84814880  0.08079387  1
  O  O23  1  0.24030962  0.90834364  0.91662969  1
  O  O24  1  0.24507639  0.43873021  0.91517469  1
  O  O25  1  0.23133440  0.08525314  0.74652537  1
  O  O26  1  0.23401516  0.91609350  0.24921296  1
  O  O27  1  0.24661394  0.06886039  0.41760295  1
  O  O28  1  0.25461336  0.93843766  0.58471004  1
  O  O29  1  0.26940963  0.58563216  0.75344274  1
  O  O30  1  0.26001558  0.40819152  0.58334215  1
  O  O31  1  0.24779216  0.58762622  0.40535667  1
  O  O32  1  0.25215106  0.08787853  0.09468821  1
  O  O33  1  0.25357512  0.56876362  0.08247044  1
  O  O34  1  0.26663382  0.41600200  0.25070156  1
  O  O35  1  0.48412130  0.66500462  0.92396604  1
  O  O36  1  0.47359078  0.34792810  0.41919568  1
  O  O37  1  0.48516994  0.16924590  0.55807031  1
  O  O38  1  0.49740795  0.35156225  0.75439565  1
  O  O39  1  0.50528613  0.17655373  0.90182493  1
  O  O40  1  0.48728613  0.81881698  0.09541941  1
  O  O41  1  0.49730495  0.83398578  0.43675896  1
  O  O42  1  0.52049265  0.65497260  0.58513126  1
  O  O43  1  0.50160203  0.65135972  0.24910404  1
  O  O44  1  0.51897870  0.33463735  0.08227763  1
  O  O45  1  0.73834933  0.58541880  0.75353257  1
  O  O46  1  0.74607085  0.42542176  0.92603621  1
  O  O47  1  0.75348950  0.91662827  0.90263417  1
  O  O48  1  0.74719402  0.41616522  0.59728267  1
  O  O49  1  0.73553888  0.59195948  0.41971079  1
  O  O50  1  0.75387330  0.92550271  0.57410350  1
  O  O51  1  0.73405128  0.41720408  0.25149911  1
  O  O52  1  0.74483565  0.06444882  0.41123943  1
  O  O53  1  0.76259935  0.08570589  0.74630779  1
  O  O54  1  0.75483542  0.56464204  0.08886186  1
  O  O55  1  0.76637514  0.91714117  0.24853095  1
  O  O56  1  0.76465914  0.09223439  0.08022336  1
  O  O57  1  0.97999751  0.15533865  0.91480598  1
  O  O58  1  0.99509669  0.67654467  0.59801646  1
  O  O59  1  0.98072186  0.83457923  0.41771333  1
  O  O60  1  0.99821603  0.15136806  0.25095990  1
  O  O61  1  0.00301087  0.33423283  0.06340107  1
