# generated using pymatgen
data_HoSiNi
_symmetry_space_group_name_H-M   'P 1'
_cell_length_a   4.16295551
_cell_length_b   6.86246161
_cell_length_c   7.12189711
_cell_angle_alpha   90.00000000
_cell_angle_beta   90.00000000
_cell_angle_gamma   90.00000000
_symmetry_Int_Tables_number   1
_chemical_formula_structural   HoSiNi
_chemical_formula_sum   'Ho4 Si4 Ni4'
_cell_volume   203.45922816
_cell_formula_units_Z   4
loop_
 _symmetry_equiv_pos_site_id
 _symmetry_equiv_pos_as_xyz
  1  'x, y, z'
loop_
 _atom_site_type_symbol
 _atom_site_label
 _atom_site_symmetry_multiplicity
 _atom_site_fract_x
 _atom_site_fract_y
 _atom_site_fract_z
 _atom_site_occupancy
  Ho  Ho0  1  0.75000000  0.01072070  0.30173980  1
  Ho  Ho1  1  0.25000000  0.98927930  0.69826020  1
  Ho  Ho2  1  0.25000000  0.48927930  0.80173980  1
  Ho  Ho3  1  0.75000000  0.51072070  0.19826020  1
  Si  Si4  1  0.75000000  0.69457664  0.59433416  1
  Si  Si5  1  0.25000000  0.30542336  0.40566584  1
  Si  Si6  1  0.25000000  0.80542336  0.09433416  1
  Si  Si7  1  0.75000000  0.19457664  0.90566584  1
  Ni  Ni8  1  0.75000000  0.82566398  0.92253581  1
  Ni  Ni9  1  0.25000000  0.17433602  0.07746419  1
  Ni  Ni10  1  0.25000000  0.67433602  0.42253581  1
  Ni  Ni11  1  0.75000000  0.32566398  0.57746419  1
