# generated using pymatgen
data_Ho4MgRh
_symmetry_space_group_name_H-M   'P 1'
_cell_length_a   9.66656003
_cell_length_b   9.66656003
_cell_length_c   9.66656003
_cell_angle_alpha   60.00000000
_cell_angle_beta   60.00000000
_cell_angle_gamma   60.00000000
_symmetry_Int_Tables_number   1
_chemical_formula_structural   Ho4MgRh
_chemical_formula_sum   'Ho16 Mg4 Rh4'
_cell_volume   638.70579922
_cell_formula_units_Z   4
loop_
 _symmetry_equiv_pos_site_id
 _symmetry_equiv_pos_as_xyz
  1  'x, y, z'
loop_
 _atom_site_type_symbol
 _atom_site_label
 _atom_site_symmetry_multiplicity
 _atom_site_fract_x
 _atom_site_fract_y
 _atom_site_fract_z
 _atom_site_occupancy
  Ho  Ho0  1  0.81249057  0.81249057  0.18750943  1
  Ho  Ho1  1  0.18750943  0.18750943  0.81249057  1
  Ho  Ho2  1  0.81249057  0.18750943  0.81249057  1
  Ho  Ho3  1  0.18750943  0.81249057  0.18750943  1
  Ho  Ho4  1  0.18750943  0.81249057  0.81249057  1
  Ho  Ho5  1  0.81249057  0.18750943  0.18750943  1
  Ho  Ho6  1  0.43522787  0.43522787  0.06477213  1
  Ho  Ho7  1  0.06477213  0.06477213  0.43522787  1
  Ho  Ho8  1  0.43522787  0.06477213  0.43522787  1
  Ho  Ho9  1  0.06477213  0.43522787  0.06477213  1
  Ho  Ho10  1  0.06477213  0.43522787  0.43522787  1
  Ho  Ho11  1  0.43522787  0.06477213  0.06477213  1
  Ho  Ho12  1  0.65321802  0.65321802  0.65321802  1
  Ho  Ho13  1  0.04034594  0.65321802  0.65321802  1
  Ho  Ho14  1  0.65321802  0.04034594  0.65321802  1
  Ho  Ho15  1  0.65321802  0.65321802  0.04034594  1
  Mg  Mg16  1  0.42055818  0.42055818  0.42055818  1
  Mg  Mg17  1  0.73832547  0.42055818  0.42055818  1
  Mg  Mg18  1  0.42055818  0.73832547  0.42055818  1
  Mg  Mg19  1  0.42055818  0.42055818  0.73832547  1
  Rh  Rh20  1  0.85846692  0.85846692  0.85846692  1
  Rh  Rh21  1  0.42459924  0.85846692  0.85846692  1
  Rh  Rh22  1  0.85846692  0.42459924  0.85846692  1
  Rh  Rh23  1  0.85846692  0.85846692  0.42459924  1
