# generated using pymatgen
data_NbV3O8
_symmetry_space_group_name_H-M   'P 1'
_cell_length_a   6.01498648
_cell_length_b   5.98191226
_cell_length_c   9.37338944
_cell_angle_alpha   88.24905494
_cell_angle_beta   90.87054960
_cell_angle_gamma   119.81827735
_symmetry_Int_Tables_number   1
_chemical_formula_structural   NbV3O8
_chemical_formula_sum   'Nb2 V6 O16'
_cell_volume   292.47686193
_cell_formula_units_Z   2
loop_
 _symmetry_equiv_pos_site_id
 _symmetry_equiv_pos_as_xyz
  1  'x, y, z'
loop_
 _atom_site_type_symbol
 _atom_site_label
 _atom_site_symmetry_multiplicity
 _atom_site_fract_x
 _atom_site_fract_y
 _atom_site_fract_z
 _atom_site_occupancy
  Nb  Nb0  1  0.34349143  0.67736845  0.49900680  1
  Nb  Nb1  1  0.65650857  0.33387702  0.99900680  1
  V  V2  1  0.16032045  0.81916783  0.21881152  1
  V  V3  1  0.16826706  0.33998495  0.20471287  1
  V  V4  1  0.65857446  0.82200486  0.21833183  1
  V  V5  1  0.34142554  0.16343140  0.71833183  1
  V  V6  1  0.83967955  0.65884638  0.71881152  1
  V  V7  1  0.83173294  0.17171889  0.70471287  1
  O  O8  1  0.17443393  0.82889917  0.60252890  1
  O  O9  1  0.04790972  0.53320500  0.33650171  1
  O  O10  1  0.33808530  0.68212351  0.10635206  1
  O  O11  1  0.99961950  0.99656780  0.30306097  1
  O  O12  1  0.00038050  0.99694930  0.80306097  1
  O  O13  1  0.18188320  0.34019481  0.59713965  1
  O  O14  1  0.47880428  0.95551714  0.33654307  1
  O  O15  1  0.48847857  0.53390460  0.33555026  1
  O  O16  1  0.33641405  0.15930037  0.09932234  1
  O  O17  1  0.66358595  0.82288732  0.59932234  1
  O  O18  1  0.52119572  0.47671286  0.83654307  1
  O  O19  1  0.51152143  0.04542603  0.83555026  1
  O  O20  1  0.66191470  0.34403821  0.60635206  1
  O  O21  1  0.82556607  0.65446624  0.10252890  1
  O  O22  1  0.95209028  0.48529528  0.83650071  1
  O  O23  1  0.81811680  0.15831260  0.09713965  1
