# generated using pymatgen
data_Ti4AlGe7
_symmetry_space_group_name_H-M   'P 1'
_cell_length_a   3.69936600
_cell_length_b   3.69936600
_cell_length_c   14.41409840
_cell_angle_alpha   82.62721566
_cell_angle_beta   82.62721566
_cell_angle_gamma   90.00000000
_symmetry_Int_Tables_number   1
_chemical_formula_structural   Ti4AlGe7
_chemical_formula_sum   'Ti4 Al1 Ge7'
_cell_volume   193.98585243
_cell_formula_units_Z   1
loop_
 _symmetry_equiv_pos_site_id
 _symmetry_equiv_pos_as_xyz
  1  'x, y, z'
loop_
 _atom_site_type_symbol
 _atom_site_label
 _atom_site_symmetry_multiplicity
 _atom_site_fract_x
 _atom_site_fract_y
 _atom_site_fract_z
 _atom_site_occupancy
  Ti  Ti0  1  0.29973150  0.54973150  0.40053699  1
  Ti  Ti1  1  0.05206985  0.80206985  0.89586030  1
  Ti  Ti2  1  0.69793015  0.44793015  0.60413970  1
  Ti  Ti3  1  0.95026850  0.20026850  0.09946301  1
  Al  Al4  1  0.87500000  0.62500000  0.25000000  1
  Ge  Ge5  1  0.46621363  0.71621363  0.06757274  1
  Ge  Ge6  1  0.21863420  0.96863420  0.56273161  1
  Ge  Ge7  1  0.53136580  0.28136580  0.93726839  1
  Ge  Ge8  1  0.78378637  0.03378637  0.43242726  1
  Ge  Ge9  1  0.62500000  0.87500000  0.75000000  1
  Ge  Ge10  1  0.37500000  0.12500000  0.25000000  1
  Ge  Ge11  1  0.12500000  0.37500000  0.75000000  1
