# generated using pymatgen
data_TbGa2Co3
_symmetry_space_group_name_H-M   'P 1'
_cell_length_a   4.06968343
_cell_length_b   8.72103021
_cell_length_c   8.72103015
_cell_angle_alpha   60.07593792
_cell_angle_beta   90.00000000
_cell_angle_gamma   90.00000000
_symmetry_Int_Tables_number   1
_chemical_formula_structural   TbGa2Co3
_chemical_formula_sum   'Tb3 Ga6 Co9'
_cell_volume   268.26168791
_cell_formula_units_Z   3
loop_
 _symmetry_equiv_pos_site_id
 _symmetry_equiv_pos_as_xyz
  1  'x, y, z'
loop_
 _atom_site_type_symbol
 _atom_site_label
 _atom_site_symmetry_multiplicity
 _atom_site_fract_x
 _atom_site_fract_y
 _atom_site_fract_z
 _atom_site_occupancy
  Tb  Tb0  1  0.50000000  0.33340790  0.33301827  1
  Tb  Tb1  1  0.50000000  0.66698173  0.66659210  1
  Tb  Tb2  1  -0.00000000  0.00009663  -0.00009663  1
  Ga  Ga3  1  0.00000000  0.49596539  0.50403461  1
  Ga  Ga4  1  0.00000000  0.50387763  0.99982883  1
  Ga  Ga5  1  -0.00000000  0.00017117  0.49612237  1
  Ga  Ga6  1  0.50000000  0.72834876  0.27165124  1
  Ga  Ga7  1  0.50000000  0.27137200  -0.00006562  1
  Ga  Ga8  1  0.50000000  0.00006562  0.72862800  1
  Co  Co9  1  0.00000000  0.18060360  0.18007306  1
  Co  Co10  1  0.00000000  0.18028252  0.63935592  1
  Co  Co11  1  0.00000000  0.63928355  0.18039679  1
  Co  Co12  1  0.00000000  0.81992694  0.81939640  1
  Co  Co13  1  -0.00000000  0.36064408  0.81971748  1
  Co  Co14  1  0.00000000  0.81960321  0.36071645  1
  Co  Co15  1  0.50000000  0.29812562  0.70187438  1
  Co  Co16  1  0.50000000  0.70161163  0.00046797  1
  Co  Co17  1  0.50000000  0.99953203  0.29838837  1
