# generated using pymatgen
data_Zn9Ga3Mo2
_symmetry_space_group_name_H-M   'P 1'
_cell_length_a   5.49596076
_cell_length_b   5.49560460
_cell_length_c   8.82428713
_cell_angle_alpha   90.00432980
_cell_angle_beta   90.00360776
_cell_angle_gamma   59.98709362
_symmetry_Int_Tables_number   1
_chemical_formula_structural   Zn9Ga3Mo2
_chemical_formula_sum   'Zn9 Ga3 Mo2'
_cell_volume   230.78781033
_cell_formula_units_Z   1
loop_
 _symmetry_equiv_pos_site_id
 _symmetry_equiv_pos_as_xyz
  1  'x, y, z'
loop_
 _atom_site_type_symbol
 _atom_site_label
 _atom_site_symmetry_multiplicity
 _atom_site_fract_x
 _atom_site_fract_y
 _atom_site_fract_z
 _atom_site_occupancy
  Zn  Zn0  1  0.50000000  -0.00000000  0.00000000  1
  Zn  Zn1  1  0.00000000  0.50000000  0.00000000  1
  Zn  Zn2  1  0.50000000  0.50000000  0.00000000  1
  Zn  Zn3  1  0.15984519  0.68030186  0.75525354  1
  Zn  Zn4  1  0.68026654  0.15987021  0.75527115  1
  Zn  Zn5  1  0.15983939  0.15984921  0.75515506  1
  Zn  Zn6  1  0.84015481  0.31969814  0.24474646  1
  Zn  Zn7  1  0.31973346  0.84012979  0.24472885  1
  Zn  Zn8  1  0.84016061  0.84015079  0.24484494  1
  Ga  Ga9  1  0.50000000  -0.00000000  0.50000000  1
  Ga  Ga10  1  0.00000000  0.50000000  0.50000000  1
  Ga  Ga11  1  0.50000000  0.50000000  0.50000000  1
  Mo  Mo12  1  0.33340682  0.33334861  0.25993567  1
  Mo  Mo13  1  0.66659318  0.66665139  0.74006433  1
