# generated using pymatgen
data_Zr4C3N
_symmetry_space_group_name_H-M   'P 1'
_cell_length_a   3.32682342
_cell_length_b   3.32682342
_cell_length_c   11.01884310
_cell_angle_alpha   90.00000000
_cell_angle_beta   81.31739835
_cell_angle_gamma   120.00000000
_symmetry_Int_Tables_number   1
_chemical_formula_structural   Zr4C3N
_chemical_formula_sum   'Zr4 C3 N1'
_cell_volume   103.99816686
_cell_formula_units_Z   1
loop_
 _symmetry_equiv_pos_site_id
 _symmetry_equiv_pos_as_xyz
  1  'x, y, z'
loop_
 _atom_site_type_symbol
 _atom_site_label
 _atom_site_symmetry_multiplicity
 _atom_site_fract_x
 _atom_site_fract_y
 _atom_site_fract_z
 _atom_site_occupancy
  Zr  Zr0  1  0.99900121  0.49950060  0.50149819  1
  Zr  Zr1  1  0.50099879  0.75049940  0.74850181  1
  Zr  Zr2  1  0.00213809  0.00106904  0.99679287  1
  Zr  Zr3  1  0.49786191  0.24893096  0.25320713  1
  C  C4  1  0.75311045  0.87655522  0.37033433  1
  C  C5  1  0.25000000  0.12500000  0.62500000  1
  C  C6  1  0.74688955  0.37344478  0.87966567  1
  N  N7  1  0.25000000  0.62500000  0.12500000  1
