# generated using pymatgen
data_TbEr4Ni10(B2C)5
_symmetry_space_group_name_H-M   'P 1'
_cell_length_a   3.53021702
_cell_length_b   5.80270537
_cell_length_c   16.85956563
_cell_angle_alpha   88.38669582
_cell_angle_beta   83.99041819
_cell_angle_gamma   72.29073135
_symmetry_Int_Tables_number   1
_chemical_formula_structural   TbEr4Ni10(B2C)5
_chemical_formula_sum   'Tb1 Er4 Ni10 B10 C5'
_cell_volume   327.18839652
_cell_formula_units_Z   1
loop_
 _symmetry_equiv_pos_site_id
 _symmetry_equiv_pos_as_xyz
  1  'x, y, z'
loop_
 _atom_site_type_symbol
 _atom_site_label
 _atom_site_symmetry_multiplicity
 _atom_site_fract_x
 _atom_site_fract_y
 _atom_site_fract_z
 _atom_site_occupancy
  Tb  Tb0  1  0.00000000  -0.00000000  0.00000000  1
  Er  Er1  1  0.00001072  0.79964022  0.20033833  1
  Er  Er2  1  0.00013180  0.59983924  0.39989716  1
  Er  Er3  1  0.99986820  0.40016076  0.60010284  1
  Er  Er4  1  -0.00001072  0.20035978  0.79966167  1
  Ni  Ni5  1  0.25038946  0.44904617  0.05017492  1
  Ni  Ni6  1  0.25057942  0.64946609  0.84937507  1
  Ni  Ni7  1  0.25018330  0.84969757  0.64993582  1
  Ni  Ni8  1  0.25019674  0.04969043  0.44991609  1
  Ni  Ni9  1  0.25010583  0.24967651  0.25011183  1
  Ni  Ni10  1  0.74961054  0.55095383  0.94982508  1
  Ni  Ni11  1  0.74989417  0.75032349  0.74988817  1
  Ni  Ni12  1  0.74980326  0.95030957  0.55008391  1
  Ni  Ni13  1  0.74981670  0.15030243  0.35006418  1
  Ni  Ni14  1  0.74942058  0.35053391  0.15062493  1
  B  B15  1  0.35704338  0.35747943  0.92843381  1
  B  B16  1  0.35723463  0.55700994  0.72852080  1
  B  B17  1  0.35724301  0.75685412  0.52865986  1
  B  B18  1  0.35721448  0.95684570  0.32872533  1
  B  B19  1  0.35719381  0.15668096  0.12893143  1
  B  B20  1  0.64295662  0.64252057  0.07156619  1
  B  B21  1  0.64280619  0.84331904  0.87106857  1
  B  B22  1  0.64278552  0.04315430  0.67127467  1
  B  B23  1  0.64275699  0.24314588  0.47134014  1
  B  B24  1  0.64276537  0.44299006  0.27147920  1
  C  C25  1  0.49991883  0.10200935  0.89815300  1
  C  C26  1  0.50001573  0.30008776  0.69988078  1
  C  C27  1  0.50000000  0.50000000  0.50000000  1
  C  C28  1  0.49998427  0.69991224  0.30011922  1
  C  C29  1  0.50008117  0.89799065  0.10184700  1
