# generated using pymatgen
data_V5Si6W5
_symmetry_space_group_name_H-M   'P 1'
_cell_length_a   4.95932860
_cell_length_b   7.15123079
_cell_length_c   7.15900327
_cell_angle_alpha   96.63941186
_cell_angle_beta   110.26545100
_cell_angle_gamma   69.71155440
_symmetry_Int_Tables_number   1
_chemical_formula_structural   V5Si6W5
_chemical_formula_sum   'V5 Si6 W5'
_cell_volume   223.39970611
_cell_formula_units_Z   1
loop_
 _symmetry_equiv_pos_site_id
 _symmetry_equiv_pos_as_xyz
  1  'x, y, z'
loop_
 _atom_site_type_symbol
 _atom_site_label
 _atom_site_symmetry_multiplicity
 _atom_site_fract_x
 _atom_site_fract_y
 _atom_site_fract_z
 _atom_site_occupancy
  V  V0  1  0.42718974  0.84956706  0.70394654  1
  V  V1  1  0.57324867  0.15015916  0.29665649  1
  V  V2  1  0.92630792  0.29839765  0.15101349  1
  V  V3  1  0.07134129  0.70395131  0.84663389  1
  V  V4  1  0.72525353  0.70144427  0.15195133  1
  Si  Si5  1  0.25471381  0.99646369  0.00163374  1
  Si  Si6  1  0.75045624  0.99646369  0.00163374  1
  Si  Si7  1  0.33143502  0.49772682  0.16059687  1
  Si  Si8  1  0.66766221  0.50779174  0.84311616  1
  Si  Si9  1  0.82971518  0.83871024  0.49814059  1
  Si  Si10  1  0.16807142  0.16020409  0.49634692  1
  W  W11  1  0.27560041  0.29914245  0.85034328  1
  W  W12  1  0.77597376  0.14990726  0.70185478  1
  W  W13  1  0.22435004  0.84934173  0.29804181  1
  W  W14  1  0.24931071  0.50036442  0.49904518  1
  W  W15  1  0.74937005  0.50036442  0.49904518  1
