# generated using pymatgen
data_LiNi3P4O15
_symmetry_space_group_name_H-M   'P 1'
_cell_length_a   17.94603053
_cell_length_b   10.43280514
_cell_length_c   6.42470159
_cell_angle_alpha   90.00000000
_cell_angle_beta   89.45339793
_cell_angle_gamma   90.00000000
_symmetry_Int_Tables_number   1
_chemical_formula_structural   LiNi3P4O15
_chemical_formula_sum   'Li4 Ni12 P16 O60'
_cell_volume   1202.82569061
_cell_formula_units_Z   4
loop_
 _symmetry_equiv_pos_site_id
 _symmetry_equiv_pos_as_xyz
  1  'x, y, z'
loop_
 _atom_site_type_symbol
 _atom_site_label
 _atom_site_symmetry_multiplicity
 _atom_site_fract_x
 _atom_site_fract_y
 _atom_site_fract_z
 _atom_site_occupancy
  Li  Li0  1  0.50071225  0.02874223  0.73140967  1
  Li  Li1  1  0.00071225  0.47125777  0.73140967  1
  Li  Li2  1  0.40379771  0.67220898  0.32762424  1
  Li  Li3  1  0.90379771  0.82779102  0.32762424  1
  Ni  Ni4  1  0.86430890  0.49284856  0.98195068  1
  Ni  Ni5  1  0.63530145  0.99665797  0.49657968  1
  Ni  Ni6  1  0.17085597  0.99635442  0.50668948  1
  Ni  Ni7  1  0.36430890  0.00715144  0.98195068  1
  Ni  Ni8  1  0.67085597  0.50364558  0.50668948  1
  Ni  Ni9  1  0.13530145  0.50334203  0.49657968  1
  Ni  Ni10  1  0.32877802  0.49727833  0.00571738  1
  Ni  Ni11  1  0.75691665  0.74326013  0.72748725  1
  Ni  Ni12  1  0.24354442  0.25740642  0.22776041  1
  Ni  Ni13  1  0.74354442  0.24259358  0.22776041  1
  Ni  Ni14  1  0.25691665  0.75673987  0.72748725  1
  Ni  Ni15  1  0.82877802  0.00272167  0.00571738  1
  P  P16  1  0.67588099  0.98238674  0.99532986  1
  P  P17  1  0.71183352  0.50412104  0.00344941  1
  P  P18  1  0.04967923  0.77100248  0.55564225  1
  P  P19  1  0.32313402  0.01803522  0.48600727  1
  P  P20  1  0.07194587  0.23291950  0.37147688  1
  P  P21  1  0.28784944  0.49626650  0.50833914  1
  P  P22  1  0.54967923  0.72899752  0.55564225  1
  P  P23  1  0.92577449  0.76581010  0.85020528  1
  P  P24  1  0.45051685  0.27306576  0.05314747  1
  P  P25  1  0.95051685  0.22693424  0.05314747  1
  P  P26  1  0.17588099  0.51761326  0.99532986  1
  P  P27  1  0.57194587  0.26708050  0.37147688  1
  P  P28  1  0.78784944  0.00373350  0.50833914  1
  P  P29  1  0.42577449  0.73418990  0.85020528  1
  P  P30  1  0.82313402  0.48196478  0.48600727  1
  P  P31  1  0.21183352  0.99587896  0.00344941  1
  O  O32  1  0.62304992  0.00757915  0.81391967  1
  O  O33  1  0.76746382  0.59847470  0.52222084  1
  O  O34  1  0.37452740  0.04113638  0.67092633  1
  O  O35  1  0.49154649  0.29714398  0.26968764  1
  O  O36  1  0.00631773  0.81210597  0.76868574  1
  O  O37  1  0.50696656  0.67550053  0.37426286  1
  O  O38  1  0.63027077  0.95748780  0.19187018  1
  O  O39  1  0.23012712  0.38811394  0.45699676  1
  O  O40  1  0.56001446  0.14325232  0.49582922  1
  O  O41  1  0.95676732  0.36987628  0.99593628  1
  O  O42  1  0.26742502  0.11270094  0.02890477  1
  O  O43  1  0.73276004  0.09803595  0.01858693  1
  O  O44  1  0.23377905  0.62877152  0.95554290  1
  O  O45  1  0.58655689  0.38369080  0.50981770  1
  O  O46  1  0.49466565  0.33915722  0.87564782  1
  O  O47  1  0.73180408  0.88760611  0.54023561  1
  O  O48  1  0.26233379  0.12601115  0.45796860  1
  O  O49  1  0.26746382  0.90152530  0.52222084  1
  O  O50  1  0.37160010  0.32071347  0.08684578  1
  O  O51  1  0.33558423  0.46705055  0.69737037  1
  O  O52  1  0.13027077  0.54251220  0.19187018  1
  O  O53  1  0.27022997  0.88638272  0.95447173  1
  O  O54  1  0.87452740  0.45886362  0.67092633  1
  O  O55  1  0.43942812  0.86882158  0.93976967  1
  O  O56  1  0.37063010  0.73271722  0.66838309  1
  O  O57  1  0.12304992  0.49242085  0.81391967  1
  O  O58  1  0.83558423  0.03294945  0.69737037  1
  O  O59  1  0.62884213  0.67926562  0.58102504  1
  O  O60  1  0.23276004  0.40196405  0.01858693  1
  O  O61  1  0.87063010  0.76728278  0.66838309  1
  O  O62  1  0.45676732  0.13012372  0.99593628  1
  O  O63  1  0.40379656  0.63806834  0.02009683  1
  O  O64  1  0.73012712  0.11188606  0.45699676  1
  O  O65  1  0.66493330  0.53243957  0.19689824  1
  O  O66  1  0.87160010  0.17928653  0.08684578  1
  O  O67  1  0.87231515  0.50476219  0.29399814  1
  O  O68  1  0.99154649  0.20285602  0.26968764  1
  O  O69  1  0.23180408  0.61239389  0.54023561  1
  O  O70  1  0.63096079  0.25723894  0.20008618  1
  O  O71  1  0.76233379  0.37398885  0.45796860  1
  O  O72  1  0.83848674  0.97515708  0.32131683  1
  O  O73  1  0.33848674  0.52484292  0.32131683  1
  O  O74  1  0.99466565  0.16084278  0.87564782  1
  O  O75  1  0.50631773  0.68789403  0.76868574  1
  O  O76  1  0.16089865  0.01956959  0.81921369  1
  O  O77  1  0.06001446  0.35674768  0.49582922  1
  O  O78  1  0.66089865  0.48043041  0.81921369  1
  O  O79  1  0.90379656  0.86193166  0.02009683  1
  O  O80  1  0.13096079  0.24276106  0.20008618  1
  O  O81  1  0.77022997  0.61361728  0.95447173  1
  O  O82  1  0.16493330  0.96756043  0.19689824  1
  O  O83  1  0.08655689  0.11630920  0.50981770  1
  O  O84  1  0.76742502  0.38729906  0.02890477  1
  O  O85  1  0.00696656  0.82449947  0.37426286  1
  O  O86  1  0.73377905  0.87122848  0.95554290  1
  O  O87  1  0.93942812  0.63117842  0.93976967  1
  O  O88  1  0.54787626  0.87709055  0.54686520  1
  O  O89  1  0.04787626  0.62290945  0.54686520  1
  O  O90  1  0.37231515  0.99523781  0.29399814  1
  O  O91  1  0.12884213  0.82073438  0.58102504  1
