# generated using pymatgen
data_Sr4MnRuO8
_symmetry_space_group_name_H-M   'P 1'
_cell_length_a   5.65674504
_cell_length_b   5.65633429
_cell_length_c   6.85502911
_cell_angle_alpha   90.00000000
_cell_angle_beta   65.63184687
_cell_angle_gamma   90.00000000
_symmetry_Int_Tables_number   1
_chemical_formula_structural   Sr4MnRuO8
_chemical_formula_sum   'Sr4 Mn1 Ru1 O8'
_cell_volume   199.79653025
_cell_formula_units_Z   1
loop_
 _symmetry_equiv_pos_site_id
 _symmetry_equiv_pos_as_xyz
  1  'x, y, z'
loop_
 _atom_site_type_symbol
 _atom_site_label
 _atom_site_symmetry_multiplicity
 _atom_site_fract_x
 _atom_site_fract_y
 _atom_site_fract_z
 _atom_site_occupancy
  Sr  Sr0  1  0.35764221  -0.00000000  0.28471557  1
  Sr  Sr1  1  0.85552386  0.50000000  0.28895227  1
  Sr  Sr2  1  0.14447614  0.50000000  0.71104773  1
  Sr  Sr3  1  0.64235779  -0.00000000  0.71528443  1
  Mn  Mn4  1  0.50000000  0.50000000  0.00000000  1
  Ru  Ru5  1  0.00000000  -0.00000000  0.00000000  1
  O  O6  1  0.24519587  0.24520627  0.00000000  1
  O  O7  1  0.75480413  0.75479373  0.00000000  1
  O  O8  1  0.75480413  0.24520627  0.00000000  1
  O  O9  1  0.24519587  0.75479373  0.00000000  1
  O  O10  1  0.16171431  -0.00000000  0.67657139  1
  O  O11  1  0.65740939  0.50000000  0.68518121  1
  O  O12  1  0.34259061  0.50000000  0.31481879  1
  O  O13  1  0.83828569  -0.00000000  0.32342861  1
