# generated using pymatgen
data_SrLaCoRuO6
_symmetry_space_group_name_H-M   'P 1'
_cell_length_a   5.65966254
_cell_length_b   5.65065844
_cell_length_c   7.94216348
_cell_angle_alpha   90.13457521
_cell_angle_beta   90.00000000
_cell_angle_gamma   90.00000000
_symmetry_Int_Tables_number   1
_chemical_formula_structural   SrLaCoRuO6
_chemical_formula_sum   'Sr2 La2 Co2 Ru2 O12'
_cell_volume   253.99619899
_cell_formula_units_Z   2
loop_
 _symmetry_equiv_pos_site_id
 _symmetry_equiv_pos_as_xyz
  1  'x, y, z'
loop_
 _atom_site_type_symbol
 _atom_site_label
 _atom_site_symmetry_multiplicity
 _atom_site_fract_x
 _atom_site_fract_y
 _atom_site_fract_z
 _atom_site_occupancy
  Sr  Sr0  1  0.46944265  0.50534451  0.74941232  1
  Sr  Sr1  1  0.03055735  0.00534451  0.24941232  1
  La  La2  1  0.53875555  0.48997383  0.25202359  1
  La  La3  1  0.96124445  0.98997383  0.75202359  1
  Co  Co4  1  0.49725294  0.00014823  -0.00001859  1
  Co  Co5  1  0.00274706  0.50014823  0.49998141  1
  Ru  Ru6  1  0.50001375  0.00045221  0.50011477  1
  Ru  Ru7  1  -0.00001375  0.50045221  0.00011477  1
  O  O8  1  0.01126135  0.41705897  0.75508061  1
  O  O9  1  0.48873865  0.91705897  0.25508061  1
  O  O10  1  0.98106458  0.56443267  0.24485770  1
  O  O11  1  0.51893542  0.06443267  0.74485770  1
  O  O12  1  0.71669396  0.72794360  0.53637482  1
  O  O13  1  0.78330604  0.22794360  0.03637482  1
  O  O14  1  0.29400405  0.28183051  0.45863650  1
  O  O15  1  0.20599595  0.78183051  0.95863650  1
  O  O16  1  0.21679128  0.79694524  0.54148093  1
  O  O17  1  0.28320872  0.29694524  0.04148093  1
  O  O18  1  0.77175397  0.21587023  0.46203735  1
  O  O19  1  0.72824603  0.71587023  0.96203735  1
