# generated using pymatgen
data_Pr6Mg(GeS7)2
_symmetry_space_group_name_H-M   'P 1'
_cell_length_a   5.84403306
_cell_length_b   10.29507915
_cell_length_c   10.29518481
_cell_angle_alpha   59.99815114
_cell_angle_beta   89.99975867
_cell_angle_gamma   89.99842713
_symmetry_Int_Tables_number   1
_chemical_formula_structural   Pr6Mg(GeS7)2
_chemical_formula_sum   'Pr6 Mg1 Ge2 S14'
_cell_volume   536.41268766
_cell_formula_units_Z   1
loop_
 _symmetry_equiv_pos_site_id
 _symmetry_equiv_pos_as_xyz
  1  'x, y, z'
loop_
 _atom_site_type_symbol
 _atom_site_label
 _atom_site_symmetry_multiplicity
 _atom_site_fract_x
 _atom_site_fract_y
 _atom_site_fract_z
 _atom_site_occupancy
  Pr  Pr0  1  0.75419919  0.12916030  0.22956412  1
  Pr  Pr1  1  0.75421890  0.64129430  0.12913872  1
  Pr  Pr2  1  0.75420881  0.22956593  0.64127607  1
  Pr  Pr3  1  0.25066339  0.87116624  0.77254748  1
  Pr  Pr4  1  0.25066994  0.35626725  0.87117096  1
  Pr  Pr5  1  0.25067289  0.77254678  0.35628970  1
  Mg  Mg6  1  0.53290524  0.00000325  -0.00000066  1
  Ge  Ge7  1  0.17049732  0.33334661  0.33332661  1
  Ge  Ge8  1  0.66586423  0.66665607  0.66667208  1
  S  S9  1  0.76455500  0.24773364  0.91119584  1
  S  S10  1  0.76454865  0.84108397  0.24773242  1
  S  S11  1  0.76455614  0.91119144  0.84107307  1
  S  S12  1  0.28852457  0.75342360  0.09073194  1
  S  S13  1  0.28853331  0.15584350  0.75341646  1
  S  S14  1  0.28851779  0.09072886  0.15585015  1
  S  S15  1  0.54580393  0.33335574  0.33331931  1
  S  S16  1  0.04369379  0.66664562  0.66667780  1
  S  S17  1  0.01766430  0.48057982  0.41418604  1
  S  S18  1  0.01767998  0.10528701  0.48054701  1
  S  S19  1  0.01766299  0.41419394  0.10524103  1
  S  S20  1  0.51390815  0.52072858  0.58472675  1
  S  S21  1  0.51393907  0.89447600  0.52077636  1
  S  S22  1  0.51391242  0.58472156  0.89454073  1
