# generated using pymatgen
data_RbMgCrF6
_symmetry_space_group_name_H-M   'P 1'
_cell_length_a   7.34984871
_cell_length_b   7.31358776
_cell_length_c   7.34853049
_cell_angle_alpha   90.00000000
_cell_angle_beta   60.00593279
_cell_angle_gamma   119.83693277
_symmetry_Int_Tables_number   1
_chemical_formula_structural   RbMgCrF6
_chemical_formula_sum   'Rb2 Mg2 Cr2 F12'
_cell_volume   280.02652670
_cell_formula_units_Z   2
loop_
 _symmetry_equiv_pos_site_id
 _symmetry_equiv_pos_as_xyz
  1  'x, y, z'
loop_
 _atom_site_type_symbol
 _atom_site_label
 _atom_site_symmetry_multiplicity
 _atom_site_fract_x
 _atom_site_fract_y
 _atom_site_fract_z
 _atom_site_occupancy
  Rb  Rb0  1  0.75758592  0.37879296  0.37120704  1
  Rb  Rb1  1  0.24241408  0.62120704  0.62879296  1
  Mg  Mg2  1  0.50000000  0.50000000  -0.00000000  1
  Mg  Mg3  1  0.50000000  0.00000000  -0.00000000  1
  Cr  Cr4  1  0.00000000  0.00000000  0.50000000  1
  Cr  Cr5  1  0.00000000  0.00000000  -0.00000000  1
  F  F6  1  0.86447125  0.93223562  0.31776438  1
  F  F7  1  0.63990504  0.31995252  0.93004748  1
  F  F8  1  0.24555599  0.93186369  0.92844325  1
  F  F9  1  0.24555599  0.31369230  0.32600076  1
  F  F10  1  0.24555599  0.31369230  0.92844325  1
  F  F11  1  0.24555599  0.93186369  0.32600076  1
  F  F12  1  0.13552875  0.06776438  0.68223562  1
  F  F13  1  0.36009496  0.68004748  0.06995252  1
  F  F14  1  0.75444401  0.06813631  0.07155675  1
  F  F15  1  0.75444401  0.68630770  0.67399924  1
  F  F16  1  0.75444401  0.68630770  0.07155675  1
  F  F17  1  0.75444401  0.06813631  0.67399924  1
