# generated using pymatgen
data_Tb2Ga3Co14
_symmetry_space_group_name_H-M   'P 1'
_cell_length_a   6.35517597
_cell_length_b   6.35517597
_cell_length_c   6.35517617
_cell_angle_alpha   82.68322757
_cell_angle_beta   82.68322757
_cell_angle_gamma   82.68323453
_symmetry_Int_Tables_number   1
_chemical_formula_structural   Tb2Ga3Co14
_chemical_formula_sum   'Tb2 Ga3 Co14'
_cell_volume   250.89502532
_cell_formula_units_Z   1
loop_
 _symmetry_equiv_pos_site_id
 _symmetry_equiv_pos_as_xyz
  1  'x, y, z'
loop_
 _atom_site_type_symbol
 _atom_site_label
 _atom_site_symmetry_multiplicity
 _atom_site_fract_x
 _atom_site_fract_y
 _atom_site_fract_z
 _atom_site_occupancy
  Tb  Tb0  1  0.65907718  0.65907718  0.65907718  1
  Tb  Tb1  1  0.33361732  0.33361732  0.33361732  1
  Ga  Ga2  1  0.15494039  0.65281159  0.65281159  1
  Ga  Ga3  1  0.65281159  0.65281159  0.15494039  1
  Ga  Ga4  1  0.65281159  0.15494039  0.65281159  1
  Co  Co5  1  0.90730459  0.90730459  0.90730459  1
  Co  Co6  1  0.09559278  0.09559278  0.09559278  1
  Co  Co7  1  0.00454235  0.00454235  0.49589501  1
  Co  Co8  1  0.00454235  0.49589501  0.00454235  1
  Co  Co9  1  0.49589501  0.00454235  0.00454235  1
  Co  Co10  1  0.28698586  0.71419356  0.00094507  1
  Co  Co11  1  0.71419356  0.00094507  0.28698586  1
  Co  Co12  1  0.00094507  0.28698586  0.71419356  1
  Co  Co13  1  0.28698586  0.00094507  0.71419356  1
  Co  Co14  1  0.00094507  0.71419356  0.28698586  1
  Co  Co15  1  0.71419356  0.28698586  0.00094507  1
  Co  Co16  1  0.85502009  0.33979789  0.33979789  1
  Co  Co17  1  0.33979789  0.33979789  0.85502009  1
  Co  Co18  1  0.33979789  0.85502009  0.33979789  1
