# generated using pymatgen
data_ScGaCu
_symmetry_space_group_name_H-M   'P 1'
_cell_length_a   4.23604251
_cell_length_b   5.38198300
_cell_length_c   5.32831902
_cell_angle_alpha   93.01392250
_cell_angle_beta   113.42215835
_cell_angle_gamma   66.82509666
_symmetry_Int_Tables_number   1
_chemical_formula_structural   ScGaCu
_chemical_formula_sum   'Sc2 Ga2 Cu2'
_cell_volume   101.69301233
_cell_formula_units_Z   2
loop_
 _symmetry_equiv_pos_site_id
 _symmetry_equiv_pos_as_xyz
  1  'x, y, z'
loop_
 _atom_site_type_symbol
 _atom_site_label
 _atom_site_symmetry_multiplicity
 _atom_site_fract_x
 _atom_site_fract_y
 _atom_site_fract_z
 _atom_site_occupancy
  Sc  Sc0  1  0.75572786  0.71775803  0.22921376  1
  Sc  Sc1  1  0.24427214  0.28224197  0.77078624  1
  Ga  Ga2  1  0.03870871  0.13073291  0.20815033  1
  Ga  Ga3  1  0.96129129  0.86926709  0.79184967  1
  Cu  Cu4  1  0.53491963  0.29872819  0.36856744  1
  Cu  Cu5  1  0.46508037  0.70127181  0.63143256  1
