# generated using pymatgen
data_Sn(TePd3)2
_symmetry_space_group_name_H-M   'P 1'
_cell_length_a   4.08540404
_cell_length_b   4.08540404
_cell_length_c   10.88405354
_cell_angle_alpha   79.18266706
_cell_angle_beta   79.18266706
_cell_angle_gamma   90.00000000
_symmetry_Int_Tables_number   1
_chemical_formula_structural   Sn(TePd3)2
_chemical_formula_sum   'Sn1 Te2 Pd6'
_cell_volume   175.14506837
_cell_formula_units_Z   1
loop_
 _symmetry_equiv_pos_site_id
 _symmetry_equiv_pos_as_xyz
  1  'x, y, z'
loop_
 _atom_site_type_symbol
 _atom_site_label
 _atom_site_symmetry_multiplicity
 _atom_site_fract_x
 _atom_site_fract_y
 _atom_site_fract_z
 _atom_site_occupancy
  Sn  Sn0  1  0.00019903  0.00019903  0.99960194  1
  Te  Te1  1  0.32313496  0.32313496  0.35373008  1
  Te  Te2  1  0.68174721  0.68174721  0.63650559  1
  Pd  Pd3  1  0.59358921  0.09358921  0.81282157  1
  Pd  Pd4  1  0.09358921  0.59358921  0.81282157  1
  Pd  Pd5  1  0.40415641  0.90415641  0.19168718  1
  Pd  Pd6  1  0.90415641  0.40415641  0.19168718  1
  Pd  Pd7  1  0.49875902  0.49875902  0.00248197  1
  Pd  Pd8  1  0.19804854  0.19804854  0.60390293  1
