# generated using pymatgen
data_LaAl2Ag3
_symmetry_space_group_name_H-M   'P 1'
_cell_length_a   4.57215172
_cell_length_b   5.52753247
_cell_length_c   5.60920734
_cell_angle_alpha   119.51948868
_cell_angle_beta   90.00000000
_cell_angle_gamma   90.00000000
_symmetry_Int_Tables_number   1
_chemical_formula_structural   LaAl2Ag3
_chemical_formula_sum   'La1 Al2 Ag3'
_cell_volume   123.35779437
_cell_formula_units_Z   1
loop_
 _symmetry_equiv_pos_site_id
 _symmetry_equiv_pos_as_xyz
  1  'x, y, z'
loop_
 _atom_site_type_symbol
 _atom_site_label
 _atom_site_symmetry_multiplicity
 _atom_site_fract_x
 _atom_site_fract_y
 _atom_site_fract_z
 _atom_site_occupancy
  La  La0  1  -0.00000000  0.00000740  -0.00000000  1
  Al  Al1  1  0.50000000  0.49997010  0.50000146  1
  Al  Al2  1  0.50000000  0.99996864  0.49999854  1
  Ag  Ag3  1  0.00000000  0.32488805  0.64980143  1
  Ag  Ag4  1  0.00000000  0.67508662  0.35019857  1
  Ag  Ag5  1  0.50000000  0.49997920  0.00000000  1
