# generated using pymatgen
data_Pr2CuSi3Rh2
_symmetry_space_group_name_H-M   'P 1'
_cell_length_a   4.17258196
_cell_length_b   4.11201150
_cell_length_c   8.86755588
_cell_angle_alpha   90.00000000
_cell_angle_beta   76.39232079
_cell_angle_gamma   90.00000000
_symmetry_Int_Tables_number   1
_chemical_formula_structural   Pr2CuSi3Rh2
_chemical_formula_sum   'Pr2 Cu1 Si3 Rh2'
_cell_volume   147.87606447
_cell_formula_units_Z   1
loop_
 _symmetry_equiv_pos_site_id
 _symmetry_equiv_pos_as_xyz
  1  'x, y, z'
loop_
 _atom_site_type_symbol
 _atom_site_label
 _atom_site_symmetry_multiplicity
 _atom_site_fract_x
 _atom_site_fract_y
 _atom_site_fract_z
 _atom_site_occupancy
  Pr  Pr0  1  0.10241563  0.75000000  0.79516873  1
  Pr  Pr1  1  0.89727146  0.25000000  0.20545708  1
  Cu  Cu2  1  0.46561280  0.75000000  0.06877440  1
  Si  Si3  1  0.53417622  0.25000000  0.93164757  1
  Si  Si4  1  0.32445759  0.75000000  0.35108482  1
  Si  Si5  1  0.67642836  0.25000000  0.64714328  1
  Rh  Rh6  1  0.75017988  0.75000000  0.49964023  1
  Rh  Rh7  1  0.24945805  0.25000000  0.50108389  1
