# generated using pymatgen
data_LaUO4
_symmetry_space_group_name_H-M   'P 1'
_cell_length_a   3.93558974
_cell_length_b   3.93558974
_cell_length_c   6.68543120
_cell_angle_alpha   72.88198962
_cell_angle_beta   90.00000000
_cell_angle_gamma   120.00000000
_symmetry_Int_Tables_number   1
_chemical_formula_structural   LaUO4
_chemical_formula_sum   'La1 U1 O4'
_cell_volume   84.33830235
_cell_formula_units_Z   1
loop_
 _symmetry_equiv_pos_site_id
 _symmetry_equiv_pos_as_xyz
  1  'x, y, z'
loop_
 _atom_site_type_symbol
 _atom_site_label
 _atom_site_symmetry_multiplicity
 _atom_site_fract_x
 _atom_site_fract_y
 _atom_site_fract_z
 _atom_site_occupancy
  La  La0  1  0.00000000  -0.00000000  -0.00000000  1
  U  U1  1  0.50000000  -0.00000000  0.50000000  1
  O  O2  1  0.61360729  0.22721458  0.15917812  1
  O  O3  1  0.13381739  0.26763478  0.59854783  1
  O  O4  1  0.86618261  0.73236522  0.40145217  1
  O  O5  1  0.38639271  0.77278542  0.84082188  1
