# generated using pymatgen
data_PRhS
_symmetry_space_group_name_H-M   'P 1'
_cell_length_a   5.69570797
_cell_length_b   5.69570797
_cell_length_c   5.69570797
_cell_angle_alpha   90.00000000
_cell_angle_beta   90.00000000
_cell_angle_gamma   90.00000000
_symmetry_Int_Tables_number   1
_chemical_formula_structural   PRhS
_chemical_formula_sum   'P4 Rh4 S4'
_cell_volume   184.77497076
_cell_formula_units_Z   4
loop_
 _symmetry_equiv_pos_site_id
 _symmetry_equiv_pos_as_xyz
  1  'x, y, z'
loop_
 _atom_site_type_symbol
 _atom_site_label
 _atom_site_symmetry_multiplicity
 _atom_site_fract_x
 _atom_site_fract_y
 _atom_site_fract_z
 _atom_site_occupancy
  P  P0  1  0.89002935  0.39002935  0.10997065  1
  P  P1  1  0.39002935  0.10997065  0.89002935  1
  P  P2  1  0.10997065  0.89002935  0.39002935  1
  P  P3  1  0.60997065  0.60997065  0.60997065  1
  Rh  Rh4  1  0.49416054  0.99416054  0.50583946  1
  Rh  Rh5  1  0.99416054  0.50583946  0.49416054  1
  Rh  Rh6  1  0.50583946  0.49416054  0.99416054  1
  Rh  Rh7  1  0.00583946  0.00583946  0.00583946  1
  S  S8  1  0.10971525  0.60971525  0.89028475  1
  S  S9  1  0.60971525  0.89028475  0.10971525  1
  S  S10  1  0.89028475  0.10971525  0.60971525  1
  S  S11  1  0.39028475  0.39028475  0.39028475  1
