# generated using pymatgen
data_La4Cu5As8
_symmetry_space_group_name_H-M   'P 1'
_cell_length_a   5.81146723
_cell_length_b   5.81295499
_cell_length_c   10.62825596
_cell_angle_alpha   90.00000000
_cell_angle_beta   74.13349328
_cell_angle_gamma   90.00000000
_symmetry_Int_Tables_number   1
_chemical_formula_structural   La4Cu5As8
_chemical_formula_sum   'La4 Cu5 As8'
_cell_volume   345.36256981
_cell_formula_units_Z   1
loop_
 _symmetry_equiv_pos_site_id
 _symmetry_equiv_pos_as_xyz
  1  'x, y, z'
loop_
 _atom_site_type_symbol
 _atom_site_label
 _atom_site_symmetry_multiplicity
 _atom_site_fract_x
 _atom_site_fract_y
 _atom_site_fract_z
 _atom_site_occupancy
  La  La0  1  0.37720024  -0.00000000  0.24559952  1
  La  La1  1  0.87796413  0.50000000  0.24407174  1
  La  La2  1  0.12142919  0.50000000  0.75714162  1
  La  La3  1  0.62187898  -0.00000000  0.75624204  1
  Cu  Cu4  1  0.49511155  0.24445289  0.49903825  1
  Cu  Cu5  1  0.00585019  0.75554711  0.49903825  1
  Cu  Cu6  1  0.00585019  0.24445289  0.49903825  1
  Cu  Cu7  1  0.49511155  0.75554711  0.49903825  1
  Cu  Cu8  1  0.56302003  0.50000000  0.87395995  1
  As  As9  1  0.17501679  -0.00000000  0.64996642  1
  As  As10  1  0.68266078  0.50000000  0.63467845  1
  As  As11  1  0.32254988  0.50000000  0.35490023  1
  As  As12  1  0.82266557  -0.00000000  0.35466886  1
  As  As13  1  0.76053055  0.76501948  0.00325454  1
  As  As14  1  0.23621491  0.23498052  0.00325454  1
  As  As15  1  0.76053055  0.23498052  0.00325454  1
  As  As16  1  0.23621491  0.76501948  0.00325454  1
