# generated using pymatgen
data_LaGe2IrRu
_symmetry_space_group_name_H-M   'P 1'
_cell_length_a   4.28363782
_cell_length_b   4.28363782
_cell_length_c   6.01006850
_cell_angle_alpha   69.12245283
_cell_angle_beta   69.12245283
_cell_angle_gamma   90.00000000
_symmetry_Int_Tables_number   1
_chemical_formula_structural   LaGe2IrRu
_chemical_formula_sum   'La1 Ge2 Ir1 Ru1'
_cell_volume   95.25193147
_cell_formula_units_Z   1
loop_
 _symmetry_equiv_pos_site_id
 _symmetry_equiv_pos_as_xyz
  1  'x, y, z'
loop_
 _atom_site_type_symbol
 _atom_site_label
 _atom_site_symmetry_multiplicity
 _atom_site_fract_x
 _atom_site_fract_y
 _atom_site_fract_z
 _atom_site_occupancy
  La  La0  1  -0.00000000  0.00000000  -0.00000000  1
  Ge  Ge1  1  0.36967828  0.36967828  0.26064345  1
  Ge  Ge2  1  0.63032172  0.63032172  0.73935655  1
  Ir  Ir3  1  0.75000000  0.25000000  0.50000000  1
  Ru  Ru4  1  0.25000000  0.75000000  0.50000000  1
