# generated using pymatgen
data_LiNi5(P2O7)4
_symmetry_space_group_name_H-M   'P 1'
_cell_length_a   12.81330513
_cell_length_b   9.28140219
_cell_length_c   10.60675866
_cell_angle_alpha   64.99841456
_cell_angle_beta   85.71156713
_cell_angle_gamma   73.57513988
_symmetry_Int_Tables_number   1
_chemical_formula_structural   LiNi5(P2O7)4
_chemical_formula_sum   'Li2 Ni10 P16 O56'
_cell_volume   1095.10860882
_cell_formula_units_Z   2
loop_
 _symmetry_equiv_pos_site_id
 _symmetry_equiv_pos_as_xyz
  1  'x, y, z'
loop_
 _atom_site_type_symbol
 _atom_site_label
 _atom_site_symmetry_multiplicity
 _atom_site_fract_x
 _atom_site_fract_y
 _atom_site_fract_z
 _atom_site_occupancy
  Li  Li0  1  0.25000000  0.50000000  0.50000000  1
  Li  Li1  1  0.75000000  0.50000000  0.50000000  1
  Ni  Ni2  1  0.13692778  0.10745433  0.27915831  1
  Ni  Ni3  1  0.85529905  0.89431038  0.71761141  1
  Ni  Ni4  1  0.36307222  0.89254567  0.72084169  1
  Ni  Ni5  1  0.64470095  0.10568962  0.28238859  1
  Ni  Ni6  1  0.68523612  0.49946038  0.24133293  1
  Ni  Ni7  1  0.81476388  0.50053962  0.75866707  1
  Ni  Ni8  1  0.18394485  0.49386760  0.24410903  1
  Ni  Ni9  1  0.31605515  0.50613240  0.75589097  1
  Ni  Ni10  1  0.01157924  0.79969815  0.98911683  1
  Ni  Ni11  1  0.48842076  0.20030185  0.01088317  1
  P  P12  1  0.79313535  0.69485740  0.96048099  1
  P  P13  1  0.95741093  0.17327202  0.70619963  1
  P  P14  1  0.55923614  0.54351232  0.80708580  1
  P  P15  1  0.06251126  0.55917809  0.80796992  1
  P  P16  1  0.28461256  0.71029757  0.95134608  1
  P  P17  1  0.54258907  0.82672798  0.29380037  1
  P  P18  1  0.94076386  0.45648768  0.19291420  1
  P  P19  1  0.43748874  0.44082191  0.19203008  1
  P  P20  1  0.21538744  0.28970243  0.04865392  1
  P  P21  1  0.34669113  0.80934925  0.45603537  1
  P  P22  1  0.64897103  0.20534268  0.54243837  1
  P  P23  1  0.15330887  0.19065075  0.54396463  1
  P  P24  1  0.04393428  0.80476048  0.28960199  1
  P  P25  1  0.70686465  0.30514260  0.03951901  1
  P  P26  1  0.85102897  0.79465732  0.45756163  1
  P  P27  1  0.45606572  0.19523952  0.71039801  1
  O  O28  1  0.97729428  0.48927927  0.78163299  1
  O  O29  1  0.01466268  0.72884451  0.81423776  1
  O  O30  1  0.77885920  0.70240457  0.81389672  1
  O  O31  1  0.17888828  0.13344593  0.08605421  1
  O  O32  1  0.71760472  0.07192327  0.67189175  1
  O  O33  1  0.72114080  0.29759543  0.18610328  1
  O  O34  1  0.18277564  0.69230718  0.03494095  1
  O  O35  1  0.69364926  0.68696027  0.04587448  1
  O  O36  1  0.65673834  0.16070086  0.06504688  1
  O  O37  1  0.65209922  0.51887544  0.71388210  1
  O  O38  1  0.96415011  0.71558412  0.40260785  1
  O  O39  1  0.50919107  0.12868980  0.85567582  1
  O  O40  1  0.52270572  0.51072073  0.21836701  1
  O  O41  1  0.21959620  0.29765698  0.19221909  1
  O  O42  1  0.15434991  0.55178778  0.70854715  1
  O  O43  1  0.56202611  0.93994174  0.35723604  1
  O  O44  1  0.02087633  0.56184078  0.17603499  1
  O  O45  1  0.01152807  0.04080292  0.84811261  1
  O  O46  1  0.32111172  0.86655407  0.91394579  1
  O  O47  1  0.99946408  0.27683859  0.22793249  1
  O  O48  1  0.50053592  0.72316141  0.77206751  1
  O  O49  1  0.93797389  0.06005826  0.64276396  1
  O  O50  1  0.78239528  0.92807673  0.32810825  1
  O  O51  1  0.48533732  0.27115549  0.18576224  1
  O  O52  1  0.27238016  0.92932640  0.32799779  1
  O  O53  1  0.15174213  0.66974932  0.31757237  1
  O  O54  1  0.85760272  0.30809591  0.70030222  1
  O  O55  1  0.12848979  0.09813165  0.46512182  1
  O  O56  1  0.34825787  0.33025068  0.68242763  1
  O  O57  1  0.53584989  0.28441588  0.59739215  1
  O  O58  1  0.47912367  0.43815922  0.82396501  1
  O  O59  1  0.88815534  0.52564581  0.03771905  1
  O  O60  1  0.11773982  0.44704448  0.96300081  1
  O  O61  1  0.80635074  0.31303973  0.95412552  1
  O  O62  1  0.84790078  0.48112456  0.28611790  1
  O  O63  1  0.34565009  0.44821222  0.29145285  1
  O  O64  1  0.69396645  0.35022471  0.45572881  1
  O  O65  1  0.31192248  0.65514662  0.54668009  1
  O  O66  1  0.88036427  0.87763730  0.54200754  1
  O  O67  1  0.48847193  0.95919708  0.15188739  1
  O  O68  1  0.64239728  0.69190409  0.29969778  1
  O  O69  1  0.28040380  0.70234302  0.80778091  1
  O  O70  1  0.61184466  0.47435419  0.96228095  1
  O  O71  1  0.37151021  0.90186835  0.53487818  1
  O  O72  1  0.04221073  0.26316066  0.60912039  1
  O  O73  1  0.22761984  0.07067360  0.67200221  1
  O  O74  1  0.05266449  0.94667061  0.32092790  1
  O  O75  1  0.61963573  0.12236270  0.45799246  1
  O  O76  1  0.84326166  0.83929914  0.93495312  1
  O  O77  1  0.31722436  0.30769282  0.96505905  1
  O  O78  1  0.18807752  0.34485338  0.45331991  1
  O  O79  1  0.45778927  0.73683934  0.39087961  1
  O  O80  1  0.99080893  0.87131020  0.14432418  1
  O  O81  1  0.38226018  0.55295552  0.03699919  1
  O  O82  1  0.80603355  0.64977529  0.54427119  1
  O  O83  1  0.44733551  0.05332939  0.67907210  1
