# generated using pymatgen
data_Na4MgFe(PO4)3
_symmetry_space_group_name_H-M   'P 1'
_cell_length_a   8.89194415
_cell_length_b   8.89194415
_cell_length_c   8.89194415
_cell_angle_alpha   60.56627576
_cell_angle_beta   60.56627576
_cell_angle_gamma   60.56627583
_symmetry_Int_Tables_number   1
_chemical_formula_structural   Na4MgFe(PO4)3
_chemical_formula_sum   'Na8 Mg2 Fe2 P6 O24'
_cell_volume   503.49543499
_cell_formula_units_Z   2
loop_
 _symmetry_equiv_pos_site_id
 _symmetry_equiv_pos_as_xyz
  1  'x, y, z'
loop_
 _atom_site_type_symbol
 _atom_site_label
 _atom_site_symmetry_multiplicity
 _atom_site_fract_x
 _atom_site_fract_y
 _atom_site_fract_z
 _atom_site_occupancy
  Na  Na0  1  0.11566801  0.74419334  0.38642815  1
  Na  Na1  1  0.74419334  0.38642815  0.11566801  1
  Na  Na2  1  0.38642815  0.11566801  0.74419334  1
  Na  Na3  1  0.61566801  0.88642815  0.24419334  1
  Na  Na4  1  0.88642815  0.24419334  0.61566801  1
  Na  Na5  1  0.24419334  0.61566801  0.88642815  1
  Na  Na6  1  0.49808271  0.49808271  0.49808271  1
  Na  Na7  1  0.99808271  0.99808271  0.99808271  1
  Mg  Mg8  1  0.35111351  0.35111351  0.35111351  1
  Mg  Mg9  1  0.85111351  0.85111351  0.85111351  1
  Fe  Fe10  1  0.64973889  0.64973889  0.64973889  1
  Fe  Fe11  1  0.14973889  0.14973889  0.14973889  1
  P  P12  1  0.45344986  0.75305839  0.04675653  1
  P  P13  1  0.75305839  0.04675653  0.45344986  1
  P  P14  1  0.04675653  0.45344986  0.75305839  1
  P  P15  1  0.95344986  0.54675653  0.25305839  1
  P  P16  1  0.54675653  0.25305839  0.95344986  1
  P  P17  1  0.25305839  0.95344986  0.54675653  1
  O  O18  1  0.29108482  0.11771634  0.51694651  1
  O  O19  1  0.11771634  0.51694651  0.29108482  1
  O  O20  1  0.51694651  0.29108482  0.11771634  1
  O  O21  1  0.79108482  0.01694651  0.61771634  1
  O  O22  1  0.01694651  0.61771634  0.79108482  1
  O  O23  1  0.61771634  0.79108482  0.01694651  1
  O  O24  1  0.71795028  0.87621451  0.48305555  1
  O  O25  1  0.87621451  0.48305555  0.71795028  1
  O  O26  1  0.48305555  0.71795028  0.87621451  1
  O  O27  1  0.21795028  0.98305555  0.37621451  1
  O  O28  1  0.98305555  0.37621451  0.21795028  1
  O  O29  1  0.37621451  0.21795028  0.98305555  1
  O  O30  1  0.58908514  0.22428584  0.42714293  1
  O  O31  1  0.22428584  0.42714293  0.58908514  1
  O  O32  1  0.42714293  0.58908514  0.22428584  1
  O  O33  1  0.08908514  0.92714293  0.72428584  1
  O  O34  1  0.92714293  0.72428584  0.08908514  1
  O  O35  1  0.72428584  0.08908514  0.92714293  1
  O  O36  1  0.42116344  0.77243829  0.56443496  1
  O  O37  1  0.77243829  0.56443496  0.42116344  1
  O  O38  1  0.56443496  0.42116344  0.77243829  1
  O  O39  1  0.92116344  0.06443496  0.27243829  1
  O  O40  1  0.06443496  0.27243829  0.92116344  1
  O  O41  1  0.27243829  0.92116344  0.06443496  1
