# generated using pymatgen
data_Hf3N2
_symmetry_space_group_name_H-M   'P 1'
_cell_length_a   3.21920375
_cell_length_b   3.21920375
_cell_length_c   8.00631630
_cell_angle_alpha   78.40213243
_cell_angle_beta   78.40213243
_cell_angle_gamma   60.00002038
_symmetry_Int_Tables_number   1
_chemical_formula_structural   Hf3N2
_chemical_formula_sum   'Hf3 N2'
_cell_volume   69.89259344
_cell_formula_units_Z   1
loop_
 _symmetry_equiv_pos_site_id
 _symmetry_equiv_pos_as_xyz
  1  'x, y, z'
loop_
 _atom_site_type_symbol
 _atom_site_label
 _atom_site_symmetry_multiplicity
 _atom_site_fract_x
 _atom_site_fract_y
 _atom_site_fract_z
 _atom_site_occupancy
  Hf  Hf0  1  0.22089537  0.22089537  0.33731389  1
  Hf  Hf1  1  0.77910463  0.77910463  0.66268611  1
  Hf  Hf2  1  0.00000000  0.00000000  -0.00000000  1
  N  N3  1  0.38841817  0.38841817  0.83474548  1
  N  N4  1  0.61158183  0.61158183  0.16525452  1
