# generated using pymatgen
data_Ho2TeS2
_symmetry_space_group_name_H-M   'P 1'
_cell_length_a   4.17385497
_cell_length_b   5.35278837
_cell_length_c   7.49948197
_cell_angle_alpha   69.09146199
_cell_angle_beta   73.84264900
_cell_angle_gamma   90.00000000
_symmetry_Int_Tables_number   1
_chemical_formula_structural   Ho2TeS2
_chemical_formula_sum   'Ho2 Te1 S2'
_cell_volume   149.41257591
_cell_formula_units_Z   1
loop_
 _symmetry_equiv_pos_site_id
 _symmetry_equiv_pos_as_xyz
  1  'x, y, z'
loop_
 _atom_site_type_symbol
 _atom_site_label
 _atom_site_symmetry_multiplicity
 _atom_site_fract_x
 _atom_site_fract_y
 _atom_site_fract_z
 _atom_site_occupancy
  Ho  Ho0  1  0.66763349  0.16763349  0.66473302  1
  Ho  Ho1  1  0.33236651  0.83236651  0.33526698  1
  Te  Te2  1  0.00000000  0.00000000  0.00000000  1
  S  S3  1  0.29846005  0.29846005  0.40307990  1
  S  S4  1  0.70153995  0.70153995  0.59692010  1
