# generated using pymatgen
data_K2Ti(TeO4)3
_symmetry_space_group_name_H-M   'P 1'
_cell_length_a   7.25461889
_cell_length_b   7.25661198
_cell_length_c   7.21744348
_cell_angle_alpha   90.00000000
_cell_angle_beta   59.81507581
_cell_angle_gamma   120.00908854
_symmetry_Int_Tables_number   1
_chemical_formula_structural   K2Ti(TeO4)3
_chemical_formula_sum   'K2 Ti1 Te3 O12'
_cell_volume   267.87815972
_cell_formula_units_Z   1
loop_
 _symmetry_equiv_pos_site_id
 _symmetry_equiv_pos_as_xyz
  1  'x, y, z'
loop_
 _atom_site_type_symbol
 _atom_site_label
 _atom_site_symmetry_multiplicity
 _atom_site_fract_x
 _atom_site_fract_y
 _atom_site_fract_z
 _atom_site_occupancy
  K  K0  1  0.28099219  0.17374991  0.10673513  1
  K  K1  1  0.71900781  0.89275771  0.89326487  1
  Ti  Ti2  1  0.00000000  0.50268247  -0.00000000  1
  Te  Te3  1  0.50032364  0.00125812  0.49898339  1
  Te  Te4  1  0.49967636  0.50093448  0.50101661  1
  Te  Te5  1  0.00000000  0.50163943  0.50000000  1
  O  O6  1  0.65324856  0.82731056  0.42006750  1
  O  O7  1  0.86658996  0.43181511  0.81281973  1
  O  O8  1  0.25590177  0.82050227  0.81195089  1
  O  O9  1  0.25277595  0.42767605  0.42117742  1
  O  O10  1  0.25354919  0.43377448  0.81311676  1
  O  O11  1  0.25548077  0.82718357  0.41774446  1
  O  O12  1  0.34675144  0.17406200  0.57993250  1
  O  O13  1  0.13341004  0.56522515  0.18718027  1
  O  O14  1  0.74645081  0.18022529  0.18688324  1
  O  O15  1  0.74451923  0.57170280  0.58225554  1
  O  O16  1  0.74409823  0.56460050  0.18804911  1
  O  O17  1  0.74722405  0.17490010  0.57882258  1
