# generated using pymatgen
data_Hf2CoCuSn2
_symmetry_space_group_name_H-M   'P 1'
_cell_length_a   4.35668830
_cell_length_b   4.35668830
_cell_length_c   6.76558833
_cell_angle_alpha   90.00484088
_cell_angle_beta   89.99515912
_cell_angle_gamma   120.00440438
_symmetry_Int_Tables_number   1
_chemical_formula_structural   Hf2CoCuSn2
_chemical_formula_sum   'Hf2 Co1 Cu1 Sn2'
_cell_volume   111.20643020
_cell_formula_units_Z   1
loop_
 _symmetry_equiv_pos_site_id
 _symmetry_equiv_pos_as_xyz
  1  'x, y, z'
loop_
 _atom_site_type_symbol
 _atom_site_label
 _atom_site_symmetry_multiplicity
 _atom_site_fract_x
 _atom_site_fract_y
 _atom_site_fract_z
 _atom_site_occupancy
  Hf  Hf0  1  0.00000781  -0.00000781  0.49551361  1
  Hf  Hf1  1  -0.00000213  0.00000213  0.97566840  1
  Co  Co2  1  0.33332085  0.66667915  0.83674958  1
  Cu  Cu3  1  0.66667153  0.33332847  0.32981571  1
  Sn  Sn4  1  0.33334604  0.66665396  0.22409861  1
  Sn  Sn5  1  0.66665590  0.33334410  0.73415409  1
