# generated using pymatgen
data_CdH6(NCl)2
_symmetry_space_group_name_H-M   'P 1'
_cell_length_a   4.05001311
_cell_length_b   6.00547743
_cell_length_c   6.00547743
_cell_angle_alpha   91.87253093
_cell_angle_beta   88.54946942
_cell_angle_gamma   91.45053058
_symmetry_Int_Tables_number   1
_chemical_formula_structural   CdH6(NCl)2
_chemical_formula_sum   'Cd1 H6 N2 Cl2'
_cell_volume   145.89818103
_cell_formula_units_Z   1
loop_
 _symmetry_equiv_pos_site_id
 _symmetry_equiv_pos_as_xyz
  1  'x, y, z'
loop_
 _atom_site_type_symbol
 _atom_site_label
 _atom_site_symmetry_multiplicity
 _atom_site_fract_x
 _atom_site_fract_y
 _atom_site_fract_z
 _atom_site_occupancy
  Cd  Cd0  1  -0.00000000  0.00226192  0.00226192  1
  H  H1  1  0.79447646  0.80304949  0.39765414  1
  H  H2  1  0.20552354  0.39765414  0.80304949  1
  H  H3  1  0.18177521  0.73594176  0.36144240  1
  H  H4  1  0.10798710  0.22537175  0.59496553  1
  H  H5  1  0.81822479  0.36144240  0.73594176  1
  H  H6  1  0.89201290  0.59496553  0.22537175  1
  N  N7  1  0.03383353  0.27898915  0.75150064  1
  N  N8  1  0.96616647  0.75150064  0.27898915  1
  Cl  Cl9  1  0.50000000  0.77382590  0.77382590  1
  Cl  Cl10  1  0.50000000  0.22699732  0.22699732  1
