# generated using pymatgen
data_CdAg2Sn3S8
_symmetry_space_group_name_H-M   'P 1'
_cell_length_a   7.68790069
_cell_length_b   7.76363763
_cell_length_c   7.68790069
_cell_angle_alpha   90.00000000
_cell_angle_beta   60.00000000
_cell_angle_gamma   119.67781715
_symmetry_Int_Tables_number   1
_chemical_formula_structural   CdAg2Sn3S8
_chemical_formula_sum   'Cd1 Ag2 Sn3 S8'
_cell_volume   326.03455740
_cell_formula_units_Z   1
loop_
 _symmetry_equiv_pos_site_id
 _symmetry_equiv_pos_as_xyz
  1  'x, y, z'
loop_
 _atom_site_type_symbol
 _atom_site_label
 _atom_site_symmetry_multiplicity
 _atom_site_fract_x
 _atom_site_fract_y
 _atom_site_fract_z
 _atom_site_occupancy
  Cd  Cd0  1  0.50000000  -0.00000000  0.50000000  1
  Ag  Ag1  1  0.26104567  0.14156851  0.11947716  1
  Ag  Ag2  1  0.73895433  0.85843149  0.88052284  1
  Sn  Sn3  1  0.50000000  0.50000000  0.50000000  1
  Sn  Sn4  1  -0.00000000  0.50000000  0.00000000  1
  Sn  Sn5  1  -0.00000000  0.50000000  0.50000000  1
  S  S6  1  0.98860421  0.73290631  0.25569790  1
  S  S7  1  0.99161117  0.27287740  0.25419441  1
  S  S8  1  0.52707181  0.27287740  0.71873377  1
  S  S9  1  0.52707181  0.27287740  0.25419441  1
  S  S10  1  0.01139579  0.26709369  0.74430210  1
  S  S11  1  0.00838883  0.72712260  0.74580559  1
  S  S12  1  0.47292819  0.72712260  0.28126623  1
  S  S13  1  0.47292819  0.72712260  0.74580559  1
