# generated using pymatgen
data_Nb2O5
_symmetry_space_group_name_H-M   'P 1'
_cell_length_a   7.82638000
_cell_length_b   3.85710086
_cell_length_c   6.80290645
_cell_angle_alpha   90.00000000
_cell_angle_beta   89.87991734
_cell_angle_gamma   90.00000000
_symmetry_Int_Tables_number   1
_chemical_formula_structural   Nb2O5
_chemical_formula_sum   'Nb4 O10'
_cell_volume   205.35981842
_cell_formula_units_Z   2
loop_
 _symmetry_equiv_pos_site_id
 _symmetry_equiv_pos_as_xyz
  1  'x, y, z'
loop_
 _atom_site_type_symbol
 _atom_site_label
 _atom_site_symmetry_multiplicity
 _atom_site_fract_x
 _atom_site_fract_y
 _atom_site_fract_z
 _atom_site_occupancy
  Nb  Nb0  1  0.09391145  0.25000000  0.80515742  1
  Nb  Nb1  1  0.27670858  0.25000000  0.26809118  1
  Nb  Nb2  1  0.72329142  0.75000000  0.73190882  1
  Nb  Nb3  1  0.90608855  0.75000000  0.19484258  1
  O  O4  1  0.03115457  0.75000000  0.85596179  1
  O  O5  1  0.17435788  0.25000000  0.55375290  1
  O  O6  1  0.18718744  0.75000000  0.25557957  1
  O  O7  1  0.28449619  0.25000000  0.96945809  1
  O  O8  1  0.49355924  0.25000000  0.31796465  1
  O  O9  1  0.50644076  0.75000000  0.68203535  1
  O  O10  1  0.71550381  0.75000000  0.03054191  1
  O  O11  1  0.81281256  0.25000000  0.74442043  1
  O  O12  1  0.82564212  0.75000000  0.44624710  1
  O  O13  1  0.96884543  0.25000000  0.14403821  1
