# generated using pymatgen
data_Ag2HgGeS4
_symmetry_space_group_name_H-M   'P 1'
_cell_length_a   6.71201976
_cell_length_b   7.02116457
_cell_length_c   8.15470138
_cell_angle_alpha   90.00000000
_cell_angle_beta   89.88364098
_cell_angle_gamma   90.00000000
_symmetry_Int_Tables_number   1
_chemical_formula_structural   Ag2HgGeS4
_chemical_formula_sum   'Ag4 Hg2 Ge2 S8'
_cell_volume   384.29925756
_cell_formula_units_Z   2
loop_
 _symmetry_equiv_pos_site_id
 _symmetry_equiv_pos_as_xyz
  1  'x, y, z'
loop_
 _atom_site_type_symbol
 _atom_site_label
 _atom_site_symmetry_multiplicity
 _atom_site_fract_x
 _atom_site_fract_y
 _atom_site_fract_z
 _atom_site_occupancy
  Ag  Ag0  1  0.97320884  0.18821617  0.24530356  1
  Ag  Ag1  1  0.47320884  0.81178383  0.74530356  1
  Ag  Ag2  1  0.95477595  0.65270981  0.49994782  1
  Ag  Ag3  1  0.45477595  0.34729019  0.99994782  1
  Hg  Hg4  1  0.97157535  0.18875173  0.75513343  1
  Hg  Hg5  1  0.47157535  0.81124827  0.25513343  1
  Ge  Ge6  1  0.45746710  0.31770173  0.49967399  1
  Ge  Ge7  1  0.95746710  0.68229827  0.99967399  1
  S  S8  1  0.33767030  0.61854233  0.50311932  1
  S  S9  1  0.83767030  0.38145767  0.00311932  1
  S  S10  1  0.35069993  0.16903885  0.26980054  1
  S  S11  1  0.35482255  0.16641002  0.73018626  1
  S  S12  1  0.85482255  0.83358998  0.23018626  1
  S  S13  1  0.85069993  0.83096115  0.76980054  1
  S  S14  1  0.79377999  0.32148438  0.49683508  1
  S  S15  1  0.29377999  0.67851562  0.99683508  1
