# generated using pymatgen
data_CeGaNi4
_symmetry_space_group_name_H-M   'P 1'
_cell_length_a   4.07065726
_cell_length_b   4.87116882
_cell_length_c   4.87116874
_cell_angle_alpha   62.43554913
_cell_angle_beta   90.00000000
_cell_angle_gamma   90.00000000
_symmetry_Int_Tables_number   1
_chemical_formula_structural   CeGaNi4
_chemical_formula_sum   'Ce1 Ga1 Ni4'
_cell_volume   85.62590104
_cell_formula_units_Z   1
loop_
 _symmetry_equiv_pos_site_id
 _symmetry_equiv_pos_as_xyz
  1  'x, y, z'
loop_
 _atom_site_type_symbol
 _atom_site_label
 _atom_site_symmetry_multiplicity
 _atom_site_fract_x
 _atom_site_fract_y
 _atom_site_fract_z
 _atom_site_occupancy
  Ce  Ce0  1  -0.00000000  0.99997658  0.00002342  1
  Ga  Ga1  1  0.50000000  0.50000882  0.49999118  1
  Ni  Ni2  1  -0.00000000  0.32933064  0.32934442  1
  Ni  Ni3  1  -0.00000000  0.67065558  0.67066936  1
  Ni  Ni4  1  0.50000000  0.49995579  0.00002742  1
  Ni  Ni5  1  0.50000000  0.99997258  0.50004421  1
