# generated using pymatgen
data_K2BAs2HO8
_symmetry_space_group_name_H-M   'P 1'
_cell_length_a   7.33693434
_cell_length_b   7.33693434
_cell_length_c   15.73743966
_cell_angle_alpha   90.00000000
_cell_angle_beta   90.00000000
_cell_angle_gamma   90.00000000
_symmetry_Int_Tables_number   1
_chemical_formula_structural   K2BAs2HO8
_chemical_formula_sum   'K8 B4 As8 H4 O32'
_cell_volume   847.15590607
_cell_formula_units_Z   4
loop_
 _symmetry_equiv_pos_site_id
 _symmetry_equiv_pos_as_xyz
  1  'x, y, z'
loop_
 _atom_site_type_symbol
 _atom_site_label
 _atom_site_symmetry_multiplicity
 _atom_site_fract_x
 _atom_site_fract_y
 _atom_site_fract_z
 _atom_site_occupancy
  K  K0  1  0.11662605  0.54203135  0.67626946  1
  K  K1  1  0.88337395  0.45796865  0.17626946  1
  K  K2  1  0.04203135  0.38337395  0.42626946  1
  K  K3  1  0.95796865  0.61662605  0.92626946  1
  K  K4  1  0.46415819  0.88046550  0.82493484  1
  K  K5  1  0.53584181  0.11953450  0.32493484  1
  K  K6  1  0.38046550  0.03584181  0.57493484  1
  K  K7  1  0.61953450  0.96415819  0.07493484  1
  B  B8  1  0.70922630  0.28816587  0.75057793  1
  B  B9  1  0.29077370  0.71183413  0.25057793  1
  B  B10  1  0.78816587  0.79077370  0.50057793  1
  B  B11  1  0.21183413  0.20922630  0.00057793  1
  As  As12  1  0.61133516  0.56512471  0.62703789  1
  As  As13  1  0.38866484  0.43487529  0.12703789  1
  As  As14  1  0.06512471  0.88866484  0.37703789  1
  As  As15  1  0.93487529  0.11133516  0.87703789  1
  As  As16  1  0.43548902  0.39448394  0.87521121  1
  As  As17  1  0.56451098  0.60551606  0.37521121  1
  As  As18  1  0.89448394  0.06451098  0.62521121  1
  As  As19  1  0.10551606  0.93548902  0.12521121  1
  H  H20  1  0.46198491  0.43704752  0.51018565  1
  H  H21  1  0.53801509  0.56295248  0.01018565  1
  H  H22  1  0.93704752  0.03801509  0.26018565  1
  H  H23  1  0.06295248  0.96198491  0.76018565  1
  O  O24  1  0.73560153  0.47150391  0.71047225  1
  O  O25  1  0.26439847  0.52849609  0.21047225  1
  O  O26  1  0.97150391  0.76439847  0.46047225  1
  O  O27  1  0.02849609  0.23560153  0.96047225  1
  O  O28  1  0.52963759  0.26540598  0.79178058  1
  O  O29  1  0.47036241  0.73459402  0.29178058  1
  O  O30  1  0.76540598  0.97036241  0.54178058  1
  O  O31  1  0.23459402  0.02963759  0.04178058  1
  O  O32  1  0.46897788  0.72761932  0.66012836  1
  O  O33  1  0.53102212  0.27238068  0.16012836  1
  O  O34  1  0.22761932  0.03102212  0.41012836  1
  O  O35  1  0.77238068  0.96897788  0.91012836  1
  O  O36  1  0.26689047  0.52720391  0.83816518  1
  O  O37  1  0.73310953  0.47279609  0.33816518  1
  O  O38  1  0.02720391  0.23310953  0.58816518  1
  O  O39  1  0.97279609  0.76689047  0.08816518  1
  O  O40  1  0.78940872  0.63358037  0.56048898  1
  O  O41  1  0.21059128  0.36641963  0.06048898  1
  O  O42  1  0.13358037  0.71059128  0.31048898  1
  O  O43  1  0.86641963  0.28940872  0.81048898  1
  O  O44  1  0.36473790  0.21008930  0.93959957  1
  O  O45  1  0.63526210  0.78991070  0.43959957  1
  O  O46  1  0.71008930  0.13526210  0.68959957  1
  O  O47  1  0.28991070  0.86473790  0.18959957  1
  O  O48  1  0.50243116  0.38811340  0.57306487  1
  O  O49  1  0.49756884  0.61188660  0.07306487  1
  O  O50  1  0.88811340  0.99756884  0.32306487  1
  O  O51  1  0.11188660  0.00243116  0.82306487  1
  O  O52  1  0.59879934  0.51166186  0.93018322  1
  O  O53  1  0.40120066  0.48833814  0.43018322  1
  O  O54  1  0.01166186  0.90120066  0.68018322  1
  O  O55  1  0.98833814  0.09879934  0.18018322  1
