# generated using pymatgen
data_CrCuSnS4
_symmetry_space_group_name_H-M   'P 1'
_cell_length_a   7.24834157
_cell_length_b   7.19935377
_cell_length_c   7.32302133
_cell_angle_alpha   90.00000000
_cell_angle_beta   59.65858970
_cell_angle_gamma   119.77668186
_symmetry_Int_Tables_number   1
_chemical_formula_structural   CrCuSnS4
_chemical_formula_sum   'Cr2 Cu2 Sn2 S8'
_cell_volume   269.72417290
_cell_formula_units_Z   2
loop_
 _symmetry_equiv_pos_site_id
 _symmetry_equiv_pos_as_xyz
  1  'x, y, z'
loop_
 _atom_site_type_symbol
 _atom_site_label
 _atom_site_symmetry_multiplicity
 _atom_site_fract_x
 _atom_site_fract_y
 _atom_site_fract_z
 _atom_site_occupancy
  Cr  Cr0  1  0.50000000  0.50000000  0.00000000  1
  Cr  Cr1  1  0.50000000  -0.00000000  0.00000000  1
  Cu  Cu2  1  0.74109202  0.37054601  0.37945399  1
  Cu  Cu3  1  0.25890798  0.62945399  0.62054601  1
  Sn  Sn4  1  0.00000000  -0.00000000  0.50000000  1
  Sn  Sn5  1  0.00000000  -0.00000000  0.00000000  1
  S  S6  1  0.02612713  0.76084154  0.23693644  1
  S  S7  1  0.02612713  0.26528559  0.23693644  1
  S  S8  1  0.50286016  0.25143008  0.77184155  1
  S  S9  1  0.50286016  0.25143008  0.22529829  1
  S  S10  1  0.97387287  0.23915846  0.76306356  1
  S  S11  1  0.97387287  0.73471441  0.76306356  1
  S  S12  1  0.49713984  0.74856992  0.22815845  1
  S  S13  1  0.49713984  0.74856992  0.77470171  1
