# generated using pymatgen
data_ErCuS2
_symmetry_space_group_name_H-M   'P 1'
_cell_length_a   3.93156254
_cell_length_b   6.23098357
_cell_length_c   13.32972480
_cell_angle_alpha   90.00000000
_cell_angle_beta   90.00000000
_cell_angle_gamma   90.00000000
_symmetry_Int_Tables_number   1
_chemical_formula_structural   ErCuS2
_chemical_formula_sum   'Er4 Cu4 S8'
_cell_volume   326.54495450
_cell_formula_units_Z   4
loop_
 _symmetry_equiv_pos_site_id
 _symmetry_equiv_pos_as_xyz
  1  'x, y, z'
loop_
 _atom_site_type_symbol
 _atom_site_label
 _atom_site_symmetry_multiplicity
 _atom_site_fract_x
 _atom_site_fract_y
 _atom_site_fract_z
 _atom_site_occupancy
  S  S0  1  0.25000000  0.26203431  0.79441486  1
  S  S1  1  0.75000000  0.73796569  0.20558514  1
  S  S2  1  0.75000000  0.76203431  0.70558514  1
  S  S3  1  0.25000000  0.23796569  0.29441486  1
  S  S4  1  0.25000000  0.74521053  0.95992127  1
  S  S5  1  0.25000000  0.75478947  0.45992127  1
  S  S6  1  0.75000000  0.24521053  0.54007873  1
  S  S7  1  0.75000000  0.25478947  0.04007873  1
  Cu  Cu8  1  0.25000000  0.12583038  0.95467037  1
  Cu  Cu9  1  0.75000000  0.62583038  0.54532963  1
  Cu  Cu10  1  0.75000000  0.87416962  0.04532963  1
  Cu  Cu11  1  0.25000000  0.37416962  0.45467037  1
  Er  Er12  1  0.25000000  0.50105926  0.13333120  1
  Er  Er13  1  0.75000000  0.49894074  0.86666880  1
  Er  Er14  1  0.75000000  0.00105926  0.36666880  1
  Er  Er15  1  0.25000000  0.99894074  0.63333120  1
