# generated using pymatgen
data_LaPPt
_symmetry_space_group_name_H-M   'P 1'
_cell_length_a   4.24957556
_cell_length_b   8.14556873
_cell_length_c   7.36070926
_cell_angle_alpha   90.00000000
_cell_angle_beta   90.00000000
_cell_angle_gamma   90.00000000
_symmetry_Int_Tables_number   1
_chemical_formula_structural   LaPPt
_chemical_formula_sum   'La4 P4 Pt4'
_cell_volume   254.79249529
_cell_formula_units_Z   4
loop_
 _symmetry_equiv_pos_site_id
 _symmetry_equiv_pos_as_xyz
  1  'x, y, z'
loop_
 _atom_site_type_symbol
 _atom_site_label
 _atom_site_symmetry_multiplicity
 _atom_site_fract_x
 _atom_site_fract_y
 _atom_site_fract_z
 _atom_site_occupancy
  La  La0  1  0.75000000  0.50010041  0.25008846  1
  La  La1  1  0.25000000  0.99989959  0.75008846  1
  La  La2  1  0.75000000  0.00010041  0.24991154  1
  La  La3  1  0.25000000  0.49989959  0.74991154  1
  P  P4  1  0.25000000  0.75042862  0.41685982  1
  P  P5  1  0.25000000  0.25042862  0.08314018  1
  P  P6  1  0.75000000  0.24957138  0.58314018  1
  P  P7  1  0.75000000  0.74957138  0.91685982  1
  Pt  Pt8  1  0.25000000  0.75002199  0.08357693  1
  Pt  Pt9  1  0.25000000  0.25002199  0.41642307  1
  Pt  Pt10  1  0.75000000  0.74997801  0.58357693  1
  Pt  Pt11  1  0.75000000  0.24997801  0.91642307  1
