# generated using pymatgen
data_NaFe11O17
_symmetry_space_group_name_H-M   'P 1'
_cell_length_a   6.03295557
_cell_length_b   6.04828596
_cell_length_c   24.09568669
_cell_angle_alpha   89.72565386
_cell_angle_beta   90.10980199
_cell_angle_gamma   119.86123042
_symmetry_Int_Tables_number   1
_chemical_formula_structural   NaFe11O17
_chemical_formula_sum   'Na2 Fe22 O34'
_cell_volume   762.48785811
_cell_formula_units_Z   2
loop_
 _symmetry_equiv_pos_site_id
 _symmetry_equiv_pos_as_xyz
  1  'x, y, z'
loop_
 _atom_site_type_symbol
 _atom_site_label
 _atom_site_symmetry_multiplicity
 _atom_site_fract_x
 _atom_site_fract_y
 _atom_site_fract_z
 _atom_site_occupancy
  Na  Na0  1  0.33288123  0.66644379  0.74861379  1
  Na  Na1  1  0.66344935  0.33239519  0.24946051  1
  Fe  Fe2  1  0.16727913  0.83205813  0.60651483  1
  Fe  Fe3  1  0.16757735  0.83190743  0.89393289  1
  Fe  Fe4  1  0.33349487  0.66911352  0.17398839  1
  Fe  Fe5  1  0.33338558  0.66480598  0.02553859  1
  Fe  Fe6  1  0.99763425  0.99685551  0.00014560  1
  Fe  Fe7  1  0.99970453  0.99978513  0.50002024  1
  Fe  Fe8  1  0.33410091  0.66812724  0.32515056  1
  Fe  Fe9  1  0.33281398  0.66569097  0.47469163  1
  Fe  Fe10  1  0.16728477  0.33482675  0.60644102  1
  Fe  Fe11  1  0.16783510  0.33517197  0.89395753  1
  Fe  Fe12  1  0.34009734  0.17456263  0.10324063  1
  Fe  Fe13  1  0.33548258  0.16778033  0.39350443  1
  Fe  Fe14  1  0.66431682  0.83204706  0.60648392  1
  Fe  Fe15  1  0.66450400  0.83166890  0.89383957  1
  Fe  Fe16  1  0.83266717  0.66497621  0.39362637  1
  Fe  Fe17  1  0.83494425  0.66725614  0.10708399  1
  Fe  Fe18  1  0.66636825  0.33210209  0.67473195  1
  Fe  Fe19  1  0.66701545  0.33344293  0.82584874  1
  Fe  Fe20  1  0.66660452  0.33385380  0.52529700  1
  Fe  Fe21  1  0.66482697  0.33281420  0.97507299  1
  Fe  Fe22  1  0.83257257  0.16793188  0.39351946  1
  Fe  Fe23  1  0.83182446  0.16589691  0.10712558  1
  O  O24  1  0.14921549  0.83212965  0.04927500  1
  O  O25  1  0.98784360  0.49439423  0.35238791  1
  O  O26  1  0.01338116  0.50614272  0.64798205  1
  O  O27  1  0.98584135  0.49033257  0.14776408  1
  O  O28  1  0.15670181  0.84301177  0.44927786  1
  O  O29  1  0.01351566  0.50740331  0.85266672  1
  O  O30  1  0.15669790  0.31345772  0.44925126  1
  O  O31  1  0.33329738  0.66739200  0.24961805  1
  O  O32  1  0.01446933  0.00588533  0.14163456  1
  O  O33  1  0.00012768  0.00039637  0.35705835  1
  O  O34  1  0.99956217  0.99935696  0.64303428  1
  O  O35  1  0.00020884  0.00091940  0.85752150  1
  O  O36  1  0.33310172  0.66661203  0.55525022  1
  O  O37  1  0.33323307  0.66564526  0.94507601  1
  O  O38  1  0.15951015  0.31076598  0.05147823  1
  O  O39  1  0.31362913  0.15682858  0.55089400  1
  O  O40  1  0.31277716  0.15635590  0.94947010  1
  O  O41  1  0.51417728  0.50511232  0.14815725  1
  O  O42  1  0.50699828  0.49400343  0.35226200  1
  O  O43  1  0.49293687  0.50602561  0.64790600  1
  O  O44  1  0.49397101  0.50689259  0.85262115  1
  O  O45  1  0.68629652  0.84434444  0.05121504  1
  O  O46  1  0.68592102  0.84284800  0.44926728  1
  O  O47  1  0.50101916  0.01452415  0.14648945  1
  O  O48  1  0.50703895  0.01396215  0.35200329  1
  O  O49  1  0.49300905  0.98609815  0.64805417  1
  O  O50  1  0.66645910  0.33298301  0.44484815  1
  O  O51  1  0.49340536  0.98708578  0.85264768  1
  O  O52  1  0.66769464  0.33363766  0.75029794  1
  O  O53  1  0.66057013  0.32886881  0.05580276  1
  O  O54  1  0.84068137  0.68499387  0.94935344  1
  O  O55  1  0.84285913  0.68600733  0.55091246  1
  O  O56  1  0.84235711  0.15743512  0.94981152  1
  O  O57  1  0.84292501  0.15682711  0.55087804  1
