# generated using pymatgen
data_Ta3InO9
_symmetry_space_group_name_H-M   'P 1'
_cell_length_a   6.39939905
_cell_length_b   7.64009233
_cell_length_c   12.71663853
_cell_angle_alpha   90.00000000
_cell_angle_beta   90.00000000
_cell_angle_gamma   90.00000000
_symmetry_Int_Tables_number   1
_chemical_formula_structural   Ta3InO9
_chemical_formula_sum   'Ta12 In4 O36'
_cell_volume   621.74188590
_cell_formula_units_Z   4
loop_
 _symmetry_equiv_pos_site_id
 _symmetry_equiv_pos_as_xyz
  1  'x, y, z'
loop_
 _atom_site_type_symbol
 _atom_site_label
 _atom_site_symmetry_multiplicity
 _atom_site_fract_x
 _atom_site_fract_y
 _atom_site_fract_z
 _atom_site_occupancy
  Ta  Ta0  1  0.00000000  -0.00000000  -0.00000000  1
  Ta  Ta1  1  0.00000000  0.50000000  -0.00000000  1
  Ta  Ta2  1  0.20596740  0.00264299  0.71306936  1
  Ta  Ta3  1  0.20596740  0.49735701  0.71306936  1
  Ta  Ta4  1  0.29403260  0.50264299  0.21306936  1
  Ta  Ta5  1  0.29403260  0.99735701  0.21306936  1
  Ta  Ta6  1  0.50000000  -0.00000000  0.50000000  1
  Ta  Ta7  1  0.50000000  0.50000000  0.50000000  1
  Ta  Ta8  1  0.70596740  0.00264299  0.78693064  1
  Ta  Ta9  1  0.70596740  0.49735701  0.78693064  1
  Ta  Ta10  1  0.79403260  0.50264299  0.28693064  1
  Ta  Ta11  1  0.79403260  0.99735701  0.28693064  1
  In  In12  1  0.05248216  0.25000000  0.45248725  1
  In  In13  1  0.44751784  0.75000000  0.95248725  1
  In  In14  1  0.55248216  0.25000000  0.04751275  1
  In  In15  1  0.94751784  0.75000000  0.54751275  1
  O  O16  1  0.01565332  0.04079650  0.84378684  1
  O  O17  1  0.01565332  0.45920350  0.84378684  1
  O  O18  1  0.09535443  0.75000000  0.97760794  1
  O  O19  1  0.10056642  0.03628867  0.33307266  1
  O  O20  1  0.10056642  0.46371133  0.33307266  1
  O  O21  1  0.16707679  0.25000000  0.67416271  1
  O  O22  1  0.21089855  0.75000000  0.70114569  1
  O  O23  1  0.20540553  0.54899376  0.53687807  1
  O  O24  1  0.20540553  0.95100624  0.53687807  1
  O  O25  1  0.29459447  0.04899376  0.03687807  1
  O  O26  1  0.29459447  0.45100624  0.03687807  1
  O  O27  1  0.28910145  0.25000000  0.20114569  1
  O  O28  1  0.33292321  0.75000000  0.17416271  1
  O  O29  1  0.39943358  0.53628867  0.83307266  1
  O  O30  1  0.39943358  0.96371133  0.83307266  1
  O  O31  1  0.40464557  0.25000000  0.47760794  1
  O  O32  1  0.48434668  0.54079650  0.34378684  1
  O  O33  1  0.48434668  0.95920350  0.34378684  1
  O  O34  1  0.51565332  0.04079650  0.65621316  1
  O  O35  1  0.51565332  0.45920350  0.65621316  1
  O  O36  1  0.59535443  0.75000000  0.52239206  1
  O  O37  1  0.60056642  0.03628867  0.16692734  1
  O  O38  1  0.60056642  0.46371133  0.16692734  1
  O  O39  1  0.66707679  0.25000000  0.82583729  1
  O  O40  1  0.71089855  0.75000000  0.79885431  1
  O  O41  1  0.70540553  0.54899376  0.96312193  1
  O  O42  1  0.70540553  0.95100624  0.96312193  1
  O  O43  1  0.79459447  0.04899376  0.46312193  1
  O  O44  1  0.79459447  0.45100624  0.46312193  1
  O  O45  1  0.78910145  0.25000000  0.29885431  1
  O  O46  1  0.83292321  0.75000000  0.32583729  1
  O  O47  1  0.89943358  0.53628867  0.66692734  1
  O  O48  1  0.89943358  0.96371133  0.66692734  1
  O  O49  1  0.90464557  0.25000000  0.02239206  1
  O  O50  1  0.98434668  0.54079650  0.15621316  1
  O  O51  1  0.98434668  0.95920350  0.15621316  1
