# generated using pymatgen
data_B3Ru2
_symmetry_space_group_name_H-M   'P 1'
_cell_length_a   2.92546790
_cell_length_b   2.92546790
_cell_length_c   12.83638126
_cell_angle_alpha   90.00000000
_cell_angle_beta   90.00000000
_cell_angle_gamma   119.99999999
_symmetry_Int_Tables_number   1
_chemical_formula_structural   B3Ru2
_chemical_formula_sum   'B6 Ru4'
_cell_volume   95.14016798
_cell_formula_units_Z   2
loop_
 _symmetry_equiv_pos_site_id
 _symmetry_equiv_pos_as_xyz
  1  'x, y, z'
loop_
 _atom_site_type_symbol
 _atom_site_label
 _atom_site_symmetry_multiplicity
 _atom_site_fract_x
 _atom_site_fract_y
 _atom_site_fract_z
 _atom_site_occupancy
  B  B0  1  0.66666667  0.33333333  0.25000000  1
  B  B1  1  0.33333333  0.66666667  0.75000000  1
  B  B2  1  0.33333333  0.66666667  0.53055439  1
  B  B3  1  0.66666667  0.33333333  0.03055439  1
  B  B4  1  0.33333333  0.66666667  0.96944561  1
  B  B5  1  0.66666667  0.33333333  0.46944561  1
  Ru  Ru6  1  0.33333333  0.66666667  0.36010916  1
  Ru  Ru7  1  0.66666667  0.33333333  0.86010916  1
  Ru  Ru8  1  0.66666667  0.33333333  0.63989084  1
  Ru  Ru9  1  0.33333333  0.66666667  0.13989084  1
