# generated using pymatgen
data_Na3SrLaZnSi6O17
_symmetry_space_group_name_H-M   'P 1'
_cell_length_a   5.27239864
_cell_length_b   14.60938119
_cell_length_c   19.98516618
_cell_angle_alpha   90.00000000
_cell_angle_beta   90.00000000
_cell_angle_gamma   90.00000000
_symmetry_Int_Tables_number   1
_chemical_formula_structural   Na3SrLaZnSi6O17
_chemical_formula_sum   'Na12 Sr4 La4 Zn4 Si24 O68'
_cell_volume   1539.38703339
_cell_formula_units_Z   4
loop_
 _symmetry_equiv_pos_site_id
 _symmetry_equiv_pos_as_xyz
  1  'x, y, z'
loop_
 _atom_site_type_symbol
 _atom_site_label
 _atom_site_symmetry_multiplicity
 _atom_site_fract_x
 _atom_site_fract_y
 _atom_site_fract_z
 _atom_site_occupancy
  O  O0  1  0.77623039  0.31597919  0.41739500  1
  O  O1  1  0.77623039  0.68402081  0.08260500  1
  O  O2  1  0.22376961  0.81597919  0.08260500  1
  O  O3  1  0.22376961  0.18402081  0.41739500  1
  O  O4  1  0.22376961  0.68402081  0.58260500  1
  O  O5  1  0.22376961  0.31597919  0.91739500  1
  O  O6  1  0.77623039  0.18402081  0.91739500  1
  O  O7  1  0.77623039  0.81597919  0.58260500  1
  O  O8  1  0.76550065  0.38293968  0.27134976  1
  O  O9  1  0.76550065  0.61706032  0.22865024  1
  O  O10  1  0.23449935  0.88293968  0.22865024  1
  O  O11  1  0.23449935  0.11706032  0.27134976  1
  O  O12  1  0.23449935  0.61706032  0.72865024  1
  O  O13  1  0.23449935  0.38293968  0.77134976  1
  O  O14  1  0.76550065  0.11706032  0.77134976  1
  O  O15  1  0.76550065  0.88293968  0.72865024  1
  O  O16  1  0.35535583  0.38154447  0.35284567  1
  O  O17  1  0.35535583  0.61845553  0.14715433  1
  O  O18  1  0.64464417  0.88154447  0.14715433  1
  O  O19  1  0.64464417  0.11845553  0.35284567  1
  O  O20  1  0.64464417  0.61845553  0.64715433  1
  O  O21  1  0.64464417  0.38154447  0.85284567  1
  O  O22  1  0.35535583  0.11845553  0.85284567  1
  O  O23  1  0.35535583  0.88154447  0.64715433  1
  O  O24  1  0.28962469  0.32361344  0.23271799  1
  O  O25  1  0.28962469  0.67638656  0.26728201  1
  O  O26  1  0.71037531  0.82361344  0.26728201  1
  O  O27  1  0.71037531  0.17638656  0.23271799  1
  O  O28  1  0.36074631  0.61862016  0.01465262  1
  O  O29  1  0.71037531  0.67638656  0.76728201  1
  O  O30  1  0.28962469  0.17638656  0.73271799  1
  O  O31  1  0.28962469  0.82361344  0.76728201  1
  O  O32  1  0.36547514  0.50000000  0.25000000  1
  O  O33  1  0.63452486  0.00000000  0.25000000  1
  O  O34  1  0.63452486  0.50000000  0.75000000  1
  O  O35  1  0.36547514  0.00000000  0.75000000  1
  O  O36  1  0.23156943  0.39787648  0.06779288  1
  O  O37  1  0.23156943  0.60212352  0.43220712  1
  O  O38  1  0.76843057  0.89787648  0.43220712  1
  O  O39  1  0.76843057  0.10212352  0.06779288  1
  O  O40  1  0.76843057  0.60212352  0.93220712  1
  O  O41  1  0.76843057  0.39787648  0.56779288  1
  O  O42  1  0.23156943  0.10212352  0.56779288  1
  O  O43  1  0.23156943  0.89787648  0.93220712  1
  O  O44  1  0.63925369  0.38137984  0.98534738  1
  O  O45  1  0.63925369  0.61862016  0.51465262  1
  O  O46  1  0.36074631  0.88137984  0.51465262  1
  O  O47  1  0.36074631  0.11862016  0.98534738  1
  O  O48  1  0.66188197  0.00424694  0.91798967  1
  O  O49  1  0.66188197  0.99575306  0.58201033  1
  O  O50  1  0.33811803  0.50424694  0.58201033  1
  O  O51  1  0.33811803  0.49575306  0.91798967  1
  O  O52  1  0.33811803  0.99575306  0.08201033  1
  O  O53  1  0.33811803  0.00424694  0.41798967  1
  O  O54  1  0.66188197  0.49575306  0.41798967  1
  O  O55  1  0.66188197  0.50424694  0.08201033  1
  O  O56  1  0.69750293  0.82902841  0.89077069  1
  O  O57  1  0.69750293  0.17097159  0.60922931  1
  O  O58  1  0.30249707  0.32902841  0.60922931  1
  O  O59  1  0.30249707  0.67097159  0.89077069  1
  O  O60  1  0.30249707  0.17097159  0.10922931  1
  O  O61  1  0.30249707  0.82902841  0.39077069  1
  O  O62  1  0.69750293  0.67097159  0.39077069  1
  O  O63  1  0.69750293  0.32902841  0.10922931  1
  O  O64  1  0.63925369  0.88137984  0.01465262  1
  O  O65  1  0.63925369  0.11862016  0.48534738  1
  O  O66  1  0.36074631  0.38137984  0.48534738  1
  O  O67  1  0.71037531  0.32361344  0.73271799  1
  Na  Na68  1  0.99512122  0.42372614  0.17103617  1
  Na  Na69  1  0.99512122  0.57627386  0.32896383  1
  Na  Na70  1  0.00487878  0.92372614  0.32896383  1
  Na  Na71  1  0.00487878  0.07627386  0.17103617  1
  Na  Na72  1  0.00487878  0.57627386  0.82896383  1
  Na  Na73  1  0.00487878  0.42372614  0.67103617  1
  Na  Na74  1  0.99512122  0.07627386  0.67103617  1
  Na  Na75  1  0.99512122  0.92372614  0.82896383  1
  Na  Na76  1  0.00000000  0.50000000  0.00000000  1
  Na  Na77  1  0.00000000  0.50000000  0.50000000  1
  Na  Na78  1  0.00000000  0.00000000  0.50000000  1
  Na  Na79  1  0.00000000  0.00000000  0.00000000  1
  Si  Si80  1  0.45065482  0.38905379  0.91851449  1
  Si  Si81  1  0.45065482  0.61094621  0.58148551  1
  Si  Si82  1  0.54934518  0.88905379  0.58148551  1
  Si  Si83  1  0.54934518  0.11094621  0.91851449  1
  Si  Si84  1  0.54934518  0.61094621  0.08148551  1
  Si  Si85  1  0.54934518  0.38905379  0.41851449  1
  Si  Si86  1  0.45065482  0.11094621  0.41851449  1
  Si  Si87  1  0.45065482  0.88905379  0.08148551  1
  Si  Si88  1  0.46452737  0.39721972  0.27392481  1
  Si  Si89  1  0.46452737  0.60278028  0.22607519  1
  Si  Si90  1  0.53547263  0.89721972  0.22607519  1
  Si  Si91  1  0.53547263  0.10278028  0.27392481  1
  Si  Si92  1  0.53547263  0.60278028  0.72607519  1
  Si  Si93  1  0.53547263  0.39721972  0.77392481  1
  Si  Si94  1  0.46452737  0.10278028  0.77392481  1
  Si  Si95  1  0.46452737  0.89721972  0.72607519  1
  Si  Si96  1  0.53430042  0.40122315  0.06468494  1
  Si  Si97  1  0.53430042  0.59877685  0.43531506  1
  Si  Si98  1  0.46569958  0.90122315  0.43531506  1
  Si  Si99  1  0.46569958  0.09877685  0.06468494  1
  Si  Si100  1  0.46569958  0.59877685  0.93531506  1
  Si  Si101  1  0.46569958  0.40122315  0.56468494  1
  Si  Si102  1  0.53430042  0.09877685  0.56468494  1
  Si  Si103  1  0.53430042  0.90122315  0.93531506  1
  Zn  Zn104  1  0.50000000  0.75000000  0.33041261  1
  Zn  Zn105  1  0.50000000  0.25000000  0.16958739  1
  Zn  Zn106  1  0.50000000  0.25000000  0.66958739  1
  Zn  Zn107  1  0.50000000  0.75000000  0.83041261  1
  Sr  Sr108  1  0.00000000  0.75000000  0.47725330  1
  Sr  Sr109  1  0.00000000  0.25000000  0.02274670  1
  Sr  Sr110  1  0.00000000  0.25000000  0.52274670  1
  Sr  Sr111  1  0.00000000  0.75000000  0.97725330  1
  La  La112  1  0.00000000  0.75000000  0.18077879  1
  La  La113  1  0.00000000  0.25000000  0.31922121  1
  La  La114  1  0.00000000  0.25000000  0.81922121  1
  La  La115  1  0.00000000  0.75000000  0.68077879  1
