# generated using pymatgen
data_Ba4GeAs4
_symmetry_space_group_name_H-M   'P 1'
_cell_length_a   13.57006441
_cell_length_b   13.57006441
_cell_length_c   13.57006441
_cell_angle_alpha   90.00000000
_cell_angle_beta   90.00000000
_cell_angle_gamma   90.00000000
_symmetry_Int_Tables_number   1
_chemical_formula_structural   Ba4GeAs4
_chemical_formula_sum   'Ba32 Ge8 As32'
_cell_volume   2498.88187549
_cell_formula_units_Z   8
loop_
 _symmetry_equiv_pos_site_id
 _symmetry_equiv_pos_as_xyz
  1  'x, y, z'
loop_
 _atom_site_type_symbol
 _atom_site_label
 _atom_site_symmetry_multiplicity
 _atom_site_fract_x
 _atom_site_fract_y
 _atom_site_fract_z
 _atom_site_occupancy
  Ge  Ge0  1  0.00000000  0.00000000  0.00000000  1
  Ge  Ge1  1  0.75000000  0.00000000  0.50000000  1
  Ge  Ge2  1  0.50000000  0.75000000  0.00000000  1
  Ge  Ge3  1  0.50000000  0.25000000  0.00000000  1
  Ge  Ge4  1  0.00000000  0.50000000  0.25000000  1
  Ge  Ge5  1  0.00000000  0.50000000  0.75000000  1
  Ge  Ge6  1  0.25000000  0.00000000  0.50000000  1
  Ge  Ge7  1  0.50000000  0.50000000  0.50000000  1
  As  As8  1  0.60548617  0.85091686  0.11503969  1
  As  As9  1  0.64908314  0.10548617  0.38496031  1
  As  As10  1  0.89451383  0.61503969  0.64908314  1
  As  As11  1  0.10548617  0.61503969  0.35091686  1
  As  As12  1  0.61503969  0.64908314  0.89451383  1
  As  As13  1  0.38496031  0.35091686  0.89451383  1
  As  As14  1  0.85091686  0.88496031  0.39451383  1
  As  As15  1  0.85091686  0.11503969  0.60548617  1
  As  As16  1  0.14908314  0.88496031  0.60548617  1
  As  As17  1  0.39324163  0.39324163  0.39324163  1
  As  As18  1  0.60548617  0.14908314  0.88496031  1
  As  As19  1  0.64908314  0.89451383  0.61503969  1
  As  As20  1  0.88496031  0.39451383  0.85091686  1
  As  As21  1  0.39451383  0.85091686  0.88496031  1
  As  As22  1  0.88496031  0.60548617  0.14908314  1
  As  As23  1  0.11503969  0.39451383  0.14908314  1
  As  As24  1  0.39451383  0.14908314  0.11503969  1
  As  As25  1  0.38496031  0.64908314  0.10548617  1
  As  As26  1  0.61503969  0.35091686  0.10548617  1
  As  As27  1  0.89451383  0.38496031  0.35091686  1
  As  As28  1  0.10548617  0.38496031  0.64908314  1
  As  As29  1  0.35091686  0.10548617  0.61503969  1
  As  As30  1  0.35091686  0.89451383  0.38496031  1
  As  As31  1  0.14908314  0.11503969  0.39451383  1
  As  As32  1  0.10675837  0.89324163  0.10675837  1
  As  As33  1  0.10675837  0.10675837  0.89324163  1
  As  As34  1  0.89324163  0.10675837  0.10675837  1
  As  As35  1  0.60675837  0.60675837  0.39324163  1
  As  As36  1  0.39324163  0.60675837  0.60675837  1
  As  As37  1  0.60675837  0.39324163  0.60675837  1
  As  As38  1  0.89324163  0.89324163  0.89324163  1
  As  As39  1  0.11503969  0.60548617  0.85091686  1
  Ba  Ba40  1  0.14337411  0.14337411  0.14337411  1
  Ba  Ba41  1  0.35662589  0.64337411  0.35662589  1
  Ba  Ba42  1  0.64337411  0.35662589  0.35662589  1
  Ba  Ba43  1  0.35662589  0.35662589  0.64337411  1
  Ba  Ba44  1  0.14337411  0.85662589  0.85662589  1
  Ba  Ba45  1  0.85662589  0.85662589  0.14337411  1
  Ba  Ba46  1  0.85662589  0.14337411  0.85662589  1
  Ba  Ba47  1  0.64337411  0.64337411  0.64337411  1
  Ba  Ba48  1  0.90274273  0.86889382  0.64340253  1
  Ba  Ba49  1  0.90274273  0.13110618  0.35659747  1
  Ba  Ba50  1  0.86889382  0.64340253  0.90274273  1
  Ba  Ba51  1  0.13110618  0.64340253  0.09725727  1
  Ba  Ba52  1  0.64340253  0.90274273  0.86889382  1
  Ba  Ba53  1  0.35659747  0.09725727  0.86889382  1
  Ba  Ba54  1  0.59725727  0.85659747  0.36889382  1
  Ba  Ba55  1  0.59725727  0.14340253  0.63110618  1
  Ba  Ba56  1  0.40274273  0.85659747  0.63110618  1
  Ba  Ba57  1  0.14340253  0.63110618  0.59725727  1
  Ba  Ba58  1  0.63110618  0.40274273  0.85659747  1
  Ba  Ba59  1  0.63110618  0.59725727  0.14340253  1
  Ba  Ba60  1  0.85659747  0.36889382  0.59725727  1
  Ba  Ba61  1  0.36889382  0.59725727  0.85659747  1
  Ba  Ba62  1  0.85659747  0.63110618  0.40274273  1
  Ba  Ba63  1  0.14340253  0.36889382  0.40274273  1
  Ba  Ba64  1  0.36889382  0.40274273  0.14340253  1
  Ba  Ba65  1  0.35659747  0.90274273  0.13110618  1
  Ba  Ba66  1  0.64340253  0.09725727  0.13110618  1
  Ba  Ba67  1  0.86889382  0.35659747  0.09725727  1
  Ba  Ba68  1  0.13110618  0.35659747  0.90274273  1
  Ba  Ba69  1  0.09725727  0.13110618  0.64340253  1
  Ba  Ba70  1  0.09725727  0.86889382  0.35659747  1
  Ba  Ba71  1  0.40274273  0.14340253  0.36889382  1
