# generated using pymatgen
data_Na2LiY(Si2O5)3
_symmetry_space_group_name_H-M   'P 1'
_cell_length_a   10.48056875
_cell_length_b   11.54710206
_cell_length_c   11.54710206
_cell_angle_alpha   100.26441983
_cell_angle_beta   90.00000000
_cell_angle_gamma   90.00000000
_symmetry_Int_Tables_number   1
_chemical_formula_structural   Na2LiY(Si2O5)3
_chemical_formula_sum   'Na8 Li4 Y4 Si24 O60'
_cell_volume   1375.06789088
_cell_formula_units_Z   4
loop_
 _symmetry_equiv_pos_site_id
 _symmetry_equiv_pos_as_xyz
  1  'x, y, z'
loop_
 _atom_site_type_symbol
 _atom_site_label
 _atom_site_symmetry_multiplicity
 _atom_site_fract_x
 _atom_site_fract_y
 _atom_site_fract_z
 _atom_site_occupancy
  Li  Li0  1  0.00000000  0.24477813  0.24477813  1
  Li  Li1  1  0.50000000  0.74477813  0.74477813  1
  Li  Li2  1  0.00000000  0.75522187  0.75522187  1
  Li  Li3  1  0.50000000  0.25522187  0.25522187  1
  O  O4  1  0.00846256  0.82892345  0.39621562  1
  O  O5  1  0.31695202  0.44057942  0.55942058  1
  O  O6  1  0.18304798  0.94057942  0.05942058  1
  O  O7  1  0.68304798  0.55942058  0.44057942  1
  O  O8  1  0.07325692  0.17292184  0.82707816  1
  O  O9  1  0.42674308  0.67292184  0.32707816  1
  O  O10  1  0.92674308  0.82707816  0.17292184  1
  O  O11  1  0.57325692  0.32707816  0.67292184  1
  O  O12  1  0.49883612  0.09993309  0.90006691  1
  O  O13  1  0.99883612  0.40006691  0.59993309  1
  O  O14  1  0.50116388  0.90006691  0.09993309  1
  O  O15  1  0.00116388  0.59993309  0.40006691  1
  O  O16  1  0.83592036  0.65405471  0.01501928  1
  O  O17  1  0.33592036  0.84594529  0.48498072  1
  O  O18  1  0.16407964  0.01501928  0.65405471  1
  O  O19  1  0.66407964  0.48498072  0.84594529  1
  O  O20  1  0.16407964  0.34594529  0.98498072  1
  O  O21  1  0.66407964  0.15405471  0.51501928  1
  O  O22  1  0.83592036  0.98498072  0.34594529  1
  O  O23  1  0.33592036  0.51501928  0.15405471  1
  O  O24  1  0.08608131  0.71726545  0.00983565  1
  O  O25  1  0.58608131  0.78273455  0.49016435  1
  O  O26  1  0.91391869  0.00983565  0.71726545  1
  O  O27  1  0.41391869  0.49016435  0.78273455  1
  O  O28  1  0.32542038  0.74997339  0.98215400  1
  O  O29  1  0.41391869  0.21726545  0.50983565  1
  O  O30  1  0.08608131  0.99016435  0.28273455  1
  O  O31  1  0.58608131  0.50983565  0.21726545  1
  O  O32  1  0.15632467  0.83568279  0.83915478  1
  O  O33  1  0.65632467  0.66431721  0.66084522  1
  O  O34  1  0.84367533  0.83915478  0.83568279  1
  O  O35  1  0.34367533  0.66084522  0.66431721  1
  O  O36  1  0.84367533  0.16431721  0.16084522  1
  O  O37  1  0.34367533  0.33568279  0.33915478  1
  O  O38  1  0.15632467  0.16084522  0.16431721  1
  O  O39  1  0.65632467  0.33915478  0.33568279  1
  O  O40  1  0.00846256  0.60378438  0.17107655  1
  O  O41  1  0.50846256  0.89621562  0.32892345  1
  O  O42  1  0.99153744  0.17107655  0.60378438  1
  O  O43  1  0.49153744  0.32892345  0.89621562  1
  O  O44  1  0.99153744  0.39621562  0.82892345  1
  O  O45  1  0.49153744  0.10378438  0.67107655  1
  O  O46  1  0.81695202  0.05942058  0.94057942  1
  O  O47  1  0.50846256  0.67107655  0.10378438  1
  O  O48  1  0.06925286  0.40808528  0.25289246  1
  O  O49  1  0.56925286  0.09191472  0.24710754  1
  O  O50  1  0.93074714  0.25289246  0.40808528  1
  O  O51  1  0.43074714  0.24710754  0.09191472  1
  O  O52  1  0.93074714  0.59191472  0.74710754  1
  O  O53  1  0.43074714  0.90808528  0.75289246  1
  O  O54  1  0.06925286  0.74710754  0.59191472  1
  O  O55  1  0.56925286  0.75289246  0.90808528  1
  O  O56  1  0.82542038  0.48215400  0.24997339  1
  O  O57  1  0.32542038  0.01784600  0.25002661  1
  O  O58  1  0.17457962  0.24997339  0.48215400  1
  O  O59  1  0.67457962  0.25002661  0.01784600  1
  O  O60  1  0.17457962  0.51784600  0.75002661  1
  O  O61  1  0.67457962  0.98215400  0.74997339  1
  O  O62  1  0.82542038  0.75002661  0.51784600  1
  O  O63  1  0.91391869  0.28273455  0.99016435  1
  Na  Na64  1  0.74357273  0.42150536  0.57849464  1
  Na  Na65  1  0.24357273  0.07849464  0.92150536  1
  Na  Na66  1  0.25642727  0.57849464  0.42150536  1
  Na  Na67  1  0.75642727  0.92150536  0.07849464  1
  Na  Na68  1  0.75000000  0.46764735  0.03235265  1
  Na  Na69  1  0.25000000  0.03235265  0.46764735  1
  Na  Na70  1  0.25000000  0.53235265  0.96764735  1
  Na  Na71  1  0.75000000  0.96764735  0.53235265  1
  Si  Si72  1  0.52294742  0.01987557  0.76826835  1
  Si  Si73  1  0.68565040  0.68742742  0.53085637  1
  Si  Si74  1  0.81434960  0.96914363  0.81257258  1
  Si  Si75  1  0.31434960  0.53085637  0.68742742  1
  Si  Si76  1  0.81434960  0.18742742  0.03085637  1
  Si  Si77  1  0.31434960  0.31257258  0.46914363  1
  Si  Si78  1  0.18565040  0.03085637  0.18742742  1
  Si  Si79  1  0.68565040  0.46914363  0.31257258  1
  Si  Si80  1  0.47705258  0.76826835  0.01987557  1
  Si  Si81  1  0.97705258  0.73173165  0.48012443  1
  Si  Si82  1  0.18565040  0.81257258  0.96914363  1
  Si  Si83  1  0.02294742  0.48012443  0.73173165  1
  Si  Si84  1  0.52294742  0.23173165  0.98012443  1
  Si  Si85  1  0.02294742  0.26826835  0.51987557  1
  Si  Si86  1  0.03987287  0.30195038  0.90973943  1
  Si  Si87  1  0.97705258  0.51987557  0.26826835  1
  Si  Si88  1  0.96012713  0.69804962  0.09026057  1
  Si  Si89  1  0.46012713  0.80195038  0.40973943  1
  Si  Si90  1  0.03987287  0.09026057  0.69804962  1
  Si  Si91  1  0.53987287  0.40973943  0.80195038  1
  Si  Si92  1  0.46012713  0.59026057  0.19804962  1
  Si  Si93  1  0.96012713  0.90973943  0.30195038  1
  Si  Si94  1  0.53987287  0.19804962  0.59026057  1
  Si  Si95  1  0.47705258  0.98012443  0.23173165  1
  Y  Y96  1  0.75000000  0.16110822  0.33889178  1
  Y  Y97  1  0.25000000  0.33889178  0.16110822  1
  Y  Y98  1  0.25000000  0.83889178  0.66110822  1
  Y  Y99  1  0.75000000  0.66110822  0.83889178  1
