# generated using pymatgen
data_Ba3Tm(BO3)3
_symmetry_space_group_name_H-M   'P 1'
_cell_length_a   9.47006882
_cell_length_b   9.47006883
_cell_length_c   17.94914640
_cell_angle_alpha   90.00000000
_cell_angle_beta   90.00000000
_cell_angle_gamma   119.99999998
_symmetry_Int_Tables_number   1
_chemical_formula_structural   Ba3Tm(BO3)3
_chemical_formula_sum   'Ba18 Tm6 B18 O54'
_cell_volume   1394.05754742
_cell_formula_units_Z   6
loop_
 _symmetry_equiv_pos_site_id
 _symmetry_equiv_pos_as_xyz
  1  'x, y, z'
loop_
 _atom_site_type_symbol
 _atom_site_label
 _atom_site_symmetry_multiplicity
 _atom_site_fract_x
 _atom_site_fract_y
 _atom_site_fract_z
 _atom_site_occupancy
  B  B0  1  0.66020043  0.66020043  0.42090447  1
  B  B1  1  0.00000000  0.66020043  0.92090447  1
  B  B2  1  0.66020043  0.00000000  0.92090447  1
  B  B3  1  0.33979957  0.00000000  0.42090447  1
  B  B4  1  0.00000000  0.33979957  0.42090447  1
  B  B5  1  0.33979957  0.33979957  0.92090447  1
  B  B6  1  0.66740556  0.66740556  0.24754718  1
  B  B7  1  0.00000000  0.66740556  0.74754718  1
  B  B8  1  0.66740556  0.00000000  0.74754718  1
  B  B9  1  0.33259444  0.00000000  0.24754718  1
  B  B10  1  0.00000000  0.33259444  0.24754718  1
  B  B11  1  0.33259444  0.33259444  0.74754718  1
  B  B12  1  0.67335708  0.67335708  0.07100500  1
  B  B13  1  0.00000000  0.67335708  0.57100500  1
  B  B14  1  0.67335708  0.00000000  0.57100500  1
  B  B15  1  0.32664292  0.00000000  0.07100500  1
  B  B16  1  0.00000000  0.32664292  0.07100500  1
  B  B17  1  0.32664292  0.32664292  0.57100500  1
  O  O18  1  0.80665197  0.80665197  0.43041423  1
  O  O19  1  0.00000000  0.80665197  0.93041423  1
  O  O20  1  0.80665197  0.00000000  0.93041423  1
  O  O21  1  0.19334803  0.00000000  0.43041423  1
  O  O22  1  0.00000000  0.19334803  0.43041423  1
  O  O23  1  0.19334803  0.19334803  0.93041423  1
  O  O24  1  0.66126758  0.14727268  0.91574381  1
  O  O25  1  0.85272732  0.51399490  0.91574381  1
  O  O26  1  0.48600510  0.33873242  0.91574381  1
  O  O27  1  0.51399490  0.66126758  0.41574381  1
  O  O28  1  0.33873242  0.85272732  0.41574381  1
  O  O29  1  0.14727268  0.48600510  0.41574381  1
  O  O30  1  0.66126758  0.51399490  0.41574381  1
  O  O31  1  0.14727268  0.66126758  0.91574381  1
  O  O32  1  0.51399490  0.85272732  0.91574381  1
  O  O33  1  0.48600510  0.14727268  0.41574381  1
  O  O34  1  0.85272732  0.33873242  0.41574381  1
  O  O35  1  0.33873242  0.48600510  0.91574381  1
  O  O36  1  0.52008411  0.52008411  0.24738154  1
  O  O37  1  0.00000000  0.52008411  0.74738154  1
  O  O38  1  0.52008411  0.00000000  0.74738154  1
  O  O39  1  0.47991589  0.00000000  0.24738154  1
  O  O40  1  0.00000000  0.47991589  0.24738154  1
  O  O41  1  0.47991589  0.47991589  0.74738154  1
  O  O42  1  0.81460683  0.14732584  0.74797833  1
  O  O43  1  0.85267416  0.66728099  0.74797833  1
  O  O44  1  0.33271901  0.18539317  0.74797833  1
  O  O45  1  0.66728099  0.81460683  0.24797833  1
  O  O46  1  0.18539317  0.85267416  0.24797833  1
  O  O47  1  0.14732584  0.33271901  0.24797833  1
  O  O48  1  0.81460683  0.66728099  0.24797833  1
  O  O49  1  0.14732584  0.81460683  0.74797833  1
  O  O50  1  0.66728099  0.85267416  0.74797833  1
  O  O51  1  0.33271901  0.14732584  0.24797833  1
  O  O52  1  0.85267416  0.18539317  0.24797833  1
  O  O53  1  0.18539317  0.33271901  0.74797833  1
  O  O54  1  0.67352895  0.14669937  0.56642364  1
  O  O55  1  0.85330063  0.52682958  0.56642364  1
  O  O56  1  0.47317042  0.32647105  0.56642364  1
  O  O57  1  0.52682958  0.67352895  0.06642364  1
  O  O58  1  0.32647105  0.85330063  0.06642364  1
  O  O59  1  0.14669937  0.47317042  0.06642364  1
  O  O60  1  0.67352895  0.52682958  0.06642364  1
  O  O61  1  0.14669937  0.67352895  0.56642364  1
  O  O62  1  0.52682958  0.85330063  0.56642364  1
  O  O63  1  0.47317042  0.14669937  0.06642364  1
  O  O64  1  0.85330063  0.32647105  0.06642364  1
  O  O65  1  0.32647105  0.47317042  0.56642364  1
  O  O66  1  0.81911302  0.81911302  0.08059445  1
  O  O67  1  0.00000000  0.81911302  0.58059445  1
  O  O68  1  0.81911302  0.00000000  0.58059445  1
  O  O69  1  0.18088698  0.00000000  0.08059445  1
  O  O70  1  0.00000000  0.18088698  0.08059445  1
  O  O71  1  0.18088698  0.18088698  0.58059445  1
  Ba  Ba72  1  0.68228605  0.68228605  0.86871211  1
  Ba  Ba73  1  0.00000000  0.68228605  0.36871211  1
  Ba  Ba74  1  0.68228605  0.00000000  0.36871211  1
  Ba  Ba75  1  0.31771395  0.00000000  0.86871211  1
  Ba  Ba76  1  0.00000000  0.31771395  0.86871211  1
  Ba  Ba77  1  0.31771395  0.31771395  0.36871211  1
  Ba  Ba78  1  0.65191219  0.65191219  0.62825737  1
  Ba  Ba79  1  0.00000000  0.65191219  0.12825737  1
  Ba  Ba80  1  0.65191219  0.00000000  0.12825737  1
  Ba  Ba81  1  0.34808781  0.00000000  0.62825737  1
  Ba  Ba82  1  0.00000000  0.34808781  0.62825737  1
  Ba  Ba83  1  0.34808781  0.34808781  0.12825737  1
  Ba  Ba84  1  0.33333333  0.66666667  0.27559078  1
  Ba  Ba85  1  0.66666667  0.33333333  0.77559078  1
  Ba  Ba86  1  0.33333333  0.66666667  0.77559078  1
  Ba  Ba87  1  0.66666667  0.33333333  0.27559078  1
  Ba  Ba88  1  0.00000000  0.00000000  0.71516827  1
  Ba  Ba89  1  0.00000000  0.00000000  0.21516827  1
  Tm  Tm90  1  0.33333333  0.66666667  0.99544262  1
  Tm  Tm91  1  0.66666667  0.33333333  0.49544262  1
  Tm  Tm92  1  0.33333333  0.66666667  0.49544262  1
  Tm  Tm93  1  0.66666667  0.33333333  0.99544262  1
  Tm  Tm94  1  0.00000000  0.00000000  0.50144122  1
  Tm  Tm95  1  0.00000000  0.00000000  0.00144122  1
