# generated using pymatgen
data_Rb7NaGe8
_symmetry_space_group_name_H-M   'P 1'
_cell_length_a   13.36431349
_cell_length_b   13.36431349
_cell_length_c   13.36431349
_cell_angle_alpha   90.00000000
_cell_angle_beta   90.00000000
_cell_angle_gamma   90.00000000
_symmetry_Int_Tables_number   1
_chemical_formula_structural   Rb7NaGe8
_chemical_formula_sum   'Rb28 Na4 Ge32'
_cell_volume   2386.93154113
_cell_formula_units_Z   4
loop_
 _symmetry_equiv_pos_site_id
 _symmetry_equiv_pos_as_xyz
  1  'x, y, z'
loop_
 _atom_site_type_symbol
 _atom_site_label
 _atom_site_symmetry_multiplicity
 _atom_site_fract_x
 _atom_site_fract_y
 _atom_site_fract_z
 _atom_site_occupancy
  Na  Na0  1  0.50000000  0.00000000  0.00000000  1
  Na  Na1  1  0.00000000  0.50000000  0.00000000  1
  Na  Na2  1  0.00000000  0.00000000  0.50000000  1
  Na  Na3  1  0.50000000  0.50000000  0.50000000  1
  Ge  Ge4  1  0.70137977  0.70137977  0.70137977  1
  Ge  Ge5  1  0.79862023  0.29862023  0.20137977  1
  Ge  Ge6  1  0.20137977  0.79862023  0.29862023  1
  Ge  Ge7  1  0.29862023  0.20137977  0.79862023  1
  Ge  Ge8  1  0.20537863  0.92571989  0.44324040  1
  Ge  Ge9  1  0.44324040  0.20537863  0.92571989  1
  Ge  Ge10  1  0.92571989  0.44324040  0.20537863  1
  Ge  Ge11  1  0.57428011  0.55675960  0.70537863  1
  Ge  Ge12  1  0.94324040  0.29462137  0.07428011  1
  Ge  Ge13  1  0.07428011  0.94324040  0.29462137  1
  Ge  Ge14  1  0.05675960  0.79462137  0.42571989  1
  Ge  Ge15  1  0.55675960  0.70537863  0.57428011  1
  Ge  Ge16  1  0.42571989  0.05675960  0.79462137  1
  Ge  Ge17  1  0.70137977  0.79862023  0.20137977  1
  Ge  Ge18  1  0.79462137  0.42571989  0.05675960  1
  Ge  Ge19  1  0.29462137  0.07428011  0.94324040  1
  Ge  Ge20  1  0.79462137  0.07428011  0.55675960  1
  Ge  Ge21  1  0.55675960  0.79462137  0.07428011  1
  Ge  Ge22  1  0.07428011  0.55675960  0.79462137  1
  Ge  Ge23  1  0.42571989  0.44324040  0.29462137  1
  Ge  Ge24  1  0.05675960  0.70537863  0.92571989  1
  Ge  Ge25  1  0.92571989  0.05675960  0.70537863  1
  Ge  Ge26  1  0.94324040  0.20537863  0.57428011  1
  Ge  Ge27  1  0.44324040  0.29462137  0.42571989  1
  Ge  Ge28  1  0.57428011  0.94324040  0.20537863  1
  Ge  Ge29  1  0.29462137  0.42571989  0.44324040  1
  Ge  Ge30  1  0.20537863  0.57428011  0.94324040  1
  Ge  Ge31  1  0.70537863  0.92571989  0.05675960  1
  Ge  Ge32  1  0.79862023  0.20137977  0.70137977  1
  Ge  Ge33  1  0.20137977  0.70137977  0.79862023  1
  Ge  Ge34  1  0.70537863  0.57428011  0.55675960  1
  Ge  Ge35  1  0.29862023  0.29862023  0.29862023  1
  Rb  Rb36  1  0.81324445  0.45852960  0.77290453  1
  Rb  Rb37  1  0.77290453  0.81324445  0.45852960  1
  Rb  Rb38  1  0.18675555  0.95852960  0.72709547  1
  Rb  Rb39  1  0.68675555  0.54147040  0.27290453  1
  Rb  Rb40  1  0.72709547  0.18675555  0.95852960  1
  Rb  Rb41  1  0.54147040  0.27290453  0.68675555  1
  Rb  Rb42  1  0.95852960  0.72709547  0.18675555  1
  Rb  Rb43  1  0.45852960  0.77290453  0.81324445  1
  Rb  Rb44  1  0.95852960  0.77290453  0.68675555  1
  Rb  Rb45  1  0.68675555  0.95852960  0.77290453  1
  Rb  Rb46  1  0.77290453  0.68675555  0.95852960  1
  Rb  Rb47  1  0.72709547  0.31324445  0.45852960  1
  Rb  Rb48  1  0.27290453  0.68675555  0.54147040  1
  Rb  Rb49  1  0.22709547  0.18675555  0.54147040  1
  Rb  Rb50  1  0.81324445  0.04147040  0.27290453  1
  Rb  Rb51  1  0.31324445  0.45852960  0.72709547  1
  Rb  Rb52  1  0.27290453  0.81324445  0.04147040  1
  Rb  Rb53  1  0.45852960  0.72709547  0.31324445  1
  Rb  Rb54  1  0.04147040  0.27290453  0.81324445  1
  Rb  Rb55  1  0.54147040  0.22709547  0.18675555  1
  Rb  Rb56  1  0.00000000  0.00000000  0.00000000  1
  Rb  Rb57  1  0.50000000  0.00000000  0.50000000  1
  Rb  Rb58  1  0.50000000  0.50000000  0.00000000  1
  Rb  Rb59  1  0.00000000  0.50000000  0.50000000  1
  Rb  Rb60  1  0.22709547  0.31324445  0.04147040  1
  Rb  Rb61  1  0.31324445  0.04147040  0.22709547  1
  Rb  Rb62  1  0.04147040  0.22709547  0.31324445  1
  Rb  Rb63  1  0.18675555  0.54147040  0.22709547  1
