# generated using pymatgen
data_Rb2SrP2O7
_symmetry_space_group_name_H-M   'P 1'
_cell_length_a   5.95934782
_cell_length_b   6.00007494
_cell_length_c   13.51760712
_cell_angle_alpha   79.05250505
_cell_angle_beta   77.26576292
_cell_angle_gamma   60.22428469
_symmetry_Int_Tables_number   1
_chemical_formula_structural   Rb2SrP2O7
_chemical_formula_sum   'Rb4 Sr2 P4 O14'
_cell_volume   407.35938878
_cell_formula_units_Z   2
loop_
 _symmetry_equiv_pos_site_id
 _symmetry_equiv_pos_as_xyz
  1  'x, y, z'
loop_
 _atom_site_type_symbol
 _atom_site_label
 _atom_site_symmetry_multiplicity
 _atom_site_fract_x
 _atom_site_fract_y
 _atom_site_fract_z
 _atom_site_occupancy
  O  O0  1  0.16062861  0.25000000  0.25000000  1
  O  O1  1  0.83937139  0.75000000  0.75000000  1
  O  O2  1  0.20011106  0.21302128  0.06703513  1
  O  O3  1  0.98016748  0.28697872  0.43296487  1
  O  O4  1  0.79988894  0.78697872  0.93296487  1
  O  O5  1  0.01983252  0.71302128  0.56703513  1
  O  O6  1  0.59699154  0.16313848  0.13361866  1
  O  O7  1  0.39374868  0.33686152  0.36638134  1
  O  O8  1  0.40300846  0.83686152  0.86638134  1
  O  O9  1  0.60625132  0.66313848  0.63361866  1
  O  O10  1  0.58314737  0.10504101  0.62235492  1
  O  O11  1  0.81054330  0.39495899  0.87764508  1
  O  O12  1  0.41685263  0.89495899  0.37764508  1
  O  O13  1  0.18945670  0.60504101  0.12235492  1
  P  P14  1  0.29983384  0.31039228  0.13521457  1
  P  P15  1  0.24544069  0.18960772  0.36478543  1
  P  P16  1  0.70016616  0.68960772  0.86478543  1
  P  P17  1  0.75455931  0.81039228  0.63521457  1
  Rb  Rb18  1  0.36779317  0.36975155  0.83566911  1
  Rb  Rb19  1  0.07321383  0.13024845  0.66433089  1
  Rb  Rb20  1  0.63220683  0.63024845  0.16433089  1
  Rb  Rb21  1  0.92678617  0.86975155  0.33566911  1
  Sr  Sr22  1  0.00000000  0.00000000  0.00000000  1
  Sr  Sr23  1  0.50000000  0.50000000  0.50000000  1
