# generated using pymatgen
data_TaIn3O7
_symmetry_space_group_name_H-M   'P 1'
_cell_length_a   6.29263272
_cell_length_b   6.31356420
_cell_length_c   7.49221958
_cell_angle_alpha   73.14318068
_cell_angle_beta   89.77261795
_cell_angle_gamma   81.87108308
_symmetry_Int_Tables_number   1
_chemical_formula_structural   TaIn3O7
_chemical_formula_sum   'Ta2 In6 O14'
_cell_volume   281.79051695
_cell_formula_units_Z   2
loop_
 _symmetry_equiv_pos_site_id
 _symmetry_equiv_pos_as_xyz
  1  'x, y, z'
loop_
 _atom_site_type_symbol
 _atom_site_label
 _atom_site_symmetry_multiplicity
 _atom_site_fract_x
 _atom_site_fract_y
 _atom_site_fract_z
 _atom_site_occupancy
  Ta  Ta0  1  -0.00000000  -0.00000000  0.00000000  1
  Ta  Ta1  1  -0.00000000  -0.00000000  0.50000000  1
  In  In2  1  0.26616518  0.46837835  0.88319905  1
  In  In3  1  0.26245192  0.45710590  0.38740024  1
  In  In4  1  0.47048955  0.99337368  0.24692311  1
  In  In5  1  0.52951045  0.00662632  0.75307689  1
  In  In6  1  0.73754808  0.54289410  0.61259976  1
  In  In7  1  0.73383482  0.53162165  0.11680095  1
  O  O8  1  0.29319551  0.05803829  0.52113138  1
  O  O9  1  0.09509958  0.67188896  0.04530070  1
  O  O10  1  0.29167009  0.08302686  0.94923930  1
  O  O11  1  0.06738620  0.64518793  0.61245472  1
  O  O12  1  0.08091992  0.95318780  0.26292654  1
  O  O13  1  0.44408995  0.34060639  0.16600075  1
  O  O14  1  0.47354831  0.35571270  0.66172264  1
  O  O15  1  0.52645169  0.64428730  0.33827736  1
  O  O16  1  0.55591005  0.65939361  0.83399925  1
  O  O17  1  0.91908008  0.04681220  0.73707346  1
  O  O18  1  0.93261380  0.35481207  0.38754528  1
  O  O19  1  0.70832991  0.91697314  0.05076070  1
  O  O20  1  0.90490042  0.32811104  0.95469930  1
  O  O21  1  0.70680449  0.94196171  0.47886862  1
