# generated using pymatgen
data_U3Ga2Ge3
_symmetry_space_group_name_H-M   'P 1'
_cell_length_a   7.80395410
_cell_length_b   7.80395410
_cell_length_c   7.65593026
_cell_angle_alpha   58.34056851
_cell_angle_beta   58.34056851
_cell_angle_gamma   88.29078246
_symmetry_Int_Tables_number   1
_chemical_formula_structural   U3Ga2Ge3
_chemical_formula_sum   'U6 Ga4 Ge6'
_cell_volume   317.79903430
_cell_formula_units_Z   2
loop_
 _symmetry_equiv_pos_site_id
 _symmetry_equiv_pos_as_xyz
  1  'x, y, z'
loop_
 _atom_site_type_symbol
 _atom_site_label
 _atom_site_symmetry_multiplicity
 _atom_site_fract_x
 _atom_site_fract_y
 _atom_site_fract_z
 _atom_site_occupancy
  U  U0  1  0.44870252  0.94870252  0.39848723  1
  U  U1  1  0.15281025  0.65281025  0.39848723  1
  U  U2  1  0.33382442  0.53629753  0.62987805  1
  U  U3  1  0.03629753  0.83382442  0.62987805  1
  U  U4  1  0.51036596  0.01036596  0.66897711  1
  U  U5  1  0.82065693  0.32065693  0.66897711  1
  Ga  Ga6  1  0.50827485  0.50827485  0.98345029  1
  Ga  Ga7  1  0.00827485  0.00827485  0.98345029  1
  Ga  Ga8  1  0.72264705  0.50172733  0.27562562  1
  Ga  Ga9  1  0.00172733  0.22264705  0.27562562  1
  Ge  Ge10  1  0.63891262  0.83218528  0.02890210  1
  Ge  Ge11  1  0.33218528  0.13891262  0.02890210  1
  Ge  Ge12  1  0.83052015  0.33052015  0.03432919  1
  Ge  Ge13  1  0.13515066  0.63515066  0.03432919  1
  Ge  Ge14  1  0.25982479  0.25982479  0.48035041  1
  Ge  Ge15  1  0.75982479  0.75982479  0.48035041  1
