# generated using pymatgen
data_Ag3O4
_symmetry_space_group_name_H-M   'P 1'
_cell_length_a   3.77201104
_cell_length_b   5.74571169
_cell_length_c   9.34798779
_cell_angle_alpha   90.00000000
_cell_angle_beta   90.00000000
_cell_angle_gamma   104.22882121
_symmetry_Int_Tables_number   1
_chemical_formula_structural   Ag3O4
_chemical_formula_sum   'Ag6 O8'
_cell_volume   196.38255949
_cell_formula_units_Z   2
loop_
 _symmetry_equiv_pos_site_id
 _symmetry_equiv_pos_as_xyz
  1  'x, y, z'
loop_
 _atom_site_type_symbol
 _atom_site_label
 _atom_site_symmetry_multiplicity
 _atom_site_fract_x
 _atom_site_fract_y
 _atom_site_fract_z
 _atom_site_occupancy
  O  O0  1  0.05267571  0.33103063  0.69204648  1
  O  O1  1  0.94732429  0.16896937  0.19204648  1
  O  O2  1  0.94732429  0.66896937  0.30795352  1
  O  O3  1  0.05267571  0.83103063  0.80795352  1
  O  O4  1  0.46777321  0.27114006  0.95693088  1
  O  O5  1  0.53222679  0.22885994  0.45693088  1
  O  O6  1  0.46777321  0.77114006  0.54306912  1
  O  O7  1  0.53222679  0.72885994  0.04306912  1
  Ag  Ag8  1  0.29386132  0.55104287  0.85827615  1
  Ag  Ag9  1  0.70613868  0.94895713  0.35827615  1
  Ag  Ag10  1  0.70613868  0.44895713  0.14172385  1
  Ag  Ag11  1  0.29386132  0.05104287  0.64172385  1
  Ag  Ag12  1  0.00000000  0.50000000  0.50000000  1
  Ag  Ag13  1  0.00000000  0.00000000  0.00000000  1
