# generated using pymatgen
data_K9Fe2S7
_symmetry_space_group_name_H-M   'P 1'
_cell_length_a   12.76149577
_cell_length_b   12.76149577
_cell_length_c   12.76149577
_cell_angle_alpha   90.00000000
_cell_angle_beta   90.00000000
_cell_angle_gamma   90.00000000
_symmetry_Int_Tables_number   1
_chemical_formula_structural   K9Fe2S7
_chemical_formula_sum   'K36 Fe8 S28'
_cell_volume   2078.28327469
_cell_formula_units_Z   4
loop_
 _symmetry_equiv_pos_site_id
 _symmetry_equiv_pos_as_xyz
  1  'x, y, z'
loop_
 _atom_site_type_symbol
 _atom_site_label
 _atom_site_symmetry_multiplicity
 _atom_site_fract_x
 _atom_site_fract_y
 _atom_site_fract_z
 _atom_site_occupancy
  S  S0  1  0.20603589  0.29396411  0.70603589  1
  S  S1  1  0.29396411  0.70603589  0.20603589  1
  S  S2  1  0.70603589  0.20603589  0.29396411  1
  S  S3  1  0.79396411  0.79396411  0.79396411  1
  S  S4  1  0.42381330  0.94098060  0.81198954  1
  S  S5  1  0.92381330  0.55901940  0.18801046  1
  S  S6  1  0.57618670  0.44098060  0.68801046  1
  S  S7  1  0.55901940  0.18801046  0.92381330  1
  S  S8  1  0.68801046  0.57618670  0.44098060  1
  S  S9  1  0.18801046  0.92381330  0.55901940  1
  S  S10  1  0.94098060  0.81198954  0.42381330  1
  S  S11  1  0.81198954  0.42381330  0.94098060  1
  S  S12  1  0.44098060  0.68801046  0.57618670  1
  S  S13  1  0.05901940  0.31198954  0.07618670  1
  S  S14  1  0.31198954  0.07618670  0.05901940  1
  S  S15  1  0.07618670  0.05901940  0.31198954  1
  S  S16  1  0.58840507  0.93108418  0.33571151  1
  S  S17  1  0.08840507  0.56891582  0.66428849  1
  S  S18  1  0.41159493  0.43108418  0.16428849  1
  S  S19  1  0.56891582  0.66428849  0.08840507  1
  S  S20  1  0.16428849  0.41159493  0.43108418  1
  S  S21  1  0.66428849  0.08840507  0.56891582  1
  S  S22  1  0.93108418  0.33571151  0.58840507  1
  S  S23  1  0.33571151  0.58840507  0.93108418  1
  S  S24  1  0.43108418  0.16428849  0.41159493  1
  S  S25  1  0.06891582  0.83571151  0.91159493  1
  S  S26  1  0.83571151  0.91159493  0.06891582  1
  S  S27  1  0.91159493  0.06891582  0.83571151  1
  K  K28  1  0.70855823  0.82229543  0.54216620  1
  K  K29  1  0.26236148  0.76236148  0.73763852  1
  K  K30  1  0.73763852  0.26236148  0.76236148  1
  K  K31  1  0.76236148  0.73763852  0.26236148  1
  K  K32  1  0.05888088  0.05888088  0.05888088  1
  K  K33  1  0.44111912  0.94111912  0.55888088  1
  K  K34  1  0.55888088  0.44111912  0.94111912  1
  K  K35  1  0.94111912  0.55888088  0.44111912  1
  K  K36  1  0.83305086  0.00203477  0.29979702  1
  K  K37  1  0.29979702  0.83305086  0.00203477  1
  K  K38  1  0.00203477  0.29979702  0.83305086  1
  K  K39  1  0.49796523  0.70020298  0.33305086  1
  K  K40  1  0.79979702  0.66694914  0.99796523  1
  K  K41  1  0.99796523  0.79979702  0.66694914  1
  K  K42  1  0.20020298  0.16694914  0.50203477  1
  K  K43  1  0.70020298  0.33305086  0.49796523  1
  K  K44  1  0.58720809  0.91279191  0.08720809  1
  K  K45  1  0.91279191  0.08720809  0.58720809  1
  K  K46  1  0.08720809  0.58720809  0.91279191  1
  K  K47  1  0.41279191  0.41279191  0.41279191  1
  K  K48  1  0.32229543  0.95783380  0.29144177  1
  K  K49  1  0.82229543  0.54216620  0.70855823  1
  K  K50  1  0.50203477  0.20020298  0.16694914  1
  K  K51  1  0.54216620  0.70855823  0.82229543  1
  K  K52  1  0.20855823  0.67770457  0.45783380  1
  K  K53  1  0.23763852  0.23763852  0.23763852  1
  K  K54  1  0.95783380  0.29144177  0.32229543  1
  K  K55  1  0.29144177  0.32229543  0.95783380  1
  K  K56  1  0.45783380  0.20855823  0.67770457  1
  K  K57  1  0.04216620  0.79144177  0.17770457  1
  K  K58  1  0.79144177  0.17770457  0.04216620  1
  K  K59  1  0.17770457  0.04216620  0.79144177  1
  K  K60  1  0.66694914  0.99796523  0.79979702  1
  K  K61  1  0.16694914  0.50203477  0.20020298  1
  K  K62  1  0.33305086  0.49796523  0.70020298  1
  K  K63  1  0.67770457  0.45783380  0.20855823  1
  Fe  Fe64  1  0.09930014  0.40069986  0.59930014  1
  Fe  Fe65  1  0.40069986  0.59930014  0.09930014  1
  Fe  Fe66  1  0.59930014  0.09930014  0.40069986  1
  Fe  Fe67  1  0.90069986  0.90069986  0.90069986  1
  Fe  Fe68  1  0.42967291  0.07032709  0.92967291  1
  Fe  Fe69  1  0.07032709  0.92967291  0.42967291  1
  Fe  Fe70  1  0.92967291  0.42967291  0.07032709  1
  Fe  Fe71  1  0.57032709  0.57032709  0.57032709  1
