# generated using pymatgen
data_Ba4TiAs4
_symmetry_space_group_name_H-M   'P 1'
_cell_length_a   13.60651098
_cell_length_b   13.60651098
_cell_length_c   13.60651098
_cell_angle_alpha   90.00000000
_cell_angle_beta   90.00000000
_cell_angle_gamma   90.00000000
_symmetry_Int_Tables_number   1
_chemical_formula_structural   Ba4TiAs4
_chemical_formula_sum   'Ba32 Ti8 As32'
_cell_volume   2519.07054249
_cell_formula_units_Z   8
loop_
 _symmetry_equiv_pos_site_id
 _symmetry_equiv_pos_as_xyz
  1  'x, y, z'
loop_
 _atom_site_type_symbol
 _atom_site_label
 _atom_site_symmetry_multiplicity
 _atom_site_fract_x
 _atom_site_fract_y
 _atom_site_fract_z
 _atom_site_occupancy
  Ti  Ti0  1  0.00000000  0.00000000  0.00000000  1
  Ti  Ti1  1  0.75000000  0.00000000  0.50000000  1
  Ti  Ti2  1  0.50000000  0.75000000  0.00000000  1
  Ti  Ti3  1  0.50000000  0.25000000  0.00000000  1
  Ti  Ti4  1  0.00000000  0.50000000  0.25000000  1
  Ti  Ti5  1  0.00000000  0.50000000  0.75000000  1
  Ti  Ti6  1  0.25000000  0.00000000  0.50000000  1
  Ti  Ti7  1  0.50000000  0.50000000  0.50000000  1
  As  As8  1  0.60477972  0.85135595  0.11151919  1
  As  As9  1  0.64864405  0.10477972  0.38848081  1
  As  As10  1  0.89522028  0.61151919  0.64864405  1
  As  As11  1  0.10477972  0.61151919  0.35135595  1
  As  As12  1  0.61151919  0.64864405  0.89522028  1
  As  As13  1  0.38848081  0.35135595  0.89522028  1
  As  As14  1  0.85135595  0.88848081  0.39522028  1
  As  As15  1  0.85135595  0.11151919  0.60477972  1
  As  As16  1  0.14864405  0.88848081  0.60477972  1
  As  As17  1  0.39419320  0.39419320  0.39419320  1
  As  As18  1  0.60477972  0.14864405  0.88848081  1
  As  As19  1  0.64864405  0.89522028  0.61151919  1
  As  As20  1  0.88848081  0.39522028  0.85135595  1
  As  As21  1  0.39522028  0.85135595  0.88848081  1
  As  As22  1  0.88848081  0.60477972  0.14864405  1
  As  As23  1  0.11151919  0.39522028  0.14864405  1
  As  As24  1  0.39522028  0.14864405  0.11151919  1
  As  As25  1  0.38848081  0.64864405  0.10477972  1
  As  As26  1  0.61151919  0.35135595  0.10477972  1
  As  As27  1  0.89522028  0.38848081  0.35135595  1
  As  As28  1  0.10477972  0.38848081  0.64864405  1
  As  As29  1  0.35135595  0.10477972  0.61151919  1
  As  As30  1  0.35135595  0.89522028  0.38848081  1
  As  As31  1  0.14864405  0.11151919  0.39522028  1
  As  As32  1  0.10580680  0.89419320  0.10580680  1
  As  As33  1  0.10580680  0.10580680  0.89419320  1
  As  As34  1  0.89419320  0.10580680  0.10580680  1
  As  As35  1  0.60580680  0.60580680  0.39419320  1
  As  As36  1  0.39419320  0.60580680  0.60580680  1
  As  As37  1  0.60580680  0.39419320  0.60580680  1
  As  As38  1  0.89419320  0.89419320  0.89419320  1
  As  As39  1  0.11151919  0.60477972  0.85135595  1
  Ba  Ba40  1  0.14835749  0.14835749  0.14835749  1
  Ba  Ba41  1  0.35164251  0.64835749  0.35164251  1
  Ba  Ba42  1  0.64835749  0.35164251  0.35164251  1
  Ba  Ba43  1  0.35164251  0.35164251  0.64835749  1
  Ba  Ba44  1  0.14835749  0.85164251  0.85164251  1
  Ba  Ba45  1  0.85164251  0.85164251  0.14835749  1
  Ba  Ba46  1  0.85164251  0.14835749  0.85164251  1
  Ba  Ba47  1  0.64835749  0.64835749  0.64835749  1
  Ba  Ba48  1  0.90728898  0.86357164  0.64823544  1
  Ba  Ba49  1  0.90728898  0.13642836  0.35176456  1
  Ba  Ba50  1  0.86357164  0.64823544  0.90728898  1
  Ba  Ba51  1  0.13642836  0.64823544  0.09271102  1
  Ba  Ba52  1  0.64823544  0.90728898  0.86357164  1
  Ba  Ba53  1  0.35176456  0.09271102  0.86357164  1
  Ba  Ba54  1  0.59271102  0.85176456  0.36357164  1
  Ba  Ba55  1  0.59271102  0.14823544  0.63642836  1
  Ba  Ba56  1  0.40728898  0.85176456  0.63642836  1
  Ba  Ba57  1  0.14823544  0.63642836  0.59271102  1
  Ba  Ba58  1  0.63642836  0.40728898  0.85176456  1
  Ba  Ba59  1  0.63642836  0.59271102  0.14823544  1
  Ba  Ba60  1  0.85176456  0.36357164  0.59271102  1
  Ba  Ba61  1  0.36357164  0.59271102  0.85176456  1
  Ba  Ba62  1  0.85176456  0.63642836  0.40728898  1
  Ba  Ba63  1  0.14823544  0.36357164  0.40728898  1
  Ba  Ba64  1  0.36357164  0.40728898  0.14823544  1
  Ba  Ba65  1  0.35176456  0.90728898  0.13642836  1
  Ba  Ba66  1  0.64823544  0.09271102  0.13642836  1
  Ba  Ba67  1  0.86357164  0.35176456  0.09271102  1
  Ba  Ba68  1  0.13642836  0.35176456  0.90728898  1
  Ba  Ba69  1  0.09271102  0.13642836  0.64823544  1
  Ba  Ba70  1  0.09271102  0.86357164  0.35176456  1
  Ba  Ba71  1  0.40728898  0.14823544  0.36357164  1
