# generated using pymatgen
data_TmNi2
_symmetry_space_group_name_H-M   'P 1'
_cell_length_a   10.05347909
_cell_length_b   10.05347909
_cell_length_c   10.05347909
_cell_angle_alpha   60.00000000
_cell_angle_beta   60.00000000
_cell_angle_gamma   60.00000000
_symmetry_Int_Tables_number   1
_chemical_formula_structural   TmNi2
_chemical_formula_sum   'Tm16 Ni32'
_cell_volume   718.51218782
_cell_formula_units_Z   16
loop_
 _symmetry_equiv_pos_site_id
 _symmetry_equiv_pos_as_xyz
  1  'x, y, z'
loop_
 _atom_site_type_symbol
 _atom_site_label
 _atom_site_symmetry_multiplicity
 _atom_site_fract_x
 _atom_site_fract_y
 _atom_site_fract_z
 _atom_site_occupancy
  Tm  Tm0  1  0.00000000  0.00000000  -0.00000000  1
  Tm  Tm1  1  0.50000000  0.50000000  0.50000000  1
  Tm  Tm2  1  0.87494567  0.37501811  0.37501811  1
  Tm  Tm3  1  0.37501811  0.87494567  0.37501811  1
  Tm  Tm4  1  0.37501811  0.37501811  0.87494567  1
  Tm  Tm5  1  0.37501811  0.37501811  0.37501811  1
  Tm  Tm6  1  0.37486436  0.87504521  0.87504521  1
  Tm  Tm7  1  0.87504521  0.37486436  0.87504521  1
  Tm  Tm8  1  0.87504521  0.87504521  0.37486436  1
  Tm  Tm9  1  0.87504521  0.87504521  0.87504521  1
  Tm  Tm10  1  0.50041261  0.99958739  0.99958739  1
  Tm  Tm11  1  0.50041261  0.99958739  0.50041261  1
  Tm  Tm12  1  0.50041261  0.50041261  0.99958739  1
  Tm  Tm13  1  0.99958739  0.50041261  0.50041261  1
  Tm  Tm14  1  0.99958739  0.50041261  0.99958739  1
  Tm  Tm15  1  0.99958739  0.99958739  0.50041261  1
  Ni  Ni16  1  0.93682626  0.68772458  0.68772458  1
  Ni  Ni17  1  0.68772458  0.93682626  0.68772458  1
  Ni  Ni18  1  0.68772458  0.68772458  0.93682626  1
  Ni  Ni19  1  0.68772458  0.68772458  0.68772458  1
  Ni  Ni20  1  0.43831306  0.18722898  0.18722898  1
  Ni  Ni21  1  0.18722898  0.43831306  0.18722898  1
  Ni  Ni22  1  0.18722898  0.18722898  0.43831306  1
  Ni  Ni23  1  0.18722898  0.18722898  0.18722898  1
  Ni  Ni24  1  0.93770485  0.68731794  0.18748861  1
  Ni  Ni25  1  0.93770485  0.18748861  0.18748861  1
  Ni  Ni26  1  0.93770485  0.18748861  0.68731794  1
  Ni  Ni27  1  0.68731794  0.93770485  0.18748861  1
  Ni  Ni28  1  0.18748861  0.93770485  0.68731794  1
  Ni  Ni29  1  0.18748861  0.93770485  0.18748861  1
  Ni  Ni30  1  0.18748861  0.18748861  0.93770485  1
  Ni  Ni31  1  0.18748861  0.68731794  0.93770485  1
  Ni  Ni32  1  0.68731794  0.18748861  0.93770485  1
  Ni  Ni33  1  0.18748861  0.18748861  0.68731794  1
  Ni  Ni34  1  0.68731794  0.18748861  0.18748861  1
  Ni  Ni35  1  0.18748861  0.68731794  0.18748861  1
  Ni  Ni36  1  0.43727295  0.18773299  0.68749703  1
  Ni  Ni37  1  0.43727295  0.68749703  0.68749703  1
  Ni  Ni38  1  0.43727295  0.68749703  0.18773299  1
  Ni  Ni39  1  0.18773299  0.43727295  0.68749703  1
  Ni  Ni40  1  0.68749703  0.43727295  0.18773299  1
  Ni  Ni41  1  0.68749703  0.43727295  0.68749703  1
  Ni  Ni42  1  0.68749703  0.68749703  0.43727295  1
  Ni  Ni43  1  0.68749703  0.18773299  0.43727295  1
  Ni  Ni44  1  0.18773299  0.68749703  0.43727295  1
  Ni  Ni45  1  0.68749703  0.68749703  0.18773299  1
  Ni  Ni46  1  0.18773299  0.68749703  0.68749703  1
  Ni  Ni47  1  0.68749703  0.18773299  0.68749703  1
