# generated using pymatgen
data_Li2GeO3
_symmetry_space_group_name_H-M   'P 1'
_cell_length_a   4.93478469
_cell_length_b   5.54824505
_cell_length_c   5.59965471
_cell_angle_alpha   119.69676135
_cell_angle_beta   90.00000000
_cell_angle_gamma   90.00000000
_symmetry_Int_Tables_number   1
_chemical_formula_structural   Li2GeO3
_chemical_formula_sum   'Li4 Ge2 O6'
_cell_volume   133.17867041
_cell_formula_units_Z   2
loop_
 _symmetry_equiv_pos_site_id
 _symmetry_equiv_pos_as_xyz
  1  'x, y, z'
loop_
 _atom_site_type_symbol
 _atom_site_label
 _atom_site_symmetry_multiplicity
 _atom_site_fract_x
 _atom_site_fract_y
 _atom_site_fract_z
 _atom_site_occupancy
  Li  Li0  1  0.01168519  0.83246413  0.34888510  1
  Li  Li1  1  0.51168519  0.16753587  0.65111490  1
  Li  Li2  1  0.51168519  0.51642098  0.34888510  1
  Li  Li3  1  0.01168519  0.48357902  0.65111490  1
  O  O4  1  0.87242559  0.86554448  0.00000000  1
  O  O5  1  0.41034572  0.53033024  0.69479598  1
  O  O6  1  0.41034572  0.83553426  0.30520402  1
  O  O7  1  0.37242559  0.13445552  0.00000000  1
  O  O8  1  0.91034572  0.16446574  0.69479598  1
  O  O9  1  0.91034572  0.46966976  0.30520402  1
  Ge  Ge10  1  0.50161260  0.82189682  0.00000000  1
  Ge  Ge11  1  0.00161260  0.17810318  0.00000000  1
