# generated using pymatgen
data_Ba2LaIrO6
_symmetry_space_group_name_H-M   'P 1'
_cell_length_a   6.14650289
_cell_length_b   6.09227733
_cell_length_c   8.62992632
_cell_angle_alpha   90.00000000
_cell_angle_beta   90.29433815
_cell_angle_gamma   90.00000000
_symmetry_Int_Tables_number   1
_chemical_formula_structural   Ba2LaIrO6
_chemical_formula_sum   'Ba4 La2 Ir2 O12'
_cell_volume   323.15368494
_cell_formula_units_Z   2
loop_
 _symmetry_equiv_pos_site_id
 _symmetry_equiv_pos_as_xyz
  1  'x, y, z'
loop_
 _atom_site_type_symbol
 _atom_site_label
 _atom_site_symmetry_multiplicity
 _atom_site_fract_x
 _atom_site_fract_y
 _atom_site_fract_z
 _atom_site_occupancy
  O  O0  1  0.95740006  0.50082266  0.72848946  1
  O  O1  1  0.54259994  0.00082266  0.77151054  1
  O  O2  1  0.04259994  0.49917734  0.27151054  1
  O  O3  1  0.45740006  0.99917734  0.22848946  1
  O  O4  1  0.77618820  0.73464475  0.47764474  1
  O  O5  1  0.72381180  0.23464475  0.02235526  1
  O  O6  1  0.22381180  0.26535525  0.52235526  1
  O  O7  1  0.27618820  0.76535525  0.97764474  1
  O  O8  1  0.26813613  0.22647416  0.97759766  1
  O  O9  1  0.23186387  0.72647416  0.52240234  1
  O  O10  1  0.73186387  0.77352584  0.02240234  1
  O  O11  1  0.76813613  0.27352584  0.47759766  1
  Ba  Ba12  1  0.00230897  0.99740868  0.74815446  1
  Ba  Ba13  1  0.49769103  0.49740868  0.75184554  1
  Ba  Ba14  1  0.99769103  0.00259132  0.25184554  1
  Ba  Ba15  1  0.50230897  0.50259132  0.24815446  1
  La  La16  1  0.00000000  0.50000000  0.00000000  1
  La  La17  1  0.50000000  0.00000000  0.50000000  1
  Ir  Ir18  1  0.50000000  0.00000000  0.00000000  1
  Ir  Ir19  1  0.00000000  0.50000000  0.50000000  1
