# generated using pymatgen
data_Ca6FeN5
_symmetry_space_group_name_H-M   'P 1'
_cell_length_a   6.24759458
_cell_length_b   6.24759458
_cell_length_c   12.26531742
_cell_angle_alpha   90.00000000
_cell_angle_beta   90.00000000
_cell_angle_gamma   119.99999999
_symmetry_Int_Tables_number   1
_chemical_formula_structural   Ca6FeN5
_chemical_formula_sum   'Ca12 Fe2 N10'
_cell_volume   414.60554177
_cell_formula_units_Z   2
loop_
 _symmetry_equiv_pos_site_id
 _symmetry_equiv_pos_as_xyz
  1  'x, y, z'
loop_
 _atom_site_type_symbol
 _atom_site_label
 _atom_site_symmetry_multiplicity
 _atom_site_fract_x
 _atom_site_fract_y
 _atom_site_fract_z
 _atom_site_occupancy
  N  N0  1  0.71238589  0.00000000  0.75000000  1
  N  N1  1  0.28761411  0.28761411  0.75000000  1
  N  N2  1  0.28761411  0.00000000  0.25000000  1
  N  N3  1  0.66666667  0.33333333  0.50000000  1
  N  N4  1  0.33333333  0.66666667  0.00000000  1
  N  N5  1  0.33333333  0.66666667  0.50000000  1
  N  N6  1  0.66666667  0.33333333  0.00000000  1
  N  N7  1  0.71238589  0.71238589  0.25000000  1
  N  N8  1  0.00000000  0.28761411  0.25000000  1
  N  N9  1  0.00000000  0.71238589  0.75000000  1
  Ca  Ca10  1  0.00000000  0.39689180  0.87986324  1
  Ca  Ca11  1  0.60310820  0.60310820  0.87986324  1
  Ca  Ca12  1  0.60310820  0.00000000  0.12013676  1
  Ca  Ca13  1  0.39689180  0.00000000  0.62013676  1
  Ca  Ca14  1  0.39689180  0.39689180  0.37986324  1
  Ca  Ca15  1  0.60310820  0.00000000  0.37986324  1
  Ca  Ca16  1  0.39689180  0.39689180  0.12013676  1
  Ca  Ca17  1  0.00000000  0.60310820  0.12013676  1
  Ca  Ca18  1  0.00000000  0.39689180  0.62013676  1
  Ca  Ca19  1  0.60310820  0.60310820  0.62013676  1
  Ca  Ca20  1  0.39689180  0.00000000  0.87986324  1
  Ca  Ca21  1  0.00000000  0.60310820  0.37986324  1
  Fe  Fe22  1  0.00000000  0.00000000  0.75000000  1
  Fe  Fe23  1  0.00000000  0.00000000  0.25000000  1
