# generated using pymatgen
data_Re2P
_symmetry_space_group_name_H-M   'P 1'
_cell_length_a   2.97013764
_cell_length_b   5.57152713
_cell_length_c   10.10640765
_cell_angle_alpha   90.00000000
_cell_angle_beta   90.00000000
_cell_angle_gamma   90.00000000
_symmetry_Int_Tables_number   1
_chemical_formula_structural   Re2P
_chemical_formula_sum   'Re8 P4'
_cell_volume   167.24287974
_cell_formula_units_Z   4
loop_
 _symmetry_equiv_pos_site_id
 _symmetry_equiv_pos_as_xyz
  1  'x, y, z'
loop_
 _atom_site_type_symbol
 _atom_site_label
 _atom_site_symmetry_multiplicity
 _atom_site_fract_x
 _atom_site_fract_y
 _atom_site_fract_z
 _atom_site_occupancy
  Re  Re0  1  0.75000000  0.67644850  0.56528784  1
  Re  Re1  1  0.75000000  0.17644850  0.93471216  1
  Re  Re2  1  0.25000000  0.32355150  0.43471216  1
  Re  Re3  1  0.25000000  0.82355150  0.06528784  1
  Re  Re4  1  0.75000000  0.64510319  0.28625098  1
  Re  Re5  1  0.75000000  0.14510319  0.21374902  1
  Re  Re6  1  0.25000000  0.35489681  0.71374902  1
  Re  Re7  1  0.25000000  0.85489681  0.78625098  1
  P  P8  1  0.75000000  0.09955309  0.60175514  1
  P  P9  1  0.75000000  0.59955309  0.89824486  1
  P  P10  1  0.25000000  0.90044691  0.39824486  1
  P  P11  1  0.25000000  0.40044691  0.10175514  1
