# generated using pymatgen
data_Cu2SnHgSe4
_symmetry_space_group_name_H-M   'P 1'
_cell_length_a   5.92959037
_cell_length_b   5.92959037
_cell_length_c   7.16346805
_cell_angle_alpha   114.44862021
_cell_angle_beta   114.44862025
_cell_angle_gamma   90.00000002
_symmetry_Int_Tables_number   1
_chemical_formula_structural   Cu2SnHgSe4
_chemical_formula_sum   'Cu2 Sn1 Hg1 Se4'
_cell_volume   204.21675604
_cell_formula_units_Z   1
loop_
 _symmetry_equiv_pos_site_id
 _symmetry_equiv_pos_as_xyz
  1  'x, y, z'
loop_
 _atom_site_type_symbol
 _atom_site_label
 _atom_site_symmetry_multiplicity
 _atom_site_fract_x
 _atom_site_fract_y
 _atom_site_fract_z
 _atom_site_occupancy
  Cu  Cu0  1  0.25000000  0.75000000  0.50000000  1
  Cu  Cu1  1  0.75000000  0.25000000  0.50000000  1
  Se  Se2  1  0.39988393  0.39988393  0.28524790  1
  Se  Se3  1  0.88536397  0.88536397  0.28524790  1
  Se  Se4  1  0.11463603  0.60011607  0.71475210  1
  Se  Se5  1  0.60011607  0.11463603  0.71475210  1
  Sn  Sn6  1  0.50000000  0.50000000  0.00000000  1
  Hg  Hg7  1  0.00000000  0.00000000  0.00000000  1
