# generated using pymatgen
data_RbNpN3O11
_symmetry_space_group_name_H-M   'P 1'
_cell_length_a   8.55610580
_cell_length_b   8.55610579
_cell_length_c   8.55610579
_cell_angle_alpha   68.82321576
_cell_angle_beta   68.82321574
_cell_angle_gamma   68.82321577
_symmetry_Int_Tables_number   1
_chemical_formula_structural   RbNpN3O11
_chemical_formula_sum   'Rb2 Np2 N6 O22'
_cell_volume   525.09797966
_cell_formula_units_Z   2
loop_
 _symmetry_equiv_pos_site_id
 _symmetry_equiv_pos_as_xyz
  1  'x, y, z'
loop_
 _atom_site_type_symbol
 _atom_site_label
 _atom_site_symmetry_multiplicity
 _atom_site_fract_x
 _atom_site_fract_y
 _atom_site_fract_z
 _atom_site_occupancy
  N  N0  1  0.75000000  0.05232930  0.44767070  1
  N  N1  1  0.05232930  0.44767070  0.75000000  1
  N  N2  1  0.55232930  0.25000000  0.94767070  1
  N  N3  1  0.25000000  0.94767070  0.55232930  1
  N  N4  1  0.94767070  0.55232930  0.25000000  1
  N  N5  1  0.44767070  0.75000000  0.05232930  1
  O  O6  1  0.12674680  0.09001195  0.55165322  1
  O  O7  1  0.25000000  0.82062382  0.67937618  1
  O  O8  1  0.67937618  0.25000000  0.82062382  1
  O  O9  1  0.17937618  0.32062382  0.75000000  1
  O  O10  1  0.75000000  0.17937618  0.32062382  1
  O  O11  1  0.32062382  0.75000000  0.17937618  1
  O  O12  1  0.09001195  0.55165322  0.12674680  1
  O  O13  1  0.55165322  0.12674680  0.09001195  1
  O  O14  1  0.82062382  0.67937618  0.25000000  1
  O  O15  1  0.94834678  0.40998805  0.37325320  1
  O  O16  1  0.90998805  0.44834678  0.87325320  1
  O  O17  1  0.40998805  0.37325320  0.94834678  1
  O  O18  1  0.37325320  0.94834678  0.40998805  1
  O  O19  1  0.87325320  0.90998805  0.44834678  1
  O  O20  1  0.44834678  0.87325320  0.90998805  1
  O  O21  1  0.05165322  0.59001195  0.62674680  1
  O  O22  1  0.62674680  0.05165322  0.59001195  1
  O  O23  1  0.59001195  0.62674680  0.05165322  1
  O  O24  1  0.65794039  0.65794039  0.65794039  1
  O  O25  1  0.15794039  0.15794039  0.15794039  1
  O  O26  1  0.34205961  0.34205961  0.34205961  1
  O  O27  1  0.84205961  0.84205961  0.84205961  1
  Rb  Rb28  1  0.00000000  0.00000000  0.00000000  1
  Rb  Rb29  1  0.50000000  0.50000000  0.50000000  1
  Np  Np30  1  0.75000000  0.75000000  0.75000000  1
  Np  Np31  1  0.25000000  0.25000000  0.25000000  1
