# generated using pymatgen
data_K3Sc(PO4)2
_symmetry_space_group_name_H-M   'P 1'
_cell_length_a   9.54710280
_cell_length_b   9.54710280
_cell_length_c   7.75983651
_cell_angle_alpha   90.00000000
_cell_angle_beta   90.00000000
_cell_angle_gamma   120.00000000
_symmetry_Int_Tables_number   1
_chemical_formula_structural   K3Sc(PO4)2
_chemical_formula_sum   'K9 Sc3 P6 O24'
_cell_volume   612.52864131
_cell_formula_units_Z   3
loop_
 _symmetry_equiv_pos_site_id
 _symmetry_equiv_pos_as_xyz
  1  'x, y, z'
loop_
 _atom_site_type_symbol
 _atom_site_label
 _atom_site_symmetry_multiplicity
 _atom_site_fract_x
 _atom_site_fract_y
 _atom_site_fract_z
 _atom_site_occupancy
  O  O0  1  0.48742686  0.33459252  0.80087052  1
  O  O1  1  0.84716566  0.51257314  0.80087052  1
  O  O2  1  0.66540748  0.15283434  0.80087052  1
  O  O3  1  0.51257314  0.66540748  0.19912948  1
  O  O4  1  0.15283434  0.48742686  0.19912948  1
  O  O5  1  0.33459252  0.84716566  0.19912948  1
  O  O6  1  0.33727782  0.48214048  0.88834033  1
  O  O7  1  0.14486266  0.66272218  0.88834033  1
  O  O8  1  0.51785952  0.85513734  0.88834033  1
  O  O9  1  0.66272218  0.51785952  0.11165967  1
  O  O10  1  0.85513734  0.33727782  0.11165967  1
  O  O11  1  0.48214048  0.14486266  0.11165967  1
  O  O12  1  0.18252639  0.17649321  0.84111975  1
  O  O13  1  0.99396683  0.81747361  0.84111975  1
  O  O14  1  0.82350679  0.00603317  0.84111975  1
  O  O15  1  0.81747361  0.82350679  0.15888025  1
  O  O16  1  0.00603317  0.18252639  0.15888025  1
  O  O17  1  0.17649321  0.99396683  0.15888025  1
  O  O18  1  0.36740000  0.06659002  0.41129301  1
  O  O19  1  0.93340998  0.30080998  0.41129301  1
  O  O20  1  0.69919002  0.63260000  0.41129301  1
  O  O21  1  0.63260000  0.93340998  0.58870699  1
  O  O22  1  0.06659002  0.69919002  0.58870699  1
  O  O23  1  0.30080998  0.36740000  0.58870699  1
  P  P24  1  0.32768793  0.34045550  0.77707448  1
  P  P25  1  0.01276757  0.67231207  0.77707448  1
  P  P26  1  0.65954450  0.98723243  0.77707448  1
  P  P27  1  0.67231207  0.65954450  0.22292552  1
  P  P28  1  0.98723243  0.32768793  0.22292552  1
  P  P29  1  0.34045550  0.01276757  0.22292552  1
  K  K30  1  0.33392366  0.33350750  0.25102226  1
  K  K31  1  0.99958384  0.66607634  0.25102226  1
  K  K32  1  0.66649250  0.00041616  0.25102226  1
  K  K33  1  0.66607634  0.66649250  0.74897774  1
  K  K34  1  0.00041616  0.33392366  0.74897774  1
  K  K35  1  0.33350750  0.99958384  0.74897774  1
  K  K36  1  0.33333333  0.66666667  0.50240320  1
  K  K37  1  0.66666667  0.33333333  0.49759680  1
  K  K38  1  0.00000000  0.00000000  0.50000000  1
  Sc  Sc39  1  0.33333333  0.66666667  0.03076478  1
  Sc  Sc40  1  0.66666667  0.33333333  0.96923522  1
  Sc  Sc41  1  0.00000000  0.00000000  0.00000000  1
