# generated using pymatgen
data_K2Ni3S4
_symmetry_space_group_name_H-M   'P 1'
_cell_length_a   5.75771627
_cell_length_b   5.81409723
_cell_length_c   13.44704190
_cell_angle_alpha   83.91485588
_cell_angle_beta   77.63793810
_cell_angle_gamma   60.32026846
_symmetry_Int_Tables_number   1
_chemical_formula_structural   K2Ni3S4
_chemical_formula_sum   'K4 Ni6 S8'
_cell_volume   382.02736327
_cell_formula_units_Z   2
loop_
 _symmetry_equiv_pos_site_id
 _symmetry_equiv_pos_as_xyz
  1  'x, y, z'
loop_
 _atom_site_type_symbol
 _atom_site_label
 _atom_site_symmetry_multiplicity
 _atom_site_fract_x
 _atom_site_fract_y
 _atom_site_fract_z
 _atom_site_occupancy
  S  S0  1  0.24048649  0.41783533  0.85996837  1
  S  S1  1  0.01829019  0.08216467  0.64003163  1
  S  S2  1  0.34167818  0.41783533  0.64003163  1
  S  S3  1  0.89954514  0.08216467  0.85996837  1
  S  S4  1  0.75951351  0.58216467  0.14003163  1
  S  S5  1  0.98170981  0.91783533  0.35996837  1
  S  S6  1  0.10045486  0.91783533  0.14003163  1
  S  S7  1  0.65832182  0.58216467  0.35996837  1
  K  K8  1  0.54683019  0.75000000  0.90633961  1
  K  K9  1  0.70316981  0.75000000  0.59366039  1
  K  K10  1  0.45316981  0.25000000  0.09366039  1
  K  K11  1  0.29683019  0.25000000  0.40633961  1
  Ni  Ni12  1  0.62572894  0.25000000  0.74854213  1
  Ni  Ni13  1  0.12427106  0.25000000  0.75145787  1
  Ni  Ni14  1  0.37427106  0.75000000  0.25145787  1
  Ni  Ni15  1  0.87572894  0.75000000  0.24854213  1
  Ni  Ni16  1  0.12500000  0.75000000  0.75000000  1
  Ni  Ni17  1  0.87500000  0.25000000  0.25000000  1
