# generated using pymatgen
data_Na3WN3
_symmetry_space_group_name_H-M   'P 1'
_cell_length_a   6.44309688
_cell_length_b   8.88625353
_cell_length_c   8.88625353
_cell_angle_alpha   77.30629597
_cell_angle_beta   69.05732886
_cell_angle_gamma   69.05732892
_symmetry_Int_Tables_number   1
_chemical_formula_structural   Na3WN3
_chemical_formula_sum   'Na12 W4 N12'
_cell_volume   441.30656431
_cell_formula_units_Z   4
loop_
 _symmetry_equiv_pos_site_id
 _symmetry_equiv_pos_as_xyz
  1  'x, y, z'
loop_
 _atom_site_type_symbol
 _atom_site_label
 _atom_site_symmetry_multiplicity
 _atom_site_fract_x
 _atom_site_fract_y
 _atom_site_fract_z
 _atom_site_occupancy
  N  N0  1  0.04960965  0.05589203  0.64498334  1
  N  N1  1  0.54960965  0.64498334  0.05589203  1
  N  N2  1  0.66590358  0.32825681  0.87867878  1
  N  N3  1  0.16590358  0.87867878  0.32825681  1
  N  N4  1  0.75558147  0.85687752  0.63708728  1
  N  N5  1  0.25558147  0.63708728  0.85687752  1
  N  N6  1  0.66429088  0.90288817  0.16697190  1
  N  N7  1  0.16429088  0.16697190  0.90288817  1
  N  N8  1  0.59134813  0.61365101  0.39877193  1
  N  N9  1  0.09134813  0.39877193  0.61365101  1
  N  N10  1  0.72595523  0.16781873  0.42457507  1
  N  N11  1  0.22595523  0.42457507  0.16781873  1
  Na  Na12  1  0.38837682  0.14861503  0.08079278  1
  Na  Na13  1  0.88837682  0.08079278  0.14861503  1
  Na  Na14  1  0.87306368  0.84770680  0.88239596  1
  Na  Na15  1  0.37306368  0.88239596  0.84770680  1
  Na  Na16  1  0.69287105  0.60800435  0.64035088  1
  Na  Na17  1  0.19287105  0.64035088  0.60800435  1
  Na  Na18  1  0.92549498  0.36547111  0.39539501  1
  Na  Na19  1  0.42549498  0.39539501  0.36547111  1
  Na  Na20  1  0.47137009  0.27452275  0.70488820  1
  Na  Na21  1  0.97137009  0.70488820  0.27452275  1
  Na  Na22  1  0.46839530  0.99545431  0.47082609  1
  Na  Na23  1  0.96839530  0.47082609  0.99545431  1
  W  W24  1  0.92422677  0.99231439  0.50891849  1
  W  W25  1  0.42422677  0.50891849  0.99231439  1
  W  W26  1  0.49171236  0.75981725  0.23813403  1
  W  W27  1  0.99171236  0.23813403  0.75981725  1
