# generated using pymatgen
data_KPSe6
_symmetry_space_group_name_H-M   'P 1'
_cell_length_a   7.03670991
_cell_length_b   11.74065988
_cell_length_c   12.06590542
_cell_angle_alpha   90.00000000
_cell_angle_beta   90.00000000
_cell_angle_gamma   90.00000000
_symmetry_Int_Tables_number   1
_chemical_formula_structural   KPSe6
_chemical_formula_sum   'K4 P4 Se24'
_cell_volume   996.83222972
_cell_formula_units_Z   4
loop_
 _symmetry_equiv_pos_site_id
 _symmetry_equiv_pos_as_xyz
  1  'x, y, z'
loop_
 _atom_site_type_symbol
 _atom_site_label
 _atom_site_symmetry_multiplicity
 _atom_site_fract_x
 _atom_site_fract_y
 _atom_site_fract_z
 _atom_site_occupancy
  P  P0  1  0.22074439  0.66447769  0.83341931  1
  P  P1  1  0.77925561  0.16447769  0.16658069  1
  P  P2  1  0.77925561  0.66447769  0.33341931  1
  P  P3  1  0.22074439  0.16447769  0.66658069  1
  K  K4  1  0.85291756  0.33478998  0.87850512  1
  K  K5  1  0.14708244  0.83478998  0.12149488  1
  K  K6  1  0.14708244  0.33478998  0.37850512  1
  K  K7  1  0.85291756  0.83478998  0.62149488  1
  Se  Se8  1  0.92352501  0.69829459  0.87380296  1
  Se  Se9  1  0.07647499  0.19829459  0.12619704  1
  Se  Se10  1  0.07647499  0.69829459  0.37380296  1
  Se  Se11  1  0.92352501  0.19829459  0.62619704  1
  Se  Se12  1  0.93592914  0.45706744  0.13234371  1
  Se  Se13  1  0.06407086  0.95706744  0.86765629  1
  Se  Se14  1  0.06407086  0.45706744  0.63234371  1
  Se  Se15  1  0.93592914  0.95706744  0.36765629  1
  Se  Se16  1  0.57754291  0.30262136  0.13921564  1
  Se  Se17  1  0.42245709  0.80262136  0.86078436  1
  Se  Se18  1  0.42245709  0.30262136  0.63921564  1
  Se  Se19  1  0.57754291  0.80262136  0.36078436  1
  Se  Se20  1  0.73971655  0.62571701  0.14946110  1
  Se  Se21  1  0.26028345  0.12571701  0.85053890  1
  Se  Se22  1  0.26028345  0.62571701  0.64946110  1
  Se  Se23  1  0.73971655  0.12571701  0.35053890  1
  Se  Se24  1  0.74605976  0.53813168  0.60388032  1
  Se  Se25  1  0.25394024  0.03813168  0.39611968  1
  Se  Se26  1  0.25394024  0.53813168  0.10388032  1
  Se  Se27  1  0.74605976  0.03813168  0.89611968  1
  Se  Se28  1  0.31843416  0.49461027  0.91597131  1
  Se  Se29  1  0.68156584  0.99461027  0.08402869  1
  Se  Se30  1  0.68156584  0.49461027  0.41597131  1
  Se  Se31  1  0.31843416  0.99461027  0.58402869  1
