# generated using pymatgen
data_Nd2(ZnGe2)3
_symmetry_space_group_name_H-M   'P 1'
_cell_length_a   5.95625235
_cell_length_b   5.96021764
_cell_length_c   12.76487082
_cell_angle_alpha   103.50096689
_cell_angle_beta   90.00000000
_cell_angle_gamma   90.00000000
_symmetry_Int_Tables_number   1
_chemical_formula_structural   Nd2(ZnGe2)3
_chemical_formula_sum   'Nd4 Zn6 Ge12'
_cell_volume   440.63743275
_cell_formula_units_Z   2
loop_
 _symmetry_equiv_pos_site_id
 _symmetry_equiv_pos_as_xyz
  1  'x, y, z'
loop_
 _atom_site_type_symbol
 _atom_site_label
 _atom_site_symmetry_multiplicity
 _atom_site_fract_x
 _atom_site_fract_y
 _atom_site_fract_z
 _atom_site_occupancy
  Nd  Nd0  1  0.75000000  0.10647373  0.21294745  1
  Nd  Nd1  1  0.25000000  0.60659087  0.21318175  1
  Nd  Nd2  1  0.75000000  0.39340913  0.78681825  1
  Nd  Nd3  1  0.25000000  0.89352627  0.78705255  1
  Zn  Zn4  1  0.75000000  0.83942638  0.67885277  1
  Zn  Zn5  1  0.50000000  0.26328284  0.00000000  1
  Zn  Zn6  1  -0.00000000  0.26328284  0.00000000  1
  Zn  Zn7  1  -0.00000000  0.73671716  1.00000000  1
  Zn  Zn8  1  0.25000000  0.16057362  0.32114723  1
  Zn  Zn9  1  0.50000000  0.73671716  1.00000000  1
  Ge  Ge10  1  0.25000000  0.05898955  0.11797910  1
  Ge  Ge11  1  0.03467769  0.08334405  0.59787522  1
  Ge  Ge12  1  0.75000000  0.94101045  0.88202090  1
  Ge  Ge13  1  0.75000000  0.56974501  0.13949003  1
  Ge  Ge14  1  0.53467769  0.91665595  0.40212478  1
  Ge  Ge15  1  0.03467769  0.51453117  0.59787522  1
  Ge  Ge16  1  0.46532231  0.51453117  0.59787522  1
  Ge  Ge17  1  0.96532231  0.91665595  0.40212478  1
  Ge  Ge18  1  0.46532231  0.08334405  0.59787522  1
  Ge  Ge19  1  0.53467769  0.48546883  0.40212478  1
  Ge  Ge20  1  0.25000000  0.43025499  0.86050997  1
  Ge  Ge21  1  0.96532231  0.48546883  0.40212478  1
