# generated using pymatgen
data_K2Na3TlO4
_symmetry_space_group_name_H-M   'P 1'
_cell_length_a   7.78766664
_cell_length_b   9.38622413
_cell_length_c   9.74497678
_cell_angle_alpha   90.00000000
_cell_angle_beta   90.00000000
_cell_angle_gamma   90.00000000
_symmetry_Int_Tables_number   1
_chemical_formula_structural   K2Na3TlO4
_chemical_formula_sum   'K8 Na12 Tl4 O16'
_cell_volume   712.32646796
_cell_formula_units_Z   4
loop_
 _symmetry_equiv_pos_site_id
 _symmetry_equiv_pos_as_xyz
  1  'x, y, z'
loop_
 _atom_site_type_symbol
 _atom_site_label
 _atom_site_symmetry_multiplicity
 _atom_site_fract_x
 _atom_site_fract_y
 _atom_site_fract_z
 _atom_site_occupancy
  O  O0  1  0.50000000  0.04829409  0.27766781  1
  O  O1  1  0.50000000  0.95170591  0.72233219  1
  O  O2  1  0.00000000  0.54829409  0.22233219  1
  O  O3  1  0.00000000  0.45170591  0.77766781  1
  O  O4  1  0.25488717  0.80160828  0.98416620  1
  O  O5  1  0.25488717  0.19839172  0.01583380  1
  O  O6  1  0.24511283  0.30160828  0.51583380  1
  O  O7  1  0.24511283  0.69839172  0.48416620  1
  O  O8  1  0.74511283  0.19839172  0.01583380  1
  O  O9  1  0.74511283  0.80160828  0.98416620  1
  O  O10  1  0.75488717  0.69839172  0.48416620  1
  O  O11  1  0.75488717  0.30160828  0.51583380  1
  O  O12  1  0.50000000  0.43887522  0.22361411  1
  O  O13  1  0.00000000  0.06112478  0.72361411  1
  O  O14  1  0.50000000  0.56112478  0.77638589  1
  O  O15  1  0.00000000  0.93887522  0.27638589  1
  Na  Na16  1  0.24961548  0.51668816  0.65081618  1
  Na  Na17  1  0.24961548  0.48331184  0.34918382  1
  Na  Na18  1  0.25038452  0.01668816  0.84918382  1
  Na  Na19  1  0.25038452  0.98331184  0.15081618  1
  Na  Na20  1  0.00000000  0.24024943  0.91506514  1
  Na  Na21  1  0.00000000  0.75975057  0.08493486  1
  Na  Na22  1  0.50000000  0.74024943  0.58493486  1
  Na  Na23  1  0.50000000  0.25975057  0.41506514  1
  Na  Na24  1  0.74961548  0.98331184  0.15081618  1
  Na  Na25  1  0.75038452  0.48331184  0.34918382  1
  Na  Na26  1  0.75038452  0.51668816  0.65081618  1
  Na  Na27  1  0.74961548  0.01668816  0.84918382  1
  K  K28  1  0.24676882  0.50000000  0.00000000  1
  K  K29  1  0.25323118  0.00000000  0.50000000  1
  K  K30  1  0.75323118  0.50000000  0.00000000  1
  K  K31  1  0.74676882  0.00000000  0.50000000  1
  K  K32  1  0.50000000  0.26397893  0.74982659  1
  K  K33  1  0.50000000  0.73602107  0.25017341  1
  K  K34  1  0.00000000  0.76397893  0.75017341  1
  K  K35  1  0.00000000  0.23602107  0.24982659  1
  Tl  Tl36  1  0.00000000  0.72730953  0.37891967  1
  Tl  Tl37  1  0.00000000  0.27269047  0.62108033  1
  Tl  Tl38  1  0.50000000  0.22730953  0.12108033  1
  Tl  Tl39  1  0.50000000  0.77269047  0.87891967  1
