# generated using pymatgen
data_Ba2SnS3F2
_symmetry_space_group_name_H-M   'P 1'
_cell_length_a   6.30765208
_cell_length_b   6.43490858
_cell_length_c   19.59541427
_cell_angle_alpha   90.00000000
_cell_angle_beta   90.00000000
_cell_angle_gamma   90.00000000
_symmetry_Int_Tables_number   1
_chemical_formula_structural   Ba2SnS3F2
_chemical_formula_sum   'Ba8 Sn4 S12 F8'
_cell_volume   795.36149304
_cell_formula_units_Z   4
loop_
 _symmetry_equiv_pos_site_id
 _symmetry_equiv_pos_as_xyz
  1  'x, y, z'
loop_
 _atom_site_type_symbol
 _atom_site_label
 _atom_site_symmetry_multiplicity
 _atom_site_fract_x
 _atom_site_fract_y
 _atom_site_fract_z
 _atom_site_occupancy
  F  F0  1  0.49912129  0.25247189  0.00075615  1
  F  F1  1  0.99912129  0.24752811  0.49924385  1
  F  F2  1  0.50087871  0.74752811  0.50075615  1
  F  F3  1  0.49912129  0.25247189  0.49924385  1
  F  F4  1  0.99912129  0.24752811  0.00075615  1
  F  F5  1  0.00087871  0.75247189  0.50075615  1
  F  F6  1  0.50087871  0.74752811  0.99924385  1
  F  F7  1  0.00087871  0.75247189  0.99924385  1
  S  S8  1  0.74472532  0.51557328  0.86209257  1
  S  S9  1  0.76345634  0.54223137  0.25000000  1
  S  S10  1  0.73654366  0.04223137  0.75000000  1
  S  S11  1  0.23654366  0.45776863  0.75000000  1
  S  S12  1  0.24472532  0.98442672  0.63790743  1
  S  S13  1  0.75527468  0.01557328  0.13790743  1
  S  S14  1  0.25527468  0.48442672  0.36209257  1
  S  S15  1  0.25527468  0.48442672  0.13790743  1
  S  S16  1  0.74472532  0.51557328  0.63790743  1
  S  S17  1  0.24472532  0.98442672  0.86209257  1
  S  S18  1  0.26345634  0.95776863  0.25000000  1
  S  S19  1  0.75527468  0.01557328  0.36209257  1
  Sn  Sn20  1  0.15741965  0.58482242  0.25000000  1
  Sn  Sn21  1  0.65741965  0.91517758  0.25000000  1
  Sn  Sn22  1  0.34258035  0.08482242  0.75000000  1
  Sn  Sn23  1  0.84258035  0.41517758  0.75000000  1
  Ba  Ba24  1  0.24725912  0.49763289  0.57689804  1
  Ba  Ba25  1  0.74725912  0.00236711  0.92310196  1
  Ba  Ba26  1  0.25274088  0.99763289  0.42310196  1
  Ba  Ba27  1  0.75274088  0.50236711  0.07689804  1
  Ba  Ba28  1  0.75274088  0.50236711  0.42310196  1
  Ba  Ba29  1  0.25274088  0.99763289  0.07689804  1
  Ba  Ba30  1  0.74725912  0.00236711  0.57689804  1
  Ba  Ba31  1  0.24725912  0.49763289  0.92310196  1
