# generated using pymatgen
data_Nb7P4
_symmetry_space_group_name_H-M   'P 1'
_cell_length_a   3.45873555
_cell_length_b   7.73694659
_cell_length_c   13.95710029
_cell_angle_alpha   104.42861911
_cell_angle_beta   90.00000000
_cell_angle_gamma   102.91590572
_symmetry_Int_Tables_number   1
_chemical_formula_structural   Nb7P4
_chemical_formula_sum   'Nb14 P8'
_cell_volume   351.94650021
_cell_formula_units_Z   2
loop_
 _symmetry_equiv_pos_site_id
 _symmetry_equiv_pos_as_xyz
  1  'x, y, z'
loop_
 _atom_site_type_symbol
 _atom_site_label
 _atom_site_symmetry_multiplicity
 _atom_site_fract_x
 _atom_site_fract_y
 _atom_site_fract_z
 _atom_site_occupancy
  P  P0  1  0.93572609  0.87145218  0.15041328  1
  P  P1  1  0.06427391  0.12854782  0.84958672  1
  P  P2  1  0.63055649  0.26111297  0.66443975  1
  P  P3  1  0.36944351  0.73888703  0.33556025  1
  P  P4  1  0.62600461  0.25200922  0.39818523  1
  P  P5  1  0.37399539  0.74799078  0.60181477  1
  P  P6  1  0.82625552  0.65251103  0.88749547  1
  P  P7  1  0.17374448  0.34748897  0.11250453  1
  Nb  Nb8  1  0.33787834  0.67575668  0.02745936  1
  Nb  Nb9  1  0.66212166  0.32424332  0.97254064  1
  Nb  Nb10  1  0.00367693  0.00735387  0.66560854  1
  Nb  Nb11  1  0.99632307  0.99264613  0.33439146  1
  Nb  Nb12  1  0.17485327  0.34970653  0.54057857  1
  Nb  Nb13  1  0.82514673  0.65029347  0.45942143  1
  Nb  Nb14  1  0.79014098  0.58028196  0.19969513  1
  Nb  Nb15  1  0.20985902  0.41971804  0.80030487  1
  Nb  Nb16  1  0.80500484  0.61000969  0.68746421  1
  Nb  Nb17  1  0.19499516  0.38999031  0.31253579  1
  Nb  Nb18  1  0.56819199  0.13638398  0.17255934  1
  Nb  Nb19  1  0.43180801  0.86361602  0.82744066  1
  Nb  Nb20  1  0.50000000  0.00000000  0.50000000  1
  Nb  Nb21  1  0.00000000  0.00000000  0.00000000  1
