# generated using pymatgen
data_CsCuS4
_symmetry_space_group_name_H-M   'P 1'
_cell_length_a   5.27976223
_cell_length_b   9.07940653
_cell_length_c   13.95644313
_cell_angle_alpha   90.00000000
_cell_angle_beta   90.00000000
_cell_angle_gamma   90.00000000
_symmetry_Int_Tables_number   1
_chemical_formula_structural   CsCuS4
_chemical_formula_sum   'Cs4 Cu4 S16'
_cell_volume   669.03151698
_cell_formula_units_Z   4
loop_
 _symmetry_equiv_pos_site_id
 _symmetry_equiv_pos_as_xyz
  1  'x, y, z'
loop_
 _atom_site_type_symbol
 _atom_site_label
 _atom_site_symmetry_multiplicity
 _atom_site_fract_x
 _atom_site_fract_y
 _atom_site_fract_z
 _atom_site_occupancy
  S  S0  1  0.06018276  0.93852084  0.07549417  1
  S  S1  1  0.56018276  0.56147916  0.92450583  1
  S  S2  1  0.93981724  0.43852084  0.42450583  1
  S  S3  1  0.43981724  0.06147916  0.57549417  1
  S  S4  1  0.11586539  0.79054812  0.41075130  1
  S  S5  1  0.61586539  0.70945188  0.58924870  1
  S  S6  1  0.88413461  0.29054812  0.08924870  1
  S  S7  1  0.38413461  0.20945188  0.91075130  1
  S  S8  1  0.35019997  0.85878983  0.64586848  1
  S  S9  1  0.85019997  0.64121017  0.35413152  1
  S  S10  1  0.64980003  0.35878983  0.85413152  1
  S  S11  1  0.14980003  0.14121017  0.14586848  1
  S  S12  1  0.17886451  0.58786875  0.90096605  1
  S  S13  1  0.67886451  0.91213125  0.09903395  1
  S  S14  1  0.82113549  0.08786875  0.59903395  1
  S  S15  1  0.32113549  0.41213125  0.40096605  1
  Cu  Cu16  1  0.46499574  0.64463758  0.43844233  1
  Cu  Cu17  1  0.96499574  0.85536242  0.56155767  1
  Cu  Cu18  1  0.53500426  0.14463758  0.06155767  1
  Cu  Cu19  1  0.03500426  0.35536242  0.93844233  1
  Cs  Cs20  1  0.32230527  0.58107320  0.16188195  1
  Cs  Cs21  1  0.82230527  0.91892680  0.83811805  1
  Cs  Cs22  1  0.67769473  0.08107320  0.33811805  1
  Cs  Cs23  1  0.17769473  0.41892680  0.66188195  1
