# generated using pymatgen
data_Na5SiAs3
_symmetry_space_group_name_H-M   'P 1'
_cell_length_a   7.57475755
_cell_length_b   8.26063684
_cell_length_c   13.52375424
_cell_angle_alpha   89.53754905
_cell_angle_beta   90.00000000
_cell_angle_gamma   90.00000000
_symmetry_Int_Tables_number   1
_chemical_formula_structural   Na5SiAs3
_chemical_formula_sum   'Na20 Si4 As12'
_cell_volume   846.18513167
_cell_formula_units_Z   4
loop_
 _symmetry_equiv_pos_site_id
 _symmetry_equiv_pos_as_xyz
  1  'x, y, z'
loop_
 _atom_site_type_symbol
 _atom_site_label
 _atom_site_symmetry_multiplicity
 _atom_site_fract_x
 _atom_site_fract_y
 _atom_site_fract_z
 _atom_site_occupancy
  Na  Na0  1  0.50597327  0.68254141  0.75666911  1
  Na  Na1  1  0.00597327  0.81745859  0.74333089  1
  Na  Na2  1  0.49402673  0.31745859  0.24333089  1
  Na  Na3  1  0.99402673  0.18254141  0.25666911  1
  Na  Na4  1  0.96737709  0.16472997  0.58361725  1
  Na  Na5  1  0.46737709  0.33527003  0.91638275  1
  Na  Na6  1  0.03262291  0.83527003  0.41638275  1
  Na  Na7  1  0.53262291  0.66472997  0.08361725  1
  Na  Na8  1  0.48200723  0.32532371  0.58656661  1
  Na  Na9  1  0.98200723  0.17467629  0.91343339  1
  Na  Na10  1  0.51799277  0.67467629  0.41343339  1
  Na  Na11  1  0.01799277  0.82532371  0.08656661  1
  Na  Na12  1  0.33706165  0.92324662  0.91871923  1
  Na  Na13  1  0.83706165  0.57675338  0.58128077  1
  Na  Na14  1  0.66293835  0.07675338  0.08128077  1
  Na  Na15  1  0.16293835  0.42324662  0.41871923  1
  Na  Na16  1  0.15035938  0.42474742  0.74152060  1
  Na  Na17  1  0.65035938  0.07525258  0.75847940  1
  Na  Na18  1  0.84964062  0.57525258  0.25847940  1
  Na  Na19  1  0.34964062  0.92474742  0.24152060  1
  Si  Si20  1  0.14037425  0.42965465  0.08464481  1
  Si  Si21  1  0.64037425  0.07034535  0.41535519  1
  Si  Si22  1  0.85962575  0.57034535  0.91535519  1
  Si  Si23  1  0.35962575  0.92965465  0.58464481  1
  As  As24  1  0.23831103  0.66021201  0.58021875  1
  As  As25  1  0.73831103  0.83978799  0.91978125  1
  As  As26  1  0.76168897  0.33978799  0.41978125  1
  As  As27  1  0.26168897  0.16021201  0.08021875  1
  As  As28  1  0.26529268  0.08273879  0.72417006  1
  As  As29  1  0.76529268  0.41726121  0.77582994  1
  As  As30  1  0.73470732  0.91726121  0.27582994  1
  As  As31  1  0.23470732  0.58273879  0.22417006  1
  As  As32  1  0.18339837  0.58898094  0.93379220  1
  As  As33  1  0.68339837  0.91101906  0.56620780  1
  As  As34  1  0.81660163  0.41101906  0.06620780  1
  As  As35  1  0.31660163  0.08898094  0.43379220  1
