# generated using pymatgen
data_Na3Hg2
_symmetry_space_group_name_H-M   'P 1'
_cell_length_a   7.92578459
_cell_length_b   8.54442741
_cell_length_c   8.54442741
_cell_angle_alpha   90.00000000
_cell_angle_beta   90.00000000
_cell_angle_gamma   90.00000000
_symmetry_Int_Tables_number   1
_chemical_formula_structural   Na3Hg2
_chemical_formula_sum   'Na12 Hg8'
_cell_volume   578.63965589
_cell_formula_units_Z   4
loop_
 _symmetry_equiv_pos_site_id
 _symmetry_equiv_pos_as_xyz
  1  'x, y, z'
loop_
 _atom_site_type_symbol
 _atom_site_label
 _atom_site_symmetry_multiplicity
 _atom_site_fract_x
 _atom_site_fract_y
 _atom_site_fract_z
 _atom_site_occupancy
  Na  Na0  1  0.00000000  0.29372513  0.70627487  1
  Na  Na1  1  -0.00000000  0.70627487  0.29372513  1
  Na  Na2  1  0.50000000  0.20627487  0.20627487  1
  Na  Na3  1  0.25000000  0.50000000  -0.00000000  1
  Na  Na4  1  0.75000000  -0.00000000  0.50000000  1
  Na  Na5  1  -0.00000000  0.14146969  0.14146969  1
  Na  Na6  1  0.50000000  0.64146969  0.35853031  1
  Na  Na7  1  0.50000000  0.35853031  0.64146969  1
  Na  Na8  1  0.00000000  0.85853031  0.85853031  1
  Na  Na9  1  0.25000000  -0.00000000  0.50000000  1
  Na  Na10  1  0.50000000  0.79372513  0.79372513  1
  Na  Na11  1  0.75000000  0.50000000  -0.00000000  1
  Hg  Hg12  1  0.30619729  0.12684836  0.87315164  1
  Hg  Hg13  1  0.80619729  0.37315164  0.37315164  1
  Hg  Hg14  1  0.19380271  0.37315164  0.37315164  1
  Hg  Hg15  1  0.69380271  0.12684836  0.87315164  1
  Hg  Hg16  1  0.30619729  0.87315164  0.12684836  1
  Hg  Hg17  1  0.80619729  0.62684836  0.62684836  1
  Hg  Hg18  1  0.19380271  0.62684836  0.62684836  1
  Hg  Hg19  1  0.69380271  0.87315164  0.12684836  1
