# generated using pymatgen
data_Sr2NbN3
_symmetry_space_group_name_H-M   'P 1'
_cell_length_a   6.09391692
_cell_length_b   6.42264710
_cell_length_c   12.65584529
_cell_angle_alpha   88.81984761
_cell_angle_beta   87.51176490
_cell_angle_gamma   61.67915465
_symmetry_Int_Tables_number   1
_chemical_formula_structural   Sr2NbN3
_chemical_formula_sum   'Sr8 Nb4 N12'
_cell_volume   435.63740007
_cell_formula_units_Z   4
loop_
 _symmetry_equiv_pos_site_id
 _symmetry_equiv_pos_as_xyz
  1  'x, y, z'
loop_
 _atom_site_type_symbol
 _atom_site_label
 _atom_site_symmetry_multiplicity
 _atom_site_fract_x
 _atom_site_fract_y
 _atom_site_fract_z
 _atom_site_occupancy
  N  N0  1  0.50441571  0.99116859  0.75000000  1
  N  N1  1  0.49558429  0.00883141  0.25000000  1
  N  N2  1  0.91106620  0.17786759  0.75000000  1
  N  N3  1  0.08893380  0.82213241  0.25000000  1
  N  N4  1  0.32481843  0.67576449  0.62317344  1
  N  N5  1  0.99941708  0.67576449  0.87682656  1
  N  N6  1  0.67518157  0.32423551  0.37682656  1
  N  N7  1  0.00058292  0.32423551  0.12317344  1
  N  N8  1  0.61286590  0.18707590  0.95940380  1
  N  N9  1  0.79994179  0.81292410  0.45940380  1
  N  N10  1  0.38713410  0.81292410  0.04059620  1
  N  N11  1  0.20005821  0.18707590  0.54059620  1
  Sr  Sr12  1  0.38862805  0.76895563  0.42253652  1
  Sr  Sr13  1  0.94414736  0.59714823  0.64112930  1
  Sr  Sr14  1  0.54129559  0.40285177  0.14112930  1
  Sr  Sr15  1  0.05585264  0.40285177  0.35887070  1
  Sr  Sr16  1  0.61137195  0.23104437  0.57746348  1
  Sr  Sr17  1  0.15758368  0.23104437  0.92253652  1
  Sr  Sr18  1  0.84241632  0.76895563  0.07746348  1
  Sr  Sr19  1  0.45870441  0.59714823  0.85887070  1
  Nb  Nb20  1  0.76895822  0.99702529  0.83652760  1
  Nb  Nb21  1  0.23401649  0.99702529  0.66347240  1
  Nb  Nb22  1  0.23104178  0.00297471  0.16347240  1
  Nb  Nb23  1  0.76598351  0.00297471  0.33652760  1
