# generated using pymatgen
data_Ca(NiO2)4
_symmetry_space_group_name_H-M   'P 1'
_cell_length_a   6.49433678
_cell_length_b   6.49433679
_cell_length_c   6.49433678
_cell_angle_alpha   52.19249643
_cell_angle_beta   52.19249646
_cell_angle_gamma   52.19249642
_symmetry_Int_Tables_number   1
_chemical_formula_structural   Ca(NiO2)4
_chemical_formula_sum   'Ca1 Ni4 O8'
_cell_volume   158.14963847
_cell_formula_units_Z   1
loop_
 _symmetry_equiv_pos_site_id
 _symmetry_equiv_pos_as_xyz
  1  'x, y, z'
loop_
 _atom_site_type_symbol
 _atom_site_label
 _atom_site_symmetry_multiplicity
 _atom_site_fract_x
 _atom_site_fract_y
 _atom_site_fract_z
 _atom_site_occupancy
  O  O0  1  0.76243527  0.29569728  0.76243525  1
  O  O1  1  0.23756379  0.23756535  0.70430305  1
  O  O2  1  0.23756433  0.70430378  0.23756449  1
  O  O3  1  0.70430196  0.23756535  0.23756498  1
  O  O4  1  0.27638200  0.27638338  0.27638182  1
  O  O5  1  0.72361760  0.72361767  0.72361791  1
  O  O6  1  0.29569763  0.76243571  0.76243476  1
  O  O7  1  0.76243581  0.76243571  0.29569669  1
  Ca  Ca8  1  0.49999979  0.50000053  0.49999910  1
  Ni  Ni9  1  0.50000102  0.99999929  0.50000059  1
  Ni  Ni10  1  0.99999934  0.49999984  0.50000127  1
  Ni  Ni11  1  0.50000003  0.49999984  0.00000022  1
  Ni  Ni12  1  0.00000000  0.00000000  0.00000000  1
