# generated using pymatgen
data_YCrO4
_symmetry_space_group_name_H-M   'P 1'
_cell_length_a   6.00574041
_cell_length_b   6.00574040
_cell_length_c   6.00574040
_cell_angle_alpha   105.97922941
_cell_angle_beta   105.97922943
_cell_angle_gamma   116.70662334
_symmetry_Int_Tables_number   1
_chemical_formula_structural   YCrO4
_chemical_formula_sum   'Y2 Cr2 O8'
_cell_volume   164.73615336
_cell_formula_units_Z   2
loop_
 _symmetry_equiv_pos_site_id
 _symmetry_equiv_pos_as_xyz
  1  'x, y, z'
loop_
 _atom_site_type_symbol
 _atom_site_label
 _atom_site_symmetry_multiplicity
 _atom_site_fract_x
 _atom_site_fract_y
 _atom_site_fract_z
 _atom_site_occupancy
  O  O0  1  0.79926041  0.73305009  0.43378968  1
  O  O1  1  0.36547073  0.79926041  0.56621032  1
  O  O2  1  0.73305009  0.79926041  0.93378968  1
  O  O3  1  0.79926041  0.36547073  0.06621032  1
  O  O4  1  0.63452927  0.20073959  0.43378968  1
  O  O5  1  0.20073959  0.26694991  0.56621032  1
  O  O6  1  0.20073959  0.63452927  0.93378968  1
  O  O7  1  0.26694991  0.20073959  0.06621032  1
  Cr  Cr8  1  0.37500000  0.62500000  0.75000000  1
  Cr  Cr9  1  0.62500000  0.37500000  0.25000000  1
  Y  Y10  1  0.12500000  0.87500000  0.25000000  1
  Y  Y11  1  0.87500000  0.12500000  0.75000000  1
