# generated using pymatgen
data_Na4CoO3
_symmetry_space_group_name_H-M   'P 1'
_cell_length_a   5.78936791
_cell_length_b   6.26976093
_cell_length_c   8.21591976
_cell_angle_alpha   111.02463541
_cell_angle_beta   90.00000000
_cell_angle_gamma   117.49619376
_symmetry_Int_Tables_number   1
_chemical_formula_structural   Na4CoO3
_chemical_formula_sum   'Na8 Co2 O6'
_cell_volume   241.93195839
_cell_formula_units_Z   2
loop_
 _symmetry_equiv_pos_site_id
 _symmetry_equiv_pos_as_xyz
  1  'x, y, z'
loop_
 _atom_site_type_symbol
 _atom_site_label
 _atom_site_symmetry_multiplicity
 _atom_site_fract_x
 _atom_site_fract_y
 _atom_site_fract_z
 _atom_site_occupancy
  O  O0  1  0.25812385  0.61698792  0.23140354  1
  O  O1  1  0.35886408  0.61698792  0.73140354  1
  O  O2  1  0.69517534  0.37923033  0.04564373  1
  O  O3  1  0.68405499  0.37923033  0.54564373  1
  O  O4  1  0.02777406  0.03306384  0.26974936  1
  O  O5  1  0.00528978  0.03306384  0.76974936  1
  Na  Na6  1  0.43952653  0.53773084  0.97637118  1
  Na  Na7  1  0.47462974  0.36895905  0.28697664  1
  Na  Na8  1  0.92950670  0.16992964  0.06567121  1
  Na  Na9  1  0.24042294  0.16992964  0.56567121  1
  Na  Na10  1  0.64785784  0.97749197  0.38257702  1
  Na  Na11  1  0.32963413  0.97749197  0.88257702  1
  Na  Na12  1  0.89432931  0.36895905  0.78697664  1
  Na  Na13  1  0.09820431  0.53773084  0.47637118  1
  Co  Co14  1  0.00579320  0.71088640  0.18650732  1
  Co  Co15  1  0.70509319  0.71088640  0.68650732  1
