# generated using pymatgen
data_Ca5(SnAs3)2
_symmetry_space_group_name_H-M   'P 1'
_cell_length_a   4.18465853
_cell_length_b   12.17021980
_cell_length_c   13.44965213
_cell_angle_alpha   90.00000000
_cell_angle_beta   90.00000000
_cell_angle_gamma   90.00000000
_symmetry_Int_Tables_number   1
_chemical_formula_structural   Ca5(SnAs3)2
_chemical_formula_sum   'Ca10 Sn4 As12'
_cell_volume   684.96676322
_cell_formula_units_Z   2
loop_
 _symmetry_equiv_pos_site_id
 _symmetry_equiv_pos_as_xyz
  1  'x, y, z'
loop_
 _atom_site_type_symbol
 _atom_site_label
 _atom_site_symmetry_multiplicity
 _atom_site_fract_x
 _atom_site_fract_y
 _atom_site_fract_z
 _atom_site_occupancy
  Ca  Ca0  1  0.00000000  0.62309066  0.74555574  1
  Ca  Ca1  1  0.00000000  0.37690934  0.25444426  1
  Ca  Ca2  1  0.00000000  0.12309066  0.75444426  1
  Ca  Ca3  1  0.00000000  0.87690934  0.24555574  1
  Ca  Ca4  1  0.00000000  0.00000000  0.00000000  1
  Ca  Ca5  1  0.00000000  0.50000000  0.50000000  1
  Ca  Ca6  1  0.00000000  0.86433847  0.56553294  1
  Ca  Ca7  1  0.00000000  0.13566153  0.43446706  1
  Ca  Ca8  1  0.00000000  0.36433847  0.93446706  1
  Ca  Ca9  1  0.00000000  0.63566153  0.06553294  1
  As  As10  1  0.00000000  0.37763567  0.70537524  1
  As  As11  1  0.00000000  0.12236433  0.20537524  1
  As  As12  1  0.00000000  0.87763567  0.79462476  1
  As  As13  1  0.00000000  0.62236433  0.29462476  1
  As  As14  1  0.50000000  0.83553157  0.08383682  1
  As  As15  1  0.50000000  0.16446843  0.91616318  1
  As  As16  1  0.50000000  0.33553157  0.41616318  1
  As  As17  1  0.50000000  0.66446843  0.58383682  1
  As  As18  1  0.50000000  0.57373338  0.90148468  1
  As  As19  1  0.50000000  0.42626662  0.09851532  1
  As  As20  1  0.50000000  0.07373338  0.59851532  1
  As  As21  1  0.50000000  0.92626662  0.40148468  1
  Sn  Sn22  1  0.50000000  0.29116119  0.60896519  1
  Sn  Sn23  1  0.50000000  0.20883881  0.10896519  1
  Sn  Sn24  1  0.50000000  0.79116119  0.89103481  1
  Sn  Sn25  1  0.50000000  0.70883881  0.39103481  1
