# generated using pymatgen
data_NbF5
_symmetry_space_group_name_H-M   'P 1'
_cell_length_a   5.35852658
_cell_length_b   8.97122183
_cell_length_c   8.97122183
_cell_angle_alpha   112.51470038
_cell_angle_beta   92.80220330
_cell_angle_gamma   92.80220334
_symmetry_Int_Tables_number   1
_chemical_formula_structural   NbF5
_chemical_formula_sum   'Nb4 F20'
_cell_volume   396.85249028
_cell_formula_units_Z   4
loop_
 _symmetry_equiv_pos_site_id
 _symmetry_equiv_pos_as_xyz
  1  'x, y, z'
loop_
 _atom_site_type_symbol
 _atom_site_label
 _atom_site_symmetry_multiplicity
 _atom_site_fract_x
 _atom_site_fract_y
 _atom_site_fract_z
 _atom_site_occupancy
  F  F0  1  0.12386972  0.16559890  0.59956610  1
  F  F1  1  0.87613028  0.40043390  0.83440110  1
  F  F2  1  0.87613028  0.83440110  0.40043390  1
  F  F3  1  0.12386972  0.59956610  0.16559890  1
  F  F4  1  0.53776176  0.86580858  0.86580858  1
  F  F5  1  0.46223824  0.13419142  0.13419142  1
  F  F6  1  0.90913361  0.67139486  0.67139486  1
  F  F7  1  0.09086639  0.32860514  0.32860514  1
  F  F8  1  0.34754854  0.54116624  0.72905267  1
  F  F9  1  0.65245146  0.27094733  0.45883376  1
  F  F10  1  0.65245146  0.45883376  0.27094733  1
  F  F11  1  0.34754854  0.72905267  0.54116624  1
  F  F12  1  0.12060539  0.78367233  0.97354578  1
  F  F13  1  0.87939461  0.02645422  0.21632767  1
  F  F14  1  0.87939461  0.21632767  0.02645422  1
  F  F15  1  0.12060539  0.97354578  0.78367233  1
  F  F16  1  0.69011703  0.71696070  0.07789580  1
  F  F17  1  0.30988297  0.92210420  0.28303930  1
  F  F18  1  0.30988297  0.28303930  0.92210420  1
  F  F19  1  0.69011703  0.07789580  0.71696070  1
  Nb  Nb20  1  0.74991674  0.25724985  0.25724985  1
  Nb  Nb21  1  0.25008326  0.74275015  0.74275015  1
  Nb  Nb22  1  0.00000000  0.19971867  0.80028133  1
  Nb  Nb23  1  0.00000000  0.80028133  0.19971867  1
