# generated using pymatgen
data_Sr5Cr3O12F
_symmetry_space_group_name_H-M   'P 1'
_cell_length_a   10.09823566
_cell_length_b   10.09823566
_cell_length_c   7.51496980
_cell_angle_alpha   90.00000000
_cell_angle_beta   90.00000000
_cell_angle_gamma   119.99999997
_symmetry_Int_Tables_number   1
_chemical_formula_structural   Sr5Cr3O12F
_chemical_formula_sum   'Sr10 Cr6 O24 F2'
_cell_volume   663.66493839
_cell_formula_units_Z   2
loop_
 _symmetry_equiv_pos_site_id
 _symmetry_equiv_pos_as_xyz
  1  'x, y, z'
loop_
 _atom_site_type_symbol
 _atom_site_label
 _atom_site_symmetry_multiplicity
 _atom_site_fract_x
 _atom_site_fract_y
 _atom_site_fract_z
 _atom_site_occupancy
  O  O0  1  0.52148125  0.68914648  0.74999989  1
  O  O1  1  0.59695414  0.12902116  0.74999989  1
  O  O2  1  0.25257541  0.34307707  0.43410850  1
  O  O3  1  0.90949854  0.25257623  0.93410843  1
  O  O4  1  0.34307781  0.09050194  0.93410843  1
  O  O5  1  0.65692179  0.90949780  0.43410850  1
  O  O6  1  0.09050162  0.74742465  0.43410850  1
  O  O7  1  0.74742418  0.65692267  0.93410843  1
  O  O8  1  0.74742418  0.65692267  0.56589269  1
  O  O9  1  0.09050162  0.74742465  0.06589276  1
  O  O10  1  0.65692179  0.90949780  0.06589276  1
  O  O11  1  0.34307781  0.09050194  0.56589269  1
  O  O12  1  0.87097804  0.46793252  0.74999989  1
  O  O13  1  0.25257541  0.34307707  0.06589276  1
  O  O14  1  0.53206778  0.40304602  0.74999989  1
  O  O15  1  0.12902156  0.53206722  0.24999996  1
  O  O16  1  0.47851892  0.31085441  0.24999996  1
  O  O17  1  0.16766420  0.47851813  0.74999989  1
  O  O18  1  0.31085337  0.83233491  0.74999989  1
  O  O19  1  0.68914622  0.16766483  0.24999996  1
  O  O20  1  0.83233540  0.52148161  0.24999996  1
  O  O21  1  0.40304545  0.87097857  0.24999996  1
  O  O22  1  0.46793338  0.59695487  0.24999996  1
  O  O23  1  0.90949854  0.25257623  0.56589269  1
  F  F24  1  0.00000000  0.00000000  0.24999996  1
  F  F25  1  0.00000000  0.00000000  0.74999989  1
  Cr  Cr26  1  0.63043311  0.60092749  0.74999989  1
  Cr  Cr27  1  0.02950483  0.63043277  0.24999996  1
  Cr  Cr28  1  0.60092752  0.97049449  0.24999996  1
  Cr  Cr29  1  0.39907208  0.02950524  0.74999989  1
  Cr  Cr30  1  0.97049477  0.36956696  0.74999989  1
  Cr  Cr31  1  0.36956747  0.39907225  0.24999996  1
  Sr  Sr32  1  0.99302760  0.24170623  0.24999996  1
  Sr  Sr33  1  0.75829356  0.75132107  0.24999996  1
  Sr  Sr34  1  0.75132079  0.99302733  0.74999989  1
  Sr  Sr35  1  0.00697200  0.75829351  0.74999989  1
  Sr  Sr36  1  0.24170603  0.24867867  0.74999989  1
  Sr  Sr37  1  0.24867880  0.00697240  0.24999996  1
  Sr  Sr38  1  0.33333327  0.66666650  0.50019506  1
  Sr  Sr39  1  0.66666632  0.33333323  0.00019498  1
  Sr  Sr40  1  0.66666632  0.33333323  0.49980480  1
  Sr  Sr41  1  0.33333327  0.66666650  0.99980487  1
