# generated using pymatgen
data_Ca2CoWO6
_symmetry_space_group_name_H-M   'P 1'
_cell_length_a   5.46957992
_cell_length_b   5.66063283
_cell_length_c   7.81805687
_cell_angle_alpha   90.00000000
_cell_angle_beta   90.53259269
_cell_angle_gamma   90.00000000
_symmetry_Int_Tables_number   1
_chemical_formula_structural   Ca2CoWO6
_chemical_formula_sum   'Ca4 Co2 W2 O12'
_cell_volume   242.04661877
_cell_formula_units_Z   2
loop_
 _symmetry_equiv_pos_site_id
 _symmetry_equiv_pos_as_xyz
  1  'x, y, z'
loop_
 _atom_site_type_symbol
 _atom_site_label
 _atom_site_symmetry_multiplicity
 _atom_site_fract_x
 _atom_site_fract_y
 _atom_site_fract_z
 _atom_site_occupancy
  O  O0  1  0.68743147  0.28467171  0.44596276  1
  O  O1  1  0.81256853  0.78467171  0.05403724  1
  O  O2  1  0.31256853  0.71532829  0.55403724  1
  O  O3  1  0.18743147  0.21532829  0.94596276  1
  O  O4  1  0.21057342  0.19186647  0.54563290  1
  O  O5  1  0.28942658  0.69186647  0.95436710  1
  O  O6  1  0.78942658  0.80813353  0.45436710  1
  O  O7  1  0.71057342  0.30813353  0.04563290  1
  O  O8  1  0.09626789  0.46686007  0.24029608  1
  O  O9  1  0.40373211  0.96686007  0.25970392  1
  O  O10  1  0.90373211  0.53313993  0.75970392  1
  O  O11  1  0.59626789  0.03313993  0.74029608  1
  Ca  Ca12  1  0.98565537  0.05579447  0.25363367  1
  Ca  Ca13  1  0.51434463  0.55579447  0.24636633  1
  Ca  Ca14  1  0.48565537  0.44420553  0.75363367  1
  Ca  Ca15  1  0.01434463  0.94420553  0.74636633  1
  Co  Co16  1  0.00000000  0.50000000  0.50000000  1
  Co  Co17  1  0.50000000  0.00000000  0.00000000  1
  W  W18  1  0.50000000  0.00000000  0.50000000  1
  W  W19  1  0.00000000  0.50000000  0.00000000  1
