# generated using pymatgen
data_BaMoO4
_symmetry_space_group_name_H-M   'P 1'
_cell_length_a   5.70338191
_cell_length_b   5.70338191
_cell_length_c   7.68269256
_cell_angle_alpha   111.78864336
_cell_angle_beta   111.78864328
_cell_angle_gamma   90.00000000
_symmetry_Int_Tables_number   1
_chemical_formula_structural   BaMoO4
_chemical_formula_sum   'Ba2 Mo2 O8'
_cell_volume   212.70667909
_cell_formula_units_Z   2
loop_
 _symmetry_equiv_pos_site_id
 _symmetry_equiv_pos_as_xyz
  1  'x, y, z'
loop_
 _atom_site_type_symbol
 _atom_site_label
 _atom_site_symmetry_multiplicity
 _atom_site_fract_x
 _atom_site_fract_y
 _atom_site_fract_z
 _atom_site_occupancy
  Ba  Ba0  1  0.12500000  0.37500000  0.25000000  1
  Ba  Ba1  1  0.87500000  0.62500000  0.75000000  1
  Mo  Mo2  1  0.62500000  0.87500000  0.25000000  1
  Mo  Mo3  1  0.37500000  0.12500000  0.75000000  1
  O  O4  1  0.78264802  0.91864675  0.09683005  1
  O  O5  1  0.31418203  0.67818330  0.09683005  1
  O  O6  1  0.41864675  0.81418203  0.59683005  1
  O  O7  1  0.17818330  0.28264802  0.59683005  1
  O  O8  1  0.21735198  0.08135325  0.90316995  1
  O  O9  1  0.68581797  0.32181670  0.90316995  1
  O  O10  1  0.58135325  0.18581797  0.40316995  1
  O  O11  1  0.82181670  0.71735198  0.40316995  1
