# generated using pymatgen
data_Ca2MnWO6
_symmetry_space_group_name_H-M   'P 1'
_cell_length_a   5.52277029
_cell_length_b   5.73864330
_cell_length_c   7.92871791
_cell_angle_alpha   90.00000000
_cell_angle_beta   90.27732373
_cell_angle_gamma   90.00000000
_symmetry_Int_Tables_number   1
_chemical_formula_structural   Ca2MnWO6
_chemical_formula_sum   'Ca4 Mn2 W2 O12'
_cell_volume   251.28356833
_cell_formula_units_Z   2
loop_
 _symmetry_equiv_pos_site_id
 _symmetry_equiv_pos_as_xyz
  1  'x, y, z'
loop_
 _atom_site_type_symbol
 _atom_site_label
 _atom_site_symmetry_multiplicity
 _atom_site_fract_x
 _atom_site_fract_y
 _atom_site_fract_z
 _atom_site_occupancy
  O  O0  1  0.68017502  0.28282321  0.44045429  1
  O  O1  1  0.81982497  0.78282420  0.05954576  1
  O  O2  1  0.31982397  0.71717703  0.55954588  1
  O  O3  1  0.18017584  0.21717604  0.94045441  1
  O  O4  1  0.21231520  0.18622419  0.54903220  1
  O  O5  1  0.28768461  0.68622343  0.95096810  1
  O  O6  1  0.78768561  0.81377605  0.45096798  1
  O  O7  1  0.71231438  0.31377681  0.04903208  1
  O  O8  1  0.10387174  0.46000846  0.23490916  1
  O  O9  1  0.39612867  0.96000946  0.26509029  1
  O  O10  1  0.60387214  0.03999078  0.73490989  1
  O  O11  1  0.89612907  0.53999178  0.76509102  1
  Ca  Ca12  1  0.98587115  0.05565057  0.25330391  1
  Ca  Ca13  1  0.51412884  0.55565156  0.24669615  1
  Ca  Ca14  1  0.01412966  0.94434968  0.74669627  1
  Ca  Ca15  1  0.48587015  0.44434868  0.75330402  1
  Mn  Mn16  1  0.49999979  0.00000000  0.99999967  1
  Mn  Mn17  1  0.00000061  0.49999924  0.49999979  1
  W  W18  1  0.50000040  0.00000000  0.49999945  1
  W  W19  1  0.00000000  0.49999924  0.00000000  1
