# generated using pymatgen
data_Ba2NdMoO6
_symmetry_space_group_name_H-M   'P 1'
_cell_length_a   6.09256276
_cell_length_b   6.05660026
_cell_length_c   6.15293959
_cell_angle_alpha   60.19252333
_cell_angle_beta   59.83200279
_cell_angle_gamma   89.09985384
_symmetry_Int_Tables_number   1
_chemical_formula_structural   Ba2NdMoO6
_chemical_formula_sum   'Ba2 Nd1 Mo1 O6'
_cell_volume   161.81825398
_cell_formula_units_Z   1
loop_
 _symmetry_equiv_pos_site_id
 _symmetry_equiv_pos_as_xyz
  1  'x, y, z'
loop_
 _atom_site_type_symbol
 _atom_site_label
 _atom_site_symmetry_multiplicity
 _atom_site_fract_x
 _atom_site_fract_y
 _atom_site_fract_z
 _atom_site_occupancy
  Ba  Ba0  1  0.74736766  0.24990013  0.50507886  1
  Ba  Ba1  1  0.25263234  0.75009987  0.49492114  1
  Nd  Nd2  1  0.00000000  -0.00000000  -0.00000000  1
  Mo  Mo3  1  0.50000000  0.50000000  -0.00000000  1
  O  O4  1  0.72884773  0.73099932  0.53264184  1
  O  O5  1  0.27115227  0.26900068  0.46735816  1
  O  O6  1  0.23318445  0.68436468  0.00457952  1
  O  O7  1  0.76681555  0.31563532  0.99542048  1
  O  O8  1  0.69616122  0.77449475  0.99558071  1
  O  O9  1  0.30383878  0.22550525  0.00441929  1
