# generated using pymatgen
data_Eu2S3
_symmetry_space_group_name_H-M   'P 1'
_cell_length_a   4.08293328
_cell_length_b   7.40582153
_cell_length_c   15.26476300
_cell_angle_alpha   90.00000000
_cell_angle_beta   90.00000000
_cell_angle_gamma   90.00000000
_symmetry_Int_Tables_number   1
_chemical_formula_structural   Eu2S3
_chemical_formula_sum   'Eu8 S12'
_cell_volume   461.56789250
_cell_formula_units_Z   4
loop_
 _symmetry_equiv_pos_site_id
 _symmetry_equiv_pos_as_xyz
  1  'x, y, z'
loop_
 _atom_site_type_symbol
 _atom_site_label
 _atom_site_symmetry_multiplicity
 _atom_site_fract_x
 _atom_site_fract_y
 _atom_site_fract_z
 _atom_site_occupancy
  Eu  Eu0  1  0.75000000  0.72988317  0.04216453  1
  Eu  Eu1  1  0.75000000  0.22988317  0.45783547  1
  Eu  Eu2  1  0.25000000  0.27011683  0.95783547  1
  Eu  Eu3  1  0.25000000  0.77011683  0.54216453  1
  Eu  Eu4  1  0.75000000  0.35908919  0.70603866  1
  Eu  Eu5  1  0.75000000  0.85908919  0.79396134  1
  Eu  Eu6  1  0.25000000  0.64091081  0.29396134  1
  Eu  Eu7  1  0.25000000  0.14091081  0.20603866  1
  S  S8  1  0.75000000  0.49337821  0.89188269  1
  S  S9  1  0.75000000  0.99337821  0.60811731  1
  S  S10  1  0.25000000  0.50662179  0.10811731  1
  S  S11  1  0.25000000  0.00662179  0.39188269  1
  S  S12  1  0.75000000  0.35383685  0.28187572  1
  S  S13  1  0.75000000  0.85383685  0.21812428  1
  S  S14  1  0.25000000  0.64616315  0.71812428  1
  S  S15  1  0.25000000  0.14616315  0.78187572  1
  S  S16  1  0.75000000  0.12849031  0.06762247  1
  S  S17  1  0.75000000  0.62849031  0.43237753  1
  S  S18  1  0.25000000  0.87150969  0.93237753  1
  S  S19  1  0.25000000  0.37150969  0.56762247  1
