# generated using pymatgen
data_CaWO4
_symmetry_space_group_name_H-M   'P 1'
_cell_length_a   5.33436702
_cell_length_b   5.33470118
_cell_length_c   6.88125660
_cell_angle_alpha   112.81172090
_cell_angle_beta   112.80773004
_cell_angle_gamma   89.99696180
_symmetry_Int_Tables_number   1
_chemical_formula_structural   CaWO4
_chemical_formula_sum   'Ca2 W2 O8'
_cell_volume   163.77022551
_cell_formula_units_Z   2
loop_
 _symmetry_equiv_pos_site_id
 _symmetry_equiv_pos_as_xyz
  1  'x, y, z'
loop_
 _atom_site_type_symbol
 _atom_site_label
 _atom_site_symmetry_multiplicity
 _atom_site_fract_x
 _atom_site_fract_y
 _atom_site_fract_z
 _atom_site_occupancy
  O  O0  1  0.71826706  0.86517702  0.92289898  1
  O  O1  1  0.05767128  0.21826710  0.42291655  1
  O  O2  1  0.36518287  0.70462995  0.42289664  1
  O  O3  1  0.20462011  0.55768235  0.92286256  1
  O  O4  1  0.79538044  0.44231803  0.07713858  1
  O  O5  1  0.63481776  0.29537044  0.57710396  1
  O  O6  1  0.28173246  0.13482272  0.07710045  1
  O  O7  1  0.94232906  0.78173213  0.57708344  1
  Ca  Ca8  1  0.62500033  0.87500260  0.25000701  1
  Ca  Ca9  1  0.37499903  0.12499763  0.74999261  1
  W  W10  1  0.12500181  0.37504469  0.25002066  1
  W  W11  1  0.87499577  0.62495686  0.74997986  1
