# generated using pymatgen
data_EuRhO3
_symmetry_space_group_name_H-M   'P 1'
_cell_length_a   5.41266687
_cell_length_b   5.83691731
_cell_length_c   7.81814467
_cell_angle_alpha   90.00000000
_cell_angle_beta   90.00000000
_cell_angle_gamma   90.00000000
_symmetry_Int_Tables_number   1
_chemical_formula_structural   EuRhO3
_chemical_formula_sum   'Eu4 Rh4 O12'
_cell_volume   247.00090359
_cell_formula_units_Z   4
loop_
 _symmetry_equiv_pos_site_id
 _symmetry_equiv_pos_as_xyz
  1  'x, y, z'
loop_
 _atom_site_type_symbol
 _atom_site_label
 _atom_site_symmetry_multiplicity
 _atom_site_fract_x
 _atom_site_fract_y
 _atom_site_fract_z
 _atom_site_occupancy
  Eu  Eu0  1  0.02482583  0.07533773  0.75000000  1
  Eu  Eu1  1  0.97517417  0.92466227  0.25000000  1
  Eu  Eu2  1  0.52482583  0.42466227  0.25000000  1
  Eu  Eu3  1  0.47517417  0.57533773  0.75000000  1
  Rh  Rh4  1  0.50000000  0.00000000  0.50000000  1
  Rh  Rh5  1  0.00000000  0.50000000  -0.00000000  1
  Rh  Rh6  1  0.00000000  0.50000000  0.50000000  1
  Rh  Rh7  1  0.50000000  0.00000000  -0.00000000  1
  O  O8  1  0.18672657  0.80381146  0.55317530  1
  O  O9  1  0.88937046  0.46427104  0.75000000  1
  O  O10  1  0.38937046  0.03572896  0.25000000  1
  O  O11  1  0.68672657  0.69618854  0.44682470  1
  O  O12  1  0.81327343  0.19618854  0.05317530  1
  O  O13  1  0.31327343  0.30381146  0.94682470  1
  O  O14  1  0.61062954  0.96427104  0.75000000  1
  O  O15  1  0.31327343  0.30381146  0.55317530  1
  O  O16  1  0.11062954  0.53572896  0.25000000  1
  O  O17  1  0.81327343  0.19618854  0.44682470  1
  O  O18  1  0.18672657  0.80381146  0.94682470  1
  O  O19  1  0.68672657  0.69618854  0.05317530  1
