# generated using pymatgen
data_Rb2V(PO4)2
_symmetry_space_group_name_H-M   'P 1'
_cell_length_a   7.19983741
_cell_length_b   9.26772368
_cell_length_c   13.24045784
_cell_angle_alpha   90.00000000
_cell_angle_beta   90.00000000
_cell_angle_gamma   90.00000000
_symmetry_Int_Tables_number   1
_chemical_formula_structural   Rb2V(PO4)2
_chemical_formula_sum   'Rb8 V4 P8 O32'
_cell_volume   883.48416230
_cell_formula_units_Z   4
loop_
 _symmetry_equiv_pos_site_id
 _symmetry_equiv_pos_as_xyz
  1  'x, y, z'
loop_
 _atom_site_type_symbol
 _atom_site_label
 _atom_site_symmetry_multiplicity
 _atom_site_fract_x
 _atom_site_fract_y
 _atom_site_fract_z
 _atom_site_occupancy
  O  O0  1  0.52763298  0.92215989  0.57355116  1
  O  O1  1  0.02763320  0.57784024  0.42644906  1
  O  O2  1  0.47236658  0.42215949  0.92644879  1
  O  O3  1  0.97236636  0.07784092  0.07355143  1
  O  O4  1  0.58997020  0.92011036  0.76510020  1
  O  O5  1  0.08997042  0.57988977  0.23489927  1
  O  O6  1  0.41003075  0.42011104  0.73489976  1
  O  O7  1  0.91003053  0.07988936  0.26510046  1
  O  O8  1  0.29925990  0.43248302  0.34883974  1
  O  O9  1  0.79926107  0.06751630  0.65116048  1
  O  O10  1  0.70073966  0.93248342  0.15116074  1
  O  O11  1  0.20073988  0.56751671  0.84883948  1
  O  O12  1  0.48521521  0.15166828  0.68383048  1
  O  O13  1  0.98521499  0.34833104  0.31616974  1
  O  O14  1  0.51478574  0.65166868  0.81616948  1
  O  O15  1  0.01478457  0.84833145  0.18382999  1
  O  O16  1  0.55671149  0.17125732  0.20978396  1
  O  O17  1  0.05671171  0.32874308  0.79021626  1
  O  O18  1  0.44328807  0.67125664  0.29021653  1
  O  O19  1  0.94328785  0.82874349  0.70978369  1
  O  O20  1  0.87495067  0.56023416  0.78176204  1
  O  O21  1  0.37495089  0.93976596  0.21823818  1
  O  O22  1  0.12504889  0.06023376  0.71823792  1
  O  O23  1  0.62505006  0.43976664  0.28176155  1
  O  O24  1  0.82662514  0.80118726  0.91886923  1
  O  O25  1  0.32662536  0.69881287  0.08113099  1
  O  O26  1  0.55044340  0.55765253  0.45386079  1
  O  O27  1  0.67337419  0.19881246  0.41886949  1
  O  O28  1  0.94955593  0.44234719  0.95386127  1
  O  O29  1  0.44955615  0.05765213  0.04613895  1
  O  O30  1  0.05044363  0.94234759  0.54613943  1
  O  O31  1  0.17337442  0.30118794  0.58113073  1
  P  P32  1  0.58541743  0.00710055  0.66479415  1
  P  P33  1  0.08541765  0.49289877  0.33520532  1
  P  P34  1  0.41458213  0.50710095  0.83520581  1
  P  P35  1  0.91458330  0.99289917  0.16479441  1
  P  P36  1  0.48928073  0.52873724  0.34732586  1
  P  P37  1  0.01071905  0.47126249  0.84732634  1
  P  P38  1  0.51071883  0.02873683  0.15267388  1
  P  P39  1  0.98928051  0.97126289  0.65267361  1
  V  V40  1  0.74504198  0.24574694  0.30580000  1
  V  V41  1  0.24504220  0.25425347  0.69420022  1
  V  V42  1  0.75495736  0.75425387  0.80579973  1
  V  V43  1  0.25495758  0.74574625  0.19419974  1
  Rb  Rb44  1  0.76794940  0.38868438  0.58967033  1
  Rb  Rb45  1  0.26794962  0.11131603  0.41032914  1
  Rb  Rb46  1  0.23205016  0.88868369  0.91032963  1
  Rb  Rb47  1  0.73205133  0.61131643  0.08967059  1
  Rb  Rb48  1  0.72914272  0.17063758  0.91090059  1
  Rb  Rb49  1  0.22914155  0.32936282  0.08909963  1
  Rb  Rb50  1  0.27085823  0.67063798  0.58909936  1
  Rb  Rb51  1  0.77085800  0.82936214  0.41090010  1
