# generated using pymatgen
data_CeAlPt
_symmetry_space_group_name_H-M   'P 1'
_cell_length_a   4.38852203
_cell_length_b   7.13838007
_cell_length_c   7.92147282
_cell_angle_alpha   90.00000000
_cell_angle_beta   90.00000000
_cell_angle_gamma   90.00000000
_symmetry_Int_Tables_number   1
_chemical_formula_structural   CeAlPt
_chemical_formula_sum   'Ce4 Al4 Pt4'
_cell_volume   248.15548945
_cell_formula_units_Z   4
loop_
 _symmetry_equiv_pos_site_id
 _symmetry_equiv_pos_as_xyz
  1  'x, y, z'
loop_
 _atom_site_type_symbol
 _atom_site_label
 _atom_site_symmetry_multiplicity
 _atom_site_fract_x
 _atom_site_fract_y
 _atom_site_fract_z
 _atom_site_occupancy
  Al  Al0  1  0.25000000  0.64862802  0.56839303  1
  Al  Al1  1  0.25000000  0.14862802  0.93160697  1
  Al  Al2  1  0.75000000  0.35137198  0.43160697  1
  Al  Al3  1  0.75000000  0.85137198  0.06839303  1
  Ce  Ce4  1  0.75000000  0.47517558  0.81445526  1
  Ce  Ce5  1  0.25000000  0.02482442  0.31445526  1
  Ce  Ce6  1  0.75000000  0.97517558  0.68554474  1
  Ce  Ce7  1  0.25000000  0.52482442  0.18554474  1
  Pt  Pt8  1  0.25000000  0.77749769  0.89263289  1
  Pt  Pt9  1  0.25000000  0.27749769  0.60736711  1
  Pt  Pt10  1  0.75000000  0.72250231  0.39263289  1
  Pt  Pt11  1  0.75000000  0.22250231  0.10736711  1
