# generated using pymatgen
data_K5FeO4
_symmetry_space_group_name_H-M   'P 1'
_cell_length_a   6.78806884
_cell_length_b   11.53001241
_cell_length_c   20.58400931
_cell_angle_alpha   90.00000000
_cell_angle_beta   90.00000000
_cell_angle_gamma   90.00000000
_symmetry_Int_Tables_number   1
_chemical_formula_structural   K5FeO4
_chemical_formula_sum   'K40 Fe8 O32'
_cell_volume   1611.03873446
_cell_formula_units_Z   8
loop_
 _symmetry_equiv_pos_site_id
 _symmetry_equiv_pos_as_xyz
  1  'x, y, z'
loop_
 _atom_site_type_symbol
 _atom_site_label
 _atom_site_symmetry_multiplicity
 _atom_site_fract_x
 _atom_site_fract_y
 _atom_site_fract_z
 _atom_site_occupancy
  O  O0  1  0.74522370  0.12667270  0.62811461  1
  O  O1  1  0.24522370  0.87332730  0.87188539  1
  O  O2  1  0.75477630  0.62667270  0.37188539  1
  O  O3  1  0.25477630  0.37332730  0.12811461  1
  O  O4  1  0.25477630  0.87332730  0.37188539  1
  O  O5  1  0.75477630  0.12667270  0.12811461  1
  O  O6  1  0.24522370  0.37332730  0.62811461  1
  O  O7  1  0.74522370  0.62667270  0.87188539  1
  O  O8  1  0.74027980  0.38467074  0.79641420  1
  O  O9  1  0.24027980  0.61532926  0.70358580  1
  O  O10  1  0.75972020  0.88467074  0.20358580  1
  O  O11  1  0.25972020  0.11532926  0.29641420  1
  O  O12  1  0.25972020  0.61532926  0.20358580  1
  O  O13  1  0.75972020  0.38467074  0.29641420  1
  O  O14  1  0.24027980  0.11532926  0.79641420  1
  O  O15  1  0.74027980  0.88467074  0.70358580  1
  O  O16  1  0.70425269  0.38538227  0.94850563  1
  O  O17  1  0.20425269  0.61461773  0.55149437  1
  O  O18  1  0.79574731  0.88538227  0.05149437  1
  O  O19  1  0.29574731  0.11461773  0.44850563  1
  O  O20  1  0.29574731  0.61461773  0.05149437  1
  O  O21  1  0.79574731  0.38538227  0.44850563  1
  O  O22  1  0.20425269  0.11461773  0.94850563  1
  O  O23  1  0.70425269  0.88538227  0.55149437  1
  O  O24  1  0.60509933  0.04403658  0.88255977  1
  O  O25  1  0.10509933  0.95596342  0.61744023  1
  O  O26  1  0.89490067  0.54403658  0.11744023  1
  O  O27  1  0.39490067  0.45596342  0.38255977  1
  O  O28  1  0.39490067  0.95596342  0.11744023  1
  O  O29  1  0.89490067  0.04403658  0.38255977  1
  O  O30  1  0.10509933  0.45596342  0.88255977  1
  O  O31  1  0.60509933  0.54403658  0.61744023  1
  K  K32  1  0.07566598  0.35291673  0.00089911  1
  K  K33  1  0.41611282  0.06368899  0.56579183  1
  K  K34  1  0.58388718  0.43631101  0.06579183  1
  K  K35  1  0.08388718  0.56368899  0.43420817  1
  K  K36  1  0.08388718  0.06368899  0.06579183  1
  K  K37  1  0.58388718  0.93631101  0.43420817  1
  K  K38  1  0.41611282  0.56368899  0.93420817  1
  K  K39  1  0.91611282  0.43631101  0.56579183  1
  K  K40  1  0.92648914  0.70283731  0.63464348  1
  K  K41  1  0.42648914  0.29716269  0.86535652  1
  K  K42  1  0.57351086  0.20283731  0.36535652  1
  K  K43  1  0.07351086  0.79716269  0.13464348  1
  K  K44  1  0.07351086  0.29716269  0.36535652  1
  K  K45  1  0.57351086  0.70283731  0.13464348  1
  K  K46  1  0.42648914  0.79716269  0.63464348  1
  K  K47  1  0.92648914  0.20283731  0.86535652  1
  K  K48  1  0.61002659  0.08377473  0.75213278  1
  K  K49  1  0.11002659  0.91622527  0.74786722  1
  K  K50  1  0.88997341  0.58377473  0.24786722  1
  K  K51  1  0.38997341  0.41622527  0.25213278  1
  K  K52  1  0.38997341  0.91622527  0.24786722  1
  K  K53  1  0.88997341  0.08377473  0.25213278  1
  K  K54  1  0.11002659  0.41622527  0.75213278  1
  K  K55  1  0.61002659  0.58377473  0.74786722  1
  K  K56  1  0.60603837  0.82816744  0.82539935  1
  K  K57  1  0.42433402  0.85291673  0.99910089  1
  K  K58  1  0.57566598  0.64708327  0.49910089  1
  K  K59  1  0.91611282  0.93631101  0.93420817  1
  K  K60  1  0.07566598  0.85291673  0.49910089  1
  K  K61  1  0.57566598  0.14708327  0.00089911  1
  K  K62  1  0.42433402  0.35291673  0.50089911  1
  K  K63  1  0.92433402  0.64708327  0.99910089  1
  K  K64  1  0.60603837  0.32816744  0.67460065  1
  K  K65  1  0.10603837  0.67183256  0.82539935  1
  K  K66  1  0.89396163  0.82816744  0.32539935  1
  K  K67  1  0.39396163  0.17183256  0.17460065  1
  K  K68  1  0.39396163  0.67183256  0.32539935  1
  K  K69  1  0.89396163  0.32816744  0.17460065  1
  K  K70  1  0.10603837  0.17183256  0.67460065  1
  K  K71  1  0.92433402  0.14708327  0.50089911  1
  Fe  Fe72  1  0.82182340  0.46441716  0.87549791  1
  Fe  Fe73  1  0.32182340  0.53558284  0.62450209  1
  Fe  Fe74  1  0.67817660  0.96441716  0.12450209  1
  Fe  Fe75  1  0.17817660  0.03558284  0.37549791  1
  Fe  Fe76  1  0.17817660  0.53558284  0.12450209  1
  Fe  Fe77  1  0.67817660  0.46441716  0.37549791  1
  Fe  Fe78  1  0.32182340  0.03558284  0.87549791  1
  Fe  Fe79  1  0.82182340  0.96441716  0.62450209  1
