# generated using pymatgen
data_NdNiSn
_symmetry_space_group_name_H-M   'P 1'
_cell_length_a   4.60145197
_cell_length_b   7.45094723
_cell_length_c   7.70021168
_cell_angle_alpha   90.00000000
_cell_angle_beta   90.00000000
_cell_angle_gamma   90.00000000
_symmetry_Int_Tables_number   1
_chemical_formula_structural   NdNiSn
_chemical_formula_sum   'Nd4 Ni4 Sn4'
_cell_volume   264.00311122
_cell_formula_units_Z   4
loop_
 _symmetry_equiv_pos_site_id
 _symmetry_equiv_pos_as_xyz
  1  'x, y, z'
loop_
 _atom_site_type_symbol
 _atom_site_label
 _atom_site_symmetry_multiplicity
 _atom_site_fract_x
 _atom_site_fract_y
 _atom_site_fract_z
 _atom_site_occupancy
  Nd  Nd0  1  0.75000000  0.48316642  0.20020265  1
  Nd  Nd1  1  0.75000000  0.98316642  0.29979735  1
  Nd  Nd2  1  0.25000000  0.51683358  0.79979735  1
  Nd  Nd3  1  0.25000000  0.01683358  0.70020265  1
  Ni  Ni4  1  0.75000000  0.19309027  0.91619895  1
  Ni  Ni5  1  0.75000000  0.69309027  0.58380105  1
  Ni  Ni6  1  0.25000000  0.80690973  0.08380105  1
  Ni  Ni7  1  0.25000000  0.30690973  0.41619895  1
  Sn  Sn8  1  0.75000000  0.31336160  0.58796877  1
  Sn  Sn9  1  0.75000000  0.81336160  0.91203123  1
  Sn  Sn10  1  0.25000000  0.68663840  0.41203123  1
  Sn  Sn11  1  0.25000000  0.18663840  0.08796877  1
