# generated using pymatgen
data_U(Al5Fe)2
_symmetry_space_group_name_H-M   'P 1'
_cell_length_a   6.77331586
_cell_length_b   6.77331542
_cell_length_c   8.96355014
_cell_angle_alpha   90.00000000
_cell_angle_beta   90.00000000
_cell_angle_gamma   98.02695811
_symmetry_Int_Tables_number   1
_chemical_formula_structural   U(Al5Fe)2
_chemical_formula_sum   'U2 Al20 Fe4'
_cell_volume   407.19898710
_cell_formula_units_Z   2
loop_
 _symmetry_equiv_pos_site_id
 _symmetry_equiv_pos_as_xyz
  1  'x, y, z'
loop_
 _atom_site_type_symbol
 _atom_site_label
 _atom_site_symmetry_multiplicity
 _atom_site_fract_x
 _atom_site_fract_y
 _atom_site_fract_z
 _atom_site_occupancy
  U  U0  1  0.12270679  0.87729321  0.75000000  1
  U  U1  1  0.87729321  0.12270679  0.25000000  1
  Al  Al2  1  0.21945375  0.47809868  0.25000000  1
  Al  Al3  1  0.37451125  0.62548875  0.54956182  1
  Al  Al4  1  0.84255936  0.15744064  0.90193503  1
  Al  Al5  1  0.13490951  0.41102994  0.75000000  1
  Al  Al6  1  0.52190132  0.78054625  0.25000000  1
  Al  Al7  1  0.62548875  0.37451125  0.45043818  1
  Al  Al8  1  0.78054625  0.52190132  0.75000000  1
  Al  Al9  1  0.62548875  0.37451125  0.04956182  1
  Al  Al10  1  0.15744064  0.84255936  0.09806497  1
  Al  Al11  1  0.58897006  0.86509049  0.75000000  1
  Al  Al12  1  0.41102994  0.13490951  0.25000000  1
  Al  Al13  1  0.47809868  0.21945375  0.75000000  1
  Al  Al14  1  0.77562352  0.77562352  -0.00000000  1
  Al  Al15  1  0.77562352  0.77562352  0.50000000  1
  Al  Al16  1  0.86509049  0.58897006  0.25000000  1
  Al  Al17  1  0.84255936  0.15744064  0.59806497  1
  Al  Al18  1  0.37451125  0.62548875  0.95043818  1
  Al  Al19  1  0.15744064  0.84255936  0.40193503  1
  Al  Al20  1  0.22437648  0.22437648  0.50000000  1
  Al  Al21  1  0.22437648  0.22437648  -0.00000000  1
  Fe  Fe22  1  0.00000000  0.50000000  0.50000000  1
  Fe  Fe23  1  0.50000000  0.00000000  -0.00000000  1
  Fe  Fe24  1  0.00000000  0.50000000  -0.00000000  1
  Fe  Fe25  1  0.50000000  0.00000000  0.50000000  1
