# generated using pymatgen
data_V2Ga5
_symmetry_space_group_name_H-M   'P 1'
_cell_length_a   2.68199475
_cell_length_b   8.99258534
_cell_length_c   8.99258534
_cell_angle_alpha   90.00000000
_cell_angle_beta   90.00000000
_cell_angle_gamma   90.00000000
_symmetry_Int_Tables_number   1
_chemical_formula_structural   V2Ga5
_chemical_formula_sum   'V4 Ga10'
_cell_volume   216.88377277
_cell_formula_units_Z   2
loop_
 _symmetry_equiv_pos_site_id
 _symmetry_equiv_pos_as_xyz
  1  'x, y, z'
loop_
 _atom_site_type_symbol
 _atom_site_label
 _atom_site_symmetry_multiplicity
 _atom_site_fract_x
 _atom_site_fract_y
 _atom_site_fract_z
 _atom_site_occupancy
  V  V0  1  0.50000000  0.18002705  0.68002705  1
  V  V1  1  0.50000000  0.81997295  0.31997295  1
  V  V2  1  0.50000000  0.31997295  0.18002705  1
  V  V3  1  0.50000000  0.68002705  0.81997295  1
  Ga  Ga4  1  0.00000000  -0.00000000  0.50000000  1
  Ga  Ga5  1  -0.00000000  0.50000000  -0.00000000  1
  Ga  Ga6  1  -0.00000000  0.70624649  0.56062492  1
  Ga  Ga7  1  0.00000000  0.29375351  0.43937508  1
  Ga  Ga8  1  0.00000000  0.79375351  0.06062492  1
  Ga  Ga9  1  -0.00000000  0.20624649  0.93937508  1
  Ga  Ga10  1  -0.00000000  0.56062492  0.29375351  1
  Ga  Ga11  1  0.00000000  0.43937508  0.70624649  1
  Ga  Ga12  1  -0.00000000  0.06062492  0.20624649  1
  Ga  Ga13  1  0.00000000  0.93937508  0.79375351  1
