# generated using pymatgen
data_YbEuSi4N7
_symmetry_space_group_name_H-M   'P 1'
_cell_length_a   6.04709789
_cell_length_b   6.04709855
_cell_length_c   9.84427303
_cell_angle_alpha   90.00000000
_cell_angle_beta   90.00000000
_cell_angle_gamma   120.00000180
_symmetry_Int_Tables_number   1
_chemical_formula_structural   YbEuSi4N7
_chemical_formula_sum   'Yb2 Eu2 Si8 N14'
_cell_volume   311.75133337
_cell_formula_units_Z   2
loop_
 _symmetry_equiv_pos_site_id
 _symmetry_equiv_pos_as_xyz
  1  'x, y, z'
loop_
 _atom_site_type_symbol
 _atom_site_label
 _atom_site_symmetry_multiplicity
 _atom_site_fract_x
 _atom_site_fract_y
 _atom_site_fract_z
 _atom_site_occupancy
  Yb  Yb0  1  0.66666700  0.33333300  0.23581245  1
  Yb  Yb1  1  0.33333300  0.66666700  0.73581245  1
  Eu  Eu2  1  0.66666700  0.33333300  0.87389218  1
  Eu  Eu3  1  0.33333300  0.66666700  0.37389218  1
  Si  Si4  1  0.34724796  0.17362398  0.54658012  1
  Si  Si5  1  0.17362398  0.34724796  0.04658012  1
  Si  Si6  1  0.17362398  0.82637602  0.04658012  1
  Si  Si7  1  0.82637602  0.17362398  0.54658012  1
  Si  Si8  1  -0.00000000  0.00000000  0.81235447  1
  Si  Si9  1  -0.00000000  0.00000000  0.31235447  1
  Si  Si10  1  0.82637602  0.65275204  0.54658012  1
  Si  Si11  1  0.65275204  0.82637602  0.04658012  1
  N  N12  1  0.97922892  0.48961446  0.59446824  1
  N  N13  1  0.84887654  0.69775307  0.37444573  1
  N  N14  1  0.84887654  0.15112346  0.37444573  1
  N  N15  1  0.48961446  0.97922892  0.09446824  1
  N  N16  1  0.48961446  0.51038554  0.09446824  1
  N  N17  1  0.15112346  0.30224693  0.87444573  1
  N  N18  1  0.02077108  0.51038554  0.09446824  1
  N  N19  1  -0.00000000  0.00000000  0.62395865  1
  N  N20  1  0.51038554  0.48961446  0.59446824  1
  N  N21  1  0.69775307  0.84887654  0.87444573  1
  N  N22  1  -0.00000000  0.00000000  0.12395865  1
  N  N23  1  0.30224693  0.15112346  0.37444573  1
  N  N24  1  0.51038554  0.02077108  0.59446824  1
  N  N25  1  0.15112346  0.84887654  0.87444573  1
