# generated using pymatgen
data_BaGe2
_symmetry_space_group_name_H-M   'P 1'
_cell_length_a   6.87704527
_cell_length_b   9.26992876
_cell_length_c   11.72916875
_cell_angle_alpha   90.00000000
_cell_angle_beta   90.00000000
_cell_angle_gamma   90.00000000
_symmetry_Int_Tables_number   1
_chemical_formula_structural   BaGe2
_chemical_formula_sum   'Ba8 Ge16'
_cell_volume   747.73122050
_cell_formula_units_Z   8
loop_
 _symmetry_equiv_pos_site_id
 _symmetry_equiv_pos_as_xyz
  1  'x, y, z'
loop_
 _atom_site_type_symbol
 _atom_site_label
 _atom_site_symmetry_multiplicity
 _atom_site_fract_x
 _atom_site_fract_y
 _atom_site_fract_z
 _atom_site_occupancy
  Ge  Ge0  1  0.93747879  0.30802360  0.64969109  1
  Ge  Ge1  1  0.43747879  0.69197640  0.35030891  1
  Ge  Ge2  1  0.56252121  0.80802360  0.85030891  1
  Ge  Ge3  1  0.06252121  0.19197640  0.14969109  1
  Ge  Ge4  1  0.06252121  0.69197640  0.35030891  1
  Ge  Ge5  1  0.56252121  0.30802360  0.64969109  1
  Ge  Ge6  1  0.43747879  0.19197640  0.14969109  1
  Ge  Ge7  1  0.93747879  0.80802360  0.85030891  1
  Ge  Ge8  1  0.75000000  0.57688907  0.90715538  1
  Ge  Ge9  1  0.25000000  0.42311093  0.09284462  1
  Ge  Ge10  1  0.75000000  0.07688907  0.59284462  1
  Ge  Ge11  1  0.25000000  0.92311093  0.40715538  1
  Ge  Ge12  1  0.75000000  0.80489315  0.04067097  1
  Ge  Ge13  1  0.25000000  0.19510685  0.95932903  1
  Ge  Ge14  1  0.75000000  0.30489315  0.45932903  1
  Ge  Ge15  1  0.25000000  0.69510685  0.54067097  1
  Ba  Ba16  1  0.25000000  0.34747919  0.40670876  1
  Ba  Ba17  1  0.75000000  0.65252081  0.59329124  1
  Ba  Ba18  1  0.25000000  0.84747919  0.09329124  1
  Ba  Ba19  1  0.75000000  0.15252081  0.90670876  1
  Ba  Ba20  1  0.25000000  0.51430001  0.80939756  1
  Ba  Ba21  1  0.75000000  0.48569999  0.19060244  1
  Ba  Ba22  1  0.25000000  0.01430001  0.69060244  1
  Ba  Ba23  1  0.75000000  0.98569999  0.30939756  1
