# generated using pymatgen
data_YbMg2
_symmetry_space_group_name_H-M   'P 1'
_cell_length_a   6.24984275
_cell_length_b   6.24984275
_cell_length_c   9.97402004
_cell_angle_alpha   90.00000000
_cell_angle_beta   90.00000000
_cell_angle_gamma   120.00000005
_symmetry_Int_Tables_number   1
_chemical_formula_structural   YbMg2
_chemical_formula_sum   'Yb4 Mg8'
_cell_volume   337.39531579
_cell_formula_units_Z   4
loop_
 _symmetry_equiv_pos_site_id
 _symmetry_equiv_pos_as_xyz
  1  'x, y, z'
loop_
 _atom_site_type_symbol
 _atom_site_label
 _atom_site_symmetry_multiplicity
 _atom_site_fract_x
 _atom_site_fract_y
 _atom_site_fract_z
 _atom_site_occupancy
  Mg  Mg0  1  0.83119845  0.66239689  0.75000000  1
  Mg  Mg1  1  0.16880155  0.83119845  0.25000000  1
  Mg  Mg2  1  0.66239689  0.83119845  0.25000000  1
  Mg  Mg3  1  0.33760311  0.16880155  0.75000000  1
  Mg  Mg4  1  0.00000000  0.00000000  0.00000000  1
  Mg  Mg5  1  0.00000000  0.00000000  0.50000000  1
  Mg  Mg6  1  0.16880155  0.33760311  0.25000000  1
  Mg  Mg7  1  0.83119845  0.16880155  0.75000000  1
  Yb  Yb8  1  0.33333333  0.66666667  0.93850168  1
  Yb  Yb9  1  0.66666667  0.33333333  0.43850168  1
  Yb  Yb10  1  0.66666667  0.33333333  0.06149832  1
  Yb  Yb11  1  0.33333333  0.66666667  0.56149832  1
