# generated using pymatgen
data_YbNiSn
_symmetry_space_group_name_H-M   'P 1'
_cell_length_a   4.45137239
_cell_length_b   7.16229498
_cell_length_c   7.63156166
_cell_angle_alpha   90.00000000
_cell_angle_beta   90.00000000
_cell_angle_gamma   90.00000000
_symmetry_Int_Tables_number   1
_chemical_formula_structural   YbNiSn
_chemical_formula_sum   'Yb4 Ni4 Sn4'
_cell_volume   243.30977031
_cell_formula_units_Z   4
loop_
 _symmetry_equiv_pos_site_id
 _symmetry_equiv_pos_as_xyz
  1  'x, y, z'
loop_
 _atom_site_type_symbol
 _atom_site_label
 _atom_site_symmetry_multiplicity
 _atom_site_fract_x
 _atom_site_fract_y
 _atom_site_fract_z
 _atom_site_occupancy
  Ni  Ni0  1  0.75000000  0.29380506  0.10428158  1
  Ni  Ni1  1  0.25000000  0.20619494  0.60428158  1
  Ni  Ni2  1  0.75000000  0.79380506  0.39571842  1
  Ni  Ni3  1  0.25000000  0.70619494  0.89571842  1
  Sn  Sn4  1  0.25000000  0.83223356  0.57603020  1
  Sn  Sn5  1  0.75000000  0.66776644  0.07603020  1
  Sn  Sn6  1  0.25000000  0.33223356  0.92396980  1
  Sn  Sn7  1  0.75000000  0.16776644  0.42396980  1
  Yb  Yb8  1  0.25000000  0.97546245  0.18423554  1
  Yb  Yb9  1  0.75000000  0.02453755  0.81576446  1
  Yb  Yb10  1  0.25000000  0.47546245  0.31576446  1
  Yb  Yb11  1  0.75000000  0.52453755  0.68423554  1
