# generated using pymatgen
data_EuGa2
_symmetry_space_group_name_H-M   'P 1'
_cell_length_a   4.63202170
_cell_length_b   5.87100524
_cell_length_c   5.87100524
_cell_angle_alpha   80.43670191
_cell_angle_beta   66.76627571
_cell_angle_gamma   66.76627571
_symmetry_Int_Tables_number   1
_chemical_formula_structural   EuGa2
_chemical_formula_sum   'Eu2 Ga4'
_cell_volume   134.80358384
_cell_formula_units_Z   2
loop_
 _symmetry_equiv_pos_site_id
 _symmetry_equiv_pos_as_xyz
  1  'x, y, z'
loop_
 _atom_site_type_symbol
 _atom_site_label
 _atom_site_symmetry_multiplicity
 _atom_site_fract_x
 _atom_site_fract_y
 _atom_site_fract_z
 _atom_site_occupancy
  Ga  Ga0  1  0.33856199  0.59816346  0.72471256  1
  Ga  Ga1  1  0.66143801  0.40183654  0.27528744  1
  Ga  Ga2  1  0.33856199  0.22471256  0.09816346  1
  Ga  Ga3  1  0.66143801  0.77528744  0.90183654  1
  Eu  Eu4  1  0.04613061  0.20386939  0.70386939  1
  Eu  Eu5  1  0.95386939  0.79613061  0.29613061  1
