# generated using pymatgen
data_Ca3(InNi2)4
_symmetry_space_group_name_H-M   'P 1'
_cell_length_a   8.98119942
_cell_length_b   8.98119942
_cell_length_c   7.54406629
_cell_angle_alpha   90.00000000
_cell_angle_beta   90.00000000
_cell_angle_gamma   120.00000001
_symmetry_Int_Tables_number   1
_chemical_formula_structural   Ca3(InNi2)4
_chemical_formula_sum   'Ca6 In8 Ni16'
_cell_volume   526.99295158
_cell_formula_units_Z   2
loop_
 _symmetry_equiv_pos_site_id
 _symmetry_equiv_pos_as_xyz
  1  'x, y, z'
loop_
 _atom_site_type_symbol
 _atom_site_label
 _atom_site_symmetry_multiplicity
 _atom_site_fract_x
 _atom_site_fract_y
 _atom_site_fract_z
 _atom_site_occupancy
  Ca  Ca0  1  0.47041103  0.52958897  0.23362217  1
  Ca  Ca1  1  0.94082207  0.47041103  0.73362217  1
  Ca  Ca2  1  0.52958897  0.05917793  0.73362217  1
  Ca  Ca3  1  0.47041103  0.94082207  0.23362217  1
  Ca  Ca4  1  0.05917793  0.52958897  0.23362217  1
  Ca  Ca5  1  0.52958897  0.47041103  0.73362217  1
  Ni  Ni6  1  0.00000000  0.00000000  0.00157362  1
  Ni  Ni7  1  0.00000000  0.00000000  0.50157362  1
  Ni  Ni8  1  0.66666667  0.33333333  0.42782491  1
  Ni  Ni9  1  0.33333333  0.66666667  0.92782491  1
  Ni  Ni10  1  0.09798726  0.19597452  0.24926133  1
  Ni  Ni11  1  0.90201274  0.09798726  0.74926133  1
  Ni  Ni12  1  0.19597452  0.09798726  0.74926133  1
  Ni  Ni13  1  0.80402548  0.90201274  0.24926133  1
  Ni  Ni14  1  0.09798726  0.90201274  0.24926133  1
  Ni  Ni15  1  0.90201274  0.80402548  0.74926133  1
  Ni  Ni16  1  0.16018157  0.32036313  0.56185086  1
  Ni  Ni17  1  0.83981843  0.16018157  0.06185086  1
  Ni  Ni18  1  0.32036313  0.16018157  0.06185086  1
  Ni  Ni19  1  0.67963687  0.83981843  0.56185086  1
  Ni  Ni20  1  0.16018157  0.83981843  0.56185086  1
  Ni  Ni21  1  0.83981843  0.67963687  0.06185086  1
  In  In22  1  0.33333333  0.66666667  0.57396517  1
  In  In23  1  0.66666667  0.33333333  0.07396517  1
  In  In24  1  0.83069084  0.66138168  0.43006107  1
  In  In25  1  0.16930916  0.83069084  0.93006107  1
  In  In26  1  0.66138168  0.83069084  0.93006107  1
  In  In27  1  0.33861832  0.16930916  0.43006107  1
  In  In28  1  0.83069084  0.16930916  0.43006107  1
  In  In29  1  0.16930916  0.33861832  0.93006107  1
