# generated using pymatgen
data_TbGaPt
_symmetry_space_group_name_H-M   'P 1'
_cell_length_a   4.45971909
_cell_length_b   6.95998713
_cell_length_c   7.69265093
_cell_angle_alpha   90.00000000
_cell_angle_beta   90.00000000
_cell_angle_gamma   90.00000000
_symmetry_Int_Tables_number   1
_chemical_formula_structural   TbGaPt
_chemical_formula_sum   'Tb4 Ga4 Pt4'
_cell_volume   238.77671142
_cell_formula_units_Z   4
loop_
 _symmetry_equiv_pos_site_id
 _symmetry_equiv_pos_as_xyz
  1  'x, y, z'
loop_
 _atom_site_type_symbol
 _atom_site_label
 _atom_site_symmetry_multiplicity
 _atom_site_fract_x
 _atom_site_fract_y
 _atom_site_fract_z
 _atom_site_occupancy
  Ga  Ga0  1  0.75000000  0.67142427  0.57540987  1
  Ga  Ga1  1  0.25000000  0.32857573  0.42459013  1
  Ga  Ga2  1  0.75000000  0.17142427  0.92459013  1
  Ga  Ga3  1  0.25000000  0.82857573  0.07540987  1
  Tb  Tb4  1  0.75000000  0.51636562  0.19696363  1
  Tb  Tb5  1  0.25000000  0.98363438  0.69696363  1
  Tb  Tb6  1  0.25000000  0.48363438  0.80303637  1
  Tb  Tb7  1  0.75000000  0.01636562  0.30303637  1
  Pt  Pt8  1  0.25000000  0.72153234  0.40166504  1
  Pt  Pt9  1  0.25000000  0.22153234  0.09833496  1
  Pt  Pt10  1  0.75000000  0.77846766  0.90166504  1
  Pt  Pt11  1  0.75000000  0.27846766  0.59833496  1
