# generated using pymatgen
data_HoGeRh
_symmetry_space_group_name_H-M   'P 1'
_cell_length_a   4.31225615
_cell_length_b   6.91947013
_cell_length_c   7.57226728
_cell_angle_alpha   90.00000000
_cell_angle_beta   90.00000000
_cell_angle_gamma   90.00000000
_symmetry_Int_Tables_number   1
_chemical_formula_structural   HoGeRh
_chemical_formula_sum   'Ho4 Ge4 Rh4'
_cell_volume   225.94530640
_cell_formula_units_Z   4
loop_
 _symmetry_equiv_pos_site_id
 _symmetry_equiv_pos_as_xyz
  1  'x, y, z'
loop_
 _atom_site_type_symbol
 _atom_site_label
 _atom_site_symmetry_multiplicity
 _atom_site_fract_x
 _atom_site_fract_y
 _atom_site_fract_z
 _atom_site_occupancy
  Ge  Ge0  1  0.25000000  0.28742257  0.89325614  1
  Ge  Ge1  1  0.75000000  0.71257743  0.10674386  1
  Ge  Ge2  1  0.25000000  0.78742257  0.60674386  1
  Ge  Ge3  1  0.75000000  0.21257743  0.39325614  1
  Rh  Rh4  1  0.75000000  0.84439512  0.43321592  1
  Rh  Rh5  1  0.25000000  0.15560488  0.56678408  1
  Rh  Rh6  1  0.75000000  0.34439512  0.06678408  1
  Rh  Rh7  1  0.25000000  0.65560488  0.93321592  1
  Ho  Ho8  1  0.25000000  0.50331754  0.30506954  1
  Ho  Ho9  1  0.75000000  0.49668246  0.69493046  1
  Ho  Ho10  1  0.25000000  0.00331754  0.19493046  1
  Ho  Ho11  1  0.75000000  0.99668246  0.80506954  1
