# generated using pymatgen
data_EuSnPd
_symmetry_space_group_name_H-M   'P 1'
_cell_length_a   4.73474585
_cell_length_b   7.57235646
_cell_length_c   8.12781858
_cell_angle_alpha   90.00000000
_cell_angle_beta   90.00000000
_cell_angle_gamma   90.00000000
_symmetry_Int_Tables_number   1
_chemical_formula_structural   EuSnPd
_chemical_formula_sum   'Eu4 Sn4 Pd4'
_cell_volume   291.40816957
_cell_formula_units_Z   4
loop_
 _symmetry_equiv_pos_site_id
 _symmetry_equiv_pos_as_xyz
  1  'x, y, z'
loop_
 _atom_site_type_symbol
 _atom_site_label
 _atom_site_symmetry_multiplicity
 _atom_site_fract_x
 _atom_site_fract_y
 _atom_site_fract_z
 _atom_site_occupancy
  Pd  Pd0  1  0.75000000  0.20792633  0.89424123  1
  Pd  Pd1  1  0.25000000  0.29207367  0.39424123  1
  Pd  Pd2  1  0.75000000  0.70792633  0.60575877  1
  Pd  Pd3  1  0.25000000  0.79207367  0.10575877  1
  Sn  Sn4  1  0.25000000  0.16482103  0.07404699  1
  Sn  Sn5  1  0.75000000  0.33517897  0.57404699  1
  Sn  Sn6  1  0.25000000  0.66482103  0.42595301  1
  Sn  Sn7  1  0.75000000  0.83517897  0.92595301  1
  Eu  Eu8  1  0.25000000  0.52259716  0.81459906  1
  Eu  Eu9  1  0.75000000  0.47740284  0.18540094  1
  Eu  Eu10  1  0.25000000  0.02259716  0.68540094  1
  Eu  Eu11  1  0.75000000  0.97740284  0.31459906  1
