# generated using pymatgen
data_BiSbO4
_symmetry_space_group_name_H-M   'P 1'
_cell_length_a   4.98757218
_cell_length_b   5.60701712
_cell_length_c   6.55981638
_cell_angle_alpha   103.38101825
_cell_angle_beta   112.34365322
_cell_angle_gamma   90.00000000
_symmetry_Int_Tables_number   1
_chemical_formula_structural   BiSbO4
_chemical_formula_sum   'Bi2 Sb2 O8'
_cell_volume   164.27755696
_cell_formula_units_Z   2
loop_
 _symmetry_equiv_pos_site_id
 _symmetry_equiv_pos_as_xyz
  1  'x, y, z'
loop_
 _atom_site_type_symbol
 _atom_site_label
 _atom_site_symmetry_multiplicity
 _atom_site_fract_x
 _atom_site_fract_y
 _atom_site_fract_z
 _atom_site_occupancy
  O  O0  1  0.81270391  0.53661640  0.30723631  1
  O  O1  1  0.00546760  0.96338360  0.69276369  1
  O  O2  1  0.18729609  0.46338360  0.69276369  1
  O  O3  1  0.99453240  0.03661640  0.30723631  1
  O  O4  1  0.34811583  0.81163013  0.13017860  1
  O  O5  1  0.71793723  0.68836987  0.86982140  1
  O  O6  1  0.65188417  0.18836987  0.86982140  1
  O  O7  1  0.28206277  0.31163013  0.13017860  1
  Sb  Sb8  1  0.00000000  0.00000000  0.00000000  1
  Sb  Sb9  1  0.50000000  0.50000000  0.00000000  1
  Bi  Bi10  1  0.76059663  0.25000000  0.50000000  1
  Bi  Bi11  1  0.23940337  0.75000000  0.50000000  1
