# generated using pymatgen
data_Tb3Ge5
_symmetry_space_group_name_H-M   'P 1'
_cell_length_a   5.80234246
_cell_length_b   7.50276511
_cell_length_c   9.18642856
_cell_angle_alpha   82.98566222
_cell_angle_beta   71.59024595
_cell_angle_gamma   67.25190694
_symmetry_Int_Tables_number   1
_chemical_formula_structural   Tb3Ge5
_chemical_formula_sum   'Tb6 Ge10'
_cell_volume   349.93542718
_cell_formula_units_Z   2
loop_
 _symmetry_equiv_pos_site_id
 _symmetry_equiv_pos_as_xyz
  1  'x, y, z'
loop_
 _atom_site_type_symbol
 _atom_site_label
 _atom_site_symmetry_multiplicity
 _atom_site_fract_x
 _atom_site_fract_y
 _atom_site_fract_z
 _atom_site_occupancy
  Ge  Ge0  1  0.25402742  0.82275956  0.67379515  1
  Ge  Ge1  1  0.92321302  0.82275956  0.32620485  1
  Ge  Ge2  1  0.49941787  0.32275956  0.17379515  1
  Ge  Ge3  1  0.17782257  0.32275956  0.82620485  1
  Ge  Ge4  1  0.03198776  0.18849541  0.63085201  1
  Ge  Ge5  1  0.77951683  0.18849541  0.36914799  1
  Ge  Ge6  1  0.45133098  0.09733804  0.00000000  1
  Ge  Ge7  1  0.70133098  0.59733804  0.50000000  1
  Ge  Ge8  1  0.91283977  0.68849541  0.86914799  1
  Ge  Ge9  1  0.39866482  0.68849541  0.13085201  1
  Tb  Tb10  1  0.66418952  0.98203030  0.66326129  1
  Tb  Tb11  1  0.35378018  0.98203030  0.33673871  1
  Tb  Tb12  1  0.94051888  0.48203030  0.16326129  1
  Tb  Tb13  1  0.57745081  0.48203030  0.83673871  1
  Tb  Tb14  1  0.25125429  0.49749141  0.50000000  1
  Tb  Tb15  1  0.00125429  0.99749141  0.00000000  1
