# generated using pymatgen
data_In2Ir
_symmetry_space_group_name_H-M   'P 1'
_cell_length_a   5.47925519
_cell_length_b   5.66435272
_cell_length_c   9.47525499
_cell_angle_alpha   81.96122021
_cell_angle_beta   73.19382036
_cell_angle_gamma   61.07520702
_symmetry_Int_Tables_number   1
_chemical_formula_structural   In2Ir
_chemical_formula_sum   'In8 Ir4'
_cell_volume   246.39973799
_cell_formula_units_Z   4
loop_
 _symmetry_equiv_pos_site_id
 _symmetry_equiv_pos_as_xyz
  1  'x, y, z'
loop_
 _atom_site_type_symbol
 _atom_site_label
 _atom_site_symmetry_multiplicity
 _atom_site_fract_x
 _atom_site_fract_y
 _atom_site_fract_z
 _atom_site_occupancy
  In  In0  1  0.03204571  0.93590857  0.25000000  1
  In  In1  1  0.71795429  0.56409143  0.25000000  1
  In  In2  1  0.71049263  0.75000000  0.57901474  1
  In  In3  1  0.28204571  0.43590857  0.75000000  1
  In  In4  1  0.53950737  0.75000000  0.92098526  1
  In  In5  1  0.46049263  0.25000000  0.07901474  1
  In  In6  1  0.96795429  0.06409143  0.75000000  1
  In  In7  1  0.28950737  0.25000000  0.42098526  1
  Ir  Ir8  1  0.00483996  0.25000000  0.99032008  1
  Ir  Ir9  1  0.25483996  0.75000000  0.49032008  1
  Ir  Ir10  1  0.74516004  0.25000000  0.50967992  1
  Ir  Ir11  1  0.99516004  0.75000000  0.00967992  1
