# generated using pymatgen
data_TbGeRh
_symmetry_space_group_name_H-M   'P 1'
_cell_length_a   4.33452422
_cell_length_b   6.95705962
_cell_length_c   7.56785301
_cell_angle_alpha   90.00000000
_cell_angle_beta   90.00000000
_cell_angle_gamma   90.00000000
_symmetry_Int_Tables_number   1
_chemical_formula_structural   TbGeRh
_chemical_formula_sum   'Tb4 Ge4 Rh4'
_cell_volume   228.21272006
_cell_formula_units_Z   4
loop_
 _symmetry_equiv_pos_site_id
 _symmetry_equiv_pos_as_xyz
  1  'x, y, z'
loop_
 _atom_site_type_symbol
 _atom_site_label
 _atom_site_symmetry_multiplicity
 _atom_site_fract_x
 _atom_site_fract_y
 _atom_site_fract_z
 _atom_site_occupancy
  Tb  Tb0  1  0.75000000  0.99862166  0.80416766  1
  Tb  Tb1  1  0.75000000  0.49862166  0.69583234  1
  Tb  Tb2  1  0.25000000  0.00137834  0.19583234  1
  Tb  Tb3  1  0.25000000  0.50137834  0.30416766  1
  Ge  Ge4  1  0.75000000  0.71117725  0.10453188  1
  Ge  Ge5  1  0.75000000  0.21117725  0.39546812  1
  Ge  Ge6  1  0.25000000  0.28882275  0.89546812  1
  Ge  Ge7  1  0.25000000  0.78882275  0.60453188  1
  Rh  Rh8  1  0.75000000  0.34411545  0.06762210  1
  Rh  Rh9  1  0.75000000  0.84411545  0.43237790  1
  Rh  Rh10  1  0.25000000  0.65588455  0.93237790  1
  Rh  Rh11  1  0.25000000  0.15588455  0.56762210  1
