# generated using pymatgen
data_UCl6
_symmetry_space_group_name_H-M   'P 1'
_cell_length_a   11.84839411
_cell_length_b   11.84839412
_cell_length_c   6.46802470
_cell_angle_alpha   90.00000000
_cell_angle_beta   90.00000000
_cell_angle_gamma   120.00000000
_symmetry_Int_Tables_number   1
_chemical_formula_structural   UCl6
_chemical_formula_sum   'U3 Cl18'
_cell_volume   786.35976614
_cell_formula_units_Z   3
loop_
 _symmetry_equiv_pos_site_id
 _symmetry_equiv_pos_as_xyz
  1  'x, y, z'
loop_
 _atom_site_type_symbol
 _atom_site_label
 _atom_site_symmetry_multiplicity
 _atom_site_fract_x
 _atom_site_fract_y
 _atom_site_fract_z
 _atom_site_occupancy
  Cl  Cl0  1  0.23512365  0.76487635  0.70554558  1
  Cl  Cl1  1  0.23512365  0.47024729  0.70554558  1
  Cl  Cl2  1  0.52975271  0.76487635  0.70554558  1
  Cl  Cl3  1  0.09815432  0.90184568  0.22116171  1
  Cl  Cl4  1  0.09815432  0.19630864  0.22116171  1
  Cl  Cl5  1  0.80369136  0.90184568  0.22116171  1
  Cl  Cl6  1  0.19630864  0.09815432  0.77883829  1
  Cl  Cl7  1  0.90184568  0.80369136  0.77883829  1
  Cl  Cl8  1  0.90184568  0.09815432  0.77883829  1
  Cl  Cl9  1  0.43177105  0.56822895  0.26512002  1
  Cl  Cl10  1  0.43177105  0.86354210  0.26512002  1
  Cl  Cl11  1  0.13645790  0.56822895  0.26512002  1
  Cl  Cl12  1  0.86354210  0.43177105  0.73487998  1
  Cl  Cl13  1  0.56822895  0.13645790  0.73487998  1
  Cl  Cl14  1  0.56822895  0.43177105  0.73487998  1
  Cl  Cl15  1  0.76487635  0.23512365  0.29445442  1
  Cl  Cl16  1  0.76487635  0.52975271  0.29445442  1
  Cl  Cl17  1  0.47024729  0.23512365  0.29445442  1
  U  U18  1  0.66666667  0.33333333  0.51492421  1
  U  U19  1  0.33333333  0.66666667  0.48507579  1
  U  U20  1  0.00000000  0.00000000  0.00000000  1
