# generated using pymatgen
data_Tb3FeSi6
_symmetry_space_group_name_H-M   'P 1'
_cell_length_a   4.00019357
_cell_length_b   4.02290401
_cell_length_c   23.80959114
_cell_angle_alpha   85.15383364
_cell_angle_beta   90.00000000
_cell_angle_gamma   90.00000000
_symmetry_Int_Tables_number   1
_chemical_formula_structural   Tb3FeSi6
_chemical_formula_sum   'Tb6 Fe2 Si12'
_cell_volume   381.78360930
_cell_formula_units_Z   2
loop_
 _symmetry_equiv_pos_site_id
 _symmetry_equiv_pos_as_xyz
  1  'x, y, z'
loop_
 _atom_site_type_symbol
 _atom_site_label
 _atom_site_symmetry_multiplicity
 _atom_site_fract_x
 _atom_site_fract_y
 _atom_site_fract_z
 _atom_site_occupancy
  Tb  Tb0  1  0.25000000  0.96352785  0.07294330  1
  Tb  Tb1  1  0.25000000  0.29758863  0.40482375  1
  Tb  Tb2  1  0.25000000  0.63012962  0.73974076  1
  Tb  Tb3  1  0.75000000  0.37006933  0.25986135  1
  Tb  Tb4  1  0.75000000  0.70246335  0.59507230  1
  Tb  Tb5  1  0.75000000  0.03880755  0.92238590  1
  Fe  Fe6  1  0.25000000  0.41735867  0.16528367  1
  Fe  Fe7  1  0.25000000  0.75015080  0.49969840  1
  Si  Si8  1  0.25000000  0.84626094  0.30747812  1
  Si  Si9  1  0.25000000  0.17953760  0.64092379  1
  Si  Si10  1  0.25000000  0.51492727  0.97014645  1
  Si  Si11  1  0.75000000  0.48701293  0.02597313  1
  Si  Si12  1  0.75000000  0.81917871  0.36164357  1
  Si  Si13  1  0.75000000  0.15080583  0.69838833  1
  Si  Si14  1  0.25000000  0.89712660  0.20574581  1
  Si  Si15  1  0.25000000  0.23029081  0.53941938  1
  Si  Si16  1  0.25000000  0.56438983  0.87122034  1
  Si  Si17  1  0.75000000  0.43619840  0.12760320  1
  Si  Si18  1  0.75000000  0.76893047  0.46213806  1
  Si  Si19  1  0.75000000  0.10191181  0.79617739  1
