# generated using pymatgen
data_Bi4B2O9
_symmetry_space_group_name_H-M   'P 1'
_cell_length_a   6.65770561
_cell_length_b   11.21584173
_cell_length_c   11.27562359
_cell_angle_alpha   90.30647870
_cell_angle_beta   90.00000000
_cell_angle_gamma   90.00000000
_symmetry_Int_Tables_number   1
_chemical_formula_structural   Bi4B2O9
_chemical_formula_sum   'Bi16 B8 O36'
_cell_volume   841.95875288
_cell_formula_units_Z   4
loop_
 _symmetry_equiv_pos_site_id
 _symmetry_equiv_pos_as_xyz
  1  'x, y, z'
loop_
 _atom_site_type_symbol
 _atom_site_label
 _atom_site_symmetry_multiplicity
 _atom_site_fract_x
 _atom_site_fract_y
 _atom_site_fract_z
 _atom_site_occupancy
  B  B0  1  0.24524331  0.75541632  0.22395073  1
  B  B1  1  0.74524331  0.74458368  0.77604927  1
  B  B2  1  0.75475669  0.24458368  0.77604927  1
  B  B3  1  0.25475669  0.25541632  0.22395073  1
  B  B4  1  0.26361760  0.76614130  0.75166098  1
  B  B5  1  0.76361760  0.73385870  0.24833902  1
  B  B6  1  0.73638240  0.23385870  0.24833902  1
  B  B7  1  0.23638240  0.26614130  0.75166098  1
  O  O8  1  0.18606978  0.65916694  0.71087592  1
  O  O9  1  0.68606978  0.84083306  0.28912408  1
  O  O10  1  0.81393022  0.34083306  0.28912408  1
  O  O11  1  0.31393022  0.15916694  0.71087592  1
  O  O12  1  0.17819117  0.77953746  0.33836611  1
  O  O13  1  0.67819117  0.72046254  0.66163389  1
  O  O14  1  0.26185736  0.85205832  0.14634765  1
  O  O15  1  0.82180883  0.22046254  0.66163389  1
  O  O16  1  0.09737357  0.10893570  0.49873369  1
  O  O17  1  0.59737357  0.39106430  0.50126631  1
  O  O18  1  0.90262643  0.89106430  0.50126631  1
  O  O19  1  0.40262643  0.60893570  0.49873369  1
  O  O20  1  0.10111915  0.49454923  0.38552600  1
  O  O21  1  0.60111915  0.00545077  0.61447400  1
  O  O22  1  0.89888085  0.50545077  0.61447400  1
  O  O23  1  0.39888085  0.99454923  0.38552600  1
  O  O24  1  0.16491566  0.28291142  0.86557023  1
  O  O25  1  0.66491566  0.21708858  0.13442977  1
  O  O26  1  0.83508434  0.71708858  0.13442977  1
  O  O27  1  0.33508434  0.78291142  0.86557023  1
  O  O28  1  0.15859303  0.01331770  0.92088405  1
  O  O29  1  0.65859303  0.48668230  0.07911595  1
  O  O30  1  0.84140697  0.98668230  0.07911595  1
  O  O31  1  0.34140697  0.51331770  0.92088405  1
  O  O32  1  0.20969903  0.14046808  0.18724931  1
  O  O33  1  0.70969903  0.35953192  0.81275069  1
  O  O34  1  0.79030097  0.85953192  0.81275069  1
  O  O35  1  0.29030097  0.64046808  0.18724931  1
  O  O36  1  0.22889043  0.36612051  0.67744281  1
  O  O37  1  0.72889043  0.13387949  0.32255719  1
  O  O38  1  0.77110957  0.63387949  0.32255719  1
  O  O39  1  0.27110957  0.86612051  0.67744281  1
  O  O40  1  0.23814264  0.35205832  0.14634765  1
  O  O41  1  0.73814264  0.14794168  0.85365235  1
  O  O42  1  0.76185736  0.64794168  0.85365235  1
  O  O43  1  0.32180883  0.27953746  0.33836611  1
  Bi  Bi44  1  0.06246594  0.98016995  0.34416898  1
  Bi  Bi45  1  0.56246594  0.51983005  0.65583102  1
  Bi  Bi46  1  0.93753406  0.01983005  0.65583102  1
  Bi  Bi47  1  0.43753406  0.48016995  0.34416898  1
  Bi  Bi48  1  0.07595107  0.65911585  0.50281856  1
  Bi  Bi49  1  0.57595107  0.84088415  0.49718144  1
  Bi  Bi50  1  0.92404893  0.34088415  0.49718144  1
  Bi  Bi51  1  0.42404893  0.15911585  0.50281856  1
  Bi  Bi52  1  0.45193338  0.99026233  0.80397454  1
  Bi  Bi53  1  0.95193338  0.50973767  0.19602546  1
  Bi  Bi54  1  0.54806662  0.00973767  0.19602546  1
  Bi  Bi55  1  0.04806662  0.49026233  0.80397454  1
  Bi  Bi56  1  0.01756558  0.84729699  0.99153428  1
  Bi  Bi57  1  0.51756558  0.65270301  0.00846572  1
  Bi  Bi58  1  0.98243442  0.15270301  0.00846572  1
  Bi  Bi59  1  0.48243442  0.34729699  0.99153428  1
