# generated using pymatgen
data_LaNi5H7
_symmetry_space_group_name_H-M   'P 1'
_cell_length_a   5.34802031
_cell_length_b   5.34802031
_cell_length_c   8.58551337
_cell_angle_alpha   90.00000000
_cell_angle_beta   90.00000000
_cell_angle_gamma   119.98268782
_symmetry_Int_Tables_number   1
_chemical_formula_structural   LaNi5H7
_chemical_formula_sum   'La2 Ni10 H14'
_cell_volume   212.69571054
_cell_formula_units_Z   2
loop_
 _symmetry_equiv_pos_site_id
 _symmetry_equiv_pos_as_xyz
  1  'x, y, z'
loop_
 _atom_site_type_symbol
 _atom_site_label
 _atom_site_symmetry_multiplicity
 _atom_site_fract_x
 _atom_site_fract_y
 _atom_site_fract_z
 _atom_site_occupancy
  La  La0  1  0.00001065  -0.00001065  0.47484951  1
  La  La1  1  -0.00001065  0.00001065  0.97484951  1
  Ni  Ni2  1  0.49993198  0.50006802  0.25015815  1
  Ni  Ni3  1  0.00018859  0.50005461  0.25014057  1
  Ni  Ni4  1  0.49994539  -0.00018859  0.25014057  1
  Ni  Ni5  1  0.50006802  0.49993198  0.75015815  1
  Ni  Ni6  1  -0.00018859  0.49994539  0.75014057  1
  Ni  Ni7  1  0.50005461  0.00018859  0.75014057  1
  Ni  Ni8  1  0.33334459  0.66665541  0.49658398  1
  Ni  Ni9  1  0.66665541  0.33334459  0.99658398  1
  Ni  Ni10  1  0.33332968  0.66667032  0.01850087  1
  Ni  Ni11  1  0.66667032  0.33332968  0.51850087  1
  H  H12  1  0.50511786  0.49488214  0.44319667  1
  H  H13  1  0.98980396  0.49488453  0.44325460  1
  H  H14  1  0.50511547  0.01019604  0.44325460  1
  H  H15  1  0.49488214  0.50511786  0.94319667  1
  H  H16  1  0.01019604  0.50511547  0.94325460  1
  H  H17  1  0.49488453  0.98980396  0.94325460  1
  H  H18  1  0.33334232  0.66665768  0.68449169  1
  H  H19  1  0.66665768  0.33334232  0.18449169  1
  H  H20  1  0.15452085  0.84547915  0.22013468  1
  H  H21  1  0.69092429  0.84538980  0.22014705  1
  H  H22  1  0.15461020  0.30907571  0.22014705  1
  H  H23  1  0.84547915  0.15452085  0.72013468  1
  H  H24  1  0.30907571  0.15461020  0.72014705  1
  H  H25  1  0.84538980  0.69092429  0.72014705  1
