# generated using pymatgen
data_MgH12(BrO6)2
_symmetry_space_group_name_H-M   'P 1'
_cell_length_a   10.59594224
_cell_length_b   10.59594224
_cell_length_c   10.59594224
_cell_angle_alpha   90.00000000
_cell_angle_beta   90.00000000
_cell_angle_gamma   90.00000000
_symmetry_Int_Tables_number   1
_chemical_formula_structural   MgH12(BrO6)2
_chemical_formula_sum   'Mg4 H48 Br8 O48'
_cell_volume   1189.64873379
_cell_formula_units_Z   4
loop_
 _symmetry_equiv_pos_site_id
 _symmetry_equiv_pos_as_xyz
  1  'x, y, z'
loop_
 _atom_site_type_symbol
 _atom_site_label
 _atom_site_symmetry_multiplicity
 _atom_site_fract_x
 _atom_site_fract_y
 _atom_site_fract_z
 _atom_site_occupancy
  Mg  Mg0  1  0.00000000  0.00000000  0.00000000  1
  Mg  Mg1  1  0.50000000  0.00000000  0.50000000  1
  Mg  Mg2  1  0.50000000  0.50000000  0.00000000  1
  Mg  Mg3  1  0.00000000  0.50000000  0.50000000  1
  H  H4  1  0.25941289  0.03041503  0.42635632  1
  H  H5  1  0.75941289  0.46958497  0.57364368  1
  H  H6  1  0.74058711  0.53041503  0.07364368  1
  H  H7  1  0.46958497  0.57364368  0.75941289  1
  H  H8  1  0.07364368  0.74058711  0.53041503  1
  H  H9  1  0.57364368  0.75941289  0.46958497  1
  H  H10  1  0.03041503  0.42635632  0.25941289  1
  H  H11  1  0.42635632  0.25941289  0.03041503  1
  H  H12  1  0.53041503  0.07364368  0.74058711  1
  H  H13  1  0.96958497  0.92635632  0.24058711  1
  H  H14  1  0.92635632  0.24058711  0.96958497  1
  H  H15  1  0.24058711  0.96958497  0.92635632  1
  H  H16  1  0.25941289  0.46958497  0.92635632  1
  H  H17  1  0.53041503  0.42635632  0.24058711  1
  H  H18  1  0.92635632  0.25941289  0.46958497  1
  H  H19  1  0.42635632  0.24058711  0.53041503  1
  H  H20  1  0.96958497  0.57364368  0.74058711  1
  H  H21  1  0.57364368  0.74058711  0.96958497  1
  H  H22  1  0.46958497  0.92635632  0.25941289  1
  H  H23  1  0.03041503  0.07364368  0.75941289  1
  H  H24  1  0.07364368  0.75941289  0.03041503  1
  H  H25  1  0.75941289  0.03041503  0.07364368  1
  H  H26  1  0.57867057  0.03140159  0.25568787  1
  H  H27  1  0.07867057  0.46859841  0.74431213  1
  H  H28  1  0.42132943  0.53140159  0.24431213  1
  H  H29  1  0.46859841  0.74431213  0.07867057  1
  H  H30  1  0.24431213  0.42132943  0.53140159  1
  H  H31  1  0.74431213  0.07867057  0.46859841  1
  H  H32  1  0.03140159  0.25568787  0.57867057  1
  H  H33  1  0.25568787  0.57867057  0.03140159  1
  H  H34  1  0.53140159  0.24431213  0.42132943  1
  H  H35  1  0.96859841  0.75568787  0.92132943  1
  H  H36  1  0.75568787  0.92132943  0.96859841  1
  H  H37  1  0.92132943  0.96859841  0.75568787  1
  H  H38  1  0.42132943  0.96859841  0.74431213  1
  H  H39  1  0.92132943  0.53140159  0.25568787  1
  H  H40  1  0.57867057  0.46859841  0.75568787  1
  H  H41  1  0.53140159  0.25568787  0.92132943  1
  H  H42  1  0.75568787  0.57867057  0.46859841  1
  H  H43  1  0.25568787  0.92132943  0.53140159  1
  H  H44  1  0.96859841  0.74431213  0.42132943  1
  H  H45  1  0.74431213  0.42132943  0.96859841  1
  H  H46  1  0.46859841  0.75568787  0.57867057  1
  H  H47  1  0.03140159  0.24431213  0.07867057  1
  H  H48  1  0.24431213  0.07867057  0.03140159  1
  H  H49  1  0.07867057  0.03140159  0.24431213  1
  H  H50  1  0.74058711  0.96958497  0.57364368  1
  H  H51  1  0.24058711  0.53041503  0.42635632  1
  Br  Br52  1  0.24841961  0.74841961  0.75158039  1
  Br  Br53  1  0.75158039  0.24841961  0.74841961  1
  Br  Br54  1  0.74841961  0.75158039  0.24841961  1
  Br  Br55  1  0.25158039  0.25158039  0.25158039  1
  Br  Br56  1  0.74841961  0.74841961  0.74841961  1
  Br  Br57  1  0.75158039  0.25158039  0.24841961  1
  Br  Br58  1  0.24841961  0.75158039  0.25158039  1
  Br  Br59  1  0.25158039  0.24841961  0.75158039  1
  O  O60  1  0.96091193  0.03495682  0.80879760  1
  O  O61  1  0.80879760  0.96091193  0.03495682  1
  O  O62  1  0.03495682  0.80879760  0.96091193  1
  O  O63  1  0.46504318  0.19120240  0.46091193  1
  O  O64  1  0.30879760  0.53908807  0.96504318  1
  O  O65  1  0.96504318  0.30879760  0.53908807  1
  O  O66  1  0.96091193  0.46504318  0.30879760  1
  O  O67  1  0.19120240  0.46091193  0.46504318  1
  O  O68  1  0.53495682  0.69120240  0.03908807  1
  O  O69  1  0.46091193  0.46504318  0.19120240  1
  O  O70  1  0.03908807  0.53495682  0.69120240  1
  O  O71  1  0.53908807  0.96504318  0.30879760  1
  O  O72  1  0.53908807  0.53495682  0.80879760  1
  O  O73  1  0.46504318  0.30879760  0.96091193  1
  O  O74  1  0.80879760  0.53908807  0.53495682  1
  O  O75  1  0.30879760  0.96091193  0.46504318  1
  O  O76  1  0.03495682  0.69120240  0.46091193  1
  O  O77  1  0.69120240  0.46091193  0.03495682  1
  O  O78  1  0.53495682  0.80879760  0.53908807  1
  O  O79  1  0.96504318  0.19120240  0.03908807  1
  O  O80  1  0.19120240  0.03908807  0.96504318  1
  O  O81  1  0.03908807  0.96504318  0.19120240  1
  O  O82  1  0.67151121  0.13880974  0.16843065  1
  O  O83  1  0.17151121  0.36119026  0.83156935  1
  O  O84  1  0.32848879  0.63880974  0.33156935  1
  O  O85  1  0.36119026  0.83156935  0.17151121  1
  O  O86  1  0.33156935  0.32848879  0.63880974  1
  O  O87  1  0.83156935  0.17151121  0.36119026  1
  O  O88  1  0.13880974  0.16843065  0.67151121  1
  O  O89  1  0.16843065  0.67151121  0.13880974  1
  O  O90  1  0.63880974  0.33156935  0.32848879  1
  O  O91  1  0.86119026  0.66843065  0.82848879  1
  O  O92  1  0.66843065  0.82848879  0.86119026  1
  O  O93  1  0.82848879  0.86119026  0.66843065  1
  O  O94  1  0.32848879  0.86119026  0.83156935  1
  O  O95  1  0.82848879  0.63880974  0.16843065  1
  O  O96  1  0.67151121  0.36119026  0.66843065  1
  O  O97  1  0.63880974  0.16843065  0.82848879  1
  O  O98  1  0.66843065  0.67151121  0.36119026  1
  O  O99  1  0.16843065  0.82848879  0.63880974  1
  O  O100  1  0.86119026  0.83156935  0.32848879  1
  O  O101  1  0.83156935  0.32848879  0.86119026  1
  O  O102  1  0.36119026  0.66843065  0.67151121  1
  O  O103  1  0.13880974  0.33156935  0.17151121  1
  O  O104  1  0.33156935  0.17151121  0.13880974  1
  O  O105  1  0.17151121  0.13880974  0.33156935  1
  O  O106  1  0.46091193  0.03495682  0.69120240  1
  O  O107  1  0.69120240  0.03908807  0.53495682  1
