# generated using pymatgen
data_Al4Bi2O9
_symmetry_space_group_name_H-M   'P 1'
_cell_length_a   5.76765148
_cell_length_b   7.78230982
_cell_length_c   8.24779449
_cell_angle_alpha   90.00000000
_cell_angle_beta   90.00000000
_cell_angle_gamma   90.00000000
_symmetry_Int_Tables_number   1
_chemical_formula_structural   Al4Bi2O9
_chemical_formula_sum   'Al8 Bi4 O18'
_cell_volume   370.20762295
_cell_formula_units_Z   2
loop_
 _symmetry_equiv_pos_site_id
 _symmetry_equiv_pos_as_xyz
  1  'x, y, z'
loop_
 _atom_site_type_symbol
 _atom_site_label
 _atom_site_symmetry_multiplicity
 _atom_site_fract_x
 _atom_site_fract_y
 _atom_site_fract_z
 _atom_site_occupancy
  O  O0  1  0.00000000  0.35572162  0.93547673  1
  O  O1  1  0.00000000  0.64427838  0.06452327  1
  O  O2  1  0.00000000  0.85572162  0.56452327  1
  O  O3  1  0.00000000  0.14427838  0.43547673  1
  O  O4  1  0.50000000  0.36113683  0.91547823  1
  O  O5  1  0.50000000  0.63886317  0.08452177  1
  O  O6  1  0.50000000  0.86113683  0.58452177  1
  O  O7  1  0.50000000  0.13886317  0.41547823  1
  O  O8  1  0.25167304  0.87688244  0.29169432  1
  O  O9  1  0.25167304  0.12311756  0.70830568  1
  O  O10  1  0.74832696  0.37688244  0.20830568  1
  O  O11  1  0.74832696  0.62311756  0.79169432  1
  O  O12  1  0.50000000  0.00000000  0.00000000  1
  O  O13  1  0.50000000  0.50000000  0.50000000  1
  O  O14  1  0.25167304  0.37688244  0.20830568  1
  O  O15  1  0.25167304  0.62311756  0.79169432  1
  O  O16  1  0.74832696  0.87688244  0.29169432  1
  O  O17  1  0.74832696  0.12311756  0.70830568  1
  Al  Al18  1  0.50000000  0.14768953  0.83945029  1
  Al  Al19  1  0.50000000  0.85231047  0.16054971  1
  Al  Al20  1  0.50000000  0.64768953  0.66054971  1
  Al  Al21  1  0.50000000  0.35231047  0.33945029  1
  Al  Al22  1  0.26112635  0.00000000  0.50000000  1
  Al  Al23  1  0.73887365  0.50000000  0.00000000  1
  Al  Al24  1  0.73887365  0.00000000  0.50000000  1
  Al  Al25  1  0.26112635  0.50000000  0.00000000  1
  Bi  Bi26  1  0.00000000  0.32950154  0.66959042  1
  Bi  Bi27  1  0.00000000  0.67049846  0.33040958  1
  Bi  Bi28  1  0.00000000  0.82950154  0.83040958  1
  Bi  Bi29  1  0.00000000  0.17049846  0.16959042  1
