# generated using pymatgen
data_AlH10N2OF5
_symmetry_space_group_name_H-M   'P 1'
_cell_length_a   7.67078304
_cell_length_b   8.17604291
_cell_length_c   10.56227663
_cell_angle_alpha   90.00000000
_cell_angle_beta   90.00000000
_cell_angle_gamma   90.00000000
_symmetry_Int_Tables_number   1
_chemical_formula_structural   AlH10N2OF5
_chemical_formula_sum   'Al4 H40 N8 O4 F20'
_cell_volume   662.43062021
_cell_formula_units_Z   4
loop_
 _symmetry_equiv_pos_site_id
 _symmetry_equiv_pos_as_xyz
  1  'x, y, z'
loop_
 _atom_site_type_symbol
 _atom_site_label
 _atom_site_symmetry_multiplicity
 _atom_site_fract_x
 _atom_site_fract_y
 _atom_site_fract_z
 _atom_site_occupancy
  H  H0  1  0.89765542  0.51034245  0.88124600  1
  H  H1  1  0.39765542  0.98965755  0.61875400  1
  H  H2  1  0.60234458  0.51034245  0.11875400  1
  H  H3  1  0.10234458  0.98965755  0.38124600  1
  H  H4  1  0.10234458  0.48965755  0.11875400  1
  H  H5  1  0.60234458  0.01034245  0.38124600  1
  H  H6  1  0.39765542  0.48965755  0.88124600  1
  H  H7  1  0.89765542  0.01034245  0.61875400  1
  H  H8  1  0.04405903  0.37149306  0.82232314  1
  H  H9  1  0.54405903  0.12850694  0.67767686  1
  H  H10  1  0.45594097  0.37149306  0.17767686  1
  H  H11  1  0.95594097  0.12850694  0.32232314  1
  H  H12  1  0.95594097  0.62850694  0.17767686  1
  H  H13  1  0.45594097  0.87149306  0.32232314  1
  H  H14  1  0.54405903  0.62850694  0.82232314  1
  H  H15  1  0.04405903  0.87149306  0.67767686  1
  H  H16  1  0.86298376  0.41499987  0.74076687  1
  H  H17  1  0.36298376  0.08500013  0.75923313  1
  H  H18  1  0.63701624  0.41499987  0.25923313  1
  H  H19  1  0.86298376  0.91499987  0.75923313  1
  H  H20  1  0.13701624  0.58500013  0.25923313  1
  H  H21  1  0.63701624  0.91499987  0.24076687  1
  H  H22  1  0.36298376  0.58500013  0.74076687  1
  H  H23  1  0.02403112  0.05639150  0.74698132  1
  H  H24  1  0.02403112  0.55639150  0.75301868  1
  H  H25  1  0.52403112  0.94360850  0.74698132  1
  H  H26  1  0.47596888  0.55639150  0.24698132  1
  H  H27  1  0.97596888  0.94360850  0.25301868  1
  H  H28  1  0.64412679  0.10643355  0.98120303  1
  H  H29  1  0.14412679  0.39356645  0.51879697  1
  H  H30  1  0.85587321  0.10643355  0.01879697  1
  H  H31  1  0.35587321  0.39356645  0.48120303  1
  H  H32  1  0.35587321  0.89356645  0.01879697  1
  H  H33  1  0.85587321  0.60643355  0.48120303  1
  H  H34  1  0.14412679  0.89356645  0.98120303  1
  H  H35  1  0.64412679  0.60643355  0.51879697  1
  H  H36  1  0.47596888  0.05639150  0.25301868  1
  H  H37  1  0.52403112  0.44360850  0.75301868  1
  H  H38  1  0.97596888  0.44360850  0.24698132  1
  H  H39  1  0.13701624  0.08500013  0.24076687  1
  N  N40  1  0.04306935  0.03545649  0.29996355  1
  N  N41  1  0.54306935  0.46454351  0.20003645  1
  N  N42  1  0.45693065  0.03545649  0.70003645  1
  N  N43  1  0.95693065  0.46454351  0.79996355  1
  N  N44  1  0.04306935  0.53545649  0.20003645  1
  N  N45  1  0.45693065  0.53545649  0.79996355  1
  N  N46  1  0.95693065  0.96454351  0.70003645  1
  N  N47  1  0.54306935  0.96454351  0.29996355  1
  O  O48  1  0.75000000  0.53840657  0.50000000  1
  O  O49  1  0.25000000  0.96159343  0.00000000  1
  O  O50  1  0.25000000  0.46159343  0.50000000  1
  O  O51  1  0.75000000  0.03840657  0.00000000  1
  F  F52  1  0.67630845  0.80626101  0.83231896  1
  F  F53  1  0.17630845  0.19373899  0.83231896  1
  F  F54  1  0.82369155  0.30626101  0.33231896  1
  F  F55  1  0.32369155  0.19373899  0.16768104  1
  F  F56  1  0.32369155  0.69373899  0.33231896  1
  F  F57  1  0.82369155  0.80626101  0.16768104  1
  F  F58  1  0.17630845  0.69373899  0.66768104  1
  F  F59  1  0.67630845  0.30626101  0.66768104  1
  F  F60  1  0.97459451  0.30208880  0.55286375  1
  F  F61  1  0.47459451  0.19791120  0.94713625  1
  F  F62  1  0.75000000  0.57955266  0.00000000  1
  F  F63  1  0.02540549  0.19791120  0.05286375  1
  F  F64  1  0.02540549  0.69791120  0.44713625  1
  F  F65  1  0.52540549  0.80208880  0.05286375  1
  F  F66  1  0.47459451  0.69791120  0.55286375  1
  F  F67  1  0.97459451  0.80208880  0.94713625  1
  F  F68  1  0.75000000  0.07955266  0.50000000  1
  F  F69  1  0.25000000  0.42044734  0.00000000  1
  F  F70  1  0.25000000  0.92044734  0.50000000  1
  F  F71  1  0.52540549  0.30208880  0.44713625  1
  Al  Al72  1  0.75000000  0.30357468  0.50000000  1
  Al  Al73  1  0.25000000  0.19642532  0.00000000  1
  Al  Al74  1  0.25000000  0.69642532  0.50000000  1
  Al  Al75  1  0.75000000  0.80357468  0.00000000  1
