# generated using pymatgen
data_Be3As2(H2O5)2
_symmetry_space_group_name_H-M   'P 1'
_cell_length_a   4.75275811
_cell_length_b   8.66864603
_cell_length_c   10.04706428
_cell_angle_alpha   94.35920755
_cell_angle_beta   90.00000000
_cell_angle_gamma   105.91046757
_symmetry_Int_Tables_number   1
_chemical_formula_structural   Be3As2(H2O5)2
_chemical_formula_sum   'Be6 As4 H8 O20'
_cell_volume   396.83601965
_cell_formula_units_Z   2
loop_
 _symmetry_equiv_pos_site_id
 _symmetry_equiv_pos_as_xyz
  1  'x, y, z'
loop_
 _atom_site_type_symbol
 _atom_site_label
 _atom_site_symmetry_multiplicity
 _atom_site_fract_x
 _atom_site_fract_y
 _atom_site_fract_z
 _atom_site_occupancy
  Be  Be0  1  0.20745879  0.50576320  0.33887280  1
  Be  Be1  1  0.70169558  0.49423680  0.16112720  1
  Be  Be2  1  0.79254121  0.49423680  0.66112720  1
  Be  Be3  1  0.29830442  0.50576320  0.83887280  1
  Be  Be4  1  0.68316907  0.00000000  0.75000000  1
  Be  Be5  1  0.31683093  1.00000000  0.25000000  1
  As  As6  1  0.69753467  0.31102479  0.89875732  1
  As  As7  1  0.61349012  0.31102479  0.39875732  1
  As  As8  1  0.30246533  0.68897521  0.10124268  1
  As  As9  1  0.38650988  0.68897521  0.60124268  1
  H  H10  1  0.72216175  0.81521308  0.89628570  1
  H  H11  1  0.85332655  0.89749690  0.33757158  1
  H  H12  1  0.95582964  0.10250310  0.16242842  1
  H  H13  1  0.14667345  0.10250310  0.66242842  1
  H  H14  1  0.04417036  0.89749690  0.83757158  1
  H  H15  1  0.09305232  0.81521308  0.39628570  1
  H  H16  1  0.27783825  0.18478692  0.10371430  1
  H  H17  1  0.90694768  0.18478692  0.60371430  1
  O  O18  1  0.57924439  0.33147854  0.05833738  1
  O  O19  1  0.75223415  0.33147854  0.55833738  1
  O  O20  1  0.42075561  0.66852146  0.94166262  1
  O  O21  1  0.24776585  0.66852146  0.44166262  1
  O  O22  1  0.46761062  0.87794062  0.16850164  1
  O  O23  1  0.93125475  0.64221621  0.10164735  1
  O  O24  1  0.53238938  0.12205938  0.83149836  1
  O  O25  1  0.41032999  0.87794062  0.66850164  1
  O  O26  1  0.40279818  0.55435175  0.20244929  1
  O  O27  1  0.84844742  0.44564825  0.29755071  1
  O  O28  1  0.59720182  0.44564825  0.79755071  1
  O  O29  1  0.15155258  0.55435175  0.70244929  1
  O  O30  1  0.58967001  0.12205938  0.33149836  1
  O  O31  1  0.28903954  0.35778379  0.39835265  1
  O  O32  1  0.06874525  0.35778379  0.89835265  1
  O  O33  1  0.71096046  0.64221621  0.60164735  1
  O  O34  1  0.93862228  0.09000931  0.64641611  1
  O  O35  1  0.15138703  0.09000931  0.14641611  1
  O  O36  1  0.06137772  0.90999069  0.35358389  1
  O  O37  1  0.84861297  0.90999069  0.85358389  1
