# generated using pymatgen
data_CsAlH24(SeO10)2
_symmetry_space_group_name_H-M   'P 1'
_cell_length_a   12.67850488
_cell_length_b   12.67850488
_cell_length_c   12.67850488
_cell_angle_alpha   90.00000000
_cell_angle_beta   90.00000000
_cell_angle_gamma   90.00000000
_symmetry_Int_Tables_number   1
_chemical_formula_structural   CsAlH24(SeO10)2
_chemical_formula_sum   'Cs4 Al4 H96 Se8 O80'
_cell_volume   2037.99975008
_cell_formula_units_Z   4
loop_
 _symmetry_equiv_pos_site_id
 _symmetry_equiv_pos_as_xyz
  1  'x, y, z'
loop_
 _atom_site_type_symbol
 _atom_site_label
 _atom_site_symmetry_multiplicity
 _atom_site_fract_x
 _atom_site_fract_y
 _atom_site_fract_z
 _atom_site_occupancy
  H  H0  1  0.70012805  0.02463544  0.45097109  1
  H  H1  1  0.20012805  0.47536456  0.54902891  1
  H  H2  1  0.29987195  0.52463544  0.04902891  1
  H  H3  1  0.47536456  0.54902891  0.20012805  1
  H  H4  1  0.04902891  0.29987195  0.52463544  1
  H  H5  1  0.54902891  0.20012805  0.47536456  1
  H  H6  1  0.02463544  0.45097109  0.70012805  1
  H  H7  1  0.45097109  0.70012805  0.02463544  1
  H  H8  1  0.52463544  0.04902891  0.29987195  1
  H  H9  1  0.97536456  0.95097109  0.79987195  1
  H  H10  1  0.95097109  0.79987195  0.97536456  1
  H  H11  1  0.79987195  0.97536456  0.95097109  1
  H  H12  1  0.29987195  0.97536456  0.54902891  1
  H  H13  1  0.79987195  0.52463544  0.45097109  1
  H  H14  1  0.70012805  0.47536456  0.95097109  1
  H  H15  1  0.52463544  0.45097109  0.79987195  1
  H  H16  1  0.95097109  0.70012805  0.47536456  1
  H  H17  1  0.45097109  0.79987195  0.52463544  1
  H  H18  1  0.97536456  0.54902891  0.29987195  1
  H  H19  1  0.54902891  0.29987195  0.97536456  1
  H  H20  1  0.47536456  0.95097109  0.70012805  1
  H  H21  1  0.02463544  0.04902891  0.20012805  1
  H  H22  1  0.04902891  0.20012805  0.02463544  1
  H  H23  1  0.20012805  0.02463544  0.04902891  1
  H  H24  1  0.68530969  0.03439677  0.57914868  1
  H  H25  1  0.18530969  0.46560323  0.42085132  1
  H  H26  1  0.31469031  0.53439677  0.92085132  1
  H  H27  1  0.46560323  0.42085132  0.18530969  1
  H  H28  1  0.92085132  0.31469031  0.53439677  1
  H  H29  1  0.42085132  0.18530969  0.46560323  1
  H  H30  1  0.03439677  0.57914868  0.68530969  1
  H  H31  1  0.57914868  0.68530969  0.03439677  1
  H  H32  1  0.53439677  0.92085132  0.31469031  1
  H  H33  1  0.96560323  0.07914868  0.81469031  1
  H  H34  1  0.07914868  0.81469031  0.96560323  1
  H  H35  1  0.81469031  0.96560323  0.07914868  1
  H  H36  1  0.31469031  0.96560323  0.42085132  1
  H  H37  1  0.81469031  0.53439677  0.57914868  1
  H  H38  1  0.68530969  0.46560323  0.07914868  1
  H  H39  1  0.53439677  0.57914868  0.81469031  1
  H  H40  1  0.07914868  0.68530969  0.46560323  1
  H  H41  1  0.57914868  0.81469031  0.53439677  1
  H  H42  1  0.96560323  0.42085132  0.31469031  1
  H  H43  1  0.42085132  0.31469031  0.96560323  1
  H  H44  1  0.46560323  0.07914868  0.68530969  1
  H  H45  1  0.03439677  0.92085132  0.18530969  1
  H  H46  1  0.92085132  0.18530969  0.03439677  1
  H  H47  1  0.61617071  0.16719386  0.22214012  1
  H  H48  1  0.49723189  0.19873083  0.22618481  1
  H  H49  1  0.99723189  0.30126917  0.77381519  1
  H  H50  1  0.50276811  0.69873083  0.27381519  1
  H  H51  1  0.30126917  0.77381519  0.99723189  1
  H  H52  1  0.27381519  0.50276811  0.69873083  1
  H  H53  1  0.77381519  0.99723189  0.30126917  1
  H  H54  1  0.19873083  0.22618481  0.49723189  1
  H  H55  1  0.22618481  0.49723189  0.19873083  1
  H  H56  1  0.69873083  0.27381519  0.50276811  1
  H  H57  1  0.80126917  0.72618481  0.00276811  1
  H  H58  1  0.72618481  0.00276811  0.80126917  1
  H  H59  1  0.00276811  0.80126917  0.72618481  1
  H  H60  1  0.50276811  0.80126917  0.77381519  1
  H  H61  1  0.00276811  0.69873083  0.22618481  1
  H  H62  1  0.49723189  0.30126917  0.72618481  1
  H  H63  1  0.69873083  0.22618481  0.00276811  1
  H  H64  1  0.72618481  0.49723189  0.30126917  1
  H  H65  1  0.22618481  0.00276811  0.69873083  1
  H  H66  1  0.80126917  0.77381519  0.50276811  1
  H  H67  1  0.77381519  0.50276811  0.80126917  1
  H  H68  1  0.30126917  0.72618481  0.49723189  1
  H  H69  1  0.19873083  0.27381519  0.99723189  1
  H  H70  1  0.27381519  0.99723189  0.19873083  1
  H  H71  1  0.99723189  0.19873083  0.27381519  1
  H  H72  1  0.11617071  0.16719386  0.27785988  1
  H  H73  1  0.27785988  0.11617071  0.16719386  1
  H  H74  1  0.16719386  0.27785988  0.11617071  1
  H  H75  1  0.33280614  0.72214012  0.61617071  1
  H  H76  1  0.77785988  0.38382929  0.83280614  1
  H  H77  1  0.83280614  0.77785988  0.38382929  1
  H  H78  1  0.22214012  0.88382929  0.66719386  1
  H  H79  1  0.72214012  0.61617071  0.33280614  1
  H  H80  1  0.66719386  0.22214012  0.88382929  1
  H  H81  1  0.61617071  0.33280614  0.72214012  1
  H  H82  1  0.88382929  0.66719386  0.22214012  1
  H  H83  1  0.38382929  0.83280614  0.77785988  1
  H  H84  1  0.88382929  0.83280614  0.72214012  1
  H  H85  1  0.72214012  0.88382929  0.83280614  1
  H  H86  1  0.83280614  0.72214012  0.88382929  1
  H  H87  1  0.66719386  0.27785988  0.38382929  1
  H  H88  1  0.22214012  0.61617071  0.16719386  1
  H  H89  1  0.16719386  0.22214012  0.61617071  1
  H  H90  1  0.77785988  0.11617071  0.33280614  1
  H  H91  1  0.27785988  0.38382929  0.66719386  1
  H  H92  1  0.33280614  0.77785988  0.11617071  1
  H  H93  1  0.38382929  0.66719386  0.27785988  1
  H  H94  1  0.11617071  0.33280614  0.77785988  1
  H  H95  1  0.18530969  0.03439677  0.92085132  1
  O  O96  1  0.54444144  0.13726923  0.21344724  1
  O  O97  1  0.04444144  0.36273077  0.78655276  1
  O  O98  1  0.45555856  0.63726923  0.28655276  1
  O  O99  1  0.36273077  0.78655276  0.04444144  1
  O  O100  1  0.28655276  0.45555856  0.63726923  1
  O  O101  1  0.78655276  0.04444144  0.36273077  1
  O  O102  1  0.13726923  0.21344724  0.54444144  1
  O  O103  1  0.21344724  0.54444144  0.13726923  1
  O  O104  1  0.63726923  0.28655276  0.45555856  1
  O  O105  1  0.86273077  0.71344724  0.95555856  1
  O  O106  1  0.71344724  0.95555856  0.86273077  1
  O  O107  1  0.95555856  0.86273077  0.71344724  1
  O  O108  1  0.45555856  0.86273077  0.78655276  1
  O  O109  1  0.95555856  0.63726923  0.21344724  1
  O  O110  1  0.54444144  0.36273077  0.71344724  1
  O  O111  1  0.63726923  0.21344724  0.95555856  1
  O  O112  1  0.71344724  0.54444144  0.36273077  1
  O  O113  1  0.21344724  0.95555856  0.63726923  1
  O  O114  1  0.86273077  0.78655276  0.45555856  1
  O  O115  1  0.78655276  0.45555856  0.86273077  1
  O  O116  1  0.36273077  0.71344724  0.54444144  1
  O  O117  1  0.13726923  0.28655276  0.04444144  1
  O  O118  1  0.28655276  0.04444144  0.13726923  1
  O  O119  1  0.04444144  0.13726923  0.28655276  1
  O  O120  1  0.14933888  0.01251949  0.98762075  1
  O  O121  1  0.98762075  0.14933888  0.01251949  1
  O  O122  1  0.01251949  0.98762075  0.14933888  1
  O  O123  1  0.48748051  0.01237925  0.64933888  1
  O  O124  1  0.48762075  0.35066112  0.98748051  1
  O  O125  1  0.98748051  0.48762075  0.35066112  1
  O  O126  1  0.51237925  0.85066112  0.51251949  1
  O  O127  1  0.01237925  0.64933888  0.48748051  1
  O  O128  1  0.51251949  0.51237925  0.85066112  1
  O  O129  1  0.64933888  0.48748051  0.01237925  1
  O  O130  1  0.85066112  0.51251949  0.51237925  1
  O  O131  1  0.35066112  0.98748051  0.48762075  1
  O  O132  1  0.85066112  0.98748051  0.01237925  1
  O  O133  1  0.01237925  0.85066112  0.98748051  1
  O  O134  1  0.98748051  0.01237925  0.85066112  1
  O  O135  1  0.51251949  0.98762075  0.35066112  1
  O  O136  1  0.51237925  0.64933888  0.01251949  1
  O  O137  1  0.01251949  0.51237925  0.64933888  1
  O  O138  1  0.48762075  0.14933888  0.48748051  1
  O  O139  1  0.98762075  0.35066112  0.51251949  1
  O  O140  1  0.48748051  0.48762075  0.14933888  1
  O  O141  1  0.35066112  0.51251949  0.98762075  1
  O  O142  1  0.14933888  0.48748051  0.48762075  1
  O  O143  1  0.64933888  0.01251949  0.51237925  1
  O  O144  1  0.81539049  0.25842141  0.06893050  1
  O  O145  1  0.31539049  0.24157859  0.93106950  1
  O  O146  1  0.18460951  0.75842141  0.43106950  1
  O  O147  1  0.24157859  0.93106950  0.31539049  1
  O  O148  1  0.43106950  0.18460951  0.75842141  1
  O  O149  1  0.93106950  0.31539049  0.24157859  1
  O  O150  1  0.25842141  0.06893050  0.81539049  1
  O  O151  1  0.06893050  0.81539049  0.25842141  1
  O  O152  1  0.75842141  0.43106950  0.18460951  1
  O  O153  1  0.74157859  0.56893050  0.68460951  1
  O  O154  1  0.56893050  0.68460951  0.74157859  1
  O  O155  1  0.68460951  0.74157859  0.56893050  1
  O  O156  1  0.18460951  0.74157859  0.93106950  1
  O  O157  1  0.68460951  0.75842141  0.06893050  1
  O  O158  1  0.81539049  0.24157859  0.56893050  1
  O  O159  1  0.75842141  0.06893050  0.68460951  1
  O  O160  1  0.56893050  0.81539049  0.24157859  1
  O  O161  1  0.06893050  0.68460951  0.75842141  1
  O  O162  1  0.74157859  0.93106950  0.18460951  1
  O  O163  1  0.93106950  0.18460951  0.74157859  1
  O  O164  1  0.24157859  0.56893050  0.81539049  1
  O  O165  1  0.25842141  0.43106950  0.31539049  1
  O  O166  1  0.43106950  0.31539049  0.25842141  1
  O  O167  1  0.31539049  0.25842141  0.43106950  1
  O  O168  1  0.23252784  0.23252784  0.23252784  1
  O  O169  1  0.26747216  0.73252784  0.23252784  1
  O  O170  1  0.73252784  0.23252784  0.26747216  1
  O  O171  1  0.76747216  0.76747216  0.76747216  1
  O  O172  1  0.76747216  0.73252784  0.26747216  1
  O  O173  1  0.73252784  0.26747216  0.76747216  1
  O  O174  1  0.26747216  0.76747216  0.73252784  1
  O  O175  1  0.23252784  0.26747216  0.73252784  1
  Al  Al176  1  0.00000000  0.50000000  0.50000000  1
  Al  Al177  1  0.00000000  0.00000000  0.00000000  1
  Al  Al178  1  0.50000000  0.00000000  0.50000000  1
  Al  Al179  1  0.50000000  0.50000000  0.00000000  1
  Se  Se180  1  0.30927602  0.19072398  0.80927602  1
  Se  Se181  1  0.80927602  0.19072398  0.69072398  1
  Se  Se182  1  0.19072398  0.69072398  0.80927602  1
  Se  Se183  1  0.30927602  0.30927602  0.30927602  1
  Se  Se184  1  0.69072398  0.80927602  0.19072398  1
  Se  Se185  1  0.69072398  0.69072398  0.69072398  1
  Se  Se186  1  0.19072398  0.80927602  0.30927602  1
  Se  Se187  1  0.80927602  0.30927602  0.19072398  1
  Cs  Cs188  1  0.50000000  0.00000000  0.00000000  1
  Cs  Cs189  1  0.00000000  0.00000000  0.50000000  1
  Cs  Cs190  1  0.00000000  0.50000000  0.00000000  1
  Cs  Cs191  1  0.50000000  0.50000000  0.50000000  1
