# generated using pymatgen
data_Zn(H2N)2
_symmetry_space_group_name_H-M   'P 1'
_cell_length_a   10.12823819
_cell_length_b   10.12823630
_cell_length_c   12.41076674
_cell_angle_alpha   114.08010370
_cell_angle_beta   114.08192090
_cell_angle_gamma   89.99999997
_symmetry_Int_Tables_number   1
_chemical_formula_structural   Zn(H2N)2
_chemical_formula_sum   'Zn16 H64 N32'
_cell_volume   1039.77138954
_cell_formula_units_Z   16
loop_
 _symmetry_equiv_pos_site_id
 _symmetry_equiv_pos_as_xyz
  1  'x, y, z'
loop_
 _atom_site_type_symbol
 _atom_site_label
 _atom_site_symmetry_multiplicity
 _atom_site_fract_x
 _atom_site_fract_y
 _atom_site_fract_z
 _atom_site_occupancy
  H  H0  1  0.11741188  0.72919143  0.80725700  1
  H  H1  1  0.92193598  0.81014540  0.69274057  1
  H  H2  1  0.77080536  0.38258853  0.69273803  1
  H  H3  1  0.81015488  0.77080857  0.19274300  1
  H  H4  1  0.38259555  0.92193424  0.19273552  1
  H  H5  1  0.57806733  0.11741147  0.30726197  1
  H  H6  1  0.72919541  0.68985460  0.30725943  1
  H  H7  1  0.68986004  0.57806576  0.80726448  1
  H  H8  1  0.88258812  0.27080857  0.19274300  1
  H  H9  1  0.07806402  0.18985460  0.30725943  1
  H  H10  1  0.22919464  0.61741147  0.30726197  1
  H  H11  1  0.18984512  0.22919143  0.80725700  1
  H  H12  1  0.61740445  0.07806576  0.80726448  1
  H  H13  1  0.42193267  0.88258853  0.69273803  1
  H  H14  1  0.27080459  0.31014540  0.69274057  1
  H  H15  1  0.31013996  0.42193424  0.19273552  1
  H  H16  1  0.93960572  0.45044791  0.80375235  1
  H  H17  1  0.64669786  0.63584450  0.69624034  1
  H  H18  1  0.04953531  0.56039590  0.69624451  1
  H  H19  1  0.63585338  0.04955209  0.19624765  1
  H  H20  1  0.56039756  0.64671153  0.19623702  1
  H  H21  1  0.85329079  0.93960410  0.30375549  1
  H  H22  1  0.45045752  0.86415550  0.30375966  1
  H  H23  1  0.86416054  0.85328847  0.80376298  1
  H  H24  1  0.06039428  0.54955209  0.19624765  1
  H  H25  1  0.35330214  0.36415550  0.30375966  1
  H  H26  1  0.95046469  0.43960410  0.30375549  1
  H  H27  1  0.03217248  0.78878449  0.95852569  1
  H  H28  1  0.36414662  0.95044791  0.80375235  1
  H  H29  1  0.14670921  0.06039590  0.69624451  1
  H  H30  1  0.54954248  0.13584450  0.69624034  1
  H  H31  1  0.13583946  0.14671153  0.19623702  1
  H  H32  1  0.05236910  0.33582442  0.55302145  1
  H  H33  1  0.78280012  0.99934288  0.94697189  1
  H  H34  1  0.16417256  0.44764485  0.94699071  1
  H  H35  1  0.99934765  0.16417558  0.44697855  1
  H  H36  1  0.44764321  0.78281542  0.44698410  1
  H  H37  1  0.71718184  0.05235515  0.05300929  1
  H  H38  1  0.33582824  0.50065712  0.05302811  1
  H  H39  1  0.50065911  0.71718458  0.55301590  1
  H  H40  1  0.94763090  0.66417558  0.44697855  1
  H  H41  1  0.21719988  0.00065712  0.05302811  1
  H  H42  1  0.83582744  0.55235515  0.05300929  1
  H  H43  1  0.00065235  0.83582442  0.55302145  1
  H  H44  1  0.55235679  0.21718458  0.55301590  1
  H  H45  1  0.28281816  0.94764485  0.94699071  1
  H  H46  1  0.66417176  0.49934288  0.94697189  1
  H  H47  1  0.49934089  0.28281542  0.44698410  1
  H  H48  1  0.07364177  0.33023560  0.04146707  1
  H  H49  1  0.21123088  0.07364119  0.54146979  1
  H  H50  1  0.33025534  0.96782399  0.54147149  1
  H  H51  1  0.53217470  0.16976440  0.95853293  1
  H  H52  1  0.42635321  0.28878449  0.95852569  1
  H  H53  1  0.28878385  0.53217601  0.45852851  1
  H  H54  1  0.16976109  0.42635881  0.45853021  1
  H  H55  1  0.96782752  0.21121551  0.04147431  1
  H  H56  1  0.92635823  0.66976440  0.95853293  1
  H  H57  1  0.78876912  0.92635881  0.45853021  1
  H  H58  1  0.66974466  0.03217601  0.45852851  1
  H  H59  1  0.46782530  0.83023560  0.04146707  1
  H  H60  1  0.57364679  0.71121551  0.04147431  1
  H  H61  1  0.71121615  0.46782399  0.54147149  1
  H  H62  1  0.83023891  0.57364119  0.54146979  1
  H  H63  1  0.43960244  0.35328847  0.80376298  1
  N  N64  1  0.14463392  0.63904835  0.74961930  1
  N  N65  1  0.88943741  0.89500714  0.75037926  1
  N  N66  1  0.86094898  0.35535632  0.75037580  1
  N  N67  1  0.89501461  0.86095165  0.25038070  1
  N  N68  1  0.35536244  0.88943499  0.25037428  1
  N  N69  1  0.61057318  0.14464368  0.24962420  1
  N  N70  1  0.63905815  0.60499286  0.24962074  1
  N  N71  1  0.60498816  0.61056501  0.74962572  1
  N  N72  1  0.85536608  0.36095165  0.25038070  1
  N  N73  1  0.11056259  0.10499286  0.24962074  1
  N  N74  1  0.13905102  0.64464368  0.24962420  1
  N  N75  1  0.10498539  0.13904835  0.74961930  1
  N  N76  1  0.64463756  0.11056501  0.74962572  1
  N  N77  1  0.38942682  0.85535632  0.75037580  1
  N  N78  1  0.36094185  0.39500714  0.75037926  1
  N  N79  1  0.39501184  0.38943499  0.25037428  1
  N  N80  1  0.96334365  0.25000000  0.50000000  1
  N  N81  1  0.74999473  0.96333662  -0.00000366  1
  N  N82  1  0.24999839  0.53666338  1.00000366  1
  N  N83  1  0.53666694  0.75000000  0.50000000  1
  N  N84  1  0.03665635  0.75000000  0.50000000  1
  N  N85  1  0.25000527  0.03666338  1.00000366  1
  N  N86  1  0.75000161  0.46333662  -0.00000366  1
  N  N87  1  0.46333306  0.25000000  0.50000000  1
  N  N88  1  0.01035816  0.76036885  0.02072090  1
  N  N89  1  0.76035579  0.01035801  0.52072094  1
  N  N90  1  0.48963726  0.73963115  0.97927910  1
  N  N91  1  0.73963485  0.48964199  0.47927906  1
  N  N92  1  0.98964184  0.23963115  0.97927910  1
  N  N93  1  0.23964421  0.98964199  0.47927906  1
  N  N94  1  0.51036274  0.26036885  0.02072090  1
  N  N95  1  0.26036515  0.51035801  0.52072094  1
  Zn  Zn96  1  0.79667509  0.30773615  0.37057116  1
  Zn  Zn97  1  0.93716046  0.92611940  0.12943838  1
  Zn  Zn98  1  0.19227629  0.70333317  0.12943495  1
  Zn  Zn99  1  0.92610394  0.19226385  0.62942884  1
  Zn  Zn100  1  0.70332722  0.93715422  0.62944452  1
  Zn  Zn101  1  0.56284134  0.79666683  0.87056505  1
  Zn  Zn102  1  0.30772207  0.57388060  0.87056162  1
  Zn  Zn103  1  0.57388270  0.56284578  0.37055548  1
  Zn  Zn104  1  0.20332491  0.69226385  0.62942884  1
  Zn  Zn105  1  0.06283954  0.07388060  0.87056162  1
  Zn  Zn106  1  0.80772371  0.29666683  0.87056505  1
  Zn  Zn107  1  0.07389606  0.80773615  0.37057116  1
  Zn  Zn108  1  0.29667278  0.06284578  0.37055548  1
  Zn  Zn109  1  0.43715866  0.20333317  0.12943495  1
  Zn  Zn110  1  0.69227793  0.42611940  0.12943838  1
  Zn  Zn111  1  0.42611730  0.43715422  0.62944452  1
