# generated using pymatgen
data_CoP2(H4O5)2
_symmetry_space_group_name_H-M   'P 1'
_cell_length_a   5.37037289
_cell_length_b   7.25045070
_cell_length_c   9.99482386
_cell_angle_alpha   90.00000000
_cell_angle_beta   90.00000000
_cell_angle_gamma   94.17204729
_symmetry_Int_Tables_number   1
_chemical_formula_structural   CoP2(H4O5)2
_chemical_formula_sum   'Co2 P4 H16 O20'
_cell_volume   388.14341408
_cell_formula_units_Z   2
loop_
 _symmetry_equiv_pos_site_id
 _symmetry_equiv_pos_as_xyz
  1  'x, y, z'
loop_
 _atom_site_type_symbol
 _atom_site_label
 _atom_site_symmetry_multiplicity
 _atom_site_fract_x
 _atom_site_fract_y
 _atom_site_fract_z
 _atom_site_occupancy
  H  H0  1  0.61407912  0.48788434  0.22328763  1
  H  H1  1  0.88592145  0.01211540  0.72328712  1
  H  H2  1  0.38592058  0.51211607  0.77671234  1
  H  H3  1  0.11407810  0.98788363  0.27671285  1
  H  H4  1  0.15392520  0.59473178  0.10968696  1
  H  H5  1  0.34607534  0.90526790  0.60968745  1
  H  H6  1  0.31282200  0.73429711  0.95151067  1
  H  H7  1  0.18717854  0.76570257  0.45151118  1
  H  H8  1  0.68717941  0.26570190  0.04848930  1
  H  H9  1  0.81282116  0.23429784  0.54848879  1
  H  H10  1  0.42627925  0.83810140  0.07724295  1
  H  H11  1  0.07371943  0.66189829  0.57724344  1
  H  H12  1  0.57372045  0.16189901  0.92275702  1
  H  H13  1  0.92628027  0.33810212  0.42275653  1
  H  H14  1  0.84607636  0.40526862  0.89031301  1
  H  H15  1  0.65392435  0.09473251  0.39031252  1
  O  O16  1  0.41934087  0.03086309  0.63862418  1
  O  O17  1  0.91934157  0.53086260  0.86137628  1
  O  O18  1  0.03052138  0.87828883  0.33008484  1
  O  O19  1  0.46947730  0.62171087  0.83008533  1
  O  O20  1  0.96947831  0.12171158  0.66991513  1
  O  O21  1  0.58065883  0.96913732  0.36137579  1
  O  O22  1  0.76166194  0.29309956  0.46345277  1
  O  O23  1  0.73833863  0.20690018  0.96345326  1
  O  O24  1  0.23833776  0.70690085  0.53654720  1
  O  O25  1  0.26166293  0.79310022  0.03654672  1
  O  O26  1  0.23174818  0.36743720  0.36784419  1
  O  O27  1  0.26825081  0.13256370  0.86784468  1
  O  O28  1  0.76825151  0.63256321  0.63215578  1
  O  O29  1  0.73174888  0.86743671  0.13215530  1
  O  O30  1  0.16254547  0.14012442  0.17213345  1
  O  O31  1  0.33745337  0.35987510  0.67213293  1
  O  O32  1  0.83745408  0.85987460  0.82786653  1
  O  O33  1  0.66254632  0.64012531  0.32786704  1
  O  O34  1  0.08065998  0.46913780  0.13862370  1
  O  O35  1  0.53052240  0.37828954  0.16991465  1
  P  P36  1  0.24882124  0.33591324  0.21655436  1
  P  P37  1  0.25117760  0.16408627  0.71655485  1
  P  P38  1  0.75117831  0.66408578  0.78344561  1
  P  P39  1  0.74882209  0.83591414  0.28344513  1
  Co  Co40  1  0.00000000  0.00000000  0.00000000  1
  Co  Co41  1  0.50000070  0.49999951  0.50000049  1
