# generated using pymatgen
data_MnSeO4
_symmetry_space_group_name_H-M   'P 1'
_cell_length_a   5.10183634
_cell_length_b   7.14750471
_cell_length_c   9.38747116
_cell_angle_alpha   90.00000000
_cell_angle_beta   90.00000000
_cell_angle_gamma   90.00000000
_symmetry_Int_Tables_number   1
_chemical_formula_structural   MnSeO4
_chemical_formula_sum   'Mn4 Se4 O16'
_cell_volume   342.31788398
_cell_formula_units_Z   4
loop_
 _symmetry_equiv_pos_site_id
 _symmetry_equiv_pos_as_xyz
  1  'x, y, z'
loop_
 _atom_site_type_symbol
 _atom_site_label
 _atom_site_symmetry_multiplicity
 _atom_site_fract_x
 _atom_site_fract_y
 _atom_site_fract_z
 _atom_site_occupancy
  O  O0  1  0.16891156  0.44568185  0.62704704  1
  O  O1  1  0.66891022  0.55431907  0.87295262  1
  O  O2  1  0.83108971  0.94568089  0.37295237  1
  O  O3  1  0.33108908  0.05431861  0.12704680  1
  O  O4  1  0.83108971  0.55431907  0.37295237  1
  O  O5  1  0.33108908  0.44568185  0.12704680  1
  O  O6  1  0.16891156  0.05431861  0.62704704  1
  O  O7  1  0.66891022  0.94568089  0.87295262  1
  O  O8  1  0.21113152  0.75000068  0.87793527  1
  O  O9  1  0.71113215  0.25000023  0.62206439  1
  O  O10  1  0.78886778  0.25000023  0.12206415  1
  O  O11  1  0.28886912  0.75000068  0.37793610  1
  O  O12  1  0.95404755  0.75000068  0.13812802  1
  O  O13  1  0.04595175  0.25000023  0.86187139  1
  O  O14  1  0.45404692  0.25000023  0.36187115  1
  O  O15  1  0.54595238  0.75000068  0.63812827  1
  Mn  Mn16  1  0.00000000  0.00000000  0.00000000  1
  Mn  Mn17  1  0.50000063  0.00000000  0.50000024  1
  Mn  Mn18  1  0.00000000  0.50000046  0.00000000  1
  Mn  Mn19  1  0.50000063  0.50000046  0.50000024  1
  Se  Se20  1  0.52339867  0.75000068  0.81915260  1
  Se  Se21  1  0.02340001  0.25000023  0.68084706  1
  Se  Se22  1  0.47660062  0.25000023  0.18084682  1
  Se  Se23  1  0.97660126  0.75000068  0.31915236  1
