# generated using pymatgen
data_Sr3V2O7
_symmetry_space_group_name_H-M   'P 1'
_cell_length_a   3.97736654
_cell_length_b   3.97736654
_cell_length_c   10.35345737
_cell_angle_alpha   101.07414580
_cell_angle_beta   101.07414579
_cell_angle_gamma   90.00000005
_symmetry_Int_Tables_number   1
_chemical_formula_structural   Sr3V2O7
_chemical_formula_sum   'Sr3 V2 O7'
_cell_volume   157.62737591
_cell_formula_units_Z   1
loop_
 _symmetry_equiv_pos_site_id
 _symmetry_equiv_pos_as_xyz
  1  'x, y, z'
loop_
 _atom_site_type_symbol
 _atom_site_label
 _atom_site_symmetry_multiplicity
 _atom_site_fract_x
 _atom_site_fract_y
 _atom_site_fract_z
 _atom_site_occupancy
  O  O0  1  0.90437405  0.40437547  0.80874852  1
  O  O1  1  0.40437511  0.90437343  0.80874845  1
  O  O2  1  0.09562487  0.59562485  0.19125126  1
  O  O3  1  0.59562644  0.09562689  0.19125150  1
  O  O4  1  0.80747218  0.80747215  0.61494539  1
  O  O5  1  0.00000000  0.00000000  0.00000000  1
  O  O6  1  0.19252674  0.19252818  0.38505439  1
  V  V7  1  0.90226604  0.90226852  0.80453424  1
  V  V8  1  0.09773288  0.09773181  0.19546554  1
  Sr  Sr9  1  0.68042954  0.68043134  0.36086044  1
  Sr  Sr10  1  0.31956938  0.31956899  0.63914028  1
  Sr  Sr11  1  0.49999941  0.50000059  0.99999980  1
