# generated using pymatgen
data_CsV3(SeO6)2
_symmetry_space_group_name_H-M   'P 1'
_cell_length_a   7.19180411
_cell_length_b   7.19180410
_cell_length_c   12.29113497
_cell_angle_alpha   90.00000000
_cell_angle_beta   90.00000000
_cell_angle_gamma   119.99999997
_symmetry_Int_Tables_number   1
_chemical_formula_structural   CsV3(SeO6)2
_chemical_formula_sum   'Cs2 V6 Se4 O24'
_cell_volume   550.55196670
_cell_formula_units_Z   2
loop_
 _symmetry_equiv_pos_site_id
 _symmetry_equiv_pos_as_xyz
  1  'x, y, z'
loop_
 _atom_site_type_symbol
 _atom_site_label
 _atom_site_symmetry_multiplicity
 _atom_site_fract_x
 _atom_site_fract_y
 _atom_site_fract_z
 _atom_site_occupancy
  O  O0  1  0.24943079  0.12340385  0.32336564  1
  O  O1  1  0.12602695  0.24943079  0.82336564  1
  O  O2  1  0.12340385  0.87397305  0.82336564  1
  O  O3  1  0.87659615  0.12602695  0.32336564  1
  O  O4  1  0.87397305  0.75056921  0.32336564  1
  O  O5  1  0.75056921  0.87659615  0.82336564  1
  O  O6  1  0.45735035  0.91640716  0.27043488  1
  O  O7  1  0.54094319  0.45735035  0.77043488  1
  O  O8  1  0.91640716  0.45905681  0.77043488  1
  O  O9  1  0.08359284  0.54094319  0.27043488  1
  O  O10  1  0.45905681  0.54264965  0.27043488  1
  O  O11  1  0.54264965  0.08359284  0.77043488  1
  O  O12  1  0.79886425  0.21173297  0.95063459  1
  O  O13  1  0.58713128  0.79886425  0.45063459  1
  O  O14  1  0.21173297  0.41286872  0.45063459  1
  O  O15  1  0.78826703  0.58713128  0.95063459  1
  O  O16  1  0.41286872  0.20113575  0.95063459  1
  O  O17  1  0.20113575  0.78826703  0.45063459  1
  O  O18  1  0.87835139  0.13164804  0.64259465  1
  O  O19  1  0.74670335  0.87835139  0.14259465  1
  O  O20  1  0.13164804  0.25329665  0.14259465  1
  O  O21  1  0.86835196  0.74670335  0.64259465  1
  O  O22  1  0.25329665  0.12164861  0.64259465  1
  O  O23  1  0.12164861  0.86835196  0.14259465  1
  V  V24  1  0.87323859  0.66716140  0.79428010  1
  V  V25  1  0.79392281  0.12676141  0.79428010  1
  V  V26  1  0.66716140  0.79392281  0.29428010  1
  V  V27  1  0.12676141  0.33283860  0.29428010  1
  V  V28  1  0.33283860  0.20607719  0.79428010  1
  V  V29  1  0.20607719  0.87323859  0.29428010  1
  Se  Se30  1  0.00000000  0.00000000  0.58277005  1
  Se  Se31  1  0.66666667  0.33333333  0.00880753  1
  Se  Se32  1  0.33333333  0.66666667  0.50880753  1
  Se  Se33  1  0.00000000  0.00000000  0.08277005  1
  Cs  Cs34  1  0.66666667  0.33333333  0.47207283  1
  Cs  Cs35  1  0.33333333  0.66666667  0.97207283  1
