# generated using pymatgen
data_V2O3
_symmetry_space_group_name_H-M   'P 1'
_cell_length_a   8.27348783
_cell_length_b   8.28795333
_cell_length_c   8.29252928
_cell_angle_alpha   70.42847652
_cell_angle_beta   109.19302780
_cell_angle_gamma   70.54963525
_symmetry_Int_Tables_number   1
_chemical_formula_structural   V2O3
_chemical_formula_sum   'V16 O24'
_cell_volume   438.79131546
_cell_formula_units_Z   8
loop_
 _symmetry_equiv_pos_site_id
 _symmetry_equiv_pos_as_xyz
  1  'x, y, z'
loop_
 _atom_site_type_symbol
 _atom_site_label
 _atom_site_symmetry_multiplicity
 _atom_site_fract_x
 _atom_site_fract_y
 _atom_site_fract_z
 _atom_site_occupancy
  V  V0  1  0.24991585  0.78279809  0.46762529  1
  V  V1  1  0.21659003  0.03534970  0.75026660  1
  V  V2  1  0.46690492  0.74752889  0.21836964  1
  V  V3  1  0.96797442  0.74885454  0.71890739  1
  V  V4  1  0.28362010  0.46569317  0.25153164  1
  V  V5  1  0.75070410  0.71678931  0.03238565  1
  V  V6  1  0.71643832  0.53284945  0.74821096  1
  V  V7  1  0.53448366  0.24884836  0.78244108  1
  V  V8  1  0.74939968  0.21685296  0.53165145  1
  V  V9  1  0.78368172  0.96567574  0.24990285  1
  V  V10  1  0.03257476  0.25139251  0.28126296  1
  V  V11  1  0.25228543  0.28259020  0.96862839  1
  V  V12  1  0.50052983  0.50014581  0.99911982  1
  V  V13  1  0.00125559  0.00087509  0.00052518  1
  V  V14  1  0.49940512  0.99955647  0.49972802  1
  V  V15  1  0.99789776  0.50109610  0.49997167  1
  O  O16  1  0.72711371  0.00913398  0.45558760  1
  O  O17  1  0.99016207  0.04336862  0.22830585  1
  O  O18  1  0.76537616  0.96541436  0.98712571  1
  O  O19  1  0.73782391  0.77145965  0.77227170  1
  O  O20  1  0.26058094  0.22817466  0.22784491  1
  O  O21  1  0.27220420  0.99051036  0.54543057  1
  O  O22  1  0.46398118  0.77379048  0.95530073  1
  O  O23  1  0.54587724  0.46556545  0.27297500  1
  O  O24  1  0.77036331  0.45345019  0.03369669  1
  O  O25  1  0.72696169  0.73896513  0.27168931  1
  O  O26  1  0.95370240  0.27708465  0.48790693  1
  O  O27  1  0.77135050  0.27373524  0.75741273  1
  O  O28  1  0.96872767  0.48633405  0.74287946  1
  O  O29  1  0.03120602  0.51362553  0.25877089  1
  O  O30  1  0.00983227  0.95636955  0.77306708  1
  O  O31  1  0.23042719  0.54689746  0.96549513  1
  O  O32  1  0.45360373  0.53428811  0.72540904  1
  O  O33  1  0.23670424  0.03482431  0.01396733  1
  O  O34  1  0.48694613  0.23640153  0.53348340  1
  O  O35  1  0.51144218  0.76338884  0.46534614  1
  O  O36  1  0.04532294  0.72402696  0.51242863  1
  O  O37  1  0.27110833  0.26380607  0.72737391  1
  O  O38  1  0.22900180  0.72554740  0.24141403  1
  O  O39  1  0.53651889  0.22694103  0.04428863  1
