# generated using pymatgen
data_Na3(CuS)4
_symmetry_space_group_name_H-M   'P 1'
_cell_length_a   3.75576610
_cell_length_b   7.17788308
_cell_length_c   14.58476420
_cell_angle_alpha   90.00000000
_cell_angle_beta   90.00000000
_cell_angle_gamma   90.00000000
_symmetry_Int_Tables_number   1
_chemical_formula_structural   Na3(CuS)4
_chemical_formula_sum   'Na6 Cu8 S8'
_cell_volume   393.18263560
_cell_formula_units_Z   2
loop_
 _symmetry_equiv_pos_site_id
 _symmetry_equiv_pos_as_xyz
  1  'x, y, z'
loop_
 _atom_site_type_symbol
 _atom_site_label
 _atom_site_symmetry_multiplicity
 _atom_site_fract_x
 _atom_site_fract_y
 _atom_site_fract_z
 _atom_site_occupancy
  Na  Na0  1  0.00000000  0.48438012  0.73352886  1
  Na  Na1  1  0.00000000  0.51561988  0.26647114  1
  Na  Na2  1  0.00000000  0.01561988  0.23352886  1
  Na  Na3  1  0.50000000  0.50000000  0.50000000  1
  Na  Na4  1  0.50000000  0.00000000  0.00000000  1
  Na  Na5  1  0.00000000  0.98438012  0.76647114  1
  Cu  Cu6  1  0.50000000  0.92114687  0.59287572  1
  Cu  Cu7  1  0.00000000  0.33209332  0.06450199  1
  Cu  Cu8  1  0.50000000  0.42114687  0.90712428  1
  Cu  Cu9  1  0.00000000  0.83209332  0.43549801  1
  Cu  Cu10  1  0.50000000  0.07885313  0.40712428  1
  Cu  Cu11  1  0.00000000  0.16790668  0.56450199  1
  Cu  Cu12  1  0.00000000  0.66790668  0.93549801  1
  Cu  Cu13  1  0.50000000  0.57885313  0.09287572  1
  S  S14  1  0.50000000  0.78334812  0.34689735  1
  S  S15  1  0.50000000  0.71665188  0.84689735  1
  S  S16  1  0.50000000  0.28334812  0.15310265  1
  S  S17  1  0.00000000  0.74818037  0.58811845  1
  S  S18  1  0.00000000  0.24818037  0.91188155  1
  S  S19  1  0.00000000  0.25181963  0.41188155  1
  S  S20  1  0.00000000  0.75181963  0.08811845  1
  S  S21  1  0.50000000  0.21665188  0.65310265  1
