# generated using pymatgen
data_V2CdP2O9
_symmetry_space_group_name_H-M   'P 1'
_cell_length_a   6.40291412
_cell_length_b   7.45259723
_cell_length_c   14.56048323
_cell_angle_alpha   90.00000000
_cell_angle_beta   90.00000000
_cell_angle_gamma   90.00000000
_symmetry_Int_Tables_number   1
_chemical_formula_structural   V2CdP2O9
_chemical_formula_sum   'V8 Cd4 P8 O36'
_cell_volume   694.80208984
_cell_formula_units_Z   4
loop_
 _symmetry_equiv_pos_site_id
 _symmetry_equiv_pos_as_xyz
  1  'x, y, z'
loop_
 _atom_site_type_symbol
 _atom_site_label
 _atom_site_symmetry_multiplicity
 _atom_site_fract_x
 _atom_site_fract_y
 _atom_site_fract_z
 _atom_site_occupancy
  O  O0  1  0.04900420  0.59947307  0.36700419  1
  O  O1  1  0.54900325  0.40052577  0.63299582  1
  O  O2  1  0.95099546  0.09947432  0.13299582  1
  O  O3  1  0.45099641  0.90052586  0.86700420  1
  O  O4  1  0.95099546  0.40052577  0.63299582  1
  O  O5  1  0.45099641  0.59947307  0.36700419  1
  O  O6  1  0.04900420  0.90052586  0.86700420  1
  O  O7  1  0.54900325  0.09947432  0.13299582  1
  O  O8  1  0.25000031  0.32008639  0.48114025  1
  O  O9  1  0.74999936  0.67991380  0.51885977  1
  O  O10  1  0.74999936  0.82008514  0.01885976  1
  O  O11  1  0.25000031  0.17991370  0.98114025  1
  O  O12  1  0.74999936  0.12841003  0.95200833  1
  O  O13  1  0.25000031  0.87159015  0.04799168  1
  O  O14  1  0.25000031  0.62841013  0.54799169  1
  O  O15  1  0.74999936  0.37159006  0.45200832  1
  O  O16  1  0.74999936  0.21967971  0.75304505  1
  O  O17  1  0.25000031  0.78032048  0.24695496  1
  O  O18  1  0.25000031  0.71967980  0.74695497  1
  O  O19  1  0.74999936  0.28032038  0.25304504  1
  O  O20  1  0.43926580  0.12577577  0.36577913  1
  O  O21  1  0.93926485  0.87422441  0.63422088  1
  O  O22  1  0.56073543  0.62577586  0.13422088  1
  O  O23  1  0.06073481  0.37422432  0.86577914  1
  O  O24  1  0.56073543  0.87422441  0.63422088  1
  O  O25  1  0.06073481  0.12577577  0.36577913  1
  O  O26  1  0.43926580  0.37422432  0.86577914  1
  O  O27  1  0.93926485  0.62577586  0.13422088  1
  O  O28  1  0.74999936  0.48409269  0.99756297  1
  O  O29  1  0.25000031  0.04714447  0.73313604  1
  O  O30  1  0.25000031  0.45285562  0.23313603  1
  O  O31  1  0.74999936  0.54714456  0.76686398  1
  O  O32  1  0.74999936  0.01590624  0.49756296  1
  O  O33  1  0.25000031  0.98409394  0.50243706  1
  O  O34  1  0.25000031  0.51590615  0.00243705  1
  O  O35  1  0.74999936  0.95285437  0.26686397  1
  P  P36  1  0.25000031  0.36717175  0.93312684  1
  P  P37  1  0.74999936  0.63282709  0.06687317  1
  P  P38  1  0.74999936  0.86717184  0.56687318  1
  P  P39  1  0.25000031  0.13282700  0.43312683  1
  P  P40  1  0.74999936  0.39357993  0.69385222  1
  P  P41  1  0.25000031  0.60642026  0.30614779  1
  P  P42  1  0.25000031  0.89357868  0.80614780  1
  P  P43  1  0.74999936  0.10642016  0.19385222  1
  V  V44  1  0.00000000  0.50000009  0.50000001  1
  V  V45  1  0.50000061  0.50000009  0.50000001  1
  V  V46  1  0.74999936  0.14970438  0.37849707  1
  V  V47  1  0.50000061  0.00000000  0.00000000  1
  V  V48  1  0.74999936  0.35029571  0.87849708  1
  V  V49  1  0.25000031  0.64970448  0.12150294  1
  V  V50  1  0.25000031  0.85029580  0.62150294  1
  V  V51  1  0.00000000  0.00000000  0.00000000  1
  Cd  Cd52  1  0.25000031  0.36724034  0.72285223  1
  Cd  Cd53  1  0.74999936  0.63275850  0.27714779  1
  Cd  Cd54  1  0.74999936  0.86724043  0.77714780  1
  Cd  Cd55  1  0.25000031  0.13275975  0.22285222  1
