# generated using pymatgen
data_BaVP2(H2O5)2
_symmetry_space_group_name_H-M   'P 1'
_cell_length_a   6.52405158
_cell_length_b   11.03701434
_cell_length_c   11.54522489
_cell_angle_alpha   102.24475669
_cell_angle_beta   90.00000000
_cell_angle_gamma   90.00000000
_symmetry_Int_Tables_number   1
_chemical_formula_structural   BaVP2(H2O5)2
_chemical_formula_sum   'Ba4 V4 P8 H16 O40'
_cell_volume   812.41381428
_cell_formula_units_Z   4
loop_
 _symmetry_equiv_pos_site_id
 _symmetry_equiv_pos_as_xyz
  1  'x, y, z'
loop_
 _atom_site_type_symbol
 _atom_site_label
 _atom_site_symmetry_multiplicity
 _atom_site_fract_x
 _atom_site_fract_y
 _atom_site_fract_z
 _atom_site_occupancy
  H  H0  1  0.66219448  0.61753800  0.05079487  1
  H  H1  1  0.16219466  0.88246206  0.44920514  1
  H  H2  1  0.33780517  0.38246221  0.94920572  1
  H  H3  1  0.83780653  0.11753722  0.55079440  1
  H  H4  1  0.64361339  0.55327731  0.91496913  1
  H  H5  1  0.14361357  0.94672254  0.58503165  1
  H  H6  1  0.35638626  0.44672197  0.08503127  1
  H  H7  1  0.85638608  0.05327767  0.41496893  1
  H  H8  1  0.83471676  0.88328609  0.02926397  1
  H  H9  1  0.33471694  0.61671397  0.47073604  1
  H  H10  1  0.16528442  0.11671319  0.97073557  1
  H  H11  1  0.66528425  0.38328624  0.52926455  1
  H  H12  1  0.42276474  0.34800191  0.22328856  1
  H  H13  1  0.92276457  0.15199773  0.27671164  1
  H  H14  1  0.57723490  0.65199737  0.77671098  1
  H  H15  1  0.07723508  0.84800248  0.72328895  1
  O  O16  1  0.74147890  0.56895483  0.98313526  1
  O  O17  1  0.24147908  0.93104502  0.51686466  1
  O  O18  1  0.25852075  0.43104445  0.01686427  1
  O  O19  1  0.75852057  0.06895519  0.48313506  1
  O  O20  1  0.02015124  0.03317352  0.30137508  1
  O  O21  1  0.52015106  0.46682612  0.19862426  1
  O  O22  1  0.97984841  0.96682576  0.69862446  1
  O  O23  1  0.47984859  0.53317409  0.80137546  1
  O  O24  1  0.84029736  0.86798697  0.93791809  1
  O  O25  1  0.34029753  0.63201288  0.56208183  1
  O  O26  1  0.15970383  0.13201324  0.06208249  1
  O  O27  1  0.65970365  0.36798640  0.43791771  1
  O  O28  1  0.36580961  0.26170853  0.22756726  1
  O  O29  1  0.86580943  0.23829204  0.27243313  1
  O  O30  1  0.63419004  0.73829168  0.77243333  1
  O  O31  1  0.13419022  0.76170818  0.72756659  1
  O  O32  1  0.47914606  0.80818296  0.98204921  1
  O  O33  1  0.97914588  0.69181689  0.51795072  1
  O  O34  1  0.52085359  0.19181725  0.01795052  1
  O  O35  1  0.02085376  0.30818239  0.48204968  1
  O  O36  1  0.17470518  0.85129965  0.15023331  1
  O  O37  1  0.67470500  0.64870041  0.34976670  1
  O  O38  1  0.82529447  0.14869963  0.84976709  1
  O  O39  1  0.32529464  0.35129980  0.65023302  1
  O  O40  1  0.48571057  0.68088552  0.16392359  1
  O  O41  1  0.98571039  0.81911454  0.33607642  1
  O  O42  1  0.51429062  0.31911469  0.83607613  1
  O  O43  1  0.01428925  0.18088567  0.66392417  1
  O  O44  1  0.46574741  0.04400628  0.15895824  1
  O  O45  1  0.96574877  0.45599336  0.34104196  1
  O  O46  1  0.53425224  0.95599300  0.84104129  1
  O  O47  1  0.03425242  0.54400685  0.65895863  1
  O  O48  1  0.79792551  0.87522899  0.15807101  1
  O  O49  1  0.29792569  0.62477107  0.34192900  1
  O  O50  1  0.20207413  0.12477029  0.84192853  1
  O  O51  1  0.70207396  0.37522914  0.65807159  1
  O  O52  1  0.48821160  0.90420246  0.32702088  1
  O  O53  1  0.98821143  0.59579761  0.17297913  1
  O  O54  1  0.51178804  0.09579776  0.67297885  1
  O  O55  1  0.01178822  0.40420260  0.82702146  1
  P  P56  1  0.99468160  0.89591529  0.23683548  1
  P  P57  1  0.49468024  0.60408478  0.26316452  1
  P  P58  1  0.00531958  0.10408492  0.76316510  1
  P  P59  1  0.50531941  0.39591451  0.73683501  1
  P  P60  1  0.38631049  0.15400669  0.11281726  1
  P  P61  1  0.88631031  0.34599296  0.38718208  1
  P  P62  1  0.61369070  0.84599259  0.88718228  1
  P  P63  1  0.11369088  0.65400726  0.61281765  1
  V  V64  1  0.48062624  0.86863550  0.18026668  1
  V  V65  1  0.98062606  0.63136456  0.31973333  1
  V  V66  1  0.51937341  0.13136471  0.81973391  1
  V  V67  1  0.01937358  0.36863565  0.68026640  1
  Ba  Ba68  1  0.63629434  0.84762262  0.55212514  1
  Ba  Ba69  1  0.13629452  0.65237816  0.94787497  1
  Ba  Ba70  1  0.36370531  0.15237759  0.44787545  1
  Ba  Ba71  1  0.86370513  0.34762205  0.05212475  1
