# generated using pymatgen
data_U(BH4)4
_symmetry_space_group_name_H-M   'P 1'
_cell_length_a   7.45022926
_cell_length_b   7.45022926
_cell_length_c   13.16872749
_cell_angle_alpha   90.00000000
_cell_angle_beta   90.00000000
_cell_angle_gamma   90.00000000
_symmetry_Int_Tables_number   1
_chemical_formula_structural   U(BH4)4
_chemical_formula_sum   'U4 B16 H64'
_cell_volume   730.94228224
_cell_formula_units_Z   4
loop_
 _symmetry_equiv_pos_site_id
 _symmetry_equiv_pos_as_xyz
  1  'x, y, z'
loop_
 _atom_site_type_symbol
 _atom_site_label
 _atom_site_symmetry_multiplicity
 _atom_site_fract_x
 _atom_site_fract_y
 _atom_site_fract_z
 _atom_site_occupancy
  H  H0  1  0.84534985  0.57580846  0.39928417  1
  H  H1  1  0.15465015  0.42419154  0.89928417  1
  H  H2  1  0.57580846  0.84534985  0.60071583  1
  H  H3  1  0.07580846  0.65465015  0.64928417  1
  H  H4  1  0.92419154  0.34534985  0.14928417  1
  H  H5  1  0.65465015  0.07580846  0.35071583  1
  H  H6  1  0.34534985  0.92419154  0.85071583  1
  H  H7  1  0.42419154  0.15465015  0.10071583  1
  H  H8  1  0.72282924  0.50033819  0.26636560  1
  H  H9  1  0.27717076  0.49966181  0.76636560  1
  H  H10  1  0.50033819  0.72282924  0.73363440  1
  H  H11  1  0.00033819  0.77717076  0.51636560  1
  H  H12  1  0.99966181  0.22282924  0.01636560  1
  H  H13  1  0.77717076  0.00033819  0.48363440  1
  H  H14  1  0.22282924  0.99966181  0.98363440  1
  H  H15  1  0.49966181  0.27717076  0.23363440  1
  H  H16  1  0.64275607  0.72552676  0.33581986  1
  H  H17  1  0.35724393  0.27447324  0.83581986  1
  H  H18  1  0.72552676  0.64275607  0.66418014  1
  H  H19  1  0.22552676  0.85724393  0.58581986  1
  H  H20  1  0.37610649  0.35402428  0.37869046  1
  H  H21  1  0.14597572  0.87610649  0.12869046  1
  H  H22  1  0.85402428  0.12389351  0.62869046  1
  H  H23  1  0.87610649  0.14597572  0.87130954  1
  H  H24  1  0.12389351  0.85402428  0.37130954  1
  H  H25  1  0.62389351  0.64597572  0.87869046  1
  H  H26  1  0.35402428  0.37610649  0.62130954  1
  H  H27  1  0.64597572  0.62389351  0.12130954  1
  H  H28  1  0.14597114  0.44535300  0.31172467  1
  H  H29  1  0.05464700  0.64597114  0.06172467  1
  H  H30  1  0.94535300  0.35402886  0.56172467  1
  H  H31  1  0.64597114  0.05464700  0.93827533  1
  H  H32  1  0.35402886  0.94535300  0.43827533  1
  H  H33  1  0.85402886  0.55464700  0.81172467  1
  H  H34  1  0.44535300  0.14597114  0.68827533  1
  H  H35  1  0.55464700  0.85402886  0.18827533  1
  H  H36  1  0.14842430  0.37112878  0.45816513  1
  H  H37  1  0.12887122  0.64842430  0.20816513  1
  H  H38  1  0.87112878  0.35157570  0.70816513  1
  H  H39  1  0.64842430  0.12887122  0.79183487  1
  H  H40  1  0.35157570  0.87112878  0.29183487  1
  H  H41  1  0.85157570  0.62887122  0.95816513  1
  H  H42  1  0.37112878  0.14842430  0.54183487  1
  H  H43  1  0.62887122  0.85157570  0.04183487  1
  H  H44  1  0.17449069  0.18455976  0.34501917  1
  H  H45  1  0.31544024  0.67449069  0.09501917  1
  H  H46  1  0.68455976  0.32550931  0.59501917  1
  H  H47  1  0.67449069  0.31544024  0.90498083  1
  H  H48  1  0.32550931  0.68455976  0.40498083  1
  H  H49  1  0.82550931  0.81544024  0.84501917  1
  H  H50  1  0.18455976  0.17449069  0.65498083  1
  H  H51  1  0.81544024  0.82550931  0.15498083  1
  H  H52  1  0.00960715  0.08319638  0.14281557  1
  H  H53  1  0.41680362  0.50960715  0.89281557  1
  H  H54  1  0.58319638  0.49039285  0.39281557  1
  H  H55  1  0.50960715  0.41680362  0.10718443  1
  H  H56  1  0.49039285  0.58319638  0.60718443  1
  H  H57  1  0.99039285  0.91680362  0.64281557  1
  H  H58  1  0.08319638  0.00960715  0.85718443  1
  H  H59  1  0.91680362  0.99039285  0.35718443  1
  H  H60  1  0.27447324  0.35724393  0.16418014  1
  H  H61  1  0.14275607  0.77447324  0.91418014  1
  H  H62  1  0.85724393  0.22552676  0.41418014  1
  H  H63  1  0.77447324  0.14275607  0.08581986  1
  B  B64  1  0.33900391  0.21106590  0.62683517  1
  B  B65  1  0.66099609  0.78893410  0.12683517  1
  B  B66  1  0.21106590  0.33900391  0.37316483  1
  B  B67  1  0.71106590  0.16099609  0.87683517  1
  B  B68  1  0.28893410  0.83900391  0.37683517  1
  B  B69  1  0.16099609  0.71106590  0.12316483  1
  B  B70  1  0.83900391  0.28893410  0.62316483  1
  B  B71  1  0.78893410  0.66099609  0.87316483  1
  B  B72  1  0.07380340  0.79110071  0.60148924  1
  B  B73  1  0.92619660  0.20889929  0.10148924  1
  B  B74  1  0.79110071  0.07380340  0.39851076  1
  B  B75  1  0.29110071  0.42619660  0.85148924  1
  B  B76  1  0.70889929  0.57380340  0.35148924  1
  B  B77  1  0.42619660  0.29110071  0.14851076  1
  B  B78  1  0.57380340  0.70889929  0.64851076  1
  B  B79  1  0.20889929  0.92619660  0.89851076  1
  U  U80  1  0.07076298  0.07076298  0.50000000  1
  U  U81  1  0.42923702  0.57076298  0.25000000  1
  U  U82  1  0.57076298  0.42923702  0.75000000  1
  U  U83  1  0.92923702  0.92923702  0.00000000  1
