# generated using pymatgen
data_Si12Ni31
_symmetry_space_group_name_H-M   'P 1'
_cell_length_a   6.64891396
_cell_length_b   6.64973219
_cell_length_c   12.27913627
_cell_angle_alpha   90.00000000
_cell_angle_beta   90.03945762
_cell_angle_gamma   120.00406697
_symmetry_Int_Tables_number   1
_chemical_formula_structural   Si12Ni31
_chemical_formula_sum   'Si12 Ni31'
_cell_volume   470.14885433
_cell_formula_units_Z   1
loop_
 _symmetry_equiv_pos_site_id
 _symmetry_equiv_pos_as_xyz
  1  'x, y, z'
loop_
 _atom_site_type_symbol
 _atom_site_label
 _atom_site_symmetry_multiplicity
 _atom_site_fract_x
 _atom_site_fract_y
 _atom_site_fract_z
 _atom_site_occupancy
  Si  Si0  1  0.00000997  0.00002004  0.29040595  1
  Si  Si1  1  0.99999003  0.00001007  0.70959405  1
  Si  Si2  1  0.33333646  0.66671514  0.27539710  1
  Si  Si3  1  0.66666354  0.33337868  0.72460290  1
  Si  Si4  1  0.33333719  0.66655586  0.77327911  1
  Si  Si5  1  0.66666281  0.33321868  0.22672089  1
  Si  Si6  1  0.31924687  0.31934452  0.99996858  1
  Si  Si7  1  0.68075313  0.00009765  0.00003142  1
  Si  Si8  1  0.00000000  0.68060292  0.00000000  1
  Si  Si9  1  0.64946201  0.64951979  0.50002783  1
  Si  Si10  1  0.35053799  0.00005779  0.49997217  1
  Si  Si11  1  1.00000000  0.35053796  0.50000000  1
  Ni  Ni12  1  1.00000000  0.00016315  0.50000000  1
  Ni  Ni13  1  0.99992741  0.99992888  0.09654073  1
  Ni  Ni14  1  0.00007259  0.00000147  0.90345927  1
  Ni  Ni15  1  0.33331388  0.66670494  0.07285073  1
  Ni  Ni16  1  0.66668612  0.33339106  0.92714927  1
  Ni  Ni17  1  0.33323874  0.66653692  0.56684635  1
  Ni  Ni18  1  0.66676126  0.33329818  0.43315365  1
  Ni  Ni19  1  0.66705065  0.58734438  0.09538455  1
  Ni  Ni20  1  0.41248112  0.07966074  0.09537197  1
  Ni  Ni21  1  0.92026815  0.33297787  0.09536956  1
  Ni  Ni22  1  0.33294935  0.92029373  0.90461545  1
  Ni  Ni23  1  0.07973185  0.41270971  0.90463044  1
  Ni  Ni24  1  0.58751888  0.66717962  0.90462803  1
  Ni  Ni25  1  0.29805492  0.33544962  0.19785625  1
  Ni  Ni26  1  0.66457925  0.96249961  0.19781118  1
  Ni  Ni27  1  0.03741597  0.70188910  0.19779105  1
  Ni  Ni28  1  0.70194508  0.03739469  0.80214375  1
  Ni  Ni29  1  0.96258403  0.66447313  0.80220895  1
  Ni  Ni30  1  0.33542075  0.29792036  0.80218882  1
  Ni  Ni31  1  0.67800722  0.64299632  0.30546920  1
  Ni  Ni32  1  0.35689756  0.03488645  0.30543091  1
  Ni  Ni33  1  0.96513603  0.32207155  0.30543648  1
  Ni  Ni34  1  0.32199278  0.96498911  0.69453080  1
  Ni  Ni35  1  0.03486397  0.35693552  0.69456352  1
  Ni  Ni36  1  0.64310244  0.67798889  0.69456909  1
  Ni  Ni37  1  0.30871957  0.37180626  0.40395125  1
  Ni  Ni38  1  0.62827984  0.93698461  0.40386905  1
  Ni  Ni39  1  0.06301803  0.69134580  0.40384721  1
  Ni  Ni40  1  0.69128043  0.06308669  0.59604875  1
  Ni  Ni41  1  0.93698197  0.62832776  0.59615279  1
  Ni  Ni42  1  0.37172016  0.30870477  0.59613095  1
