# generated using pymatgen
data_Rb6Si10O23
_symmetry_space_group_name_H-M   'P 1'
_cell_length_a   8.19073732
_cell_length_b   9.47486648
_cell_length_c   9.54380425
_cell_angle_alpha   119.76134139
_cell_angle_beta   90.00000000
_cell_angle_gamma   90.00000000
_symmetry_Int_Tables_number   1
_chemical_formula_structural   Rb6Si10O23
_chemical_formula_sum   'Rb6 Si10 O23'
_cell_volume   642.96548975
_cell_formula_units_Z   1
loop_
 _symmetry_equiv_pos_site_id
 _symmetry_equiv_pos_as_xyz
  1  'x, y, z'
loop_
 _atom_site_type_symbol
 _atom_site_label
 _atom_site_symmetry_multiplicity
 _atom_site_fract_x
 _atom_site_fract_y
 _atom_site_fract_z
 _atom_site_occupancy
  O  O0  1  0.19517287  0.15062774  0.57081781  1
  O  O1  1  0.80482713  0.57980993  0.42918219  1
  O  O2  1  0.80482713  0.15062774  0.57081781  1
  O  O3  1  0.19517287  0.57980993  0.42918219  1
  O  O4  1  0.29634473  0.85170959  0.42830196  1
  O  O5  1  0.70365527  0.42340763  0.57169804  1
  O  O6  1  0.70365527  0.85170959  0.42830196  1
  O  O7  1  0.29634473  0.42340763  0.57169804  1
  O  O8  1  0.24991843  0.99833929  0.24249937  1
  O  O9  1  0.75008157  0.75583991  0.75750063  1
  O  O10  1  0.75008157  0.99833929  0.24249937  1
  O  O11  1  0.24991843  0.75583991  0.75750063  1
  O  O12  1  0.26741861  0.57311774  0.15312728  1
  O  O13  1  0.73258139  0.41999045  0.84687272  1
  O  O14  1  0.73258139  0.57311774  0.15312728  1
  O  O15  1  0.26741861  0.41999045  0.84687272  1
  O  O16  1  0.00000000  0.42762054  0.00000000  1
  O  O17  1  0.00000000  0.53963545  0.62390531  1
  O  O18  1  0.00000000  0.91573013  0.37609469  1
  O  O19  1  0.50000000  0.24480822  0.63437671  1
  O  O20  1  0.50000000  0.61043151  0.36562329  1
  O  O21  1  0.24826353  0.23695571  0.00000000  1
  O  O22  1  0.75173647  0.23695571  0.00000000  1
  Si  Si23  1  0.31140038  0.65476013  0.34386697  1
  Si  Si24  1  0.68859962  0.31089317  0.65613303  1
  Si  Si25  1  0.68859962  0.65476013  0.34386697  1
  Si  Si26  1  0.31140038  0.31089317  0.65613303  1
  Si  Si27  1  0.19080791  0.98059401  0.39096254  1
  Si  Si28  1  0.80919209  0.58963147  0.60903746  1
  Si  Si29  1  0.80919209  0.98059401  0.39096254  1
  Si  Si30  1  0.19080791  0.58963147  0.60903746  1
  Si  Si31  1  0.80146999  0.39841205  0.00000000  1
  Si  Si32  1  0.19853001  0.39841205  0.00000000  1
  Rb  Rb33  1  0.50000000  0.98973635  0.76146094  1
  Rb  Rb34  1  0.50000000  0.22827541  0.23853906  1
  Rb  Rb35  1  0.00000000  0.99961405  0.75802539  1
  Rb  Rb36  1  0.00000000  0.24158866  0.24197461  1
  Rb  Rb37  1  0.50000000  0.74967882  0.00000000  1
  Rb  Rb38  1  0.00000000  0.75590317  0.00000000  1
