# generated using pymatgen
data_Na2Mo2O7
_symmetry_space_group_name_H-M   'P 1'
_cell_length_a   7.04258085
_cell_length_b   7.04258085
_cell_length_c   15.12861631
_cell_angle_alpha   90.00000000
_cell_angle_beta   90.00000000
_cell_angle_gamma   117.41069240
_symmetry_Int_Tables_number   1
_chemical_formula_structural   Na2Mo2O7
_chemical_formula_sum   'Na8 Mo8 O28'
_cell_volume   666.10629468
_cell_formula_units_Z   4
loop_
 _symmetry_equiv_pos_site_id
 _symmetry_equiv_pos_as_xyz
  1  'x, y, z'
loop_
 _atom_site_type_symbol
 _atom_site_label
 _atom_site_symmetry_multiplicity
 _atom_site_fract_x
 _atom_site_fract_y
 _atom_site_fract_z
 _atom_site_occupancy
  O  O0  1  0.86141594  0.13858406  0.00298727  1
  O  O1  1  0.63858406  0.36141594  0.50298727  1
  O  O2  1  0.13858406  0.86141594  0.99701273  1
  O  O3  1  0.36141594  0.63858406  0.49701273  1
  O  O4  1  0.87508704  0.12491296  0.53344133  1
  O  O5  1  0.62491296  0.37508704  0.03344133  1
  O  O6  1  0.12491296  0.87508704  0.46655867  1
  O  O7  1  0.37508704  0.62491296  0.96655867  1
  O  O8  1  0.61774564  0.38225436  0.78189029  1
  O  O9  1  0.88225436  0.11774564  0.28189029  1
  O  O10  1  0.38225436  0.61774564  0.21810971  1
  O  O11  1  0.11774564  0.88225436  0.71810971  1
  O  O12  1  0.21245078  0.18847394  0.16275003  1
  O  O13  1  0.28754922  0.31152606  0.66275003  1
  O  O14  1  0.18847394  0.21245078  0.83724997  1
  O  O15  1  0.31152606  0.28754922  0.33724997  1
  O  O16  1  0.42925937  0.97440281  0.84443497  1
  O  O17  1  0.07074063  0.52559719  0.34443497  1
  O  O18  1  0.97440281  0.42925937  0.15556503  1
  O  O19  1  0.52559719  0.07074063  0.65556503  1
  O  O20  1  0.57074063  0.02559719  0.15556503  1
  O  O21  1  0.92925937  0.47440281  0.65556503  1
  O  O22  1  0.02559719  0.57074063  0.84443497  1
  O  O23  1  0.47440281  0.92925937  0.34443497  1
  O  O24  1  0.68847394  0.71245078  0.66275003  1
  O  O25  1  0.81152606  0.78754922  0.16275003  1
  O  O26  1  0.71245078  0.68847394  0.33724997  1
  O  O27  1  0.78754922  0.81152606  0.83724997  1
  Na  Na28  1  0.81720188  0.18279812  0.84850852  1
  Na  Na29  1  0.68279812  0.31720188  0.34850852  1
  Na  Na30  1  0.18279812  0.81720188  0.15149148  1
  Na  Na31  1  0.31720188  0.68279812  0.65149148  1
  Na  Na32  1  0.75005062  0.75005062  0.50000000  1
  Na  Na33  1  0.74994938  0.74994938  0.00000000  1
  Na  Na34  1  0.24994938  0.24994938  0.50000000  1
  Na  Na35  1  0.25005062  0.25005062  0.00000000  1
  Mo  Mo36  1  0.74404091  0.25595909  0.58648769  1
  Mo  Mo37  1  0.75595909  0.24404091  0.08648769  1
  Mo  Mo38  1  0.25595909  0.74404091  0.41351231  1
  Mo  Mo39  1  0.24404091  0.75595909  0.91351231  1
  Mo  Mo40  1  0.82918943  0.67081057  0.75000000  1
  Mo  Mo41  1  0.67081057  0.82918943  0.25000000  1
  Mo  Mo42  1  0.17081057  0.32918943  0.25000000  1
  Mo  Mo43  1  0.32918943  0.17081057  0.75000000  1
