# generated using pymatgen
data_Na4P2O7
_symmetry_space_group_name_H-M   'P 1'
_cell_length_a   5.46644487
_cell_length_b   9.43197343
_cell_length_c   13.66669008
_cell_angle_alpha   90.00000000
_cell_angle_beta   90.00000000
_cell_angle_gamma   90.00000000
_symmetry_Int_Tables_number   1
_chemical_formula_structural   Na4P2O7
_chemical_formula_sum   'Na16 P8 O28'
_cell_volume   704.64583171
_cell_formula_units_Z   4
loop_
 _symmetry_equiv_pos_site_id
 _symmetry_equiv_pos_as_xyz
  1  'x, y, z'
loop_
 _atom_site_type_symbol
 _atom_site_label
 _atom_site_symmetry_multiplicity
 _atom_site_fract_x
 _atom_site_fract_y
 _atom_site_fract_z
 _atom_site_occupancy
  O  O0  1  0.07627095  0.91454528  0.36694352  1
  O  O1  1  0.57627095  0.08545472  0.13305648  1
  O  O2  1  0.42372905  0.41454528  0.63305648  1
  O  O3  1  0.92372905  0.58545472  0.86694352  1
  O  O4  1  0.69932728  0.07020774  0.39855321  1
  O  O5  1  0.19932728  0.92979226  0.10144679  1
  O  O6  1  0.80067272  0.57020774  0.60144679  1
  O  O7  1  0.30067272  0.42979226  0.89855321  1
  O  O8  1  0.08169371  0.17716982  0.31975197  1
  O  O9  1  0.58169371  0.82283018  0.18024803  1
  O  O10  1  0.41830629  0.67716982  0.68024803  1
  O  O11  1  0.91830629  0.32283018  0.81975197  1
  O  O12  1  0.95066856  0.89854849  0.60218865  1
  O  O13  1  0.45066856  0.10145151  0.89781135  1
  O  O14  1  0.54933144  0.39854849  0.39781135  1
  O  O15  1  0.04933144  0.60145151  0.10218865  1
  O  O16  1  0.78574697  0.14720201  0.63327524  1
  O  O17  1  0.28574697  0.85279799  0.86672476  1
  O  O18  1  0.71425303  0.64720201  0.36672476  1
  O  O19  1  0.21425303  0.35279799  0.13327524  1
  O  O20  1  0.23232400  0.09338297  0.66970577  1
  O  O21  1  0.73232400  0.90661703  0.83029423  1
  O  O22  1  0.26767600  0.59338297  0.33029423  1
  O  O23  1  0.76767600  0.40661703  0.16970577  1
  O  O24  1  0.90246391  0.38994673  0.99631235  1
  O  O25  1  0.40246391  0.61005327  0.50368765  1
  O  O26  1  0.59753609  0.88994673  0.00368765  1
  O  O27  1  0.09753609  0.11005327  0.49631235  1
  Na  Na28  1  0.49992792  0.27719629  0.01631291  1
  Na  Na29  1  -0.00007208  0.72280371  0.48368709  1
  Na  Na30  1  1.00007208  0.77719629  0.98368709  1
  Na  Na31  1  0.50007208  0.22280371  0.51631291  1
  Na  Na32  1  0.51648148  0.25897909  0.76398416  1
  Na  Na33  1  0.01648148  0.74102091  0.73601584  1
  Na  Na34  1  0.98351852  0.75897909  0.23601584  1
  Na  Na35  1  0.48351852  0.24102091  0.26398416  1
  Na  Na36  1  0.96082429  0.41650538  0.33171002  1
  Na  Na37  1  0.46082429  0.58349462  0.16828998  1
  Na  Na38  1  0.53917571  0.91650538  0.66828998  1
  Na  Na39  1  0.03917571  0.08349462  0.83171002  1
  Na  Na40  1  0.49579774  0.87166743  0.34505094  1
  Na  Na41  1  0.99579774  0.12833257  0.15494906  1
  Na  Na42  1  0.00420226  0.37166743  0.65494906  1
  Na  Na43  1  0.50420226  0.62833257  0.84505094  1
  P  P44  1  0.99075935  0.44301121  0.10618104  1
  P  P45  1  0.49075935  0.55698879  0.39381896  1
  P  P46  1  0.50924065  0.94301121  0.89381896  1
  P  P47  1  0.00924065  0.05698879  0.60618104  1
  P  P48  1  0.02178622  0.43622234  0.88858153  1
  P  P49  1  0.52178622  0.56377766  0.61141847  1
  P  P50  1  0.47821378  0.93622234  0.11141847  1
  P  P51  1  0.97821378  0.06377766  0.38858153  1
