# generated using pymatgen
data_PuI3
_symmetry_space_group_name_H-M   'P 1'
_cell_length_a   4.24513456
_cell_length_b   8.18202596
_cell_length_c   10.01061840
_cell_angle_alpha   90.00000000
_cell_angle_beta   90.00000000
_cell_angle_gamma   105.03554903
_symmetry_Int_Tables_number   1
_chemical_formula_structural   PuI3
_chemical_formula_sum   'Pu2 I6'
_cell_volume   335.80310576
_cell_formula_units_Z   2
loop_
 _symmetry_equiv_pos_site_id
 _symmetry_equiv_pos_as_xyz
  1  'x, y, z'
loop_
 _atom_site_type_symbol
 _atom_site_label
 _atom_site_symmetry_multiplicity
 _atom_site_fract_x
 _atom_site_fract_y
 _atom_site_fract_z
 _atom_site_occupancy
  I  I0  1  0.34219105  0.68438210  0.43101519  1
  I  I1  1  0.65780895  0.31561790  0.56898481  1
  I  I2  1  0.90473775  0.80947551  0.75000000  1
  I  I3  1  0.09526225  0.19052449  0.25000000  1
  I  I4  1  0.34219105  0.68438210  0.06898481  1
  I  I5  1  0.65780895  0.31561790  0.93101519  1
  Pu  Pu6  1  0.73917811  0.47835622  0.25000000  1
  Pu  Pu7  1  0.26082189  0.52164378  0.75000000  1
