# generated using pymatgen
data_Ba(GeAs)2
_symmetry_space_group_name_H-M   'P 1'
_cell_length_a   7.93541004
_cell_length_b   7.93541004
_cell_length_c   8.81385947
_cell_angle_alpha   90.00000000
_cell_angle_beta   90.00000000
_cell_angle_gamma   90.00000000
_symmetry_Int_Tables_number   1
_chemical_formula_structural   Ba(GeAs)2
_chemical_formula_sum   'Ba4 Ge8 As8'
_cell_volume   555.01518700
_cell_formula_units_Z   4
loop_
 _symmetry_equiv_pos_site_id
 _symmetry_equiv_pos_as_xyz
  1  'x, y, z'
loop_
 _atom_site_type_symbol
 _atom_site_label
 _atom_site_symmetry_multiplicity
 _atom_site_fract_x
 _atom_site_fract_y
 _atom_site_fract_z
 _atom_site_occupancy
  Ge  Ge0  1  0.16346439  0.50000000  0.10773068  1
  Ge  Ge1  1  0.50000000  0.83653561  0.60773068  1
  Ge  Ge2  1  0.83653561  0.50000000  0.10773068  1
  Ge  Ge3  1  0.50000000  0.16346439  0.60773068  1
  Ge  Ge4  1  0.33421812  0.50000000  0.86598698  1
  Ge  Ge5  1  0.50000000  0.33421812  0.36598698  1
  Ge  Ge6  1  0.50000000  0.66578188  0.36598698  1
  Ge  Ge7  1  0.66578188  0.50000000  0.86598698  1
  As  As8  1  0.77073071  0.24504530  0.25568227  1
  As  As9  1  0.22926929  0.75495470  0.25568227  1
  As  As10  1  0.24504530  0.22926929  0.75568227  1
  As  As11  1  0.75495470  0.77073071  0.75568227  1
  As  As12  1  0.22926929  0.24504530  0.25568227  1
  As  As13  1  0.75495470  0.22926929  0.75568227  1
  As  As14  1  0.24504530  0.77073071  0.75568227  1
  As  As15  1  0.77073071  0.75495470  0.25568227  1
  Ba  Ba16  1  0.00000000  0.50000000  0.52429464  1
  Ba  Ba17  1  0.50000000  0.00000000  0.02429464  1
  Ba  Ba18  1  0.00000000  0.00000000  0.49924094  1
  Ba  Ba19  1  0.00000000  0.00000000  0.99924094  1
