# generated using pymatgen
data_Na3PaF8
_symmetry_space_group_name_H-M   'P 1'
_cell_length_a   5.52772524
_cell_length_b   5.52772524
_cell_length_c   6.75608721
_cell_angle_alpha   114.14782128
_cell_angle_beta   114.14782130
_cell_angle_gamma   90.00000006
_symmetry_Int_Tables_number   1
_chemical_formula_structural   Na3PaF8
_chemical_formula_sum   'Na3 Pa1 F8'
_cell_volume   168.38085322
_cell_formula_units_Z   1
loop_
 _symmetry_equiv_pos_site_id
 _symmetry_equiv_pos_as_xyz
  1  'x, y, z'
loop_
 _atom_site_type_symbol
 _atom_site_label
 _atom_site_symmetry_multiplicity
 _atom_site_fract_x
 _atom_site_fract_y
 _atom_site_fract_z
 _atom_site_occupancy
  F  F0  1  0.88417528  0.88417528  0.23305623  1
  F  F1  1  0.65111905  0.65111905  0.76694377  1
  F  F2  1  0.11582472  0.11582472  0.76694377  1
  F  F3  1  0.65111905  0.11582472  0.76694377  1
  F  F4  1  0.34888095  0.34888095  0.23305623  1
  F  F5  1  0.88417528  0.34888095  0.23305623  1
  F  F6  1  0.34888095  0.88417528  0.23305623  1
  F  F7  1  0.11582472  0.65111905  0.76694377  1
  Na  Na8  1  0.75000000  0.25000000  0.50000000  1
  Na  Na9  1  0.25000000  0.75000000  0.50000000  1
  Na  Na10  1  0.50000000  0.50000000  0.00000000  1
  Pa  Pa11  1  0.00000000  0.00000000  0.00000000  1
