# generated using pymatgen
data_Na3SiSe4
_symmetry_space_group_name_H-M   'P 1'
_cell_length_a   7.38454392
_cell_length_b   13.91295649
_cell_length_c   17.29445400
_cell_angle_alpha   90.00000000
_cell_angle_beta   90.00000000
_cell_angle_gamma   99.07362726
_symmetry_Int_Tables_number   1
_chemical_formula_structural   Na3SiSe4
_chemical_formula_sum   'Na24 Si8 Se32'
_cell_volume   1754.61213004
_cell_formula_units_Z   8
loop_
 _symmetry_equiv_pos_site_id
 _symmetry_equiv_pos_as_xyz
  1  'x, y, z'
loop_
 _atom_site_type_symbol
 _atom_site_label
 _atom_site_symmetry_multiplicity
 _atom_site_fract_x
 _atom_site_fract_y
 _atom_site_fract_z
 _atom_site_occupancy
  Na  Na0  1  0.94893888  0.28318921  0.94825750  1
  Na  Na1  1  0.05106112  0.21681079  0.44825750  1
  Na  Na2  1  0.05106112  0.71681079  0.05174250  1
  Na  Na3  1  0.94893888  0.78318921  0.55174250  1
  Na  Na4  1  0.42315623  0.76612763  0.67335642  1
  Na  Na5  1  0.57684377  0.73387237  0.17335642  1
  Na  Na6  1  0.57684377  0.23387237  0.32664358  1
  Na  Na7  1  0.42315623  0.26612763  0.82664358  1
  Na  Na8  1  0.01741387  0.28560103  0.69988482  1
  Na  Na9  1  0.98258613  0.21439897  0.19988482  1
  Na  Na10  1  0.98258613  0.71439897  0.30011518  1
  Na  Na11  1  0.01741387  0.78560103  0.80011518  1
  Na  Na12  1  0.58115594  0.02134983  0.60897055  1
  Na  Na13  1  0.41884406  0.47865017  0.10897055  1
  Na  Na14  1  0.41884406  0.97865017  0.39102945  1
  Na  Na15  1  0.58115594  0.52134983  0.89102945  1
  Na  Na16  1  0.70422564  0.50752826  0.67127501  1
  Na  Na17  1  0.24857513  0.00314853  0.93316831  1
  Na  Na18  1  0.24857513  0.50314853  0.56683169  1
  Na  Na19  1  0.75142487  0.99685147  0.06683169  1
  Na  Na20  1  0.70422564  0.00752826  0.82872499  1
  Na  Na21  1  0.29577436  0.49247174  0.32872499  1
  Na  Na22  1  0.29577436  0.99247174  0.17127501  1
  Na  Na23  1  0.75142487  0.49685147  0.43316831  1
  Si  Si24  1  0.39901456  0.23107052  0.02569624  1
  Si  Si25  1  0.60098544  0.26892948  0.52569624  1
  Si  Si26  1  0.60098544  0.76892948  0.97430376  1
  Si  Si27  1  0.39901456  0.73107052  0.47430376  1
  Si  Si28  1  0.11485329  0.52690441  0.77645872  1
  Si  Si29  1  0.88514671  0.97309559  0.27645872  1
  Si  Si30  1  0.88514671  0.47309559  0.22354128  1
  Si  Si31  1  0.11485329  0.02690441  0.72354128  1
  Se  Se32  1  0.32776840  0.36459256  0.96636515  1
  Se  Se33  1  0.80227103  0.38782242  0.10741063  1
  Se  Se34  1  0.80227103  0.88782242  0.39258937  1
  Se  Se35  1  0.19772897  0.61217758  0.89258937  1
  Se  Se36  1  0.14810359  0.12806345  0.06663153  1
  Se  Se37  1  0.85189641  0.37193655  0.56663153  1
  Se  Se38  1  0.85189641  0.87193655  0.93336847  1
  Se  Se39  1  0.14810359  0.62806345  0.43336847  1
  Se  Se40  1  0.33491080  0.44328951  0.73326119  1
  Se  Se41  1  0.66508920  0.05671049  0.23326119  1
  Se  Se42  1  0.66508920  0.55671049  0.26673881  1
  Se  Se43  1  0.33491080  0.94328951  0.76673881  1
  Se  Se44  1  0.52515862  0.28127192  0.14794013  1
  Se  Se45  1  0.47484138  0.21872808  0.64794013  1
  Se  Se46  1  0.47484138  0.71872808  0.85205987  1
  Se  Se47  1  0.52515862  0.78127192  0.35205987  1
  Se  Se48  1  0.19772897  0.11217758  0.60741063  1
  Se  Se49  1  0.67223160  0.13540744  0.46636515  1
  Se  Se50  1  0.67223160  0.63540744  0.03363485  1
  Se  Se51  1  0.32776840  0.86459256  0.53363485  1
  Se  Se52  1  0.05735935  0.13612926  0.81469106  1
  Se  Se53  1  0.94264065  0.36387074  0.31469106  1
  Se  Se54  1  0.94264065  0.86387074  0.18530894  1
  Se  Se55  1  0.05735935  0.63612926  0.68530894  1
  Se  Se56  1  0.86317923  0.42456174  0.81860364  1
  Se  Se57  1  0.13682077  0.07543826  0.31860364  1
  Se  Se58  1  0.13682077  0.57543826  0.18139636  1
  Se  Se59  1  0.86317923  0.92456174  0.68139636  1
  Se  Se60  1  0.40370309  0.34619277  0.45675603  1
  Se  Se61  1  0.59629691  0.15380723  0.95675603  1
  Se  Se62  1  0.59629691  0.65380723  0.54324397  1
  Se  Se63  1  0.40370309  0.84619277  0.04324397  1
