# generated using pymatgen
data_AuSCl5
_symmetry_space_group_name_H-M   'P 1'
_cell_length_a   8.19463741
_cell_length_b   8.64596341
_cell_length_c   12.67724432
_cell_angle_alpha   90.00000000
_cell_angle_beta   100.20271542
_cell_angle_gamma   90.00000000
_symmetry_Int_Tables_number   1
_chemical_formula_structural   AuSCl5
_chemical_formula_sum   'Au4 S4 Cl20'
_cell_volume   883.98666551
_cell_formula_units_Z   4
loop_
 _symmetry_equiv_pos_site_id
 _symmetry_equiv_pos_as_xyz
  1  'x, y, z'
loop_
 _atom_site_type_symbol
 _atom_site_label
 _atom_site_symmetry_multiplicity
 _atom_site_fract_x
 _atom_site_fract_y
 _atom_site_fract_z
 _atom_site_occupancy
  S  S0  1  0.19463559  0.77620110  0.95696169  1
  S  S1  1  0.69463559  0.72379890  0.45696169  1
  S  S2  1  0.80536441  0.22379890  0.04303831  1
  S  S3  1  0.30536441  0.27620110  0.54303831  1
  Cl  Cl4  1  0.88109271  0.66818312  0.38026126  1
  Cl  Cl5  1  0.38109271  0.83181688  0.88026126  1
  Cl  Cl6  1  0.11890729  0.33181688  0.61973874  1
  Cl  Cl7  1  0.61890729  0.16818312  0.11973874  1
  Cl  Cl8  1  0.84579211  0.83680721  0.01061650  1
  Cl  Cl9  1  0.65420789  0.33680721  0.48938350  1
  Cl  Cl10  1  0.15420789  0.16319279  0.98938350  1
  Cl  Cl11  1  0.34579211  0.66319279  0.51061650  1
  Cl  Cl12  1  0.67134256  0.88469744  0.75250973  1
  Cl  Cl13  1  0.82865744  0.38469744  0.74749027  1
  Cl  Cl14  1  0.32865744  0.11530256  0.24749027  1
  Cl  Cl15  1  0.17134256  0.61530256  0.25250973  1
  Cl  Cl16  1  0.03517959  0.80973478  0.68709990  1
  Cl  Cl17  1  0.46482041  0.30973478  0.81290010  1
  Cl  Cl18  1  0.96482041  0.19026522  0.31290010  1
  Cl  Cl19  1  0.53517959  0.69026522  0.18709990  1
  Cl  Cl20  1  0.19560582  0.54286647  0.95321384  1
  Cl  Cl21  1  0.30439418  0.04286647  0.54678616  1
  Cl  Cl22  1  0.80439418  0.45713353  0.04678616  1
  Cl  Cl23  1  0.69560582  0.95713353  0.45321384  1
  Au  Au24  1  0.43533312  0.67068376  0.34524404  1
  Au  Au25  1  0.06466688  0.17068376  0.15475596  1
  Au  Au26  1  0.56466688  0.32931624  0.65475596  1
  Au  Au27  1  0.93533312  0.82931624  0.84524404  1
