# generated using pymatgen
data_U6Cu2S13
_symmetry_space_group_name_H-M   'P 1'
_cell_length_a   8.02987608
_cell_length_b   8.02987608
_cell_length_c   14.23101248
_cell_angle_alpha   98.74954055
_cell_angle_beta   98.74954056
_cell_angle_gamma   100.22699560
_symmetry_Int_Tables_number   1
_chemical_formula_structural   U6Cu2S13
_chemical_formula_sum   'U12 Cu4 S26'
_cell_volume   877.24769532
_cell_formula_units_Z   2
loop_
 _symmetry_equiv_pos_site_id
 _symmetry_equiv_pos_as_xyz
  1  'x, y, z'
loop_
 _atom_site_type_symbol
 _atom_site_label
 _atom_site_symmetry_multiplicity
 _atom_site_fract_x
 _atom_site_fract_y
 _atom_site_fract_z
 _atom_site_occupancy
  S  S0  1  0.17213565  0.82786435  0.25000000  1
  S  S1  1  0.82786435  0.17213565  0.75000000  1
  S  S2  1  0.06156555  0.71051760  0.02580926  1
  S  S3  1  0.28948240  0.93843445  0.47419074  1
  S  S4  1  0.93843445  0.28948240  0.97419074  1
  S  S5  1  0.71051760  0.06156555  0.52580926  1
  S  S6  1  0.93394787  0.32980267  0.41423831  1
  S  S7  1  0.67019733  0.06605213  0.08576169  1
  S  S8  1  0.06605213  0.67019733  0.58576169  1
  S  S9  1  0.32980267  0.93394787  0.91423831  1
  S  S10  1  0.84637473  0.51381401  0.20293111  1
  S  S11  1  0.48618599  0.15362527  0.29706889  1
  S  S12  1  0.15362527  0.48618599  0.79706889  1
  S  S13  1  0.51381401  0.84637473  0.70293111  1
  S  S14  1  0.27798020  0.51131249  0.33490897  1
  S  S15  1  0.48868751  0.72201980  0.16509103  1
  S  S16  1  0.64801871  0.68837703  0.95297857  1
  S  S17  1  0.31162297  0.35198129  0.54702143  1
  S  S18  1  0.35198129  0.31162297  0.04702143  1
  S  S19  1  0.68837703  0.64801871  0.45297857  1
  S  S20  1  0.14343884  0.06888070  0.66733979  1
  S  S21  1  0.93111930  0.85656116  0.83266021  1
  S  S22  1  0.85656116  0.93111930  0.33266021  1
  S  S23  1  0.06888070  0.14343884  0.16733979  1
  S  S24  1  0.51131249  0.27798020  0.83490897  1
  S  S25  1  0.72201980  0.48868751  0.66509103  1
  Cu  Cu26  1  0.67297822  0.38620799  0.37076302  1
  Cu  Cu27  1  0.61379201  0.32702178  0.12923698  1
  Cu  Cu28  1  0.32702178  0.61379201  0.62923698  1
  Cu  Cu29  1  0.38620799  0.67297822  0.87076302  1
  U  U30  1  0.83533501  0.82320945  0.14240687  1
  U  U31  1  0.17679055  0.16466499  0.35759313  1
  U  U32  1  0.16466499  0.17679055  0.85759313  1
  U  U33  1  0.82320945  0.83533501  0.64240687  1
  U  U34  1  0.15687619  0.49050124  0.14349279  1
  U  U35  1  0.50949876  0.84312381  0.35650721  1
  U  U36  1  0.84312381  0.50949876  0.85650721  1
  U  U37  1  0.49050124  0.15687619  0.64349279  1
  U  U38  1  0.01433665  0.66772724  0.38980914  1
  U  U39  1  0.33227276  0.98566335  0.11019086  1
  U  U40  1  0.98566335  0.33227276  0.61019086  1
  U  U41  1  0.66772724  0.01433665  0.88980914  1
