# generated using pymatgen
data_ReBi3O8
_symmetry_space_group_name_H-M   'P 1'
_cell_length_a   11.75410770
_cell_length_b   11.75410770
_cell_length_c   11.75410770
_cell_angle_alpha   90.00000000
_cell_angle_beta   90.00000000
_cell_angle_gamma   90.00000000
_symmetry_Int_Tables_number   1
_chemical_formula_structural   ReBi3O8
_chemical_formula_sum   'Re8 Bi24 O64'
_cell_volume   1623.93632784
_cell_formula_units_Z   8
loop_
 _symmetry_equiv_pos_site_id
 _symmetry_equiv_pos_as_xyz
  1  'x, y, z'
loop_
 _atom_site_type_symbol
 _atom_site_label
 _atom_site_symmetry_multiplicity
 _atom_site_fract_x
 _atom_site_fract_y
 _atom_site_fract_z
 _atom_site_occupancy
  O  O0  1  0.23943636  0.46923460  0.50359054  1
  O  O1  1  0.73943636  0.03076540  0.49640946  1
  O  O2  1  0.76056364  0.96923460  0.99640946  1
  O  O3  1  0.03076540  0.49640946  0.73943636  1
  O  O4  1  0.99640946  0.76056364  0.96923460  1
  O  O5  1  0.49640946  0.73943636  0.03076540  1
  O  O6  1  0.46923460  0.50359054  0.23943636  1
  O  O7  1  0.50359054  0.23943636  0.46923460  1
  O  O8  1  0.96923460  0.99640946  0.76056364  1
  O  O9  1  0.53076540  0.00359054  0.26056364  1
  O  O10  1  0.00359054  0.26056364  0.53076540  1
  O  O11  1  0.26056364  0.53076540  0.00359054  1
  O  O12  1  0.25824180  0.77088065  1.00364269  1
  O  O13  1  0.75824180  0.72911935  -0.00364269  1
  O  O14  1  0.74175820  0.27088065  0.49635731  1
  O  O15  1  0.72911935  -0.00364269  0.75824180  1
  O  O16  1  0.49635731  0.74175820  0.27088065  1
  O  O17  1  -0.00364269  0.75824180  0.72911935  1
  O  O18  1  0.77088065  1.00364269  0.25824180  1
  O  O19  1  1.00364269  0.25824180  0.77088065  1
  O  O20  1  0.27088065  0.49635731  0.74175820  1
  O  O21  1  0.22911935  0.50364269  0.24175820  1
  O  O22  1  0.50364269  0.24175820  0.22911935  1
  O  O23  1  0.88160302  0.24717976  0.05843599  1
  O  O24  1  0.24175820  0.22911935  0.50364269  1
  O  O25  1  0.27104277  0.72895723  0.22895723  1
  O  O26  1  0.72895723  0.22895723  0.27104277  1
  O  O27  1  0.77104277  0.77104277  0.77104277  1
  O  O28  1  0.71373347  0.78626653  0.21373347  1
  O  O29  1  0.78626653  0.21373347  0.71373347  1
  O  O30  1  0.21373347  0.71373347  0.78626653  1
  O  O31  1  0.28626653  0.28626653  0.28626653  1
  O  O32  1  0.03310078  0.03310078  0.03310078  1
  O  O33  1  0.46689922  0.96689922  0.53310078  1
  O  O34  1  0.53310078  0.46689922  0.96689922  1
  O  O35  1  0.96689922  0.53310078  0.46689922  1
  O  O36  1  0.52787365  0.52787365  0.52787365  1
  O  O37  1  0.97212635  0.47212635  0.02787365  1
  O  O38  1  0.02787365  0.97212635  0.47212635  1
  O  O39  1  0.47212635  0.02787365  0.97212635  1
  O  O40  1  0.14338251  0.25199997  0.05434094  1
  O  O41  1  0.05434094  0.14338251  0.25199997  1
  O  O42  1  0.25199997  0.05434094  0.14338251  1
  O  O43  1  0.24800003  0.94565906  0.64338251  1
  O  O44  1  0.55434094  0.35661749  0.74800003  1
  O  O45  1  0.74800003  0.55434094  0.35661749  1
  O  O46  1  0.44565906  0.85661749  0.75199997  1
  O  O47  1  0.94565906  0.64338251  0.24800003  1
  O  O48  1  0.75199997  0.44565906  0.85661749  1
  O  O49  1  0.64338251  0.24800003  0.94565906  1
  O  O50  1  0.85661749  0.75199997  0.44565906  1
  O  O51  1  0.35661749  0.74800003  0.55434094  1
  O  O52  1  0.61839698  0.75282024  0.55843599  1
  O  O53  1  0.55843599  0.61839698  0.75282024  1
  O  O54  1  0.75282024  0.55843599  0.61839698  1
  O  O55  1  0.74717976  0.44156401  0.11839698  1
  O  O56  1  0.05843599  0.88160302  0.24717976  1
  O  O57  1  0.24717976  0.05843599  0.88160302  1
  O  O58  1  0.94156401  0.38160302  0.25282024  1
  O  O59  1  0.44156401  0.11839698  0.74717976  1
  O  O60  1  0.25282024  0.94156401  0.38160302  1
  O  O61  1  0.11839698  0.74717976  0.44156401  1
  O  O62  1  0.38160302  0.25282024  0.94156401  1
  O  O63  1  0.22895723  0.27104277  0.72895723  1
  Re  Re64  1  0.11967210  0.11967210  0.11967210  1
  Re  Re65  1  0.38032790  0.88032790  0.61967210  1
  Re  Re66  1  0.61967210  0.38032790  0.88032790  1
  Re  Re67  1  0.88032790  0.61967210  0.38032790  1
  Re  Re68  1  0.61489012  0.61489012  0.61489012  1
  Re  Re69  1  0.88510988  0.38510988  0.11489012  1
  Re  Re70  1  0.11489012  0.88510988  0.38510988  1
  Re  Re71  1  0.38510988  0.11489012  0.88510988  1
  Bi  Bi72  1  0.34554336  0.36404733  0.61563785  1
  Bi  Bi73  1  0.15445664  0.63595267  0.11563785  1
  Bi  Bi74  1  0.63595267  0.11563785  0.15445664  1
  Bi  Bi75  1  0.11563785  0.15445664  0.63595267  1
  Bi  Bi76  1  0.35360453  0.64456455  0.89022565  1
  Bi  Bi77  1  0.85360453  0.85543545  0.10977435  1
  Bi  Bi78  1  0.64639547  0.14456455  0.60977435  1
  Bi  Bi79  1  0.85543545  0.10977435  0.85360453  1
  Bi  Bi80  1  0.60977435  0.64639547  0.14456455  1
  Bi  Bi81  1  0.10977435  0.85360453  0.85543545  1
  Bi  Bi82  1  0.64456455  0.89022565  0.35360453  1
  Bi  Bi83  1  0.89022565  0.35360453  0.64456455  1
  Bi  Bi84  1  0.14456455  0.60977435  0.64639547  1
  Bi  Bi85  1  0.35543545  0.39022565  0.14639547  1
  Bi  Bi86  1  0.39022565  0.14639547  0.35543545  1
  Bi  Bi87  1  0.14639547  0.35543545  0.39022565  1
  Bi  Bi88  1  0.13595267  0.38436215  0.84554336  1
  Bi  Bi89  1  0.84554336  0.13595267  0.38436215  1
  Bi  Bi90  1  0.86404733  0.88436215  0.65445664  1
  Bi  Bi91  1  0.36404733  0.61563785  0.34554336  1
  Bi  Bi92  1  0.65445664  0.86404733  0.88436215  1
  Bi  Bi93  1  0.61563785  0.34554336  0.36404733  1
  Bi  Bi94  1  0.88436215  0.65445664  0.86404733  1
  Bi  Bi95  1  0.38436215  0.84554336  0.13595267  1
