# generated using pymatgen
data_Nb3ICl6
_symmetry_space_group_name_H-M   'P 1'
_cell_length_a   12.89166338
_cell_length_b   12.89166338
_cell_length_c   12.89166338
_cell_angle_alpha   90.00000000
_cell_angle_beta   90.00000000
_cell_angle_gamma   90.00000000
_symmetry_Int_Tables_number   1
_chemical_formula_structural   Nb3ICl6
_chemical_formula_sum   'Nb24 I8 Cl48'
_cell_volume   2142.52979824
_cell_formula_units_Z   8
loop_
 _symmetry_equiv_pos_site_id
 _symmetry_equiv_pos_as_xyz
  1  'x, y, z'
loop_
 _atom_site_type_symbol
 _atom_site_label
 _atom_site_symmetry_multiplicity
 _atom_site_fract_x
 _atom_site_fract_y
 _atom_site_fract_z
 _atom_site_occupancy
  Cl  Cl0  1  0.62100349  0.21727697  0.09881128  1
  Cl  Cl1  1  0.09881128  0.62100349  0.21727697  1
  Cl  Cl2  1  0.21727697  0.09881128  0.62100349  1
  Cl  Cl3  1  0.28272303  0.90118872  0.12100349  1
  Cl  Cl4  1  0.59881128  0.87899651  0.78272303  1
  Cl  Cl5  1  0.78272303  0.59881128  0.87899651  1
  Cl  Cl6  1  0.40118872  0.37899651  0.71727697  1
  Cl  Cl7  1  0.90118872  0.12100349  0.28272303  1
  Cl  Cl8  1  0.71727697  0.40118872  0.37899651  1
  Cl  Cl9  1  0.12100349  0.28272303  0.90118872  1
  Cl  Cl10  1  0.37899651  0.71727697  0.40118872  1
  Cl  Cl11  1  0.87899651  0.78272303  0.59881128  1
  Cl  Cl12  1  0.37899651  0.78272303  0.90118872  1
  Cl  Cl13  1  0.90118872  0.37899651  0.78272303  1
  Cl  Cl14  1  0.78272303  0.90118872  0.37899651  1
  Cl  Cl15  1  0.71727697  0.09881128  0.87899651  1
  Cl  Cl16  1  0.40118872  0.12100349  0.21727697  1
  Cl  Cl17  1  0.21727697  0.40118872  0.12100349  1
  Cl  Cl18  1  0.59881128  0.62100349  0.28272303  1
  Cl  Cl19  1  0.09881128  0.87899651  0.71727697  1
  Cl  Cl20  1  0.28272303  0.59881128  0.62100349  1
  Cl  Cl21  1  0.87899651  0.71727697  0.09881128  1
  Cl  Cl22  1  0.62100349  0.28272303  0.59881128  1
  Cl  Cl23  1  0.12100349  0.21727697  0.40118872  1
  Cl  Cl24  1  0.73901962  0.97946824  0.11810852  1
  Cl  Cl25  1  0.11810852  0.73901962  0.97946824  1
  Cl  Cl26  1  0.97946824  0.11810852  0.73901962  1
  Cl  Cl27  1  0.52053176  0.88189148  0.23901962  1
  Cl  Cl28  1  0.61810852  0.76098038  0.02053176  1
  Cl  Cl29  1  0.02053176  0.61810852  0.76098038  1
  Cl  Cl30  1  0.38189148  0.26098038  0.47946824  1
  Cl  Cl31  1  0.88189148  0.23901962  0.52053176  1
  Cl  Cl32  1  0.47946824  0.38189148  0.26098038  1
  Cl  Cl33  1  0.23901962  0.52053176  0.88189148  1
  Cl  Cl34  1  0.26098038  0.47946824  0.38189148  1
  Cl  Cl35  1  0.76098038  0.02053176  0.61810852  1
  Cl  Cl36  1  0.26098038  0.02053176  0.88189148  1
  Cl  Cl37  1  0.88189148  0.26098038  0.02053176  1
  Cl  Cl38  1  0.02053176  0.88189148  0.26098038  1
  Cl  Cl39  1  0.47946824  0.11810852  0.76098038  1
  Cl  Cl40  1  0.38189148  0.23901962  0.97946824  1
  Cl  Cl41  1  0.97946824  0.38189148  0.23901962  1
  Cl  Cl42  1  0.61810852  0.73901962  0.52053176  1
  Cl  Cl43  1  0.11810852  0.76098038  0.47946824  1
  Cl  Cl44  1  0.52053176  0.61810852  0.73901962  1
  Cl  Cl45  1  0.76098038  0.47946824  0.11810852  1
  Cl  Cl46  1  0.73901962  0.52053176  0.61810852  1
  Cl  Cl47  1  0.23901962  0.97946824  0.38189148  1
  Nb  Nb48  1  0.55910076  0.04263939  0.14291202  1
  Nb  Nb49  1  0.14291202  0.55910076  0.04263939  1
  Nb  Nb50  1  0.04263939  0.14291202  0.55910076  1
  Nb  Nb51  1  0.45736061  0.85708798  0.05910076  1
  Nb  Nb52  1  0.64291202  0.94089924  0.95736061  1
  Nb  Nb53  1  0.95736061  0.64291202  0.94089924  1
  Nb  Nb54  1  0.35708798  0.44089924  0.54263939  1
  Nb  Nb55  1  0.85708798  0.05910076  0.45736061  1
  Nb  Nb56  1  0.54263939  0.35708798  0.44089924  1
  Nb  Nb57  1  0.05910076  0.45736061  0.85708798  1
  Nb  Nb58  1  0.44089924  0.54263939  0.35708798  1
  Nb  Nb59  1  0.94089924  0.95736061  0.64291202  1
  Nb  Nb60  1  0.44089924  0.95736061  0.85708798  1
  Nb  Nb61  1  0.85708798  0.44089924  0.95736061  1
  Nb  Nb62  1  0.95736061  0.85708798  0.44089924  1
  Nb  Nb63  1  0.54263939  0.14291202  0.94089924  1
  Nb  Nb64  1  0.35708798  0.05910076  0.04263939  1
  Nb  Nb65  1  0.04263939  0.35708798  0.05910076  1
  Nb  Nb66  1  0.64291202  0.55910076  0.45736061  1
  Nb  Nb67  1  0.14291202  0.94089924  0.54263939  1
  Nb  Nb68  1  0.45736061  0.64291202  0.55910076  1
  Nb  Nb69  1  0.94089924  0.54263939  0.14291202  1
  Nb  Nb70  1  0.55910076  0.45736061  0.64291202  1
  Nb  Nb71  1  0.05910076  0.04263939  0.35708798  1
  I  I72  1  0.12988539  0.12988539  0.12988539  1
  I  I73  1  0.37011461  0.87011461  0.62988539  1
  I  I74  1  0.62988539  0.37011461  0.87011461  1
  I  I75  1  0.87011461  0.62988539  0.37011461  1
  I  I76  1  0.87011461  0.87011461  0.87011461  1
  I  I77  1  0.62988539  0.12988539  0.37011461  1
  I  I78  1  0.37011461  0.62988539  0.12988539  1
  I  I79  1  0.12988539  0.37011461  0.62988539  1
