# generated using pymatgen
data_Th6CoBr15
_symmetry_space_group_name_H-M   'P 1'
_cell_length_a   10.17632872
_cell_length_b   10.17632873
_cell_length_c   10.17632873
_cell_angle_alpha   109.47122066
_cell_angle_beta   109.47122066
_cell_angle_gamma   109.47122063
_symmetry_Int_Tables_number   1
_chemical_formula_structural   Th6CoBr15
_chemical_formula_sum   'Th6 Co1 Br15'
_cell_volume   811.24398900
_cell_formula_units_Z   1
loop_
 _symmetry_equiv_pos_site_id
 _symmetry_equiv_pos_as_xyz
  1  'x, y, z'
loop_
 _atom_site_type_symbol
 _atom_site_label
 _atom_site_symmetry_multiplicity
 _atom_site_fract_x
 _atom_site_fract_y
 _atom_site_fract_z
 _atom_site_occupancy
  Co  Co0  1  0.00000000  0.00000000  0.00000000  1
  Br  Br1  1  0.50000000  0.50000000  0.00000000  1
  Br  Br2  1  0.50000000  0.00000000  0.50000000  1
  Br  Br3  1  0.00000000  0.50000000  0.50000000  1
  Br  Br4  1  0.75055437  0.50110874  0.75055437  1
  Br  Br5  1  0.24944563  0.75055437  0.00000000  1
  Br  Br6  1  0.24944563  0.49889126  0.24944563  1
  Br  Br7  1  0.49889126  0.24944563  0.24944563  1
  Br  Br8  1  0.00000000  0.24944563  0.75055437  1
  Br  Br9  1  0.75055437  0.00000000  0.24944563  1
  Br  Br10  1  0.24944563  0.00000000  0.75055437  1
  Br  Br11  1  0.75055437  0.24944563  0.00000000  1
  Br  Br12  1  0.24944563  0.24944563  0.49889126  1
  Br  Br13  1  0.00000000  0.75055437  0.24944563  1
  Br  Br14  1  0.75055437  0.75055437  0.50110874  1
  Br  Br15  1  0.50110874  0.75055437  0.75055437  1
  Th  Th16  1  0.00000000  0.76263470  0.76263470  1
  Th  Th17  1  0.23736530  0.23736530  0.00000000  1
  Th  Th18  1  0.76263470  0.76263470  0.00000000  1
  Th  Th19  1  0.76263470  0.00000000  0.76263470  1
  Th  Th20  1  0.23736530  0.00000000  0.23736530  1
  Th  Th21  1  0.00000000  0.23736530  0.23736530  1
