# generated using pymatgen
data_Na7Al2Sb5
_symmetry_space_group_name_H-M   'P 1'
_cell_length_a   7.69867138
_cell_length_b   8.20530564
_cell_length_c   14.01460226
_cell_angle_alpha   90.00000000
_cell_angle_beta   90.00000000
_cell_angle_gamma   117.72101261
_symmetry_Int_Tables_number   1
_chemical_formula_structural   Na7Al2Sb5
_chemical_formula_sum   'Na14 Al4 Sb10'
_cell_volume   783.68954943
_cell_formula_units_Z   2
loop_
 _symmetry_equiv_pos_site_id
 _symmetry_equiv_pos_as_xyz
  1  'x, y, z'
loop_
 _atom_site_type_symbol
 _atom_site_label
 _atom_site_symmetry_multiplicity
 _atom_site_fract_x
 _atom_site_fract_y
 _atom_site_fract_z
 _atom_site_occupancy
  Na  Na0  1  0.09909149  0.40433727  0.25000000  1
  Na  Na1  1  0.10774377  0.41626575  0.92479056  1
  Na  Na2  1  0.80877750  0.88352147  0.92265278  1
  Na  Na3  1  0.19122250  0.11647853  0.42265278  1
  Na  Na4  1  0.90090851  0.59566273  0.75000000  1
  Na  Na5  1  0.56039921  0.26182937  0.25000000  1
  Na  Na6  1  0.22971203  0.14482788  0.75000000  1
  Na  Na7  1  0.77028797  0.85517212  0.25000000  1
  Na  Na8  1  0.89225623  0.58373425  0.07520944  1
  Na  Na9  1  0.19122250  0.11647853  0.07734722  1
  Na  Na10  1  0.89225623  0.58373425  0.42479056  1
  Na  Na11  1  0.43960079  0.73817063  0.75000000  1
  Na  Na12  1  0.80877750  0.88352147  0.57734722  1
  Na  Na13  1  0.10774377  0.41626575  0.57520944  1
  Al  Al14  1  0.41305552  0.83915934  0.08804030  1
  Al  Al15  1  0.58694448  0.16084066  0.58804030  1
  Al  Al16  1  0.58694448  0.16084066  0.91195970  1
  Al  Al17  1  0.41305552  0.83915934  0.41195970  1
  Sb  Sb18  1  0.46980628  0.53637650  0.09919738  1
  Sb  Sb19  1  0.22586223  0.85097626  0.92254254  1
  Sb  Sb20  1  0.77413777  0.14902374  0.42254254  1
  Sb  Sb21  1  0.77413777  0.14902374  0.07745746  1
  Sb  Sb22  1  0.53019372  0.46362350  0.90080262  1
  Sb  Sb23  1  0.46980628  0.53637650  0.40080262  1
  Sb  Sb24  1  0.53019372  0.46362350  0.59919738  1
  Sb  Sb25  1  0.19837007  0.83399448  0.25000000  1
  Sb  Sb26  1  0.80162993  0.16600552  0.75000000  1
  Sb  Sb27  1  0.22586223  0.85097626  0.57745746  1
