# generated using pymatgen
data_TlBO2
_symmetry_space_group_name_H-M   'P 1'
_cell_length_a   7.62571622
_cell_length_b   7.62571622
_cell_length_c   9.47190494
_cell_angle_alpha   90.00000000
_cell_angle_beta   90.00000000
_cell_angle_gamma   90.00000000
_symmetry_Int_Tables_number   1
_chemical_formula_structural   TlBO2
_chemical_formula_sum   'Tl8 B8 O16'
_cell_volume   550.80593352
_cell_formula_units_Z   8
loop_
 _symmetry_equiv_pos_site_id
 _symmetry_equiv_pos_as_xyz
  1  'x, y, z'
loop_
 _atom_site_type_symbol
 _atom_site_label
 _atom_site_symmetry_multiplicity
 _atom_site_fract_x
 _atom_site_fract_y
 _atom_site_fract_z
 _atom_site_occupancy
  B  B0  1  0.54919235  0.59172519  0.02174428  1
  B  B1  1  0.40827481  0.54919235  0.27174428  1
  B  B2  1  0.59172519  0.45080765  0.77174428  1
  B  B3  1  0.45080765  0.40827481  0.52174428  1
  B  B4  1  0.85713400  0.53917553  0.91820597  1
  B  B5  1  0.46082447  0.85713400  0.16820597  1
  B  B6  1  0.53917553  0.14286600  0.66820597  1
  B  B7  1  0.14286600  0.46082447  0.41820597  1
  O  O8  1  0.21777095  0.50370074  0.28805366  1
  O  O9  1  0.49629926  0.21777095  0.53805366  1
  O  O10  1  0.50370074  0.78222905  0.03805366  1
  O  O11  1  0.78222905  0.49629926  0.78805366  1
  O  O12  1  0.51362338  0.46638927  0.38311457  1
  O  O13  1  0.53361073  0.51362338  0.63311457  1
  O  O14  1  0.46638927  0.48637662  0.13311457  1
  O  O15  1  0.48637662  0.53361073  0.88311457  1
  O  O16  1  0.25578592  0.42749390  0.53237138  1
  O  O17  1  0.57250610  0.25578592  0.78237138  1
  O  O18  1  0.42749390  0.74421408  0.28237138  1
  O  O19  1  0.74421408  0.57250610  0.03237138  1
  O  O20  1  0.96718245  0.44734430  0.43708100  1
  O  O21  1  0.55265570  0.96718245  0.68708100  1
  O  O22  1  0.44734430  0.03281755  0.18708100  1
  O  O23  1  0.03281755  0.55265570  0.93708100  1
  Tl  Tl24  1  0.73100422  0.97948758  0.90564621  1
  Tl  Tl25  1  0.02051242  0.73100422  0.15564621  1
  Tl  Tl26  1  0.97948758  0.26899578  0.65564621  1
  Tl  Tl27  1  0.26899578  0.02051242  0.40564621  1
  Tl  Tl28  1  0.73255584  0.72470250  0.49928293  1
  Tl  Tl29  1  0.27529750  0.73255584  0.74928293  1
  Tl  Tl30  1  0.72470250  0.26744416  0.24928293  1
  Tl  Tl31  1  0.26744416  0.27529750  0.99928293  1
