# generated using pymatgen
data_H8S5N2
_symmetry_space_group_name_H-M   'P 1'
_cell_length_a   5.45855250
_cell_length_b   9.50808716
_cell_length_c   16.59957318
_cell_angle_alpha   90.00000000
_cell_angle_beta   90.00000000
_cell_angle_gamma   104.15877868
_symmetry_Int_Tables_number   1
_chemical_formula_structural   H8S5N2
_chemical_formula_sum   'H32 S20 N8'
_cell_volume   835.35262595
_cell_formula_units_Z   4
loop_
 _symmetry_equiv_pos_site_id
 _symmetry_equiv_pos_as_xyz
  1  'x, y, z'
loop_
 _atom_site_type_symbol
 _atom_site_label
 _atom_site_symmetry_multiplicity
 _atom_site_fract_x
 _atom_site_fract_y
 _atom_site_fract_z
 _atom_site_occupancy
  H  H0  1  0.10518722  0.41852101  0.64186124  1
  H  H1  1  0.89481278  0.08147899  0.14186124  1
  H  H2  1  0.89481278  0.58147899  0.35813876  1
  H  H3  1  0.10518722  0.91852101  0.85813876  1
  H  H4  1  0.28541627  0.45059962  0.72575777  1
  H  H5  1  0.71458373  0.04940038  0.22575777  1
  H  H6  1  0.71458373  0.54940038  0.27424223  1
  H  H7  1  0.28541627  0.95059962  0.77424223  1
  H  H8  1  0.42590606  0.46202912  0.63236867  1
  H  H9  1  0.57409394  0.03797088  0.13236867  1
  H  H10  1  0.57409394  0.53797088  0.36763133  1
  H  H11  1  0.42590606  0.96202912  0.86763133  1
  H  H12  1  0.27488937  0.29681528  0.66938647  1
  H  H13  1  0.72511063  0.20318472  0.16938647  1
  H  H14  1  0.36357773  0.36792658  0.93326498  1
  H  H15  1  0.72511063  0.70318472  0.33061353  1
  H  H16  1  0.17135703  0.21860027  0.97668970  1
  H  H17  1  0.82864297  0.28139973  0.47668970  1
  H  H18  1  0.82864297  0.78139973  0.02331030  1
  H  H19  1  0.17135703  0.71860027  0.52331030  1
  H  H20  1  0.47888730  0.22093511  0.95631313  1
  H  H21  1  0.52111270  0.27906489  0.45631313  1
  H  H22  1  0.52111270  0.77906489  0.04368687  1
  H  H23  1  0.47888730  0.72093511  0.54368687  1
  H  H24  1  0.58288122  0.17272909  0.53072964  1
  H  H25  1  0.41711878  0.32727091  0.03072964  1
  H  H26  1  0.41711878  0.82727091  0.46927036  1
  H  H27  1  0.58288122  0.67272909  0.96927036  1
  H  H28  1  0.36357773  0.86792658  0.56673502  1
  H  H29  1  0.63642227  0.63207342  0.06673502  1
  H  H30  1  0.63642227  0.13207342  0.43326498  1
  H  H31  1  0.27488937  0.79681528  0.83061353  1
  N  N32  1  0.27068024  0.40684026  0.66775812  1
  N  N33  1  0.72931976  0.09315974  0.16775812  1
  N  N34  1  0.72931976  0.59315974  0.33224188  1
  N  N35  1  0.27068024  0.90684026  0.83224188  1
  N  N36  1  0.35583938  0.28344824  0.97452809  1
  N  N37  1  0.64416062  0.21655176  0.47452809  1
  N  N38  1  0.64416062  0.71655176  0.02547191  1
  N  N39  1  0.35583938  0.78344824  0.52547191  1
  S  S40  1  0.77071298  0.07669086  0.92984388  1
  S  S41  1  0.22928702  0.42330914  0.42984388  1
  S  S42  1  0.22928702  0.92330914  0.07015612  1
  S  S43  1  0.77071298  0.57669086  0.57015612  1
  S  S44  1  0.88843432  0.17066736  0.81975940  1
  S  S45  1  0.11156568  0.32933264  0.31975940  1
  S  S46  1  0.11156568  0.82933264  0.18024060  1
  S  S47  1  0.88843432  0.67066736  0.68024060  1
  S  S48  1  0.76404760  0.35746943  0.80584124  1
  S  S49  1  0.23595240  0.14253057  0.30584124  1
  S  S50  1  0.23595240  0.64253057  0.19415876  1
  S  S51  1  0.76404760  0.85746943  0.69415876  1
  S  S52  1  0.95352799  0.00921948  0.61138603  1
  S  S53  1  0.04647201  0.49078052  0.11138603  1
  S  S54  1  0.04647201  0.99078052  0.38861397  1
  S  S55  1  0.95352799  0.50921948  0.88861397  1
  S  S56  1  0.33006986  0.06986028  0.64468731  1
  S  S57  1  0.66993014  0.43013972  0.14468731  1
  S  S58  1  0.66993014  0.93013972  0.35531269  1
  S  S59  1  0.33006986  0.56986028  0.85531269  1
