# generated using pymatgen
data_Cs2GaSb2
_symmetry_space_group_name_H-M   'P 1'
_cell_length_a   8.55520083
_cell_length_b   11.40603195
_cell_length_c   18.38254015
_cell_angle_alpha   90.00000000
_cell_angle_beta   90.00000000
_cell_angle_gamma   90.00000000
_symmetry_Int_Tables_number   1
_chemical_formula_structural   Cs2GaSb2
_chemical_formula_sum   'Cs16 Ga8 Sb16'
_cell_volume   1793.78470193
_cell_formula_units_Z   8
loop_
 _symmetry_equiv_pos_site_id
 _symmetry_equiv_pos_as_xyz
  1  'x, y, z'
loop_
 _atom_site_type_symbol
 _atom_site_label
 _atom_site_symmetry_multiplicity
 _atom_site_fract_x
 _atom_site_fract_y
 _atom_site_fract_z
 _atom_site_occupancy
  Ga  Ga0  1  0.10753348  0.75000000  0.57829703  1
  Ga  Ga1  1  0.60753348  0.25000000  0.92170297  1
  Ga  Ga2  1  0.39246652  0.75000000  0.07829703  1
  Ga  Ga3  1  0.85970376  0.75000000  0.07877807  1
  Ga  Ga4  1  0.35970376  0.25000000  0.42122193  1
  Ga  Ga5  1  0.14029624  0.25000000  0.92122193  1
  Ga  Ga6  1  0.64029624  0.75000000  0.57877807  1
  Ga  Ga7  1  0.89246652  0.25000000  0.42170297  1
  Sb  Sb8  1  0.70283998  0.75000000  0.71850815  1
  Sb  Sb9  1  0.37335421  0.25000000  0.01251432  1
  Sb  Sb10  1  0.12664579  0.25000000  0.51251432  1
  Sb  Sb11  1  0.87335421  0.75000000  0.48748568  1
  Sb  Sb12  1  0.45600925  0.75000000  0.21814207  1
  Sb  Sb13  1  0.95600925  0.25000000  0.28185793  1
  Sb  Sb14  1  0.54399075  0.25000000  0.78185793  1
  Sb  Sb15  1  0.04399075  0.75000000  0.71814207  1
  Sb  Sb16  1  0.20283998  0.25000000  0.78149185  1
  Sb  Sb17  1  0.29716002  0.25000000  0.28149185  1
  Sb  Sb18  1  0.79716002  0.75000000  0.21850815  1
  Sb  Sb19  1  0.37446648  0.75000000  0.50488110  1
  Sb  Sb20  1  0.12553352  0.75000000  0.00488110  1
  Sb  Sb21  1  0.62553352  0.25000000  0.49511890  1
  Sb  Sb22  1  0.62664579  0.75000000  0.98748568  1
  Sb  Sb23  1  0.87446648  0.25000000  0.99511890  1
  Cs  Cs24  1  0.86997841  0.44781847  0.63564580  1
  Cs  Cs25  1  0.36997841  0.55218153  0.86435420  1
  Cs  Cs26  1  0.13002159  0.94781847  0.36435420  1
  Cs  Cs27  1  0.63002159  0.05218153  0.13564580  1
  Cs  Cs28  1  0.13002159  0.55218153  0.36435420  1
  Cs  Cs29  1  0.63002159  0.44781847  0.13564580  1
  Cs  Cs30  1  0.86997841  0.05218153  0.63564580  1
  Cs  Cs31  1  0.36997841  0.94781847  0.86435420  1
  Cs  Cs32  1  0.37623070  0.46649793  0.62780165  1
  Cs  Cs33  1  0.87623070  0.53350207  0.87219835  1
  Cs  Cs34  1  0.62376930  0.96649793  0.37219835  1
  Cs  Cs35  1  0.12376930  0.03350207  0.12780165  1
  Cs  Cs36  1  0.62376930  0.53350207  0.37219835  1
  Cs  Cs37  1  0.12376930  0.46649793  0.12780165  1
  Cs  Cs38  1  0.37623070  0.03350207  0.62780165  1
  Cs  Cs39  1  0.87623070  0.96649793  0.87219835  1
