# generated using pymatgen
data_Ba2Si3O8
_symmetry_space_group_name_H-M   'P 1'
_cell_length_a   4.75581270
_cell_length_b   12.66486243
_cell_length_c   14.14900350
_cell_angle_alpha   93.47238274
_cell_angle_beta   90.00000000
_cell_angle_gamma   90.00000000
_symmetry_Int_Tables_number   1
_chemical_formula_structural   Ba2Si3O8
_chemical_formula_sum   'Ba8 Si12 O32'
_cell_volume   850.65414545
_cell_formula_units_Z   4
loop_
 _symmetry_equiv_pos_site_id
 _symmetry_equiv_pos_as_xyz
  1  'x, y, z'
loop_
 _atom_site_type_symbol
 _atom_site_label
 _atom_site_symmetry_multiplicity
 _atom_site_fract_x
 _atom_site_fract_y
 _atom_site_fract_z
 _atom_site_occupancy
  O  O0  1  0.14908593  0.99767520  0.21436759  1
  O  O1  1  0.64908593  0.00232480  0.28563241  1
  O  O2  1  0.85091407  0.00232480  0.78563241  1
  O  O3  1  0.35091407  0.99767520  0.71436759  1
  O  O4  1  0.73595178  0.96588673  0.08955731  1
  O  O5  1  0.23595178  0.03411327  0.41044269  1
  O  O6  1  0.26404822  0.03411327  0.91044269  1
  O  O7  1  0.76404822  0.96588673  0.58955731  1
  O  O8  1  0.79924185  0.15508754  0.17251472  1
  O  O9  1  0.29924185  0.84491246  0.32748528  1
  O  O10  1  0.20075815  0.84491246  0.82748528  1
  O  O11  1  0.70075815  0.15508754  0.67251472  1
  O  O12  1  0.73727972  0.28620475  0.33247312  1
  O  O13  1  0.23727972  0.71379525  0.16752688  1
  O  O14  1  0.26272028  0.71379525  0.66752688  1
  O  O15  1  0.76272028  0.28620475  0.83247312  1
  O  O16  1  0.14601928  0.31922057  0.20983000  1
  O  O17  1  0.64601928  0.68077943  0.29017000  1
  O  O18  1  0.85398072  0.68077943  0.79017000  1
  O  O19  1  0.35398072  0.31922057  0.70983000  1
  O  O20  1  0.24841320  0.47139293  0.58423476  1
  O  O21  1  0.74841320  0.52860707  0.91576524  1
  O  O22  1  0.75158680  0.52860707  0.41576524  1
  O  O23  1  0.25158680  0.47139293  0.08423476  1
  O  O24  1  0.23182768  0.26675779  0.52173560  1
  O  O25  1  0.73182768  0.73324221  0.97826440  1
  O  O26  1  0.76817232  0.73324221  0.47826440  1
  O  O27  1  0.26817232  0.26675779  0.02173560  1
  O  O28  1  0.85357758  0.35154495  0.65092445  1
  O  O29  1  0.35357758  0.64845505  0.84907555  1
  O  O30  1  0.14642242  0.64845505  0.34907555  1
  O  O31  1  0.64642242  0.35154495  0.15092445  1
  Si  Si32  1  0.82018159  0.02676685  0.18768282  1
  Si  Si33  1  0.32018159  0.97323315  0.31231718  1
  Si  Si34  1  0.17981841  0.97323315  0.81231718  1
  Si  Si35  1  0.67981841  0.02676685  0.68768282  1
  Si  Si36  1  0.82029648  0.27614712  0.22295731  1
  Si  Si37  1  0.32029648  0.72385288  0.27704269  1
  Si  Si38  1  0.17970352  0.72385288  0.77704269  1
  Si  Si39  1  0.67970352  0.27614712  0.72295731  1
  Si  Si40  1  0.31357899  0.35101867  0.11088763  1
  Si  Si41  1  0.81357899  0.64898133  0.38911237  1
  Si  Si42  1  0.68642101  0.64898133  0.88911237  1
  Si  Si43  1  0.18642101  0.35101867  0.61088763  1
  Ba  Ba44  1  0.75543465  0.14409402  0.46750009  1
  Ba  Ba45  1  0.25543465  0.85590598  0.03249991  1
  Ba  Ba46  1  0.24456535  0.85590598  0.53249991  1
  Ba  Ba47  1  0.74456535  0.14409402  0.96750009  1
  Ba  Ba48  1  0.27327613  0.41752013  0.38969337  1
  Ba  Ba49  1  0.77327613  0.58247987  0.11030663  1
  Ba  Ba50  1  0.72672387  0.58247987  0.61030663  1
  Ba  Ba51  1  0.22672387  0.41752013  0.88969337  1
