# generated using pymatgen
data_Sr2GeN2
_symmetry_space_group_name_H-M   'P 1'
_cell_length_a   5.42653225
_cell_length_b   11.85993535
_cell_length_c   11.85993535
_cell_angle_alpha   90.00000000
_cell_angle_beta   90.00000000
_cell_angle_gamma   90.00000000
_symmetry_Int_Tables_number   1
_chemical_formula_structural   Sr2GeN2
_chemical_formula_sum   'Sr16 Ge8 N16'
_cell_volume   763.28553412
_cell_formula_units_Z   8
loop_
 _symmetry_equiv_pos_site_id
 _symmetry_equiv_pos_as_xyz
  1  'x, y, z'
loop_
 _atom_site_type_symbol
 _atom_site_label
 _atom_site_symmetry_multiplicity
 _atom_site_fract_x
 _atom_site_fract_y
 _atom_site_fract_z
 _atom_site_occupancy
  N  N0  1  0.50000000  0.48848808  0.16510418  1
  N  N1  1  0.50000000  0.51151192  0.83489582  1
  N  N2  1  0.00000000  0.16510418  0.51151192  1
  N  N3  1  0.00000000  0.83489582  0.48848808  1
  N  N4  1  0.00000000  0.66510418  0.98848808  1
  N  N5  1  0.50000000  0.01151192  0.66510418  1
  N  N6  1  0.50000000  0.98848808  0.33489582  1
  N  N7  1  0.00000000  0.33489582  0.01151192  1
  N  N8  1  0.50000000  0.36618524  0.40137005  1
  N  N9  1  0.50000000  0.63381476  0.59862995  1
  N  N10  1  0.00000000  0.40137005  0.63381476  1
  N  N11  1  0.00000000  0.59862995  0.36618524  1
  N  N12  1  0.00000000  0.90137005  0.86618524  1
  N  N13  1  0.50000000  0.13381476  0.90137005  1
  N  N14  1  0.50000000  0.86618524  0.09862995  1
  N  N15  1  0.00000000  0.09862995  0.13381476  1
  Ge  Ge16  1  0.00000000  0.25597904  0.15100044  1
  Ge  Ge17  1  0.50000000  0.84899956  0.25597904  1
  Ge  Ge18  1  0.50000000  0.15100044  0.74402096  1
  Ge  Ge19  1  0.00000000  0.74402096  0.84899956  1
  Ge  Ge20  1  0.00000000  0.75597904  0.34899956  1
  Ge  Ge21  1  0.00000000  0.24402096  0.65100044  1
  Ge  Ge22  1  0.50000000  0.65100044  0.75597904  1
  Ge  Ge23  1  0.50000000  0.34899956  0.24402096  1
  Sr  Sr24  1  0.50000000  0.15144073  0.47795821  1
  Sr  Sr25  1  0.50000000  0.84855927  0.52204179  1
  Sr  Sr26  1  0.00000000  0.47795821  0.84855927  1
  Sr  Sr27  1  0.00000000  0.52204179  0.15144073  1
  Sr  Sr28  1  0.00000000  0.97795821  0.65144073  1
  Sr  Sr29  1  0.50000000  0.34855927  0.97795821  1
  Sr  Sr30  1  0.50000000  0.65144073  0.02204179  1
  Sr  Sr31  1  0.00000000  0.02204179  0.34855927  1
  Sr  Sr32  1  0.50000000  0.08018810  0.13359898  1
  Sr  Sr33  1  0.50000000  0.91981190  0.86640102  1
  Sr  Sr34  1  0.00000000  0.13359898  0.91981190  1
  Sr  Sr35  1  0.00000000  0.86640102  0.08018810  1
  Sr  Sr36  1  0.00000000  0.63359898  0.58018810  1
  Sr  Sr37  1  0.50000000  0.41981190  0.63359898  1
  Sr  Sr38  1  0.50000000  0.58018810  0.36640102  1
  Sr  Sr39  1  0.00000000  0.36640102  0.41981190  1
