# generated using pymatgen
data_Cd4P2Br3
_symmetry_space_group_name_H-M   'P 1'
_cell_length_a   12.66163068
_cell_length_b   12.66163068
_cell_length_c   12.66163068
_cell_angle_alpha   90.00000000
_cell_angle_beta   90.00000000
_cell_angle_gamma   90.00000000
_symmetry_Int_Tables_number   1
_chemical_formula_structural   Cd4P2Br3
_chemical_formula_sum   'Cd32 P16 Br24'
_cell_volume   2029.87327164
_cell_formula_units_Z   8
loop_
 _symmetry_equiv_pos_site_id
 _symmetry_equiv_pos_as_xyz
  1  'x, y, z'
loop_
 _atom_site_type_symbol
 _atom_site_label
 _atom_site_symmetry_multiplicity
 _atom_site_fract_x
 _atom_site_fract_y
 _atom_site_fract_z
 _atom_site_occupancy
  P  P0  1  0.10933090  0.10933090  0.10933090  1
  P  P1  1  0.39066910  0.89066910  0.60933090  1
  P  P2  1  0.60933090  0.39066910  0.89066910  1
  P  P3  1  0.89066910  0.60933090  0.39066910  1
  P  P4  1  0.89066910  0.89066910  0.89066910  1
  P  P5  1  0.60933090  0.10933090  0.39066910  1
  P  P6  1  0.39066910  0.60933090  0.10933090  1
  P  P7  1  0.10933090  0.39066910  0.60933090  1
  P  P8  1  0.44978472  0.44978472  0.44978472  1
  P  P9  1  0.05021528  0.55021528  0.94978472  1
  P  P10  1  0.94978472  0.05021528  0.55021528  1
  P  P11  1  0.55021528  0.94978472  0.05021528  1
  P  P12  1  0.55021528  0.55021528  0.55021528  1
  P  P13  1  0.94978472  0.44978472  0.05021528  1
  P  P14  1  0.05021528  0.94978472  0.44978472  1
  P  P15  1  0.44978472  0.05021528  0.94978472  1
  Br  Br16  1  0.18388858  0.43426910  0.26908624  1
  Br  Br17  1  0.26908624  0.18388858  0.43426910  1
  Br  Br18  1  0.43426910  0.26908624  0.18388858  1
  Br  Br19  1  0.06573090  0.73091376  0.68388858  1
  Br  Br20  1  0.76908624  0.31611142  0.56573090  1
  Br  Br21  1  0.56573090  0.76908624  0.31611142  1
  Br  Br22  1  0.23091376  0.81611142  0.93426910  1
  Br  Br23  1  0.73091376  0.68388858  0.06573090  1
  Br  Br24  1  0.93426910  0.23091376  0.81611142  1
  Br  Br25  1  0.68388858  0.06573090  0.73091376  1
  Br  Br26  1  0.81611142  0.93426910  0.23091376  1
  Br  Br27  1  0.31611142  0.56573090  0.76908624  1
  Br  Br28  1  0.81611142  0.56573090  0.73091376  1
  Br  Br29  1  0.73091376  0.81611142  0.56573090  1
  Br  Br30  1  0.56573090  0.73091376  0.81611142  1
  Br  Br31  1  0.93426910  0.26908624  0.31611142  1
  Br  Br32  1  0.23091376  0.68388858  0.43426910  1
  Br  Br33  1  0.43426910  0.23091376  0.68388858  1
  Br  Br34  1  0.76908624  0.18388858  0.06573090  1
  Br  Br35  1  0.26908624  0.31611142  0.93426910  1
  Br  Br36  1  0.06573090  0.76908624  0.18388858  1
  Br  Br37  1  0.31611142  0.93426910  0.26908624  1
  Br  Br38  1  0.18388858  0.06573090  0.76908624  1
  Br  Br39  1  0.68388858  0.43426910  0.23091376  1
  Cd  Cd40  1  0.03612351  0.99550205  0.25450657  1
  Cd  Cd41  1  0.25450657  0.03612351  0.99550205  1
  Cd  Cd42  1  0.99550205  0.25450657  0.03612351  1
  Cd  Cd43  1  0.50449795  0.74549343  0.53612351  1
  Cd  Cd44  1  0.75450657  0.46387649  0.00449795  1
  Cd  Cd45  1  0.00449795  0.75450657  0.46387649  1
  Cd  Cd46  1  0.24549343  0.96387649  0.49550205  1
  Cd  Cd47  1  0.74549343  0.53612351  0.50449795  1
  Cd  Cd48  1  0.49550205  0.24549343  0.96387649  1
  Cd  Cd49  1  0.53612351  0.50449795  0.74549343  1
  Cd  Cd50  1  0.96387649  0.49550205  0.24549343  1
  Cd  Cd51  1  0.46387649  0.00449795  0.75450657  1
  Cd  Cd52  1  0.96387649  0.00449795  0.74549343  1
  Cd  Cd53  1  0.74549343  0.96387649  0.00449795  1
  Cd  Cd54  1  0.00449795  0.74549343  0.96387649  1
  Cd  Cd55  1  0.49550205  0.25450657  0.46387649  1
  Cd  Cd56  1  0.24549343  0.53612351  0.99550205  1
  Cd  Cd57  1  0.99550205  0.24549343  0.53612351  1
  Cd  Cd58  1  0.75450657  0.03612351  0.50449795  1
  Cd  Cd59  1  0.25450657  0.46387649  0.49550205  1
  Cd  Cd60  1  0.50449795  0.75450657  0.03612351  1
  Cd  Cd61  1  0.46387649  0.49550205  0.25450657  1
  Cd  Cd62  1  0.03612351  0.50449795  0.75450657  1
  Cd  Cd63  1  0.53612351  0.99550205  0.24549343  1
  Cd  Cd64  1  0.22349383  0.22349383  0.22349383  1
  Cd  Cd65  1  0.27650617  0.77650617  0.72349383  1
  Cd  Cd66  1  0.72349383  0.27650617  0.77650617  1
  Cd  Cd67  1  0.77650617  0.72349383  0.27650617  1
  Cd  Cd68  1  0.77650617  0.77650617  0.77650617  1
  Cd  Cd69  1  0.72349383  0.22349383  0.27650617  1
  Cd  Cd70  1  0.27650617  0.72349383  0.22349383  1
  Cd  Cd71  1  0.22349383  0.27650617  0.72349383  1
