# generated using pymatgen
data_Rb2GaSb2
_symmetry_space_group_name_H-M   'P 1'
_cell_length_a   9.47511154
_cell_length_b   10.98192105
_cell_length_c   15.68780174
_cell_angle_alpha   90.00000000
_cell_angle_beta   90.00000000
_cell_angle_gamma   90.00000000
_symmetry_Int_Tables_number   1
_chemical_formula_structural   Rb2GaSb2
_chemical_formula_sum   'Rb16 Ga8 Sb16'
_cell_volume   1632.39306284
_cell_formula_units_Z   8
loop_
 _symmetry_equiv_pos_site_id
 _symmetry_equiv_pos_as_xyz
  1  'x, y, z'
loop_
 _atom_site_type_symbol
 _atom_site_label
 _atom_site_symmetry_multiplicity
 _atom_site_fract_x
 _atom_site_fract_y
 _atom_site_fract_z
 _atom_site_occupancy
  Ga  Ga0  1  0.72258185  0.75000000  0.31921151  1
  Ga  Ga1  1  0.22258185  0.25000000  0.18078849  1
  Ga  Ga2  1  0.77741815  0.75000000  0.81921151  1
  Ga  Ga3  1  0.89943287  0.75000000  0.09345717  1
  Ga  Ga4  1  0.39943287  0.25000000  0.40654283  1
  Ga  Ga5  1  0.10056713  0.25000000  0.90654283  1
  Ga  Ga6  1  0.60056713  0.75000000  0.59345717  1
  Ga  Ga7  1  0.27741815  0.25000000  0.68078849  1
  Rb  Rb8  1  0.22595152  0.96731271  0.51776450  1
  Rb  Rb9  1  0.39620357  0.96621523  0.27075047  1
  Rb  Rb10  1  0.10379643  0.53378477  0.77075047  1
  Rb  Rb11  1  0.89620357  0.03378477  0.22924953  1
  Rb  Rb12  1  0.10379643  0.96621523  0.77075047  1
  Rb  Rb13  1  0.60379643  0.03378477  0.72924953  1
  Rb  Rb14  1  0.89620357  0.46621523  0.22924953  1
  Rb  Rb15  1  0.39620357  0.53378477  0.27075047  1
  Rb  Rb16  1  0.72595152  0.03268729  0.98223550  1
  Rb  Rb17  1  0.77404848  0.46731271  0.48223550  1
  Rb  Rb18  1  0.27404848  0.53268729  0.01776450  1
  Rb  Rb19  1  0.77404848  0.03268729  0.48223550  1
  Rb  Rb20  1  0.72595152  0.46731271  0.98223550  1
  Rb  Rb21  1  0.22595152  0.53268729  0.51776450  1
  Rb  Rb22  1  0.60379643  0.46621523  0.72924953  1
  Rb  Rb23  1  0.27404848  0.96731271  0.01776450  1
  Sb  Sb24  1  0.11730507  0.75000000  0.19592876  1
  Sb  Sb25  1  0.61730507  0.25000000  0.30407124  1
  Sb  Sb26  1  0.88269493  0.25000000  0.80407124  1
  Sb  Sb27  1  0.38269493  0.75000000  0.69592876  1
  Sb  Sb28  1  0.99051423  0.75000000  0.36261165  1
  Sb  Sb29  1  0.49051423  0.25000000  0.13738835  1
  Sb  Sb30  1  0.00948577  0.25000000  0.63738835  1
  Sb  Sb31  1  0.50948577  0.75000000  0.86261165  1
  Sb  Sb32  1  0.64337823  0.75000000  0.15508080  1
  Sb  Sb33  1  0.14337823  0.25000000  0.34491920  1
  Sb  Sb34  1  0.35662177  0.25000000  0.84491920  1
  Sb  Sb35  1  0.85662177  0.75000000  0.65508080  1
  Sb  Sb36  1  0.98434805  0.75000000  0.93412366  1
  Sb  Sb37  1  0.48434805  0.25000000  0.56587634  1
  Sb  Sb38  1  0.01565195  0.25000000  0.06587634  1
  Sb  Sb39  1  0.51565195  0.75000000  0.43412366  1
