# generated using pymatgen
data_Dy(AlCl4)3
_symmetry_space_group_name_H-M   'P 1'
_cell_length_a   10.81647318
_cell_length_b   10.81647319
_cell_length_c   16.03529900
_cell_angle_alpha   90.00000000
_cell_angle_beta   90.00000000
_cell_angle_gamma   119.99999998
_symmetry_Int_Tables_number   1
_chemical_formula_structural   Dy(AlCl4)3
_chemical_formula_sum   'Dy3 Al9 Cl36'
_cell_volume   1624.72195770
_cell_formula_units_Z   3
loop_
 _symmetry_equiv_pos_site_id
 _symmetry_equiv_pos_as_xyz
  1  'x, y, z'
loop_
 _atom_site_type_symbol
 _atom_site_label
 _atom_site_symmetry_multiplicity
 _atom_site_fract_x
 _atom_site_fract_y
 _atom_site_fract_z
 _atom_site_occupancy
  Al  Al0  1  0.73127881  0.26872119  0.83333333  1
  Al  Al1  1  0.12880906  0.76376403  0.60351253  1
  Al  Al2  1  0.23623597  0.36504503  0.93684586  1
  Al  Al3  1  0.63495497  0.87119094  0.27017919  1
  Al  Al4  1  0.73127881  0.46255762  0.16666667  1
  Al  Al5  1  0.53744238  0.26872119  0.50000000  1
  Al  Al6  1  0.12880906  0.36504503  0.39648747  1
  Al  Al7  1  0.63495497  0.76376403  0.72982081  1
  Al  Al8  1  0.23623597  0.87119094  0.06315414  1
  Cl  Cl9  1  1.00814830  0.84192849  0.54480195  1
  Cl  Cl10  1  0.83378019  -0.00814830  0.21146861  1
  Cl  Cl11  1  0.15807151  0.16621981  0.87813528  1
  Cl  Cl12  1  0.79058099  0.59006360  0.27937375  1
  Cl  Cl13  1  0.40993640  0.20051739  0.61270709  1
  Cl  Cl14  1  0.79948261  0.20941901  0.94604042  1
  Cl  Cl15  1  0.40993640  0.20941901  0.38729291  1
  Cl  Cl16  1  0.79948261  0.59006360  0.05395958  1
  Cl  Cl17  1  0.79058099  0.20051739  0.72062625  1
  Cl  Cl18  1  0.22657334  0.34565585  0.27826984  1
  Cl  Cl19  1  0.65434415  0.88091750  0.61160317  1
  Cl  Cl20  1  0.11908250  0.77342666  0.94493650  1
  Cl  Cl21  1  0.65434415  0.77342666  0.38839683  1
  Cl  Cl22  1  0.11908250  0.34565585  0.05506350  1
  Cl  Cl23  1  0.22657334  0.88091750  0.72173016  1
  Cl  Cl24  1  0.50448240  0.66187152  0.20526875  1
  Cl  Cl25  1  0.33812848  0.84261087  0.53860208  1
  Cl  Cl26  1  0.15738913  0.49551760  0.87193541  1
  Cl  Cl27  1  0.33812848  0.49551760  0.46139792  1
  Cl  Cl28  1  0.15738913  0.66187152  0.12806459  1
  Cl  Cl29  1  0.50448240  0.84261087  0.79473125  1
  Cl  Cl30  1  0.66207723  0.49672879  0.48186026  1
  Cl  Cl31  1  0.50327121  0.16534844  0.81519359  1
  Cl  Cl32  1  0.83465156  0.33792277  0.14852692  1
  Cl  Cl33  1  0.50327121  0.33792277  0.18480641  1
  Cl  Cl34  1  0.83465156  0.49672879  0.85147308  1
  Cl  Cl35  1  0.66207723  0.16534844  0.51813974  1
  Cl  Cl36  1  0.03093331  0.48889939  0.37628503  1
  Cl  Cl37  1  0.51110061  0.54203392  0.70961837  1
  Cl  Cl38  1  0.45796608  0.96906669  0.04295170  1
  Cl  Cl39  1  0.51110061  0.96906669  0.29038163  1
  Cl  Cl40  1  0.45796608  0.48889939  0.95704830  1
  Cl  Cl41  1  0.03093331  0.54203392  0.62371497  1
  Cl  Cl42  1  1.00814830  0.16621981  0.45519805  1
  Cl  Cl43  1  0.83378019  0.84192849  0.78853139  1
  Cl  Cl44  1  0.15807151  -0.00814830  0.12186472  1
  Dy  Dy45  1  0.99020511  0.49510256  0.00000000  1
  Dy  Dy46  1  0.50489744  0.00979489  0.66666667  1
  Dy  Dy47  1  0.50489744  0.49510256  0.33333333  1
