# generated using pymatgen
data_Lu(ClO4)3
_symmetry_space_group_name_H-M   'P 1'
_cell_length_a   9.36615371
_cell_length_b   9.36615370
_cell_length_c   9.36615371
_cell_angle_alpha   52.18689353
_cell_angle_beta   52.18689353
_cell_angle_gamma   52.18689355
_symmetry_Int_Tables_number   1
_chemical_formula_structural   Lu(ClO4)3
_chemical_formula_sum   'Lu2 Cl6 O24'
_cell_volume   474.32497001
_cell_formula_units_Z   2
loop_
 _symmetry_equiv_pos_site_id
 _symmetry_equiv_pos_as_xyz
  1  'x, y, z'
loop_
 _atom_site_type_symbol
 _atom_site_label
 _atom_site_symmetry_multiplicity
 _atom_site_fract_x
 _atom_site_fract_y
 _atom_site_fract_z
 _atom_site_occupancy
  O  O0  1  0.88333683  0.20645209  0.27855883  1
  O  O1  1  0.20645209  0.27855883  0.88333683  1
  O  O2  1  0.27855883  0.88333683  0.20645209  1
  O  O3  1  0.77855883  0.70645209  0.38333683  1
  O  O4  1  0.70645209  0.38333683  0.77855883  1
  O  O5  1  0.38333683  0.77855883  0.70645209  1
  O  O6  1  0.62655111  0.25708025  0.57523713  1
  O  O7  1  0.25708025  0.57523713  0.62655111  1
  O  O8  1  0.44562527  0.07212881  0.50644372  1
  O  O9  1  0.50644372  0.44562527  0.07212881  1
  O  O10  1  0.07212881  0.50644372  0.44562527  1
  O  O11  1  0.57212881  0.94562527  1.00644372  1
  O  O12  1  1.00644372  0.57212881  0.94562527  1
  O  O13  1  0.94562527  1.00644372  0.57212881  1
  O  O14  1  0.38472399  0.91748592  0.85024158  1
  O  O15  1  0.85024158  0.38472399  0.91748592  1
  O  O16  1  0.91748592  0.85024158  0.38472399  1
  O  O17  1  0.41748592  0.88472399  0.35024158  1
  O  O18  1  0.35024158  0.41748592  0.88472399  1
  O  O19  1  0.88472399  0.35024158  0.41748592  1
  O  O20  1  0.12655111  0.07523713  0.75708025  1
  O  O21  1  0.75708025  0.12655111  0.07523713  1
  O  O22  1  0.07523713  0.75708025  0.12655111  1
  O  O23  1  0.57523713  0.62655111  0.25708025  1
  Cl  Cl24  1  0.84087134  0.19526432  0.46413832  1
  Cl  Cl25  1  0.19526432  0.46413832  0.84087134  1
  Cl  Cl26  1  0.46413832  0.84087134  0.19526432  1
  Cl  Cl27  1  0.96413832  0.69526432  0.34087134  1
  Cl  Cl28  1  0.69526432  0.34087134  0.96413832  1
  Cl  Cl29  1  0.34087134  0.96413832  0.69526432  1
  Lu  Lu30  1  0.05836051  0.05836051  0.05836051  1
  Lu  Lu31  1  0.55836051  0.55836051  0.55836051  1
