# generated using pymatgen
data_Ni10SnP3
_symmetry_space_group_name_H-M   'P 1'
_cell_length_a   7.67167419
_cell_length_b   7.67167419
_cell_length_c   9.61018704
_cell_angle_alpha   90.00000000
_cell_angle_beta   90.00000000
_cell_angle_gamma   119.99999996
_symmetry_Int_Tables_number   1
_chemical_formula_structural   Ni10SnP3
_chemical_formula_sum   'Ni30 Sn3 P9'
_cell_volume   489.82705922
_cell_formula_units_Z   3
loop_
 _symmetry_equiv_pos_site_id
 _symmetry_equiv_pos_as_xyz
  1  'x, y, z'
loop_
 _atom_site_type_symbol
 _atom_site_label
 _atom_site_symmetry_multiplicity
 _atom_site_fract_x
 _atom_site_fract_y
 _atom_site_fract_z
 _atom_site_occupancy
  P  P0  1  0.83556198  0.16443802  0.69094665  1
  P  P1  1  0.83556198  0.67112396  0.69094665  1
  P  P2  1  0.32887604  0.16443802  0.69094665  1
  P  P3  1  0.16443802  0.83556198  0.30905335  1
  P  P4  1  0.50000000  0.50000000  0.00000000  1
  P  P5  1  0.00000000  0.50000000  0.00000000  1
  P  P6  1  0.50000000  0.00000000  0.00000000  1
  P  P7  1  0.67112396  0.83556198  0.30905335  1
  P  P8  1  0.16443802  0.32887604  0.30905335  1
  Ni  Ni9  1  0.00000000  0.00000000  0.61978219  1
  Ni  Ni10  1  0.00000000  0.33784519  0.50000000  1
  Ni  Ni11  1  0.66215481  0.66215481  0.50000000  1
  Ni  Ni12  1  0.66215481  0.00000000  0.50000000  1
  Ni  Ni13  1  0.00000000  0.66215481  0.50000000  1
  Ni  Ni14  1  0.33784519  0.33784519  0.50000000  1
  Ni  Ni15  1  0.18915865  0.81084135  0.07270836  1
  Ni  Ni16  1  0.18915865  0.37831729  0.07270836  1
  Ni  Ni17  1  0.62168271  0.81084135  0.07270836  1
  Ni  Ni18  1  0.37831729  0.18915865  0.92729164  1
  Ni  Ni19  1  0.33784519  0.00000000  0.50000000  1
  Ni  Ni20  1  0.81084135  0.18915865  0.92729164  1
  Ni  Ni21  1  0.13763736  0.86236264  0.80046965  1
  Ni  Ni22  1  0.13763736  0.27527473  0.80046965  1
  Ni  Ni23  1  0.72472527  0.86236264  0.80046965  1
  Ni  Ni24  1  0.27527473  0.13763736  0.19953035  1
  Ni  Ni25  1  0.86236264  0.72472527  0.19953035  1
  Ni  Ni26  1  0.86236264  0.13763736  0.19953035  1
  Ni  Ni27  1  0.49065956  0.50934044  0.24026015  1
  Ni  Ni28  1  0.49065956  0.98131911  0.24026015  1
  Ni  Ni29  1  0.01868089  0.50934044  0.24026015  1
  Ni  Ni30  1  0.98131911  0.49065956  0.75973985  1
  Ni  Ni31  1  0.50934044  0.01868089  0.75973985  1
  Ni  Ni32  1  0.50934044  0.49065956  0.75973985  1
  Ni  Ni33  1  0.66666667  0.33333333  0.09613169  1
  Ni  Ni34  1  0.33333333  0.66666667  0.90386831  1
  Ni  Ni35  1  0.66666667  0.33333333  0.61585499  1
  Ni  Ni36  1  0.33333333  0.66666667  0.38414501  1
  Ni  Ni37  1  0.81084135  0.62168271  0.92729164  1
  Ni  Ni38  1  0.00000000  0.00000000  0.38021781  1
  Sn  Sn39  1  0.66666667  0.33333333  0.36056528  1
  Sn  Sn40  1  0.33333333  0.66666667  0.63943472  1
  Sn  Sn41  1  0.00000000  0.00000000  0.00000000  1
