# generated using pymatgen
data_La6Si7Br3
_symmetry_space_group_name_H-M   'P 1'
_cell_length_a   4.14878027
_cell_length_b   11.88718839
_cell_length_c   16.92462746
_cell_angle_alpha   90.00000000
_cell_angle_beta   90.00000000
_cell_angle_gamma   90.00000000
_symmetry_Int_Tables_number   1
_chemical_formula_structural   La6Si7Br3
_chemical_formula_sum   'La12 Si14 Br6'
_cell_volume   834.67748256
_cell_formula_units_Z   2
loop_
 _symmetry_equiv_pos_site_id
 _symmetry_equiv_pos_as_xyz
  1  'x, y, z'
loop_
 _atom_site_type_symbol
 _atom_site_label
 _atom_site_symmetry_multiplicity
 _atom_site_fract_x
 _atom_site_fract_y
 _atom_site_fract_z
 _atom_site_occupancy
  Si  Si0  1  0.25000000  0.84703189  0.25000000  1
  Si  Si1  1  0.75000000  0.15296811  0.75000000  1
  Si  Si2  1  0.75000000  0.43363838  0.12664403  1
  Si  Si3  1  0.25000000  0.56636162  0.87335597  1
  Si  Si4  1  0.75000000  0.43363838  0.37335597  1
  Si  Si5  1  0.25000000  0.56636162  0.62664403  1
  Si  Si6  1  0.25000000  0.74551951  0.12553045  1
  Si  Si7  1  0.75000000  0.25448049  0.87446955  1
  Si  Si8  1  0.25000000  0.74551951  0.37446955  1
  Si  Si9  1  0.75000000  0.25448049  0.62553045  1
  Si  Si10  1  0.25000000  0.54150783  0.12631488  1
  Si  Si11  1  0.75000000  0.45849217  0.87368512  1
  Si  Si12  1  0.75000000  0.45849217  0.62631488  1
  Si  Si13  1  0.25000000  0.54150783  0.37368512  1
  Br  Br14  1  0.75000000  0.89162323  0.94213434  1
  Br  Br15  1  0.25000000  0.10837677  0.05786566  1
  Br  Br16  1  0.25000000  0.86213871  0.75000000  1
  Br  Br17  1  0.75000000  0.13786129  0.25000000  1
  Br  Br18  1  0.75000000  0.89162323  0.55786566  1
  Br  Br19  1  0.25000000  0.10837677  0.44213434  1
  La  La20  1  0.75000000  0.65759793  0.75000000  1
  La  La21  1  0.25000000  0.34240207  0.25000000  1
  La  La22  1  0.75000000  0.64243338  0.00583339  1
  La  La23  1  0.25000000  0.35756662  0.99416661  1
  La  La24  1  0.75000000  0.64243338  0.49416661  1
  La  La25  1  0.25000000  0.35756662  0.50583339  1
  La  La26  1  0.75000000  0.93528592  0.13019623  1
  La  La27  1  0.25000000  0.06471408  0.86980377  1
  La  La28  1  0.75000000  0.93528592  0.36980377  1
  La  La29  1  0.25000000  0.06471408  0.63019623  1
  La  La30  1  0.75000000  0.64228221  0.25000000  1
  La  La31  1  0.25000000  0.35771779  0.75000000  1
