# generated using pymatgen
data_Tb(AlCl4)3
_symmetry_space_group_name_H-M   'P 1'
_cell_length_a   10.84032475
_cell_length_b   10.84032475
_cell_length_c   16.04380664
_cell_angle_alpha   90.00000000
_cell_angle_beta   90.00000000
_cell_angle_gamma   119.99999997
_symmetry_Int_Tables_number   1
_chemical_formula_structural   Tb(AlCl4)3
_chemical_formula_sum   'Tb3 Al9 Cl36'
_cell_volume   1632.76106878
_cell_formula_units_Z   3
loop_
 _symmetry_equiv_pos_site_id
 _symmetry_equiv_pos_as_xyz
  1  'x, y, z'
loop_
 _atom_site_type_symbol
 _atom_site_label
 _atom_site_symmetry_multiplicity
 _atom_site_fract_x
 _atom_site_fract_y
 _atom_site_fract_z
 _atom_site_occupancy
  Al  Al0  1  0.73187130  0.26812870  0.83333333  1
  Al  Al1  1  0.12842859  0.76335170  0.60347232  1
  Al  Al2  1  0.23664830  0.36507689  0.93680565  1
  Al  Al3  1  0.63492311  0.87157141  0.27013898  1
  Al  Al4  1  0.73187130  0.46374260  0.16666667  1
  Al  Al5  1  0.53625740  0.26812870  0.50000000  1
  Al  Al6  1  0.12842859  0.36507689  0.39652768  1
  Al  Al7  1  0.63492311  0.76335170  0.72986102  1
  Al  Al8  1  0.23664830  0.87157141  0.06319435  1
  Cl  Cl9  1  1.00858432  0.84162016  0.54440007  1
  Cl  Cl10  1  0.83303584  -0.00858432  0.21106673  1
  Cl  Cl11  1  0.15837984  0.16696416  0.87773340  1
  Cl  Cl12  1  0.79111020  0.59100115  0.27925732  1
  Cl  Cl13  1  0.40899885  0.20010905  0.61259065  1
  Cl  Cl14  1  0.79989095  0.20888980  0.94592399  1
  Cl  Cl15  1  0.40899885  0.20888980  0.38740935  1
  Cl  Cl16  1  0.79989095  0.59100115  0.05407601  1
  Cl  Cl17  1  0.79111020  0.20010905  0.72074268  1
  Cl  Cl18  1  0.22574369  0.34543801  0.27830511  1
  Cl  Cl19  1  0.65456199  0.88030568  0.61163844  1
  Cl  Cl20  1  0.11969432  0.77425631  0.94497178  1
  Cl  Cl21  1  0.65456199  0.77425631  0.38836156  1
  Cl  Cl22  1  0.11969432  0.34543801  0.05502822  1
  Cl  Cl23  1  0.22574369  0.88030568  0.72169489  1
  Cl  Cl24  1  0.50399136  0.66296367  0.20515132  1
  Cl  Cl25  1  0.33703633  0.84102769  0.53848466  1
  Cl  Cl26  1  0.15897231  0.49600864  0.87181799  1
  Cl  Cl27  1  0.33703633  0.49600864  0.46151534  1
  Cl  Cl28  1  0.15897231  0.66296367  0.12818201  1
  Cl  Cl29  1  0.50399136  0.84102769  0.79484868  1
  Cl  Cl30  1  0.66088820  0.49577494  0.48212286  1
  Cl  Cl31  1  0.50422506  0.16511326  0.81545619  1
  Cl  Cl32  1  0.83488674  0.33911180  0.14878952  1
  Cl  Cl33  1  0.50422506  0.33911180  0.18454381  1
  Cl  Cl34  1  0.83488674  0.49577494  0.85121048  1
  Cl  Cl35  1  0.66088820  0.16511326  0.51787714  1
  Cl  Cl36  1  0.03002266  0.48787549  0.37596301  1
  Cl  Cl37  1  0.51212451  0.54214717  0.70929634  1
  Cl  Cl38  1  0.45785283  0.96997734  0.04262968  1
  Cl  Cl39  1  0.51212451  0.96997734  0.29070366  1
  Cl  Cl40  1  0.45785283  0.48787549  0.95737032  1
  Cl  Cl41  1  0.03002266  0.54214717  0.62403699  1
  Cl  Cl42  1  1.00858432  0.16696416  0.45559993  1
  Cl  Cl43  1  0.83303584  0.84162016  0.78893327  1
  Cl  Cl44  1  0.15837984  -0.00858432  0.12226660  1
  Tb  Tb45  1  0.99076537  0.49538268  0.00000000  1
  Tb  Tb46  1  0.50461732  0.00923463  0.66666667  1
  Tb  Tb47  1  0.50461732  0.49538268  0.33333333  1
