# generated using pymatgen
data_Sr11(ReO6)4
_symmetry_space_group_name_H-M   'P 1'
_cell_length_a   11.70476161
_cell_length_b   11.70476162
_cell_length_c   11.70476162
_cell_angle_alpha   90.63511190
_cell_angle_beta   119.63399789
_cell_angle_gamma   119.63399794
_symmetry_Int_Tables_number   1
_chemical_formula_structural   Sr11(ReO6)4
_chemical_formula_sum   'Sr22 Re8 O48'
_cell_volume   1140.09168999
_cell_formula_units_Z   2
loop_
 _symmetry_equiv_pos_site_id
 _symmetry_equiv_pos_as_xyz
  1  'x, y, z'
loop_
 _atom_site_type_symbol
 _atom_site_label
 _atom_site_symmetry_multiplicity
 _atom_site_fract_x
 _atom_site_fract_y
 _atom_site_fract_z
 _atom_site_occupancy
  O  O0  1  0.95477190  0.97140324  0.63677870  1
  O  O1  1  0.66537546  0.13677870  0.68200680  1
  O  O2  1  0.83462454  0.51663134  0.47140324  1
  O  O3  1  0.54522810  0.18200680  0.01663134  1
  O  O4  1  0.04522810  0.02859676  0.36322130  1
  O  O5  1  0.33462454  0.86322130  0.31799320  1
  O  O6  1  0.16537546  0.48336866  0.52859676  1
  O  O7  1  0.45477190  0.81799320  0.98336866  1
  O  O8  1  0.53276412  0.15198081  0.42869575  1
  O  O9  1  0.27671494  0.92869575  0.89593164  1
  O  O10  1  0.22328506  0.11921669  0.65198081  1
  O  O11  1  0.96723588  0.39593164  0.61921669  1
  O  O12  1  0.46723588  0.84801919  0.57130425  1
  O  O13  1  0.72328506  0.07130425  0.10406836  1
  O  O14  1  0.77671494  0.88078331  0.34801919  1
  O  O15  1  0.03276412  0.60406836  0.38078331  1
  O  O16  1  0.49868376  0.00508899  0.16224515  1
  O  O17  1  0.15715616  0.66224515  0.66356139  1
  O  O18  1  0.34284384  0.00640524  0.50508899  1
  O  O19  1  1.00131624  0.16356139  0.50640524  1
  O  O20  1  0.50131624  0.99491101  0.83775485  1
  O  O21  1  0.84284384  0.33775485  0.33643861  1
  O  O22  1  0.65715616  0.99359476  0.49491101  1
  O  O23  1  -0.00131624  0.83643861  0.49359476  1
  O  O24  1  0.01630458  0.37130078  0.91298560  1
  O  O25  1  0.54168482  0.41298560  0.89668101  1
  O  O26  1  0.95831518  0.85499620  0.87130078  1
  O  O27  1  0.48369542  0.39668101  0.35499620  1
  O  O28  1  0.98369542  0.62869922  0.08701440  1
  O  O29  1  0.45831518  0.58701440  0.10331899  1
  O  O30  1  0.98895192  0.39797001  0.13289578  1
  O  O31  1  0.73492576  0.63289578  0.14394386  1
  O  O32  1  0.76507424  0.90901810  0.89797001  1
  O  O33  1  0.51104808  0.64394386  0.40901810  1
  O  O34  1  0.01104808  0.60202999  0.86710422  1
  O  O35  1  0.26507424  0.36710422  0.85605614  1
  O  O36  1  0.23492576  0.09098190  0.10202999  1
  O  O37  1  0.48895192  0.35605614  0.59098190  1
  O  O38  1  0.77106357  0.38326079  0.87626611  1
  O  O39  1  0.49300532  0.37626611  0.10520254  1
  O  O40  1  0.00699468  0.11219722  0.88326079  1
  O  O41  1  0.72893643  0.60520254  0.61219722  1
  O  O42  1  0.22893643  0.61673921  0.12373389  1
  O  O43  1  0.50699468  0.62373389  0.89479746  1
  O  O44  1  0.99300532  0.88780278  0.11673921  1
  O  O45  1  0.27106357  0.39479746  0.38780278  1
  O  O46  1  0.51630458  0.60331899  0.64500380  1
  O  O47  1  0.04168482  0.14500380  0.12869922  1
  Sr  Sr48  1  0.25000000  0.37500000  0.12500000  1
  Sr  Sr49  1  0.75000000  0.62500000  0.87500000  1
  Sr  Sr50  1  0.75000000  0.86367219  0.11367219  1
  Sr  Sr51  1  0.25000000  0.61367219  0.36367219  1
  Sr  Sr52  1  0.25000000  0.13632781  0.88632781  1
  Sr  Sr53  1  0.75000000  0.38632781  0.63632781  1
  Sr  Sr54  1  0.19118819  0.84897867  0.06709719  1
  Sr  Sr55  1  0.21811852  0.56709719  0.87590900  1
  Sr  Sr56  1  0.93954788  0.19267816  0.67715681  1
  Sr  Sr57  1  0.48447865  0.17715681  0.73760894  1
  Sr  Sr58  1  0.01552135  0.75313029  0.69267816  1
  Sr  Sr59  1  0.56045212  0.23760894  0.25313029  1
  Sr  Sr60  1  0.06045212  0.80732184  0.32284319  1
  Sr  Sr61  1  0.51552135  0.82284319  0.26239106  1
  Sr  Sr62  1  0.98447865  0.24686971  0.30732184  1
  Sr  Sr63  1  0.43954788  0.76239106  0.74686971  1
  Sr  Sr64  1  0.69118819  0.62409100  0.34220952  1
  Sr  Sr65  1  0.71811852  0.84220952  0.65102133  1
  Sr  Sr66  1  0.78188148  0.43290281  0.12409100  1
  Sr  Sr67  1  0.80881181  0.15102133  0.93290281  1
  Sr  Sr68  1  0.30881181  0.37590900  0.65779048  1
  Sr  Sr69  1  0.28188148  0.15779048  0.34897867  1
  Re  Re70  1  0.00000000  0.00000000  0.00000000  1
  Re  Re71  1  0.00000000  0.50000000  0.00000000  1
  Re  Re72  1  0.50000000  0.50000000  0.50000000  1
  Re  Re73  1  0.50000000  0.50000000  0.00000000  1
  Re  Re74  1  0.00000000  0.50000000  0.50000000  1
  Re  Re75  1  0.00000000  0.00000000  0.50000000  1
  Re  Re76  1  0.50000000  0.00000000  0.00000000  1
  Re  Re77  1  0.50000000  0.00000000  0.50000000  1
