# generated using pymatgen
data_Rb3BS3
_symmetry_space_group_name_H-M   'P 1'
_cell_length_a   6.46961821
_cell_length_b   10.53230069
_cell_length_c   13.24064812
_cell_angle_alpha   104.52650047
_cell_angle_beta   90.00000000
_cell_angle_gamma   90.00000000
_symmetry_Int_Tables_number   1
_chemical_formula_structural   Rb3BS3
_chemical_formula_sum   'Rb12 B4 S12'
_cell_volume   873.37496556
_cell_formula_units_Z   4
loop_
 _symmetry_equiv_pos_site_id
 _symmetry_equiv_pos_as_xyz
  1  'x, y, z'
loop_
 _atom_site_type_symbol
 _atom_site_label
 _atom_site_symmetry_multiplicity
 _atom_site_fract_x
 _atom_site_fract_y
 _atom_site_fract_z
 _atom_site_occupancy
  B  B0  1  0.11703312  0.76586094  0.37226513  1
  B  B1  1  0.61703312  0.23413906  0.12773487  1
  B  B2  1  0.88296688  0.23413906  0.62773487  1
  B  B3  1  0.38296688  0.76586094  0.87226513  1
  S  S4  1  0.92435179  0.71431474  0.26727509  1
  S  S5  1  0.42435179  0.28568526  0.23272491  1
  S  S6  1  0.07564821  0.28568526  0.73272491  1
  S  S7  1  0.57564821  0.71431474  0.76727509  1
  S  S8  1  0.28452124  0.90890493  0.37782564  1
  S  S9  1  0.78452124  0.09109507  0.12217436  1
  S  S10  1  0.71547876  0.09109507  0.62217436  1
  S  S11  1  0.21547876  0.90890493  0.87782564  1
  S  S12  1  0.35304861  0.66974449  0.96956468  1
  S  S13  1  0.85304861  0.33025551  0.53043532  1
  S  S14  1  0.64695139  0.33025551  0.03043532  1
  S  S15  1  0.14695139  0.66974449  0.46956468  1
  Rb  Rb16  1  0.64308740  0.74794373  0.50800808  1
  Rb  Rb17  1  0.14308740  0.25205627  0.99199192  1
  Rb  Rb18  1  0.35691260  0.25205627  0.49199192  1
  Rb  Rb19  1  0.85691260  0.74794373  0.00800808  1
  Rb  Rb20  1  0.28609692  0.97229391  0.14112649  1
  Rb  Rb21  1  0.78609692  0.02770609  0.35887351  1
  Rb  Rb22  1  0.71390308  0.02770609  0.85887351  1
  Rb  Rb23  1  0.21390308  0.97229391  0.64112649  1
  Rb  Rb24  1  0.43762085  0.59487818  0.19575596  1
  Rb  Rb25  1  0.93762085  0.40512182  0.30424404  1
  Rb  Rb26  1  0.56237915  0.40512182  0.80424404  1
  Rb  Rb27  1  0.06237915  0.59487818  0.69575596  1
