# generated using pymatgen
data_Ba3Sb2O
_symmetry_space_group_name_H-M   'P 1'
_cell_length_a   5.15433099
_cell_length_b   12.61564011
_cell_length_c   12.91947358
_cell_angle_alpha   90.00000000
_cell_angle_beta   90.00000000
_cell_angle_gamma   90.00000000
_symmetry_Int_Tables_number   1
_chemical_formula_structural   Ba3Sb2O
_chemical_formula_sum   'Ba12 Sb8 O4'
_cell_volume   840.09115677
_cell_formula_units_Z   4
loop_
 _symmetry_equiv_pos_site_id
 _symmetry_equiv_pos_as_xyz
  1  'x, y, z'
loop_
 _atom_site_type_symbol
 _atom_site_label
 _atom_site_symmetry_multiplicity
 _atom_site_fract_x
 _atom_site_fract_y
 _atom_site_fract_z
 _atom_site_occupancy
  O  O0  1  0.00000000  0.27047509  0.80585967  1
  O  O1  1  0.00000000  0.72952491  0.19414033  1
  O  O2  1  0.00000000  0.77047509  0.69414033  1
  O  O3  1  0.00000000  0.22952491  0.30585967  1
  Sb  Sb4  1  0.50000000  0.98846512  0.88795562  1
  Sb  Sb5  1  0.50000000  0.48846512  0.61204438  1
  Sb  Sb6  1  0.50000000  0.51153488  0.38795562  1
  Sb  Sb7  1  0.50000000  0.01153488  0.11204438  1
  Sb  Sb8  1  0.50000000  0.11239253  0.52139418  1
  Sb  Sb9  1  0.50000000  0.88760747  0.47860582  1
  Sb  Sb10  1  0.50000000  0.61239253  0.97860582  1
  Sb  Sb11  1  0.50000000  0.38760747  0.02139418  1
  Ba  Ba12  1  0.50000000  0.24364607  0.75863495  1
  Ba  Ba13  1  0.50000000  0.75635393  0.24136505  1
  Ba  Ba14  1  0.50000000  0.74364607  0.74136505  1
  Ba  Ba15  1  0.50000000  0.25635393  0.25863495  1
  Ba  Ba16  1  0.00000000  0.17994894  0.98270425  1
  Ba  Ba17  1  0.00000000  0.82005106  0.01729575  1
  Ba  Ba18  1  0.00000000  0.67994894  0.51729575  1
  Ba  Ba19  1  0.00000000  0.32005106  0.48270425  1
  Ba  Ba20  1  0.00000000  0.47114896  0.82851185  1
  Ba  Ba21  1  0.00000000  0.52885104  0.17148815  1
  Ba  Ba22  1  0.00000000  0.97114896  0.67148815  1
  Ba  Ba23  1  0.00000000  0.02885104  0.32851185  1
