# generated using pymatgen
data_SrN
_symmetry_space_group_name_H-M   'P 1'
_cell_length_a   3.79740786
_cell_length_b   6.76051300
_cell_length_c   7.10432482
_cell_angle_alpha   94.66247488
_cell_angle_beta   105.50130304
_cell_angle_gamma   90.00000000
_symmetry_Int_Tables_number   1
_chemical_formula_structural   SrN
_chemical_formula_sum   'Sr4 N4'
_cell_volume   175.12446483
_cell_formula_units_Z   4
loop_
 _symmetry_equiv_pos_site_id
 _symmetry_equiv_pos_as_xyz
  1  'x, y, z'
loop_
 _atom_site_type_symbol
 _atom_site_label
 _atom_site_symmetry_multiplicity
 _atom_site_fract_x
 _atom_site_fract_y
 _atom_site_fract_z
 _atom_site_occupancy
  N  N0  1  0.02255911  0.08242151  0.04511822  1
  N  N1  1  0.97744089  0.91757849  0.95488178  1
  N  N2  1  0.24648752  0.74911997  0.49297504  1
  N  N3  1  0.75351248  0.25088003  0.50702496  1
  Sr  Sr4  1  0.35360331  0.09356550  0.70720661  1
  Sr  Sr5  1  0.64639669  0.90643450  0.29279339  1
  Sr  Sr6  1  0.15294030  0.38936841  0.30588059  1
  Sr  Sr7  1  0.84705970  0.61063159  0.69411941  1
