# generated using pymatgen
data_Mg2GeO4
_symmetry_space_group_name_H-M   'P 1'
_cell_length_a   4.96975889
_cell_length_b   6.10276253
_cell_length_c   10.44234895
_cell_angle_alpha   90.00000000
_cell_angle_beta   90.00000000
_cell_angle_gamma   90.00000000
_symmetry_Int_Tables_number   1
_chemical_formula_structural   Mg2GeO4
_chemical_formula_sum   'Mg8 Ge4 O16'
_cell_volume   316.70869895
_cell_formula_units_Z   4
loop_
 _symmetry_equiv_pos_site_id
 _symmetry_equiv_pos_as_xyz
  1  'x, y, z'
loop_
 _atom_site_type_symbol
 _atom_site_label
 _atom_site_symmetry_multiplicity
 _atom_site_fract_x
 _atom_site_fract_y
 _atom_site_fract_z
 _atom_site_occupancy
  O  O0  1  0.23316627  0.47864214  0.66437920  1
  O  O1  1  0.73316627  0.52135786  0.83562080  1
  O  O2  1  0.76683373  0.97864214  0.33562080  1
  O  O3  1  0.26683373  0.02135786  0.16437920  1
  O  O4  1  0.76683373  0.52135786  0.33562080  1
  O  O5  1  0.26683373  0.47864214  0.16437920  1
  O  O6  1  0.23316627  0.02135786  0.66437920  1
  O  O7  1  0.73316627  0.97864214  0.83562080  1
  O  O8  1  0.72984725  0.75000000  0.05987628  1
  O  O9  1  0.22984725  0.25000000  0.44012372  1
  O  O10  1  0.27015275  0.25000000  0.94012372  1
  O  O11  1  0.77015275  0.75000000  0.55987628  1
  O  O12  1  0.21107576  0.75000000  0.90790373  1
  O  O13  1  0.71107576  0.25000000  0.59209627  1
  O  O14  1  0.78892424  0.25000000  0.09209627  1
  O  O15  1  0.28892424  0.75000000  0.40790373  1
  Mg  Mg16  1  0.00000000  0.00000000  0.00000000  1
  Mg  Mg17  1  0.50000000  0.00000000  0.50000000  1
  Mg  Mg18  1  0.00000000  0.50000000  0.00000000  1
  Mg  Mg19  1  0.50000000  0.50000000  0.50000000  1
  Mg  Mg20  1  0.49343670  0.75000000  0.22390599  1
  Mg  Mg21  1  0.99343670  0.25000000  0.27609401  1
  Mg  Mg22  1  0.50656330  0.25000000  0.77609401  1
  Mg  Mg23  1  0.00656330  0.75000000  0.72390599  1
  Ge  Ge24  1  0.56384222  0.75000000  0.90567600  1
  Ge  Ge25  1  0.06384222  0.25000000  0.59432400  1
  Ge  Ge26  1  0.43615778  0.25000000  0.09432400  1
  Ge  Ge27  1  0.93615778  0.75000000  0.40567600  1
