# generated using pymatgen
data_HoAu4
_symmetry_space_group_name_H-M   'P 1'
_cell_length_a   4.22629831
_cell_length_b   5.24977794
_cell_length_c   5.24977793
_cell_angle_alpha   80.67562377
_cell_angle_beta   66.26408746
_cell_angle_gamma   66.26408747
_symmetry_Int_Tables_number   1
_chemical_formula_structural   HoAu4
_chemical_formula_sum   'Ho1 Au4'
_cell_volume   97.60538331
_cell_formula_units_Z   1
loop_
 _symmetry_equiv_pos_site_id
 _symmetry_equiv_pos_as_xyz
  1  'x, y, z'
loop_
 _atom_site_type_symbol
 _atom_site_label
 _atom_site_symmetry_multiplicity
 _atom_site_fract_x
 _atom_site_fract_y
 _atom_site_fract_z
 _atom_site_occupancy
  Ho  Ho0  1  0.00000000  0.00000000  0.00000000  1
  Au  Au1  1  0.59868836  0.60023538  0.20238790  1
  Au  Au2  1  0.40131164  0.39976462  0.79761210  1
  Au  Au3  1  0.80107626  0.79761210  0.60023538  1
  Au  Au4  1  0.19892374  0.20238790  0.39976462  1
