# generated using pymatgen
data_AuSO4
_symmetry_space_group_name_H-M   'P 1'
_cell_length_a   8.53191028
_cell_length_b   8.79132091
_cell_length_c   10.59780812
_cell_angle_alpha   90.00000000
_cell_angle_beta   90.00000000
_cell_angle_gamma   90.00000000
_symmetry_Int_Tables_number   1
_chemical_formula_structural   AuSO4
_chemical_formula_sum   'Au8 S8 O32'
_cell_volume   794.90726340
_cell_formula_units_Z   8
loop_
 _symmetry_equiv_pos_site_id
 _symmetry_equiv_pos_as_xyz
  1  'x, y, z'
loop_
 _atom_site_type_symbol
 _atom_site_label
 _atom_site_symmetry_multiplicity
 _atom_site_fract_x
 _atom_site_fract_y
 _atom_site_fract_z
 _atom_site_occupancy
  O  O0  1  0.36370987  0.36715993  0.97270909  1
  O  O1  1  0.86370987  0.63284007  0.52729091  1
  O  O2  1  0.13629013  0.86715993  0.02729091  1
  O  O3  1  0.63629013  0.13284007  0.47270909  1
  O  O4  1  0.63629013  0.63284007  0.02729091  1
  O  O5  1  0.13629013  0.36715993  0.47270909  1
  O  O6  1  0.86370987  0.13284007  0.97270909  1
  O  O7  1  0.36370987  0.86715993  0.52729091  1
  O  O8  1  0.77178232  0.41242037  0.10988103  1
  O  O9  1  0.27178232  0.58757963  0.39011897  1
  O  O10  1  0.72821768  0.91242037  0.89011897  1
  O  O11  1  0.22821768  0.08757963  0.60988103  1
  O  O12  1  0.22821768  0.58757963  0.89011897  1
  O  O13  1  0.72821768  0.41242037  0.60988103  1
  O  O14  1  0.27178232  0.08757963  0.10988103  1
  O  O15  1  0.77178232  0.91242037  0.39011897  1
  O  O16  1  0.15198830  0.91291784  0.25783904  1
  O  O17  1  0.65198830  0.08708216  0.24216096  1
  O  O18  1  0.34801170  0.41291784  0.74216096  1
  O  O19  1  0.84801170  0.58708216  0.75783904  1
  O  O20  1  0.84801170  0.08708216  0.74216096  1
  O  O21  1  0.34801170  0.91291784  0.75783904  1
  O  O22  1  0.65198830  0.58708216  0.25783904  1
  O  O23  1  0.15198830  0.41291784  0.24216096  1
  O  O24  1  0.11728803  0.82761740  0.64649295  1
  O  O25  1  0.61728803  0.17238260  0.85350705  1
  O  O26  1  0.38271197  0.32761740  0.35350705  1
  O  O27  1  0.88271197  0.67238260  0.14649295  1
  O  O28  1  0.88271197  0.17238260  0.35350705  1
  O  O29  1  0.38271197  0.82761740  0.14649295  1
  O  O30  1  0.61728803  0.67238260  0.64649295  1
  O  O31  1  0.11728803  0.32761740  0.85350705  1
  S  S32  1  0.23039550  0.42120601  0.36166170  1
  S  S33  1  0.73039550  0.57879399  0.13833830  1
  S  S34  1  0.26960450  0.92120601  0.63833830  1
  S  S35  1  0.76960450  0.07879399  0.86166170  1
  S  S36  1  0.76960450  0.57879399  0.63833830  1
  S  S37  1  0.26960450  0.42120601  0.86166170  1
  S  S38  1  0.73039550  0.07879399  0.36166170  1
  S  S39  1  0.23039550  0.92120601  0.13833830  1
  Au  Au40  1  0.94643703  0.36619887  0.98409988  1
  Au  Au41  1  0.44643703  0.63380113  0.51590012  1
  Au  Au42  1  0.55356297  0.86619887  0.01590012  1
  Au  Au43  1  0.05356297  0.13380113  0.48409988  1
  Au  Au44  1  0.05356297  0.63380113  0.01590012  1
  Au  Au45  1  0.55356297  0.36619887  0.48409988  1
  Au  Au46  1  0.44643703  0.13380113  0.98409988  1
  Au  Au47  1  0.94643703  0.86619887  0.51590012  1
