# generated using pymatgen
data_HoCo3
_symmetry_space_group_name_H-M   'P 1'
_cell_length_a   4.95565567
_cell_length_b   4.95565567
_cell_length_c   8.59151397
_cell_angle_alpha   73.23756605
_cell_angle_beta   73.23756605
_cell_angle_gamma   59.99999267
_symmetry_Int_Tables_number   1
_chemical_formula_structural   HoCo3
_chemical_formula_sum   'Ho3 Co9'
_cell_volume   172.29680835
_cell_formula_units_Z   3
loop_
 _symmetry_equiv_pos_site_id
 _symmetry_equiv_pos_as_xyz
  1  'x, y, z'
loop_
 _atom_site_type_symbol
 _atom_site_label
 _atom_site_symmetry_multiplicity
 _atom_site_fract_x
 _atom_site_fract_y
 _atom_site_fract_z
 _atom_site_occupancy
  Ho  Ho0  1  -0.00000000  -0.00000000  0.00000000  1
  Ho  Ho1  1  0.13972761  0.13972761  0.58081718  1
  Ho  Ho2  1  0.86027239  0.86027239  0.41918282  1
  Co  Co3  1  0.50000000  0.50000000  0.50000000  1
  Co  Co4  1  0.33491742  0.33491742  0.99524773  1
  Co  Co5  1  0.66508258  0.66508258  0.00475227  1
  Co  Co6  1  0.07866913  0.58270016  0.75593055  1
  Co  Co7  1  0.58270016  0.58270016  0.75593055  1
  Co  Co8  1  0.58270016  0.07866913  0.75593055  1
  Co  Co9  1  0.92133087  0.41729984  0.24406945  1
  Co  Co10  1  0.41729984  0.41729984  0.24406945  1
  Co  Co11  1  0.41729984  0.92133087  0.24406945  1
