# generated using pymatgen
data_Rb4SnS4
_symmetry_space_group_name_H-M   'P 1'
_cell_length_a   13.67538555
_cell_length_b   13.67538555
_cell_length_c   13.67538555
_cell_angle_alpha   90.00000000
_cell_angle_beta   90.00000000
_cell_angle_gamma   90.00000000
_symmetry_Int_Tables_number   1
_chemical_formula_structural   Rb4SnS4
_chemical_formula_sum   'Rb32 Sn8 S32'
_cell_volume   2557.51822803
_cell_formula_units_Z   8
loop_
 _symmetry_equiv_pos_site_id
 _symmetry_equiv_pos_as_xyz
  1  'x, y, z'
loop_
 _atom_site_type_symbol
 _atom_site_label
 _atom_site_symmetry_multiplicity
 _atom_site_fract_x
 _atom_site_fract_y
 _atom_site_fract_z
 _atom_site_occupancy
  S  S0  1  0.65346683  0.90187469  0.61174707  1
  S  S1  1  0.65346683  0.09812531  0.38825293  1
  S  S2  1  0.90187469  0.61174707  0.65346683  1
  S  S3  1  0.09812531  0.61174707  0.34653317  1
  S  S4  1  0.61174707  0.65346683  0.90187469  1
  S  S5  1  0.38825293  0.34653317  0.90187469  1
  S  S6  1  0.84653317  0.88825293  0.40187469  1
  S  S7  1  0.84653317  0.11174707  0.59812531  1
  S  S8  1  0.15346683  0.88825293  0.59812531  1
  S  S9  1  0.11174707  0.59812531  0.84653317  1
  S  S10  1  0.59812531  0.15346683  0.88825293  1
  S  S11  1  0.59812531  0.84653317  0.11174707  1
  S  S12  1  0.88825293  0.40187469  0.84653317  1
  S  S13  1  0.40187469  0.84653317  0.88825293  1
  S  S14  1  0.88825293  0.59812531  0.15346683  1
  S  S15  1  0.11174707  0.40187469  0.15346683  1
  S  S16  1  0.40187469  0.15346683  0.11174707  1
  S  S17  1  0.38825293  0.65346683  0.09812531  1
  S  S18  1  0.61174707  0.34653317  0.09812531  1
  S  S19  1  0.90187469  0.38825293  0.34653317  1
  S  S20  1  0.09812531  0.38825293  0.65346683  1
  S  S21  1  0.34653317  0.09812531  0.61174707  1
  S  S22  1  0.34653317  0.90187469  0.38825293  1
  S  S23  1  0.15346683  0.11174707  0.40187469  1
  S  S24  1  0.89786714  0.89786714  0.89786714  1
  S  S25  1  0.60213286  0.39786714  0.60213286  1
  S  S26  1  0.39786714  0.60213286  0.60213286  1
  S  S27  1  0.60213286  0.60213286  0.39786714  1
  S  S28  1  0.89786714  0.10213286  0.10213286  1
  S  S29  1  0.10213286  0.10213286  0.89786714  1
  S  S30  1  0.10213286  0.89786714  0.10213286  1
  S  S31  1  0.39786714  0.39786714  0.39786714  1
  Rb  Rb32  1  0.91592361  0.86342437  0.65260689  1
  Rb  Rb33  1  0.91592361  0.13657563  0.34739311  1
  Rb  Rb34  1  0.86342437  0.65260689  0.91592361  1
  Rb  Rb35  1  0.13657563  0.65260689  0.08407639  1
  Rb  Rb36  1  0.65260689  0.91592361  0.86342437  1
  Rb  Rb37  1  0.34739311  0.08407639  0.86342437  1
  Rb  Rb38  1  0.58407639  0.84739311  0.36342437  1
  Rb  Rb39  1  0.58407639  0.15260689  0.63657563  1
  Rb  Rb40  1  0.41592361  0.84739311  0.63657563  1
  Rb  Rb41  1  0.15260689  0.63657563  0.58407639  1
  Rb  Rb42  1  0.63657563  0.41592361  0.84739311  1
  Rb  Rb43  1  0.63657563  0.58407639  0.15260689  1
  Rb  Rb44  1  0.84739311  0.36342437  0.58407639  1
  Rb  Rb45  1  0.36342437  0.58407639  0.84739311  1
  Rb  Rb46  1  0.84739311  0.63657563  0.41592361  1
  Rb  Rb47  1  0.15260689  0.36342437  0.41592361  1
  Rb  Rb48  1  0.36342437  0.41592361  0.15260689  1
  Rb  Rb49  1  0.34739311  0.91592361  0.13657563  1
  Rb  Rb50  1  0.65260689  0.08407639  0.13657563  1
  Rb  Rb51  1  0.86342437  0.34739311  0.08407639  1
  Rb  Rb52  1  0.13657563  0.34739311  0.91592361  1
  Rb  Rb53  1  0.08407639  0.13657563  0.65260689  1
  Rb  Rb54  1  0.08407639  0.86342437  0.34739311  1
  Rb  Rb55  1  0.41592361  0.15260689  0.36342437  1
  Rb  Rb56  1  0.15404782  0.15404782  0.15404782  1
  Rb  Rb57  1  0.34595218  0.65404782  0.34595218  1
  Rb  Rb58  1  0.65404782  0.34595218  0.34595218  1
  Rb  Rb59  1  0.34595218  0.34595218  0.65404782  1
  Rb  Rb60  1  0.15404782  0.84595218  0.84595218  1
  Rb  Rb61  1  0.84595218  0.84595218  0.15404782  1
  Rb  Rb62  1  0.84595218  0.15404782  0.84595218  1
  Rb  Rb63  1  0.65404782  0.65404782  0.65404782  1
  Sn  Sn64  1  0.75000000  0.00000000  0.50000000  1
  Sn  Sn65  1  0.50000000  0.75000000  0.00000000  1
  Sn  Sn66  1  0.50000000  0.25000000  0.00000000  1
  Sn  Sn67  1  0.00000000  0.50000000  0.25000000  1
  Sn  Sn68  1  0.00000000  0.50000000  0.75000000  1
  Sn  Sn69  1  0.25000000  0.00000000  0.50000000  1
  Sn  Sn70  1  0.50000000  0.50000000  0.50000000  1
  Sn  Sn71  1  0.00000000  0.00000000  0.00000000  1
