# generated using pymatgen
data_Hg4OF6
_symmetry_space_group_name_H-M   'P 1'
_cell_length_a   7.92679091
_cell_length_b   7.92679091
_cell_length_c   6.16816106
_cell_angle_alpha   90.00000000
_cell_angle_beta   90.00000000
_cell_angle_gamma   120.00000003
_symmetry_Int_Tables_number   1
_chemical_formula_structural   Hg4OF6
_chemical_formula_sum   'Hg8 O2 F12'
_cell_volume   335.64574226
_cell_formula_units_Z   2
loop_
 _symmetry_equiv_pos_site_id
 _symmetry_equiv_pos_as_xyz
  1  'x, y, z'
loop_
 _atom_site_type_symbol
 _atom_site_label
 _atom_site_symmetry_multiplicity
 _atom_site_fract_x
 _atom_site_fract_y
 _atom_site_fract_z
 _atom_site_occupancy
  O  O0  1  0.66666667  0.33333333  0.12766560  1
  O  O1  1  0.33333333  0.66666667  0.62766560  1
  F  F2  1  0.91991975  0.45995987  0.72664889  1
  F  F3  1  0.08008025  0.54004013  0.22664889  1
  F  F4  1  0.45995987  0.54004013  0.22664889  1
  F  F5  1  0.54004013  0.08008025  0.72664889  1
  F  F6  1  0.74521402  0.87260701  0.89552408  1
  F  F7  1  0.87260701  0.74521402  0.39552408  1
  F  F8  1  0.45995987  0.91991975  0.22664889  1
  F  F9  1  0.54004013  0.45995987  0.72664889  1
  F  F10  1  0.25478598  0.12739299  0.39552408  1
  F  F11  1  0.12739299  0.25478598  0.89552408  1
  F  F12  1  0.12739299  0.87260701  0.89552408  1
  F  F13  1  0.87260701  0.12739299  0.39552408  1
  Hg  Hg14  1  0.63544820  0.81772410  0.50026539  1
  Hg  Hg15  1  0.81772410  0.63544820  1.00026539  1
  Hg  Hg16  1  0.81772410  0.18227590  1.00026539  1
  Hg  Hg17  1  0.18227590  0.81772410  0.50026539  1
  Hg  Hg18  1  0.18227590  0.36455180  0.50026539  1
  Hg  Hg19  1  0.36455180  0.18227590  1.00026539  1
  Hg  Hg20  1  0.33333333  0.66666667  0.97591933  1
  Hg  Hg21  1  0.66666667  0.33333333  0.47591933  1
