# generated using pymatgen
data_Ce2Si3Rh
_symmetry_space_group_name_H-M   'P 1'
_cell_length_a   4.10550220
_cell_length_b   8.19991192
_cell_length_c   8.19911456
_cell_angle_alpha   120.00093806
_cell_angle_beta   90.00160758
_cell_angle_gamma   89.99806456
_symmetry_Int_Tables_number   1
_chemical_formula_structural   Ce2Si3Rh
_chemical_formula_sum   'Ce4 Si6 Rh2'
_cell_volume   239.03910657
_cell_formula_units_Z   2
loop_
 _symmetry_equiv_pos_site_id
 _symmetry_equiv_pos_as_xyz
  1  'x, y, z'
loop_
 _atom_site_type_symbol
 _atom_site_label
 _atom_site_symmetry_multiplicity
 _atom_site_fract_x
 _atom_site_fract_y
 _atom_site_fract_z
 _atom_site_occupancy
  Ce  Ce0  1  0.50001247  -0.00000156  0.99999287  1
  Ce  Ce1  1  0.50001515  0.49999785  0.49996925  1
  Ce  Ce2  1  0.49999951  0.50003158  -0.00000211  1
  Ce  Ce3  1  0.50001590  0.99998277  0.50003215  1
  Si  Si4  1  0.00000044  0.16537158  0.83462557  1
  Si  Si5  1  0.00000334  0.16535850  0.33073276  1
  Si  Si6  1  0.99999110  0.66927080  0.83462467  1
  Si  Si7  1  0.00000031  0.33073195  0.16535704  1
  Si  Si8  1  0.00000511  0.83462717  0.66925765  1
  Si  Si9  1  0.99999565  0.83463001  0.16537256  1
  Rh  Rh10  1  -0.00000278  0.33335840  0.66669860  1
  Rh  Rh11  1  0.99996382  0.66664094  0.33328799  1
