# generated using pymatgen
data_ZrGa
_symmetry_space_group_name_H-M   'P 1'
_cell_length_a   3.89647073
_cell_length_b   3.89647049
_cell_length_c   10.63232423
_cell_angle_alpha   100.55836812
_cell_angle_beta   100.55836748
_cell_angle_gamma   89.99999737
_symmetry_Int_Tables_number   1
_chemical_formula_structural   ZrGa
_chemical_formula_sum   'Zr4 Ga4'
_cell_volume   155.91092335
_cell_formula_units_Z   4
loop_
 _symmetry_equiv_pos_site_id
 _symmetry_equiv_pos_as_xyz
  1  'x, y, z'
loop_
 _atom_site_type_symbol
 _atom_site_label
 _atom_site_symmetry_multiplicity
 _atom_site_fract_x
 _atom_site_fract_y
 _atom_site_fract_z
 _atom_site_occupancy
  Zr  Zr0  1  0.32234074  0.57234074  0.14468148  1
  Zr  Zr1  1  0.92765926  0.17765926  0.35531852  1
  Zr  Zr2  1  0.07234074  0.82234074  0.64468148  1
  Zr  Zr3  1  0.67765926  0.42765926  0.85531852  1
  Ga  Ga4  1  0.53995239  0.28995239  0.57990477  1
  Ga  Ga5  1  0.46004761  0.71004761  0.42009523  1
  Ga  Ga6  1  0.78995239  0.03995239  0.07990477  1
  Ga  Ga7  1  0.21004761  0.96004761  0.92009523  1
