# generated using pymatgen
data_Zr5GaSn3
_symmetry_space_group_name_H-M   'P 1'
_cell_length_a   8.74777980
_cell_length_b   8.74777927
_cell_length_c   5.90334067
_cell_angle_alpha   90.00000000
_cell_angle_beta   90.00000000
_cell_angle_gamma   119.99999844
_symmetry_Int_Tables_number   1
_chemical_formula_structural   Zr5GaSn3
_chemical_formula_sum   'Zr10 Ga2 Sn6'
_cell_volume   391.22278764
_cell_formula_units_Z   2
loop_
 _symmetry_equiv_pos_site_id
 _symmetry_equiv_pos_as_xyz
  1  'x, y, z'
loop_
 _atom_site_type_symbol
 _atom_site_label
 _atom_site_symmetry_multiplicity
 _atom_site_fract_x
 _atom_site_fract_y
 _atom_site_fract_z
 _atom_site_occupancy
  Zr  Zr0  1  0.73329121  0.73329121  0.25000000  1
  Zr  Zr1  1  0.26670879  0.00000000  0.25000000  1
  Zr  Zr2  1  1.00000000  0.26670879  0.25000000  1
  Zr  Zr3  1  0.73329121  1.00000000  0.75000000  1
  Zr  Zr4  1  0.33333300  0.66666700  0.50000000  1
  Zr  Zr5  1  0.66666700  0.33333300  0.50000000  1
  Zr  Zr6  1  0.26670879  0.26670879  0.75000000  1
  Zr  Zr7  1  0.00000000  0.73329121  0.75000000  1
  Zr  Zr8  1  0.33333300  0.66666700  0.00000000  1
  Zr  Zr9  1  0.66666700  0.33333300  0.00000000  1
  Ga  Ga10  1  0.00000000  0.00000000  0.00000000  1
  Ga  Ga11  1  0.00000000  0.00000000  0.50000000  1
  Sn  Sn12  1  0.00000000  0.61304194  0.25000000  1
  Sn  Sn13  1  1.00000000  0.38695806  0.75000000  1
  Sn  Sn14  1  0.38695806  0.00000000  0.75000000  1
  Sn  Sn15  1  0.38695806  0.38695806  0.25000000  1
  Sn  Sn16  1  0.61304194  1.00000000  0.25000000  1
  Sn  Sn17  1  0.61304194  0.61304194  0.75000000  1
