# generated using pymatgen
data_Pr3OsO7
_symmetry_space_group_name_H-M   'P 1'
_cell_length_a   6.71048550
_cell_length_b   6.71048550
_cell_length_c   7.65575126
_cell_angle_alpha   90.00000000
_cell_angle_beta   90.00000000
_cell_angle_gamma   111.41112353
_symmetry_Int_Tables_number   1
_chemical_formula_structural   Pr3OsO7
_chemical_formula_sum   'Pr6 Os2 O14'
_cell_volume   320.95072736
_cell_formula_units_Z   2
loop_
 _symmetry_equiv_pos_site_id
 _symmetry_equiv_pos_as_xyz
  1  'x, y, z'
loop_
 _atom_site_type_symbol
 _atom_site_label
 _atom_site_symmetry_multiplicity
 _atom_site_fract_x
 _atom_site_fract_y
 _atom_site_fract_z
 _atom_site_occupancy
  O  O0  1  0.58252966  0.58252966  0.75000000  1
  O  O1  1  0.41747034  0.41747034  0.25000000  1
  O  O2  1  0.10526117  0.84194014  0.75000000  1
  O  O3  1  0.89473883  0.15805986  0.25000000  1
  O  O4  1  0.84194014  0.10526117  0.75000000  1
  O  O5  1  0.15805986  0.89473883  0.25000000  1
  O  O6  1  0.19051727  0.44013376  0.96108455  1
  O  O7  1  0.80948273  0.55986624  0.46108455  1
  O  O8  1  0.44013376  0.19051727  0.96108455  1
  O  O9  1  0.55986624  0.80948273  0.46108455  1
  O  O10  1  0.19051727  0.44013376  0.53891545  1
  O  O11  1  0.80948273  0.55986624  0.03891545  1
  O  O12  1  0.55986624  0.80948273  0.03891545  1
  O  O13  1  0.44013376  0.19051727  0.53891545  1
  Pr  Pr14  1  0.00000000  0.00000000  0.00000000  1
  Pr  Pr15  1  0.00000000  0.00000000  0.50000000  1
  Pr  Pr16  1  0.91717162  0.47242766  0.75000000  1
  Pr  Pr17  1  0.08282838  0.52757234  0.25000000  1
  Pr  Pr18  1  0.47242766  0.91717162  0.75000000  1
  Pr  Pr19  1  0.52757234  0.08282838  0.25000000  1
  Os  Os20  1  0.50000000  0.50000000  0.00000000  1
  Os  Os21  1  0.50000000  0.50000000  0.50000000  1
