# generated using pymatgen
data_La3PbI3
_symmetry_space_group_name_H-M   'P 1'
_cell_length_a   11.31934322
_cell_length_b   11.31934321
_cell_length_c   11.31934322
_cell_angle_alpha   109.47122067
_cell_angle_beta   109.47122065
_cell_angle_gamma   109.47122060
_symmetry_Int_Tables_number   1
_chemical_formula_structural   La3PbI3
_chemical_formula_sum   'La12 Pb4 I12'
_cell_volume   1116.45646936
_cell_formula_units_Z   4
loop_
 _symmetry_equiv_pos_site_id
 _symmetry_equiv_pos_as_xyz
  1  'x, y, z'
loop_
 _atom_site_type_symbol
 _atom_site_label
 _atom_site_symmetry_multiplicity
 _atom_site_fract_x
 _atom_site_fract_y
 _atom_site_fract_z
 _atom_site_occupancy
  I  I0  1  0.25000000  0.75547892  0.74452108  1
  I  I1  1  0.99452108  0.50547892  0.25000000  1
  I  I2  1  0.50547892  0.25000000  0.99452108  1
  I  I3  1  0.75547892  0.51095784  0.50547892  1
  I  I4  1  0.51095784  0.50547892  0.75547892  1
  I  I5  1  0.50547892  0.75547892  0.51095784  1
  I  I6  1  0.75547892  0.74452108  0.25000000  1
  I  I7  1  0.74452108  0.25000000  0.75547892  1
  I  I8  1  0.99452108  0.98904216  0.74452108  1
  I  I9  1  0.25000000  0.99452108  0.50547892  1
  I  I10  1  0.74452108  0.99452108  0.98904216  1
  I  I11  1  0.98904216  0.74452108  0.99452108  1
  La  La12  1  0.25698646  0.75000000  0.24301354  1
  La  La13  1  0.00698646  0.49301354  0.75000000  1
  La  La14  1  0.00698646  0.01397293  0.25698646  1
  La  La15  1  0.01397293  0.25698646  0.00698646  1
  La  La16  1  0.75000000  0.24301354  0.25698646  1
  La  La17  1  0.24301354  0.25698646  0.75000000  1
  La  La18  1  0.49301354  0.24301354  0.48602707  1
  La  La19  1  0.24301354  0.48602707  0.49301354  1
  La  La20  1  0.49301354  0.75000000  0.00698646  1
  La  La21  1  0.48602707  0.49301354  0.24301354  1
  La  La22  1  0.25698646  0.00698646  0.01397293  1
  La  La23  1  0.75000000  0.00698646  0.49301354  1
  Pb  Pb24  1  0.50000000  0.00000000  0.25000000  1
  Pb  Pb25  1  0.00000000  0.25000000  0.50000000  1
  Pb  Pb26  1  0.25000000  0.50000000  0.00000000  1
  Pb  Pb27  1  0.25000000  0.25000000  0.25000000  1
