# generated using pymatgen
data_BaCd11
_symmetry_space_group_name_H-M   'P 1'
_cell_length_a   7.90120425
_cell_length_b   9.52102912
_cell_length_c   9.52102912
_cell_angle_alpha   80.08595812
_cell_angle_beta   65.48481717
_cell_angle_gamma   65.48481712
_symmetry_Int_Tables_number   1
_chemical_formula_structural   BaCd11
_chemical_formula_sum   'Ba2 Cd22'
_cell_volume   592.92800358
_cell_formula_units_Z   2
loop_
 _symmetry_equiv_pos_site_id
 _symmetry_equiv_pos_as_xyz
  1  'x, y, z'
loop_
 _atom_site_type_symbol
 _atom_site_label
 _atom_site_symmetry_multiplicity
 _atom_site_fract_x
 _atom_site_fract_y
 _atom_site_fract_z
 _atom_site_occupancy
  Cd  Cd0  1  0.86904140  0.33368128  0.07558062  1
  Cd  Cd1  1  0.27830330  0.16631872  0.42441938  1
  Cd  Cd2  1  0.12500000  0.75000000  0.25000000  1
  Cd  Cd3  1  0.87500000  0.25000000  0.75000000  1
  Cd  Cd4  1  0.00000000  0.00000000  0.00000000  1
  Cd  Cd5  1  0.50000000  0.50000000  0.00000000  1
  Cd  Cd6  1  0.00000000  0.00000000  0.50000000  1
  Cd  Cd7  1  0.00000000  0.50000000  0.50000000  1
  Cd  Cd8  1  0.27830330  0.92441938  0.66631872  1
  Cd  Cd9  1  0.44462202  0.83368128  0.92441938  1
  Cd  Cd10  1  0.20272268  0.66631872  0.57558062  1
  Cd  Cd11  1  0.86904140  0.57558062  0.83368128  1
  Cd  Cd12  1  0.79727732  0.92441938  0.83368128  1
  Cd  Cd13  1  0.55537798  0.57558062  0.66631872  1
  Cd  Cd14  1  0.72169670  0.83368128  0.57558062  1
  Cd  Cd15  1  0.13095860  0.66631872  0.92441938  1
  Cd  Cd16  1  0.72169670  0.07558062  0.33368128  1
  Cd  Cd17  1  0.55537798  0.16631872  0.07558062  1
  Cd  Cd18  1  0.79727732  0.33368128  0.42441938  1
  Cd  Cd19  1  0.13095860  0.42441938  0.16631872  1
  Cd  Cd20  1  0.20272268  0.07558062  0.16631872  1
  Cd  Cd21  1  0.44462202  0.42441938  0.33368128  1
  Ba  Ba22  1  0.62500000  0.75000000  0.25000000  1
  Ba  Ba23  1  0.37500000  0.25000000  0.75000000  1
