# generated using pymatgen
data_LiMn2P3O10
_symmetry_space_group_name_H-M   'P 1'
_cell_length_a   4.70913145
_cell_length_b   8.81930602
_cell_length_c   9.23330522
_cell_angle_alpha   90.00000000
_cell_angle_beta   97.38781544
_cell_angle_gamma   90.00000000
_symmetry_Int_Tables_number   1
_chemical_formula_structural   LiMn2P3O10
_chemical_formula_sum   'Li2 Mn4 P6 O20'
_cell_volume   380.28753215
_cell_formula_units_Z   2
loop_
 _symmetry_equiv_pos_site_id
 _symmetry_equiv_pos_as_xyz
  1  'x, y, z'
loop_
 _atom_site_type_symbol
 _atom_site_label
 _atom_site_symmetry_multiplicity
 _atom_site_fract_x
 _atom_site_fract_y
 _atom_site_fract_z
 _atom_site_occupancy
  Li  Li0  1  0.00000000  0.00000000  0.00000000  1
  Li  Li1  1  0.00000000  0.49999964  0.00000000  1
  O  O2  1  0.23047573  0.89535142  0.48165299  1
  O  O3  1  0.84036954  0.60416530  0.18256345  1
  O  O4  1  0.74756130  0.24999982  0.23347893  1
  O  O5  1  0.76952334  0.39535065  0.51834678  1
  O  O6  1  0.15962953  0.10416566  0.81743632  1
  O  O7  1  0.15962953  0.39583397  0.81743632  1
  O  O8  1  0.25243991  0.74999945  0.76652098  1
  O  O9  1  0.23047573  0.60464862  0.48165299  1
  O  O10  1  0.84036954  0.89583475  0.18256345  1
  O  O11  1  0.30273049  0.24999982  0.44737510  1
  O  O12  1  0.28190103  0.10507126  0.15055725  1
  O  O13  1  0.28190103  0.39492837  0.15055725  1
  O  O14  1  0.55191093  0.24999982  0.97211964  1
  O  O15  1  0.44616292  0.74999945  0.29023768  1
  O  O16  1  0.76952334  0.10464899  0.51834678  1
  O  O17  1  0.44808814  0.74999945  0.02788012  1
  O  O18  1  0.71810018  0.60507204  0.84944267  1
  O  O19  1  0.71810018  0.89492801  0.84944267  1
  O  O20  1  0.69726858  0.74999945  0.55262467  1
  O  O21  1  0.55383615  0.24999982  0.70976209  1
  P  P22  1  0.67041322  0.74999945  0.17587878  1
  P  P23  1  0.59884819  0.24999982  0.53747663  1
  P  P24  1  0.45583865  0.24999982  0.13829731  1
  P  P25  1  0.54416256  0.74999945  0.86170369  1
  P  P26  1  0.32958585  0.24999982  0.82412099  1
  P  P27  1  0.40115302  0.74999945  0.46252328  1
  Mn  Mn28  1  0.03416810  0.06506179  0.33215795  1
  Mn  Mn29  1  0.03416810  0.43493898  0.33215795  1
  Mn  Mn30  1  0.96583096  0.56506143  0.66784182  1
  Mn  Mn31  1  0.96583096  0.93493862  0.66784182  1
