# generated using pymatgen
data_Na3FeO3
_symmetry_space_group_name_H-M   'P 1'
_cell_length_a   5.85290300
_cell_length_b   5.89085475
_cell_length_c   12.78041222
_cell_angle_alpha   90.00000000
_cell_angle_beta   90.00000000
_cell_angle_gamma   115.48670608
_symmetry_Int_Tables_number   1
_chemical_formula_structural   Na3FeO3
_chemical_formula_sum   'Na12 Fe4 O12'
_cell_volume   397.76887738
_cell_formula_units_Z   4
loop_
 _symmetry_equiv_pos_site_id
 _symmetry_equiv_pos_as_xyz
  1  'x, y, z'
loop_
 _atom_site_type_symbol
 _atom_site_label
 _atom_site_symmetry_multiplicity
 _atom_site_fract_x
 _atom_site_fract_y
 _atom_site_fract_z
 _atom_site_occupancy
  O  O0  1  0.57576339  0.54824915  0.77153060  1
  O  O1  1  0.92423656  0.95175132  0.27153047  1
  O  O2  1  0.42423715  0.45175116  0.22846965  1
  O  O3  1  0.07576226  0.04824900  0.72846977  1
  O  O4  1  0.50477275  0.95142042  0.12708169  1
  O  O5  1  0.99522720  0.54858005  0.62708182  1
  O  O6  1  0.12339095  0.30161135  0.93764792  1
  O  O7  1  0.37661017  0.19838880  0.43764780  1
  O  O8  1  0.87660959  0.69838896  0.06235233  1
  O  O9  1  0.62339036  0.80161151  0.56235167  1
  O  O10  1  0.49522779  0.04857989  0.87291778  1
  O  O11  1  0.00477334  0.45142025  0.37291843  1
  Na  Na12  1  0.85750108  0.30350500  0.77779684  1
  Na  Na13  1  0.64249898  0.19649511  0.27779672  1
  Na  Na14  1  0.24371891  0.78032767  0.48487594  1
  Na  Na15  1  0.35750156  0.80350520  0.72220275  1
  Na  Na16  1  0.74371843  0.28032747  0.01512340  1
  Na  Na17  1  0.75628081  0.21967076  0.51512352  1
  Na  Na18  1  0.28779010  0.35707082  0.59566166  1
  Na  Na19  1  0.21221102  0.14292932  0.09566153  1
  Na  Na20  1  0.71221044  0.64292948  0.40433781  1
  Na  Na21  1  0.78778951  0.85707099  0.90433793  1
  Na  Na22  1  0.25627958  0.71967098  0.98487607  1
  Na  Na23  1  0.14249946  0.69649531  0.22220262  1
  Fe  Fe24  1  0.32376594  0.24241879  0.83572098  1
  Fe  Fe25  1  0.17623347  0.25758137  0.33572086  1
  Fe  Fe26  1  0.67623289  0.75758153  0.16427848  1
  Fe  Fe27  1  0.82376625  0.74241706  0.66427861  1
