# generated using pymatgen
data_RbInSe2
_symmetry_space_group_name_H-M   'P 1'
_cell_length_a   8.31518334
_cell_length_b   8.31518334
_cell_length_c   16.57571542
_cell_angle_alpha   82.82389604
_cell_angle_beta   82.82389602
_cell_angle_gamma   89.97558873
_symmetry_Int_Tables_number   1
_chemical_formula_structural   RbInSe2
_chemical_formula_sum   'Rb8 In8 Se16'
_cell_volume   1128.06406062
_cell_formula_units_Z   8
loop_
 _symmetry_equiv_pos_site_id
 _symmetry_equiv_pos_as_xyz
  1  'x, y, z'
loop_
 _atom_site_type_symbol
 _atom_site_label
 _atom_site_symmetry_multiplicity
 _atom_site_fract_x
 _atom_site_fract_y
 _atom_site_fract_z
 _atom_site_occupancy
  Se  Se0  1  0.42381687  0.57618313  0.25000000  1
  Se  Se1  1  0.57618313  0.42381687  0.75000000  1
  Se  Se2  1  0.95104922  0.04895078  0.25000000  1
  Se  Se3  1  0.04895078  0.95104922  0.75000000  1
  Se  Se4  1  0.95125437  0.57608025  0.25009133  1
  Se  Se5  1  0.42391975  0.04874563  0.24990867  1
  Se  Se6  1  0.04874563  0.42391975  0.74990867  1
  Se  Se7  1  0.57608025  0.95125437  0.75009133  1
  Se  Se8  1  0.14055859  0.26509246  0.43860455  1
  Se  Se9  1  0.73490754  0.85944141  0.06139545  1
  Se  Se10  1  0.85944141  0.73490754  0.56139545  1
  Se  Se11  1  0.36020441  0.73475465  0.56056724  1
  Se  Se12  1  0.73475465  0.36020441  0.06056724  1
  Se  Se13  1  0.63979559  0.26524535  0.43943276  1
  Se  Se14  1  0.26524535  0.63979559  0.93943276  1
  Se  Se15  1  0.26509246  0.14055859  0.93860455  1
  Rb  Rb16  1  0.15220609  0.77779926  0.39000175  1
  Rb  Rb17  1  0.77853809  0.65371100  0.88611523  1
  Rb  Rb18  1  0.65371100  0.77853809  0.38611523  1
  Rb  Rb19  1  0.22146191  0.34628900  0.11388477  1
  Rb  Rb20  1  0.77779926  0.15220609  0.89000175  1
  Rb  Rb21  1  0.84779391  0.22220074  0.60999825  1
  Rb  Rb22  1  0.22220074  0.84779391  0.10999825  1
  Rb  Rb23  1  0.34628900  0.22146191  0.61388477  1
  In  In24  1  0.29001786  0.91350236  0.83976871  1
  In  In25  1  0.08649764  0.70998214  0.66023129  1
  In  In26  1  0.70998214  0.08649764  0.16023129  1
  In  In27  1  0.91350236  0.29001786  0.33976871  1
  In  In28  1  0.58351880  0.70984634  0.66053106  1
  In  In29  1  0.29015366  0.41648120  0.83946894  1
  In  In30  1  0.41648120  0.29015366  0.33946894  1
  In  In31  1  0.70984634  0.58351880  0.16053106  1
