# generated using pymatgen
data_Bi(IO3)3
_symmetry_space_group_name_H-M   'P 1'
_cell_length_a   6.11417760
_cell_length_b   8.97515769
_cell_length_c   15.53057358
_cell_angle_alpha   96.61039015
_cell_angle_beta   90.00000000
_cell_angle_gamma   90.00000000
_symmetry_Int_Tables_number   1
_chemical_formula_structural   Bi(IO3)3
_chemical_formula_sum   'Bi4 I12 O36'
_cell_volume   846.58537637
_cell_formula_units_Z   4
loop_
 _symmetry_equiv_pos_site_id
 _symmetry_equiv_pos_as_xyz
  1  'x, y, z'
loop_
 _atom_site_type_symbol
 _atom_site_label
 _atom_site_symmetry_multiplicity
 _atom_site_fract_x
 _atom_site_fract_y
 _atom_site_fract_z
 _atom_site_occupancy
  O  O0  1  0.32171791  0.09020269  0.24505965  1
  O  O1  1  0.82171791  0.40979731  0.25494035  1
  O  O2  1  0.67828209  0.90979731  0.75494035  1
  O  O3  1  0.17828209  0.59020269  0.74505965  1
  O  O4  1  0.58655796  0.95089831  0.11628010  1
  O  O5  1  0.08655796  0.54910169  0.38371990  1
  O  O6  1  0.41344204  0.04910169  0.88371990  1
  O  O7  1  0.91344204  0.45089831  0.61628010  1
  O  O8  1  0.50678647  0.26393070  0.13391889  1
  O  O9  1  0.00678647  0.23606930  0.36608111  1
  O  O10  1  0.49321353  0.73606930  0.86608111  1
  O  O11  1  0.99321353  0.76393070  0.63391889  1
  O  O12  1  0.97140597  0.21632285  0.11979031  1
  O  O13  1  0.47140597  0.28367715  0.38020969  1
  O  O14  1  0.02859403  0.78367715  0.88020969  1
  O  O15  1  0.52859403  0.71632285  0.61979031  1
  O  O16  1  0.89949574  0.85960316  0.46370852  1
  O  O17  1  0.39949574  0.64039684  0.03629148  1
  O  O18  1  0.10050426  0.14039684  0.53629148  1
  O  O19  1  0.60050426  0.35960316  0.96370852  1
  O  O20  1  0.05399403  0.86433099  0.30142051  1
  O  O21  1  0.55399403  0.63566901  0.19857949  1
  O  O22  1  0.94600597  0.13566901  0.69857949  1
  O  O23  1  0.44600597  0.36433099  0.80142051  1
  O  O24  1  0.61330123  0.93021986  0.32868059  1
  O  O25  1  0.11330123  0.56978014  0.17131941  1
  O  O26  1  0.38669877  0.06978014  0.67131941  1
  O  O27  1  0.88669877  0.43021986  0.82868059  1
  O  O28  1  0.39699678  0.85665285  0.49030234  1
  O  O29  1  0.89699678  0.64334715  0.00969766  1
  O  O30  1  0.60300322  0.14334715  0.50969766  1
  O  O31  1  0.10300322  0.35665285  0.99030234  1
  O  O32  1  0.58223298  0.58735433  0.44497466  1
  O  O33  1  0.08223298  0.91264567  0.05502534  1
  O  O34  1  0.41776702  0.41264567  0.55502534  1
  O  O35  1  0.91776702  0.08735433  0.94497466  1
  I  I36  1  0.59651793  0.11364893  0.19864603  1
  I  I37  1  0.09651793  0.38635107  0.30135397  1
  I  I38  1  0.40348207  0.88635107  0.80135397  1
  I  I39  1  0.90348207  0.61364893  0.69864603  1
  I  I40  1  0.13708378  0.16414210  0.02074455  1
  I  I41  1  0.63708378  0.33585790  0.47925545  1
  I  I42  1  0.86291622  0.83585790  0.97925545  1
  I  I43  1  0.36291622  0.66414210  0.52074455  1
  I  I44  1  0.68406794  0.28649596  0.85410671  1
  I  I45  1  0.18406794  0.21350404  0.64589329  1
  I  I46  1  0.31593206  0.71350404  0.14589329  1
  I  I47  1  0.81593206  0.78649596  0.35410671  1
  Bi  Bi48  1  0.78214381  0.45309657  0.10535479  1
  Bi  Bi49  1  0.28214381  0.04690343  0.39464521  1
  Bi  Bi50  1  0.21785619  0.54690343  0.89464521  1
  Bi  Bi51  1  0.71785619  0.95309657  0.60535479  1
