# generated using pymatgen
data_Tb2Mn3Al
_symmetry_space_group_name_H-M   'P 1'
_cell_length_a   5.44826991
_cell_length_b   5.33590778
_cell_length_c   5.44826991
_cell_angle_alpha   90.00000000
_cell_angle_beta   60.00000000
_cell_angle_gamma   120.69906374
_symmetry_Int_Tables_number   1
_chemical_formula_structural   Tb2Mn3Al
_chemical_formula_sum   'Tb2 Mn3 Al1'
_cell_volume   110.80003582
_cell_formula_units_Z   1
loop_
 _symmetry_equiv_pos_site_id
 _symmetry_equiv_pos_as_xyz
  1  'x, y, z'
loop_
 _atom_site_type_symbol
 _atom_site_label
 _atom_site_symmetry_multiplicity
 _atom_site_fract_x
 _atom_site_fract_y
 _atom_site_fract_z
 _atom_site_occupancy
  Tb  Tb0  1  0.74763365  0.37145047  0.37618318  1
  Tb  Tb1  1  0.25236635  0.62854953  0.62381682  1
  Mn  Mn2  1  0.50000000  -0.00000000  0.00000000  1
  Mn  Mn3  1  -0.00000000  -0.00000000  0.50000000  1
  Mn  Mn4  1  -0.00000000  -0.00000000  0.00000000  1
  Al  Al5  1  0.50000000  0.50000000  0.00000000  1
