# generated using pymatgen
data_CsNO2
_symmetry_space_group_name_H-M   'P 1'
_cell_length_a   6.07636725
_cell_length_b   6.07636726
_cell_length_c   8.09620341
_cell_angle_alpha   90.00000000
_cell_angle_beta   90.00000000
_cell_angle_gamma   120.00000000
_symmetry_Int_Tables_number   1
_chemical_formula_structural   CsNO2
_chemical_formula_sum   'Cs3 N3 O6'
_cell_volume   258.88093710
_cell_formula_units_Z   3
loop_
 _symmetry_equiv_pos_site_id
 _symmetry_equiv_pos_as_xyz
  1  'x, y, z'
loop_
 _atom_site_type_symbol
 _atom_site_label
 _atom_site_symmetry_multiplicity
 _atom_site_fract_x
 _atom_site_fract_y
 _atom_site_fract_z
 _atom_site_occupancy
  N  N0  1  0.69137123  0.00000000  0.83333333  1
  N  N1  1  0.00000000  0.69137123  0.16666667  1
  N  N2  1  0.30862877  0.30862877  0.50000000  1
  O  O3  1  0.89805298  0.52800579  0.05165589  1
  O  O4  1  0.47199421  0.37004718  0.38498922  1
  O  O5  1  0.62995282  0.10194702  0.71832255  1
  O  O6  1  0.37004718  0.47199421  0.61501078  1
  O  O7  1  0.52800579  0.89805298  0.94834411  1
  O  O8  1  0.10194702  0.62995282  0.28167745  1
  Cs  Cs9  1  0.00000000  0.69064628  0.66666667  1
  Cs  Cs10  1  0.69064628  0.00000000  0.33333333  1
  Cs  Cs11  1  0.30935372  0.30935372  0.00000000  1
