# generated using pymatgen
data_Pr2Te3
_symmetry_space_group_name_H-M   'P 1'
_cell_length_a   24.93996877
_cell_length_b   9.58991914
_cell_length_c   9.58991830
_cell_angle_alpha   90.00000141
_cell_angle_beta   54.77560734
_cell_angle_gamma   54.77561088
_symmetry_Int_Tables_number   1
_chemical_formula_structural   Pr2Te3
_chemical_formula_sum   'Pr16 Te24'
_cell_volume   1326.84672926
_cell_formula_units_Z   8
loop_
 _symmetry_equiv_pos_site_id
 _symmetry_equiv_pos_as_xyz
  1  'x, y, z'
loop_
 _atom_site_type_symbol
 _atom_site_label
 _atom_site_symmetry_multiplicity
 _atom_site_fract_x
 _atom_site_fract_y
 _atom_site_fract_z
 _atom_site_occupancy
  Pr  Pr0  1  0.08116174  0.62825689  0.37825689  1
  Pr  Pr1  1  0.16666700  0.25000000  0.63051342  1
  Pr  Pr2  1  0.25217126  0.87174311  0.12174311  1
  Pr  Pr3  1  0.33535004  0.37689201  0.25282812  1
  Pr  Pr4  1  0.33535004  0.11705687  0.74112075  1
  Pr  Pr5  1  0.16666700  0.75000000  0.86948658  1
  Pr  Pr6  1  0.49798296  0.25887925  0.62310799  1
  Pr  Pr7  1  0.58116174  0.87825689  0.12825689  1
  Pr  Pr8  1  0.66666700  0.36948658  0.25000000  1
  Pr  Pr9  1  0.66666700  0.13051342  0.75000000  1
  Pr  Pr10  1  0.49798296  0.74717188  0.88294313  1
  Pr  Pr11  1  0.75217126  0.62174311  0.37174311  1
  Pr  Pr12  1  0.83535004  0.24112075  0.61705687  1
  Pr  Pr13  1  0.99798296  0.38294313  0.24717188  1
  Pr  Pr14  1  0.99798296  0.12310799  0.75887925  1
  Pr  Pr15  1  0.83535004  0.75282812  0.87689201  1
  Te  Te16  1  0.05167609  -0.00023420  0.34777476  1
  Te  Te17  1  0.12099068  0.49358674  0.99577486  1
  Te  Te18  1  0.05167609  0.34520493  0.49719596  1
  Te  Te19  1  0.28165691  0.15479507  0.15222524  1
  Te  Te20  1  0.28165691  0.50023420  0.00280404  1
  Te  Te21  1  0.21234232  0.00641326  0.85874790  1
  Te  Te22  1  0.12099068  0.64344022  0.64125210  1
  Te  Te23  1  0.38526673  0.99837667  0.34119923  1
  Te  Te24  1  0.21234232  0.85655978  0.50422514  1
  Te  Te25  1  0.44806727  0.49699842  0.00162333  1
  Te  Te26  1  0.38526673  0.34582415  0.50300158  1
  Te  Te27  1  0.62099068  0.14125210  0.14344022  1
  Te  Te28  1  0.62099068  0.49577486  0.99358674  1
  Te  Te29  1  0.55167609  0.99719596  0.84520493  1
  Te  Te30  1  0.44806727  0.65880077  0.65417585  1
  Te  Te31  1  0.71234232  0.00422514  0.35655978  1
  Te  Te32  1  0.55167609  0.84777476  0.49976580  1
  Te  Te33  1  0.78165691  0.50280404  1.00023420  1
  Te  Te34  1  0.71234232  0.35874790  0.50641326  1
  Te  Te35  1  0.94806727  0.15417585  0.15880077  1
  Te  Te36  1  0.94806727  0.50162333  0.99699842  1
  Te  Te37  1  0.88526673  0.00300158  0.84582415  1
  Te  Te38  1  0.78165691  0.65222524  0.65479507  1
  Te  Te39  1  0.88526673  0.84119923  0.49837667  1
