# generated using pymatgen
data_Cu3AsS4
_symmetry_space_group_name_H-M   'P 1'
_cell_length_a   6.17321420
_cell_length_b   6.46220634
_cell_length_c   7.44549560
_cell_angle_alpha   90.00000000
_cell_angle_beta   90.00000000
_cell_angle_gamma   90.00000000
_symmetry_Int_Tables_number   1
_chemical_formula_structural   Cu3AsS4
_chemical_formula_sum   'Cu6 As2 S8'
_cell_volume   297.02005821
_cell_formula_units_Z   2
loop_
 _symmetry_equiv_pos_site_id
 _symmetry_equiv_pos_as_xyz
  1  'x, y, z'
loop_
 _atom_site_type_symbol
 _atom_site_label
 _atom_site_symmetry_multiplicity
 _atom_site_fract_x
 _atom_site_fract_y
 _atom_site_fract_z
 _atom_site_occupancy
  S  S0  1  0.62241300  0.33812551  0.75058882  1
  S  S1  1  0.12241300  0.66187449  0.74941118  1
  S  S2  1  0.12241300  0.66187449  0.25058882  1
  S  S3  1  0.62241300  0.33812551  0.24941118  1
  S  S4  1  0.62490936  0.83995251  0.50000000  1
  S  S5  1  0.12490936  0.16004749  0.00000000  1
  S  S6  1  0.62919702  0.82745240  0.00000000  1
  S  S7  1  0.12919702  0.17254760  0.50000000  1
  Cu  Cu8  1  0.99693153  0.84005532  0.50000000  1
  Cu  Cu9  1  0.49274986  0.67141204  0.74964630  1
  Cu  Cu10  1  0.49274986  0.67141204  0.25035370  1
  Cu  Cu11  1  0.99274986  0.32858796  0.24964630  1
  Cu  Cu12  1  0.49693153  0.15994468  0.00000000  1
  Cu  Cu13  1  0.99274986  0.32858796  0.75035370  1
  As  As14  1  0.49875637  0.16990053  0.50000000  1
  As  As15  1  0.99875637  0.83009947  0.00000000  1
