# generated using pymatgen
data_SbPO4
_symmetry_space_group_name_H-M   'P 1'
_cell_length_a   4.87339245
_cell_length_b   5.28824505
_cell_length_c   6.88489953
_cell_angle_alpha   90.00000000
_cell_angle_beta   90.00000000
_cell_angle_gamma   96.61444538
_symmetry_Int_Tables_number   1
_chemical_formula_structural   SbPO4
_chemical_formula_sum   'Sb2 P2 O8'
_cell_volume   176.25446651
_cell_formula_units_Z   2
loop_
 _symmetry_equiv_pos_site_id
 _symmetry_equiv_pos_as_xyz
  1  'x, y, z'
loop_
 _atom_site_type_symbol
 _atom_site_label
 _atom_site_symmetry_multiplicity
 _atom_site_fract_x
 _atom_site_fract_y
 _atom_site_fract_z
 _atom_site_occupancy
  O  O0  1  0.82447693  0.76960059  0.42913304  1
  O  O1  1  0.17552307  0.23039941  0.92913304  1
  O  O2  1  0.17552307  0.23039941  0.57086696  1
  O  O3  1  0.82447693  0.76960059  0.07086696  1
  O  O4  1  0.82545269  0.33958780  0.25000000  1
  O  O5  1  0.17454731  0.66041220  0.75000000  1
  O  O6  1  0.40170872  0.55478133  0.25000000  1
  O  O7  1  0.59829128  0.44521867  0.75000000  1
  P  P8  1  0.27550668  0.38799766  0.75000000  1
  P  P9  1  0.72449332  0.61200234  0.25000000  1
  Sb  Sb10  1  0.80874763  0.80832307  0.75000000  1
  Sb  Sb11  1  0.19125237  0.19167693  0.25000000  1
