# generated using pymatgen
data_Sr3Ti2O7
_symmetry_space_group_name_H-M   'P 1'
_cell_length_a   3.94090767
_cell_length_b   3.94090768
_cell_length_c   10.62778180
_cell_angle_alpha   100.68480032
_cell_angle_beta   100.68480035
_cell_angle_gamma   89.99999995
_symmetry_Int_Tables_number   1
_chemical_formula_structural   Sr3Ti2O7
_chemical_formula_sum   'Sr3 Ti2 O7'
_cell_volume   159.28252260
_cell_formula_units_Z   1
loop_
 _symmetry_equiv_pos_site_id
 _symmetry_equiv_pos_as_xyz
  1  'x, y, z'
loop_
 _atom_site_type_symbol
 _atom_site_label
 _atom_site_symmetry_multiplicity
 _atom_site_fract_x
 _atom_site_fract_y
 _atom_site_fract_z
 _atom_site_occupancy
  O  O0  1  0.90366059  0.40366059  0.80732118  1
  O  O1  1  0.80619194  0.80619194  0.61238387  1
  O  O2  1  0.00000000  0.00000000  0.00000000  1
  O  O3  1  0.59633941  0.09633941  0.19267882  1
  O  O4  1  0.09633941  0.59633941  0.19267882  1
  O  O5  1  0.40366059  0.90366059  0.80732118  1
  O  O6  1  0.19380806  0.19380806  0.38761613  1
  Ti  Ti7  1  0.09776810  0.09776810  0.19553619  1
  Ti  Ti8  1  0.90223190  0.90223190  0.80446381  1
  Sr  Sr9  1  0.31573682  0.31573682  0.63147363  1
  Sr  Sr10  1  0.50000000  0.50000000  0.00000000  1
  Sr  Sr11  1  0.68426318  0.68426318  0.36852637  1
