# generated using pymatgen
data_Mg(SbO3)2
_symmetry_space_group_name_H-M   'P 1'
_cell_length_a   4.72889109
_cell_length_b   4.72889109
_cell_length_c   9.38538260
_cell_angle_alpha   90.00000000
_cell_angle_beta   90.00000000
_cell_angle_gamma   90.00000000
_symmetry_Int_Tables_number   1
_chemical_formula_structural   Mg(SbO3)2
_chemical_formula_sum   'Mg2 Sb4 O12'
_cell_volume   209.87978254
_cell_formula_units_Z   2
loop_
 _symmetry_equiv_pos_site_id
 _symmetry_equiv_pos_as_xyz
  1  'x, y, z'
loop_
 _atom_site_type_symbol
 _atom_site_label
 _atom_site_symmetry_multiplicity
 _atom_site_fract_x
 _atom_site_fract_y
 _atom_site_fract_z
 _atom_site_occupancy
  O  O0  1  0.69759945  0.69759945  0.67142872  1
  O  O1  1  0.30240055  0.30240055  0.67142872  1
  O  O2  1  0.69759945  0.69759945  0.32857128  1
  O  O3  1  0.19759945  0.80240055  0.17142872  1
  O  O4  1  0.80240055  0.19759945  0.17142872  1
  O  O5  1  0.80240055  0.19759945  0.82857128  1
  O  O6  1  0.31018019  0.31018019  0.00000000  1
  O  O7  1  0.18981981  0.81018019  0.50000000  1
  O  O8  1  0.81018019  0.18981981  0.50000000  1
  O  O9  1  0.68981981  0.68981981  0.00000000  1
  O  O10  1  0.30240055  0.30240055  0.32857128  1
  O  O11  1  0.19759945  0.80240055  0.82857128  1
  Mg  Mg12  1  0.00000000  0.00000000  0.00000000  1
  Mg  Mg13  1  0.50000000  0.50000000  0.50000000  1
  Sb  Sb14  1  0.50000000  0.50000000  0.83233784  1
  Sb  Sb15  1  0.00000000  0.00000000  0.33233784  1
  Sb  Sb16  1  0.50000000  0.50000000  0.16766216  1
  Sb  Sb17  1  0.00000000  0.00000000  0.66766216  1
