# generated using pymatgen
data_KAuS5
_symmetry_space_group_name_H-M   'P 1'
_cell_length_a   8.96847382
_cell_length_b   10.60600140
_cell_length_c   10.60600140
_cell_angle_alpha   62.63649602
_cell_angle_beta   64.98839383
_cell_angle_gamma   64.98839380
_symmetry_Int_Tables_number   1
_chemical_formula_structural   KAuS5
_chemical_formula_sum   'K4 Au4 S20'
_cell_volume   778.53579696
_cell_formula_units_Z   4
loop_
 _symmetry_equiv_pos_site_id
 _symmetry_equiv_pos_as_xyz
  1  'x, y, z'
loop_
 _atom_site_type_symbol
 _atom_site_label
 _atom_site_symmetry_multiplicity
 _atom_site_fract_x
 _atom_site_fract_y
 _atom_site_fract_z
 _atom_site_occupancy
  S  S0  1  0.18773938  0.42329006  0.79102292  1
  S  S1  1  0.90205236  0.07670994  0.70897708  1
  S  S2  1  0.31226062  0.70897708  0.07670994  1
  S  S3  1  0.59794764  0.79102292  0.42329006  1
  S  S4  1  0.81226062  0.57670994  0.20897708  1
  S  S5  1  0.09794764  0.92329006  0.29102292  1
  S  S6  1  0.68773938  0.29102292  0.92329006  1
  S  S7  1  0.40205236  0.20897708  0.57670994  1
  S  S8  1  0.45795176  0.98738217  0.71153006  1
  S  S9  1  0.65686398  0.51261783  0.78846994  1
  S  S10  1  0.04204824  0.78846994  0.51261783  1
  S  S11  1  0.84313602  0.71153006  0.98738217  1
  S  S12  1  0.54204824  0.01261783  0.28846994  1
  S  S13  1  0.34313602  0.48738217  0.21153006  1
  S  S14  1  0.95795176  0.21153006  0.48738217  1
  S  S15  1  0.15686398  0.28846994  0.01261783  1
  S  S16  1  0.42717371  0.33716859  0.66283141  1
  S  S17  1  0.92717371  0.16283141  0.83716859  1
  S  S18  1  0.07282629  0.83716859  0.16283141  1
  S  S19  1  0.57282629  0.66283141  0.33716859  1
  K  K20  1  0.75000000  0.25000000  0.25000000  1
  K  K21  1  0.25000000  0.75000000  0.75000000  1
  K  K22  1  0.50000000  0.00000000  0.00000000  1
  K  K23  1  0.00000000  0.50000000  0.50000000  1
  Au  Au24  1  0.75000000  0.88686604  0.61313396  1
  Au  Au25  1  0.75000000  0.61313396  0.88686604  1
  Au  Au26  1  0.25000000  0.11313396  0.38686604  1
  Au  Au27  1  0.25000000  0.38686604  0.11313396  1
