# generated using pymatgen
data_U12Ir4Se31
_symmetry_space_group_name_H-M   'P 1'
_cell_length_a   11.86193858
_cell_length_b   11.86193763
_cell_length_c   11.86193778
_cell_angle_alpha   109.55181006
_cell_angle_beta   109.55180991
_cell_angle_gamma   109.31016125
_symmetry_Int_Tables_number   1
_chemical_formula_structural   U12Ir4Se31
_chemical_formula_sum   'U12 Ir4 Se31'
_cell_volume   1284.82059146
_cell_formula_units_Z   1
loop_
 _symmetry_equiv_pos_site_id
 _symmetry_equiv_pos_as_xyz
  1  'x, y, z'
loop_
 _atom_site_type_symbol
 _atom_site_label
 _atom_site_symmetry_multiplicity
 _atom_site_fract_x
 _atom_site_fract_y
 _atom_site_fract_z
 _atom_site_occupancy
  Ir  Ir0  1  0.00000000  0.50000000  0.00000000  1
  Ir  Ir1  1  0.50000000  0.50000000  0.50000000  1
  Ir  Ir2  1  0.50000000  0.00000000  0.00000000  1
  Ir  Ir3  1  0.00000000  0.00000000  0.50000000  1
  Se  Se4  1  0.00071093  0.56352749  0.81817821  1
  Se  Se5  1  0.99928907  0.81746729  0.56281656  1
  Se  Se6  1  0.25465073  0.81746729  0.81817821  1
  Se  Se7  1  0.25000000  0.75000000  0.50000000  1
  Se  Se8  1  0.23450196  0.50000000  0.73450196  1
  Se  Se9  1  0.18818053  0.18818053  0.74875365  1
  Se  Se10  1  0.18253271  0.74534927  0.18182179  1
  Se  Se11  1  0.25465073  0.43647251  0.43718344  1
  Se  Se12  1  0.18818053  0.43942688  0.00000000  1
  Se  Se13  1  0.18253271  0.00071093  0.43718344  1
  Se  Se14  1  0.43647251  0.99928907  0.18182179  1
  Se  Se15  1  0.56057312  0.56057312  0.74875365  1
  Se  Se16  1  0.56352749  0.74534927  0.56281656  1
  Se  Se17  1  0.50000000  0.76549804  0.26549804  1
  Se  Se18  1  0.50000000  0.23450196  0.73450196  1
  Se  Se19  1  0.43647251  0.25465073  0.43718344  1
  Se  Se20  1  0.43942688  0.43942688  0.25124635  1
  Se  Se21  1  0.56352749  0.00071093  0.81817821  1
  Se  Se22  1  0.56057312  0.81181947  0.00000000  1
  Se  Se23  1  0.81746729  0.99928907  0.56281656  1
  Se  Se24  1  0.50000000  0.50000000  0.00000000  1
  Se  Se25  1  0.74534927  0.56352749  0.56281656  1
  Se  Se26  1  0.43942688  0.18818053  1.00000000  1
  Se  Se27  1  0.81746729  0.25465073  0.81817821  1
  Se  Se28  1  0.81181947  0.81181947  0.25124635  1
  Se  Se29  1  0.76549804  0.50000000  0.26549804  1
  Se  Se30  1  0.75000000  0.25000000  0.50000000  1
  Se  Se31  1  0.74534927  0.18253271  0.18182179  1
  Se  Se32  1  0.81181947  0.56057312  1.00000000  1
  Se  Se33  1  0.00071093  0.18253271  0.43718344  1
  Se  Se34  1  0.99928907  0.43647251  0.18182179  1
  U  U35  1  0.99906717  0.29501565  0.70405153  1
  U  U36  1  0.40903588  0.70498435  0.70405153  1
  U  U37  1  0.30148310  0.30148310  0.60296620  1
  U  U38  1  0.29501565  0.59096412  0.29594847  1
  U  U39  1  0.29501565  0.99906717  0.70405153  1
  U  U40  1  0.30148310  0.69851690  0.00000000  1
  U  U41  1  0.70498435  0.00093283  0.29594847  1
  U  U42  1  0.70498435  0.40903588  0.70405153  1
  U  U43  1  0.69851690  0.69851690  0.39703380  1
  U  U44  1  0.59096412  0.29501565  0.29594847  1
  U  U45  1  0.69851690  0.30148310  1.00000000  1
  U  U46  1  0.00093283  0.70498435  0.29594847  1
