# generated using pymatgen
data_Ca2MnIrO6
_symmetry_space_group_name_H-M   'P 1'
_cell_length_a   5.46483240
_cell_length_b   5.67188302
_cell_length_c   7.73748028
_cell_angle_alpha   90.00000000
_cell_angle_beta   89.80453274
_cell_angle_gamma   90.00000000
_symmetry_Int_Tables_number   1
_chemical_formula_structural   Ca2MnIrO6
_chemical_formula_sum   'Ca4 Mn2 Ir2 O12'
_cell_volume   239.82869245
_cell_formula_units_Z   2
loop_
 _symmetry_equiv_pos_site_id
 _symmetry_equiv_pos_as_xyz
  1  'x, y, z'
loop_
 _atom_site_type_symbol
 _atom_site_label
 _atom_site_symmetry_multiplicity
 _atom_site_fract_x
 _atom_site_fract_y
 _atom_site_fract_z
 _atom_site_occupancy
  Ca  Ca0  1  0.01359050  0.94046694  0.25061926  1
  Ca  Ca1  1  0.48640950  0.44046694  0.24938074  1
  Ca  Ca2  1  0.51359050  0.55953306  0.75061926  1
  Ca  Ca3  1  0.98640950  0.05953306  0.74938074  1
  Mn  Mn4  1  0.00000000  0.50000000  0.00000000  1
  Mn  Mn5  1  0.50000000  0.00000000  0.50000000  1
  Ir  Ir6  1  0.00000000  0.50000000  0.50000000  1
  Ir  Ir7  1  0.50000000  0.00000000  0.00000000  1
  O  O8  1  0.10105290  0.46622928  0.74335835  1
  O  O9  1  0.20770312  0.19090478  0.05129050  1
  O  O10  1  0.18608710  0.20851448  0.44670230  1
  O  O11  1  0.31391290  0.70851448  0.05329770  1
  O  O12  1  0.29229688  0.69090478  0.44870950  1
  O  O13  1  0.39894710  0.96622928  0.75664165  1
  O  O14  1  0.60105290  0.03377072  0.24335835  1
  O  O15  1  0.70770312  0.30909522  0.55129050  1
  O  O16  1  0.68608710  0.29148552  0.94670230  1
  O  O17  1  0.79229688  0.80909522  0.94870950  1
  O  O18  1  0.81391290  0.79148552  0.55329770  1
  O  O19  1  0.89894710  0.53377072  0.25664165  1
