# generated using pymatgen
data_Na(ScI3)2
_symmetry_space_group_name_H-M   'P 1'
_cell_length_a   7.79552326
_cell_length_b   7.79552326
_cell_length_c   13.76840563
_cell_angle_alpha   90.00000000
_cell_angle_beta   90.00000000
_cell_angle_gamma   120.00000000
_symmetry_Int_Tables_number   1
_chemical_formula_structural   Na(ScI3)2
_chemical_formula_sum   'Na2 Sc4 I12'
_cell_volume   724.61084122
_cell_formula_units_Z   2
loop_
 _symmetry_equiv_pos_site_id
 _symmetry_equiv_pos_as_xyz
  1  'x, y, z'
loop_
 _atom_site_type_symbol
 _atom_site_label
 _atom_site_symmetry_multiplicity
 _atom_site_fract_x
 _atom_site_fract_y
 _atom_site_fract_z
 _atom_site_occupancy
  I  I0  1  0.99215114  0.69143352  0.00143980  1
  I  I1  1  0.29713848  0.98573424  0.25069431  1
  I  I2  1  0.01426576  0.31140424  0.25069431  1
  I  I3  1  0.30856648  0.30071762  0.00143980  1
  I  I4  1  0.30071762  0.30856648  0.50143980  1
  I  I5  1  0.69928238  0.00784886  0.00143980  1
  I  I6  1  0.31140424  0.01426576  0.75069431  1
  I  I7  1  0.68859576  0.70286152  0.25069431  1
  I  I8  1  0.70286152  0.68859576  0.75069431  1
  I  I9  1  0.00784886  0.69928238  0.50143980  1
  I  I10  1  0.69143352  0.99215114  0.50143980  1
  I  I11  1  0.98573424  0.29713848  0.75069431  1
  Na  Na12  1  0.33333300  0.66666700  0.87099540  1
  Na  Na13  1  0.66666700  0.33333300  0.37099540  1
  Sc  Sc14  1  0.00000000  0.00000000  0.12589737  1
  Sc  Sc15  1  0.00000000  0.00000000  0.37643491  1
  Sc  Sc16  1  0.00000000  0.00000000  0.62589737  1
  Sc  Sc17  1  0.00000000  0.00000000  0.87643491  1
