# generated using pymatgen
data_Rb2Na3InO4
_symmetry_space_group_name_H-M   'P 1'
_cell_length_a   7.55826111
_cell_length_b   9.78400524
_cell_length_c   9.90869082
_cell_angle_alpha   90.00000000
_cell_angle_beta   90.00000000
_cell_angle_gamma   90.00000000
_symmetry_Int_Tables_number   1
_chemical_formula_structural   Rb2Na3InO4
_chemical_formula_sum   'Rb8 Na12 In4 O16'
_cell_volume   732.74834314
_cell_formula_units_Z   4
loop_
 _symmetry_equiv_pos_site_id
 _symmetry_equiv_pos_as_xyz
  1  'x, y, z'
loop_
 _atom_site_type_symbol
 _atom_site_label
 _atom_site_symmetry_multiplicity
 _atom_site_fract_x
 _atom_site_fract_y
 _atom_site_fract_z
 _atom_site_occupancy
  In  In0  1  0.50000000  0.77565239  0.87208671  1
  In  In1  1  0.50000000  0.22434761  0.12791329  1
  In  In2  1  0.00000000  0.27565239  0.62791329  1
  In  In3  1  0.00000000  0.72434761  0.37208671  1
  Rb  Rb4  1  0.00000000  0.23177329  0.25895173  1
  Rb  Rb5  1  0.00000000  0.76822671  0.74104827  1
  Rb  Rb6  1  0.50000000  0.73177329  0.24104827  1
  Rb  Rb7  1  0.50000000  0.26822671  0.75895173  1
  Rb  Rb8  1  0.74508155  0.00000000  0.50000000  1
  Rb  Rb9  1  0.75491845  0.50000000  0.00000000  1
  Rb  Rb10  1  0.25491845  0.00000000  0.50000000  1
  Rb  Rb11  1  0.24508155  0.50000000  0.00000000  1
  Na  Na12  1  0.75264210  0.48197750  0.35348081  1
  Na  Na13  1  0.75264210  0.51802250  0.64651919  1
  Na  Na14  1  0.74735790  0.98197750  0.14651919  1
  Na  Na15  1  0.74735790  0.01802250  0.85348081  1
  Na  Na16  1  0.24735790  0.51802250  0.64651919  1
  Na  Na17  1  0.24735790  0.48197750  0.35348081  1
  Na  Na18  1  0.25264210  0.01802250  0.85348081  1
  Na  Na19  1  0.25264210  0.98197750  0.14651919  1
  Na  Na20  1  0.00000000  0.23427892  0.91900454  1
  Na  Na21  1  0.00000000  0.76572108  0.08099546  1
  Na  Na22  1  0.50000000  0.73427892  0.58099546  1
  Na  Na23  1  0.50000000  0.26572108  0.41900454  1
  O  O24  1  0.50000000  0.58218083  0.77447810  1
  O  O25  1  0.50000000  0.41781917  0.22552190  1
  O  O26  1  0.00000000  0.08218083  0.72552190  1
  O  O27  1  0.00000000  0.91781917  0.27447810  1
  O  O28  1  0.76571821  0.30674803  0.51830291  1
  O  O29  1  0.76571821  0.69325197  0.48169709  1
  O  O30  1  0.73428179  0.80674803  0.98169709  1
  O  O31  1  0.73428179  0.19325197  0.01830291  1
  O  O32  1  0.23428179  0.69325197  0.48169709  1
  O  O33  1  0.23428179  0.30674803  0.51830291  1
  O  O34  1  0.26571821  0.19325197  0.01830291  1
  O  O35  1  0.26571821  0.80674803  0.98169709  1
  O  O36  1  0.00000000  0.43559580  0.77475592  1
  O  O37  1  0.00000000  0.56440420  0.22524408  1
  O  O38  1  0.50000000  0.93559580  0.72524408  1
  O  O39  1  0.50000000  0.06440420  0.27475592  1
