# generated using pymatgen
data_Ta4BTe8
_symmetry_space_group_name_H-M   'P 1'
_cell_length_a   3.62254823
_cell_length_b   11.61534667
_cell_length_c   16.91439354
_cell_angle_alpha   90.00000000
_cell_angle_beta   90.00000000
_cell_angle_gamma   90.00000000
_symmetry_Int_Tables_number   1
_chemical_formula_structural   Ta4BTe8
_chemical_formula_sum   'Ta8 B2 Te16'
_cell_volume   711.70953368
_cell_formula_units_Z   2
loop_
 _symmetry_equiv_pos_site_id
 _symmetry_equiv_pos_as_xyz
  1  'x, y, z'
loop_
 _atom_site_type_symbol
 _atom_site_label
 _atom_site_symmetry_multiplicity
 _atom_site_fract_x
 _atom_site_fract_y
 _atom_site_fract_z
 _atom_site_occupancy
  Ta  Ta0  1  0.50000000  0.07286550  0.07087277  1
  Ta  Ta1  1  0.50000000  0.92713450  0.92912723  1
  Ta  Ta2  1  0.50000000  0.57286550  0.42912723  1
  Ta  Ta3  1  0.50000000  0.42713450  0.57087277  1
  Ta  Ta4  1  0.00000000  0.34285015  0.42483032  1
  Ta  Ta5  1  0.00000000  0.65714985  0.57516968  1
  Ta  Ta6  1  0.00000000  0.84285015  0.07516968  1
  Ta  Ta7  1  0.00000000  0.15714985  0.92483032  1
  B  B8  1  0.00000000  0.00000000  0.00000000  1
  B  B9  1  0.00000000  0.50000000  0.50000000  1
  Te  Te10  1  0.50000000  0.30003705  0.00567236  1
  Te  Te11  1  0.50000000  0.69996295  0.99432764  1
  Te  Te12  1  0.50000000  0.80003705  0.49432764  1
  Te  Te13  1  0.50000000  0.19996295  0.50567236  1
  Te  Te14  1  0.50000000  0.41136280  0.30824998  1
  Te  Te15  1  0.50000000  0.58863720  0.69175002  1
  Te  Te16  1  0.50000000  0.91136280  0.19175002  1
  Te  Te17  1  0.50000000  0.08863720  0.80824998  1
  Te  Te18  1  0.00000000  0.12784126  0.32883008  1
  Te  Te19  1  0.00000000  0.87215874  0.67116992  1
  Te  Te20  1  0.00000000  0.62784126  0.17116992  1
  Te  Te21  1  0.00000000  0.37215874  0.82883008  1
  Te  Te22  1  0.00000000  0.20277983  0.17083526  1
  Te  Te23  1  0.00000000  0.79722017  0.82916474  1
  Te  Te24  1  0.00000000  0.70277983  0.32916474  1
  Te  Te25  1  0.00000000  0.29722017  0.67083526  1
