# generated using pymatgen
data_Ce2Ni7P4
_symmetry_space_group_name_H-M   'P 1'
_cell_length_a   3.75905942
_cell_length_b   9.14972553
_cell_length_c   10.35275229
_cell_angle_alpha   90.00000000
_cell_angle_beta   90.00000000
_cell_angle_gamma   90.00000000
_symmetry_Int_Tables_number   1
_chemical_formula_structural   Ce2Ni7P4
_chemical_formula_sum   'Ce4 Ni14 P8'
_cell_volume   356.07630938
_cell_formula_units_Z   2
loop_
 _symmetry_equiv_pos_site_id
 _symmetry_equiv_pos_as_xyz
  1  'x, y, z'
loop_
 _atom_site_type_symbol
 _atom_site_label
 _atom_site_symmetry_multiplicity
 _atom_site_fract_x
 _atom_site_fract_y
 _atom_site_fract_z
 _atom_site_occupancy
  Ce  Ce0  1  0.00000000  0.06113080  1.00020144  1
  Ce  Ce1  1  0.50000000  0.93886920  0.50020144  1
  Ce  Ce2  1  0.00000000  0.44100222  0.77875747  1
  Ce  Ce3  1  0.50000000  0.55899778  0.27875747  1
  Ni  Ni4  1  0.00000000  0.07999718  0.30886600  1
  Ni  Ni5  1  0.50000000  0.92000282  0.80886600  1
  Ni  Ni6  1  0.00000000  0.19280615  0.56723642  1
  Ni  Ni7  1  0.50000000  0.80719385  0.06723642  1
  Ni  Ni8  1  0.00000000  0.40047613  0.07835296  1
  Ni  Ni9  1  0.50000000  0.59952387  0.57835296  1
  Ni  Ni10  1  0.00000000  0.44071439  0.47554748  1
  Ni  Ni11  1  0.50000000  0.55928561  0.97554748  1
  Ni  Ni12  1  0.00000000  0.75540090  0.89950274  1
  Ni  Ni13  1  0.50000000  0.24459910  0.39950274  1
  Ni  Ni14  1  0.00000000  0.77745836  0.66740643  1
  Ni  Ni15  1  0.50000000  0.22254164  0.16740643  1
  Ni  Ni16  1  0.00000000  0.81470912  0.26433247  1
  Ni  Ni17  1  0.50000000  0.18529088  0.76433247  1
  P  P18  1  0.00000000  0.02587548  0.71840235  1
  P  P19  1  0.50000000  0.97412452  0.21840235  1
  P  P20  1  0.00000000  0.31676721  0.28339684  1
  P  P21  1  0.50000000  0.68323279  0.78339684  1
  P  P22  1  0.00000000  0.65538480  0.08808219  1
  P  P23  1  0.50000000  0.34461520  0.58808219  1
  P  P24  1  0.00000000  0.68907768  0.46522521  1
  P  P25  1  0.50000000  0.31092232  0.96522521  1
