# generated using pymatgen
data_V2S2O11
_symmetry_space_group_name_H-M   'P 1'
_cell_length_a   9.11630765
_cell_length_b   9.67299140
_cell_length_c   10.10396564
_cell_angle_alpha   105.41480251
_cell_angle_beta   90.00000000
_cell_angle_gamma   90.00000000
_symmetry_Int_Tables_number   1
_chemical_formula_structural   V2S2O11
_chemical_formula_sum   'V8 S8 O44'
_cell_volume   858.93584550
_cell_formula_units_Z   4
loop_
 _symmetry_equiv_pos_site_id
 _symmetry_equiv_pos_as_xyz
  1  'x, y, z'
loop_
 _atom_site_type_symbol
 _atom_site_label
 _atom_site_symmetry_multiplicity
 _atom_site_fract_x
 _atom_site_fract_y
 _atom_site_fract_z
 _atom_site_occupancy
  O  O0  1  0.07317671  0.64404192  0.49472142  1
  O  O1  1  0.57317671  0.85595808  0.50527858  1
  O  O2  1  0.92682329  0.35595808  0.50527858  1
  O  O3  1  0.42682329  0.14404192  0.49472142  1
  O  O4  1  0.24644926  0.50860749  0.32342813  1
  O  O5  1  0.74644926  0.99139251  0.67657187  1
  O  O6  1  0.75355074  0.49139251  0.67657187  1
  O  O7  1  0.25355074  0.00860749  0.32342813  1
  O  O8  1  0.22781660  0.45241683  0.54092444  1
  O  O9  1  0.72781660  0.04758317  0.45907556  1
  O  O10  1  0.77218340  0.54758317  0.45907556  1
  O  O11  1  0.27218340  0.95241683  0.54092444  1
  O  O12  1  0.34019089  0.67196952  0.52452263  1
  O  O13  1  0.84019089  0.82803048  0.47547737  1
  O  O14  1  0.14820255  0.57341527  0.07303169  1
  O  O15  1  0.65980911  0.32803048  0.47547737  1
  O  O16  1  0.39297826  0.74770825  0.24235111  1
  O  O17  1  0.89297826  0.75229175  0.75764889  1
  O  O18  1  0.60702174  0.25229175  0.75764889  1
  O  O19  1  0.10702174  0.24770825  0.24235111  1
  O  O20  1  0.76736952  0.14469442  0.23572359  1
  O  O21  1  0.26736952  0.35530558  0.76427641  1
  O  O22  1  0.23263048  0.85530558  0.76427641  1
  O  O23  1  0.73263048  0.64469442  0.23572359  1
  O  O24  1  0.53727667  0.98049421  0.24127882  1
  O  O25  1  0.03727667  0.51950579  0.75872118  1
  O  O26  1  0.46272333  0.01950579  0.75872118  1
  O  O27  1  0.96272333  0.48049421  0.24127882  1
  O  O28  1  0.32571459  0.33001234  0.09272099  1
  O  O29  1  0.82571459  0.16998766  0.90727901  1
  O  O30  1  0.67428541  0.66998766  0.90727901  1
  O  O31  1  0.17428541  0.83001234  0.09272099  1
  O  O32  1  0.55083195  0.21409538  0.00841264  1
  O  O33  1  0.05083195  0.28590462  0.99158736  1
  O  O34  1  0.44916805  0.78590462  0.99158736  1
  O  O35  1  0.94916805  0.71409538  0.00841264  1
  O  O36  1  0.48884119  0.25328082  0.24770824  1
  O  O37  1  0.98884119  0.24671918  0.75229176  1
  O  O38  1  0.51115881  0.74671918  0.75229176  1
  O  O39  1  0.01115881  0.75328082  0.24770824  1
  O  O40  1  0.35179745  0.07341527  0.07303169  1
  O  O41  1  0.85179745  0.42658473  0.92696831  1
  O  O42  1  0.64820255  0.92658473  0.92696831  1
  O  O43  1  0.15980911  0.17196952  0.52452263  1
  S  S44  1  0.07361456  0.71134957  0.10392484  1
  S  S45  1  0.57361456  0.78865043  0.89607516  1
  S  S46  1  0.92638544  0.28865043  0.89607516  1
  S  S47  1  0.42638544  0.21134957  0.10392484  1
  S  S48  1  0.21457352  0.57218179  0.47324270  1
  S  S49  1  0.71457352  0.92781821  0.52675730  1
  S  S50  1  0.78542648  0.42781821  0.52675730  1
  S  S51  1  0.28542648  0.07218179  0.47324270  1
  V  V52  1  0.87058303  0.64288332  0.33254515  1
  V  V53  1  0.37058303  0.85711668  0.66745485  1
  V  V54  1  0.12941697  0.35711668  0.66745485  1
  V  V55  1  0.62941697  0.14288332  0.33254515  1
  V  V56  1  0.12663600  0.37976693  0.17716952  1
  V  V57  1  0.62663600  0.12023307  0.82283048  1
  V  V58  1  0.87336400  0.62023307  0.82283048  1
  V  V59  1  0.37336400  0.87976693  0.17716952  1
