# generated using pymatgen
data_K2Na3InO4
_symmetry_space_group_name_H-M   'P 1'
_cell_length_a   7.63954240
_cell_length_b   9.38156273
_cell_length_c   9.65842328
_cell_angle_alpha   90.00000000
_cell_angle_beta   90.00000000
_cell_angle_gamma   90.00000000
_symmetry_Int_Tables_number   1
_chemical_formula_structural   K2Na3InO4
_chemical_formula_sum   'K8 Na12 In4 O16'
_cell_volume   692.22736996
_cell_formula_units_Z   4
loop_
 _symmetry_equiv_pos_site_id
 _symmetry_equiv_pos_as_xyz
  1  'x, y, z'
loop_
 _atom_site_type_symbol
 _atom_site_label
 _atom_site_symmetry_multiplicity
 _atom_site_fract_x
 _atom_site_fract_y
 _atom_site_fract_z
 _atom_site_occupancy
  In  In0  1  0.50000000  0.77226208  0.87082159  1
  In  In1  1  0.50000000  0.22773792  0.12917841  1
  In  In2  1  0.00000000  0.27226208  0.62917841  1
  In  In3  1  0.00000000  0.72773792  0.37082159  1
  Na  Na4  1  0.75203885  0.48176843  0.34976284  1
  Na  Na5  1  0.75203885  0.51823157  0.65023716  1
  Na  Na6  1  0.74796115  0.98176843  0.15023716  1
  Na  Na7  1  0.74796115  0.01823157  0.84976284  1
  Na  Na8  1  0.24796115  0.51823157  0.65023716  1
  Na  Na9  1  0.24796115  0.48176843  0.34976284  1
  Na  Na10  1  0.25203885  0.01823157  0.84976284  1
  Na  Na11  1  0.25203885  0.98176843  0.15023716  1
  Na  Na12  1  0.00000000  0.23747523  0.92632481  1
  Na  Na13  1  0.00000000  0.76252477  0.07367519  1
  Na  Na14  1  0.50000000  0.73747523  0.57367519  1
  Na  Na15  1  0.50000000  0.26252477  0.42632481  1
  K  K16  1  0.00000000  0.23114881  0.26438448  1
  K  K17  1  0.00000000  0.76885119  0.73561552  1
  K  K18  1  0.50000000  0.73114881  0.23561552  1
  K  K19  1  0.50000000  0.26885119  0.76438448  1
  K  K20  1  0.74595012  0.00000000  0.50000000  1
  K  K21  1  0.75404988  0.50000000  0.00000000  1
  K  K22  1  0.25404988  0.00000000  0.50000000  1
  K  K23  1  0.24595012  0.50000000  0.00000000  1
  O  O24  1  0.50000000  0.56895748  0.77638191  1
  O  O25  1  0.50000000  0.43104252  0.22361809  1
  O  O26  1  0.00000000  0.06895748  0.72361809  1
  O  O27  1  0.00000000  0.93104252  0.27638191  1
  O  O28  1  0.76734563  0.30051647  0.51771786  1
  O  O29  1  0.76734563  0.69948353  0.48228214  1
  O  O30  1  0.73265437  0.80051647  0.98228214  1
  O  O31  1  0.73265437  0.19948353  0.01771786  1
  O  O32  1  0.23265437  0.69948353  0.48228214  1
  O  O33  1  0.23265437  0.30051647  0.51771786  1
  O  O34  1  0.26734563  0.19948353  0.01771786  1
  O  O35  1  0.26734563  0.80051647  0.98228214  1
  O  O36  1  0.00000000  0.44126378  0.77865008  1
  O  O37  1  0.00000000  0.55873622  0.22134992  1
  O  O38  1  0.50000000  0.94126378  0.72134992  1
  O  O39  1  0.50000000  0.05873622  0.27865008  1
