# generated using pymatgen
data_Bi2W2O9
_symmetry_space_group_name_H-M   'P 1'
_cell_length_a   5.44997742
_cell_length_b   5.47845986
_cell_length_c   24.59469381
_cell_angle_alpha   90.00000000
_cell_angle_beta   90.00000000
_cell_angle_gamma   90.00000000
_symmetry_Int_Tables_number   1
_chemical_formula_structural   Bi2W2O9
_chemical_formula_sum   'Bi8 W8 O36'
_cell_volume   734.33564085
_cell_formula_units_Z   4
loop_
 _symmetry_equiv_pos_site_id
 _symmetry_equiv_pos_as_xyz
  1  'x, y, z'
loop_
 _atom_site_type_symbol
 _atom_site_label
 _atom_site_symmetry_multiplicity
 _atom_site_fract_x
 _atom_site_fract_y
 _atom_site_fract_z
 _atom_site_occupancy
  O  O0  1  0.42760151  0.72336423  0.25434730  1
  O  O1  1  0.57239849  0.27663577  0.75434730  1
  O  O2  1  0.07239949  0.22336423  0.25434730  1
  O  O3  1  0.92760151  0.77663577  0.75434730  1
  O  O4  1  0.71958783  0.50067986  0.49471280  1
  O  O5  1  0.28041317  0.49932014  0.99471280  1
  O  O6  1  0.78041317  0.00067986  0.49471280  1
  O  O7  1  0.21958583  0.99932014  0.99471280  1
  O  O8  1  0.78063868  0.49358649  0.31794864  1
  O  O9  1  0.21936232  0.50641351  0.81794864  1
  O  O10  1  0.71936132  0.99358649  0.31794864  1
  O  O11  1  0.28063868  0.00641351  0.81794864  1
  O  O12  1  0.07303715  0.27180713  0.55829997  1
  O  O13  1  0.92696385  0.72819287  0.05829997  1
  O  O14  1  0.42696385  0.77180613  0.55829997  1
  O  O15  1  0.57303615  0.22819287  0.05829997  1
  O  O16  1  0.25849437  0.09480846  0.65712283  1
  O  O17  1  0.74150663  0.90519154  0.15712283  1
  O  O18  1  0.24150763  0.59480846  0.65712283  1
  O  O19  1  0.75849337  0.40519154  0.15712283  1
  O  O20  1  0.75876264  0.09527577  0.65595432  1
  O  O21  1  0.24123736  0.90472423  0.15595432  1
  O  O22  1  0.74123736  0.59527577  0.65595432  1
  O  O23  1  0.25876364  0.40472423  0.15595432  1
  O  O24  1  0.43689609  0.25290571  0.90630608  1
  O  O25  1  0.56310291  0.74709329  0.40630608  1
  O  O26  1  0.21494334  0.56084897  0.47197265  1
  O  O27  1  0.93689809  0.24709429  0.40630608  1
  O  O28  1  0.78574063  0.06752360  0.84058583  1
  O  O29  1  0.21425937  0.93247640  0.34058583  1
  O  O30  1  0.71425937  0.56752360  0.84058583  1
  O  O31  1  0.28573963  0.43247640  0.34058583  1
  O  O32  1  0.71494434  0.93915103  0.97197265  1
  O  O33  1  0.28505566  0.06084897  0.47197265  1
  O  O34  1  0.78505566  0.43915103  0.97197265  1
  O  O35  1  0.06310291  0.75290571  0.90630608  1
  W  W36  1  0.99863355  0.30591168  0.48293064  1
  W  W37  1  0.00136745  0.69408832  0.98293064  1
  W  W38  1  0.50136745  0.80591168  0.48293064  1
  W  W39  1  0.49863355  0.19408832  0.98293064  1
  W  W40  1  0.50145434  0.68798382  0.32970485  1
  W  W41  1  0.49854466  0.31201618  0.82970485  1
  W  W42  1  0.99854566  0.18798382  0.32970485  1
  W  W43  1  0.00145534  0.81201618  0.82970485  1
  Bi  Bi44  1  0.52203303  0.63170319  0.10373539  1
  Bi  Bi45  1  0.47796597  0.36829681  0.60373539  1
  Bi  Bi46  1  0.97796497  0.13170319  0.10373539  1
  Bi  Bi47  1  0.02203403  0.86829681  0.60373539  1
  Bi  Bi48  1  0.02216087  0.63126675  0.20937870  1
  Bi  Bi49  1  0.97783813  0.36873325  0.70937870  1
  Bi  Bi50  1  0.47783813  0.13126675  0.20937870  1
  Bi  Bi51  1  0.52216287  0.86873325  0.70937870  1
