# generated using pymatgen
data_EuVO4
_symmetry_space_group_name_H-M   'P 1'
_cell_length_a   6.15390331
_cell_length_b   6.15390331
_cell_length_c   6.15390331
_cell_angle_alpha   106.13456280
_cell_angle_beta   106.13456275
_cell_angle_gamma   116.37291102
_symmetry_Int_Tables_number   1
_chemical_formula_structural   EuVO4
_chemical_formula_sum   'Eu2 V2 O8'
_cell_volume   177.42816927
_cell_formula_units_Z   2
loop_
 _symmetry_equiv_pos_site_id
 _symmetry_equiv_pos_as_xyz
  1  'x, y, z'
loop_
 _atom_site_type_symbol
 _atom_site_label
 _atom_site_symmetry_multiplicity
 _atom_site_fract_x
 _atom_site_fract_y
 _atom_site_fract_z
 _atom_site_occupancy
  O  O0  1  0.79568002  0.72735027  0.43167026  1
  O  O1  1  0.36400976  0.79568002  0.56832974  1
  O  O2  1  0.72735027  0.79568002  0.93167026  1
  O  O3  1  0.79568002  0.36400976  0.06832974  1
  O  O4  1  0.63599024  0.20431998  0.43167026  1
  O  O5  1  0.20431998  0.27264973  0.56832974  1
  O  O6  1  0.20431998  0.63599024  0.93167026  1
  O  O7  1  0.27264973  0.20431998  0.06832974  1
  V  V8  1  0.37500000  0.62500000  0.75000000  1
  V  V9  1  0.62500000  0.37500000  0.25000000  1
  Eu  Eu10  1  0.12500000  0.87500000  0.25000000  1
  Eu  Eu11  1  0.87500000  0.12500000  0.75000000  1
