# generated using pymatgen
data_Ce2Sc3Si4
_symmetry_space_group_name_H-M   'P 1'
_cell_length_a   7.18037321
_cell_length_b   7.45144052
_cell_length_c   14.13553848
_cell_angle_alpha   90.00000000
_cell_angle_beta   90.00000000
_cell_angle_gamma   90.00000000
_symmetry_Int_Tables_number   1
_chemical_formula_structural   Ce2Sc3Si4
_chemical_formula_sum   'Ce8 Sc12 Si16'
_cell_volume   756.30960203
_cell_formula_units_Z   4
loop_
 _symmetry_equiv_pos_site_id
 _symmetry_equiv_pos_as_xyz
  1  'x, y, z'
loop_
 _atom_site_type_symbol
 _atom_site_label
 _atom_site_symmetry_multiplicity
 _atom_site_fract_x
 _atom_site_fract_y
 _atom_site_fract_z
 _atom_site_occupancy
  Ce  Ce0  1  0.98860060  0.17215400  0.90323891  1
  Ce  Ce1  1  0.48860060  0.32784600  0.59676109  1
  Ce  Ce2  1  0.51139940  0.67215400  0.09676109  1
  Ce  Ce3  1  0.01139940  0.82784600  0.40323891  1
  Ce  Ce4  1  0.01139940  0.82784600  0.09676109  1
  Ce  Ce5  1  0.51139940  0.67215400  0.40323891  1
  Ce  Ce6  1  0.48860060  0.32784600  0.90323891  1
  Ce  Ce7  1  0.98860060  0.17215400  0.59676109  1
  Sc  Sc8  1  0.66224584  0.00543464  0.75000000  1
  Sc  Sc9  1  0.16224584  0.49456536  0.75000000  1
  Sc  Sc10  1  0.83775416  0.50543464  0.25000000  1
  Sc  Sc11  1  0.33775416  0.99456536  0.25000000  1
  Sc  Sc12  1  0.82925187  0.67602797  0.87587648  1
  Sc  Sc13  1  0.32925187  0.82397203  0.62412352  1
  Sc  Sc14  1  0.67074813  0.17602797  0.12412352  1
  Sc  Sc15  1  0.17074813  0.32397203  0.37587648  1
  Sc  Sc16  1  0.17074813  0.32397203  0.12412352  1
  Sc  Sc17  1  0.67074813  0.17602797  0.37587648  1
  Sc  Sc18  1  0.32925187  0.82397203  0.87587648  1
  Sc  Sc19  1  0.82925187  0.67602797  0.62412352  1
  Si  Si20  1  0.78725885  0.37726304  0.75000000  1
  Si  Si21  1  0.28725885  0.12273696  0.75000000  1
  Si  Si22  1  0.71274115  0.87726304  0.25000000  1
  Si  Si23  1  0.21274115  0.62273696  0.25000000  1
  Si  Si24  1  0.03430573  0.87959454  0.75000000  1
  Si  Si25  1  0.53430573  0.62040546  0.75000000  1
  Si  Si26  1  0.46569427  0.37959454  0.25000000  1
  Si  Si27  1  0.96569427  0.12040546  0.25000000  1
  Si  Si28  1  0.84502041  0.46481074  0.03918637  1
  Si  Si29  1  0.34502041  0.03518926  0.46081363  1
  Si  Si30  1  0.65497959  0.96481074  0.96081363  1
  Si  Si31  1  0.15497959  0.53518926  0.53918637  1
  Si  Si32  1  0.15497959  0.53518926  0.96081363  1
  Si  Si33  1  0.65497959  0.96481074  0.53918637  1
  Si  Si34  1  0.34502041  0.03518926  0.03918637  1
  Si  Si35  1  0.84502041  0.46481074  0.46081363  1
