# generated using pymatgen
data_Na3B5Se9
_symmetry_space_group_name_H-M   'P 1'
_cell_length_a   15.39229645
_cell_length_b   15.39229589
_cell_length_c   17.75488909
_cell_angle_alpha   115.55642610
_cell_angle_beta   115.55642456
_cell_angle_gamma   90.05628428
_symmetry_Int_Tables_number   1
_chemical_formula_structural   Na3B5Se9
_chemical_formula_sum   'Na24 B40 Se72'
_cell_volume   3331.99712713
_cell_formula_units_Z   8
loop_
 _symmetry_equiv_pos_site_id
 _symmetry_equiv_pos_as_xyz
  1  'x, y, z'
loop_
 _atom_site_type_symbol
 _atom_site_label
 _atom_site_symmetry_multiplicity
 _atom_site_fract_x
 _atom_site_fract_y
 _atom_site_fract_z
 _atom_site_occupancy
  B  B0  1  0.10229751  0.02671349  0.24931845  1
  B  B1  1  0.20868439  0.95976677  0.41914927  1
  B  B2  1  0.33358774  0.12546963  0.41591655  1
  B  B3  1  0.35389726  0.47285613  0.75091765  1
  B  B4  1  0.29069794  0.54009415  0.58119562  1
  B  B5  1  0.60286237  0.22370377  0.24964460  1
  B  B6  1  0.41824370  0.37400464  0.58378516  1
  B  B7  1  0.83413108  0.29113143  0.41585942  1
  B  B8  1  0.37453037  0.16641226  0.08408345  1
  B  B9  1  0.47328651  0.39770249  0.25068155  1
  B  B10  1  0.79113143  0.33413108  0.91585942  1
  B  B11  1  0.72370377  0.10286237  0.74964460  1
  B  B12  1  0.87400464  0.91824370  0.08378516  1
  B  B13  1  0.97285613  0.85389726  0.25091765  1
  B  B14  1  0.29108455  0.58127883  0.91693155  1
  B  B15  1  0.22348520  0.64582142  0.75001896  1
  B  B16  1  0.08127883  0.79108455  0.41693155  1
  B  B17  1  0.54023323  0.29131561  0.08085073  1
  B  B18  1  0.85417858  0.27651480  0.74998104  1
  B  B19  1  0.95990585  0.20930206  0.91880438  1
  B  B20  1  0.04009415  0.79069794  0.08119562  1
  B  B21  1  0.14582142  0.72348520  0.25001896  1
  B  B22  1  0.45976677  0.70868439  0.91914927  1
  B  B23  1  0.91872117  0.20891545  0.58306845  1
  B  B24  1  0.77651480  0.35417858  0.24998104  1
  B  B25  1  0.70891545  0.41872117  0.08306845  1
  B  B26  1  0.02714387  0.14610274  0.74908235  1
  B  B27  1  0.12599536  0.08175630  0.91621484  1
  B  B28  1  0.27629623  0.89713763  0.25035540  1
  B  B29  1  0.20886857  0.66586892  0.08414058  1
  B  B30  1  0.52671349  0.60229751  0.74931845  1
  B  B31  1  0.62546963  0.83358774  0.91591655  1
  B  B32  1  0.16586892  0.70886857  0.58414058  1
  B  B33  1  0.58175630  0.62599536  0.41621484  1
  B  B34  1  0.39713763  0.77629623  0.75035540  1
  B  B35  1  0.70930206  0.45990585  0.41880438  1
  B  B36  1  0.64610274  0.52714387  0.24908235  1
  B  B37  1  0.66641226  0.87453037  0.58408345  1
  B  B38  1  0.79131561  0.04023323  0.58085073  1
  B  B39  1  0.89770249  0.97328651  0.75068155  1
  Na  Na40  1  0.33427991  0.16572009  0.25000000  1
  Na  Na41  1  0.58546430  0.33582472  0.75211673  1
  Na  Na42  1  0.83582472  0.08546430  0.25211673  1
  Na  Na43  1  0.08509349  0.41490651  0.75000000  1
  Na  Na44  1  0.00000000  0.00000000  0.50000000  1
  Na  Na45  1  0.00000000  0.50000000  0.50000000  1
  Na  Na46  1  0.17324754  0.24976695  0.50073826  1
  Na  Na47  1  0.00000000  0.00000000  0.00000000  1
  Na  Na48  1  0.00000000  0.50000000  0.00000000  1
  Na  Na49  1  0.32741813  0.74914606  0.49917308  1
  Na  Na50  1  0.91490651  0.58509349  0.25000000  1
  Na  Na51  1  0.25023305  0.32675246  0.99926174  1
  Na  Na52  1  0.24914606  0.82741813  0.99917308  1
  Na  Na53  1  0.16417528  0.91453570  0.74788327  1
  Na  Na54  1  0.50000000  0.00000000  0.50000000  1
  Na  Na55  1  0.50000000  0.50000000  0.50000000  1
  Na  Na56  1  0.41453570  0.66417528  0.24788327  1
  Na  Na57  1  0.66572009  0.83427991  0.75000000  1
  Na  Na58  1  0.67258187  0.25085394  0.50082692  1
  Na  Na59  1  0.50000000  0.00000000  0.00000000  1
  Na  Na60  1  0.50000000  0.50000000  0.00000000  1
  Na  Na61  1  0.82675246  0.75023305  0.49926174  1
  Na  Na62  1  0.75085394  0.17258187  0.00082692  1
  Na  Na63  1  0.74976695  0.67324754  0.00073826  1
  Se  Se64  1  0.07788955  0.98765874  0.33837997  1
  Se  Se65  1  0.20617010  0.15833880  0.33335002  1
  Se  Se66  1  0.31806625  0.08610221  0.50764488  1
  Se  Se67  1  0.38654965  0.02422931  0.33113096  1
  Se  Se68  1  0.24075377  0.51202134  0.66218748  1
  Se  Se69  1  0.57842218  0.35149556  0.33843891  1
  Se  Se70  1  0.37373620  0.34122277  0.66679151  1
  Se  Se71  1  0.31137028  0.41365883  0.49247934  1
  Se  Se72  1  0.70669519  0.17607458  0.33388120  1
  Se  Se73  1  0.81868390  0.42193061  0.50741612  1
  Se  Se74  1  0.45283606  0.24954235  0.49941226  1
  Se  Se75  1  0.25045765  0.04716394  0.00058774  1
  Se  Se76  1  0.34166120  0.29382990  0.16664998  1
  Se  Se77  1  0.55599905  0.47498171  0.66831435  1
  Se  Se78  1  0.67607458  0.20669519  0.83388120  1
  Se  Se79  1  0.88682109  0.30780572  0.33078922  1
  Se  Se80  1  0.84122277  0.87373620  0.16679151  1
  Se  Se81  1  0.94353044  0.80747120  0.33211318  1
  Se  Se82  1  0.17591584  0.62615160  0.83441234  1
  Se  Se83  1  0.25004184  0.54662065  0.00102592  1
  Se  Se84  1  0.04662065  0.75004184  0.50102592  1
  Se  Se85  1  0.47577069  0.11345035  0.16886904  1
  Se  Se86  1  0.41389779  0.18193375  0.99235512  1
  Se  Se87  1  0.51234126  0.42211045  0.16162003  1
  Se  Se88  1  0.80780572  0.38682109  0.83078922  1
  Se  Se89  1  0.74107310  0.14883036  0.66153443  1
  Se  Se90  1  0.97498171  0.05599905  0.16831435  1
  Se  Se91  1  0.91365883  0.81137028  0.99247934  1
  Se  Se92  1  0.92193061  0.31868390  0.00741612  1
  Se  Se93  1  0.85149556  0.07842218  0.83843891  1
  Se  Se94  1  0.01202134  0.74075377  0.16218748  1
  Se  Se95  1  0.30747120  0.44353044  0.83211318  1
  Se  Se96  1  0.18795945  0.92195908  0.50809778  1
  Se  Se97  1  0.12615160  0.67591584  0.33441234  1
  Se  Se98  1  0.42195908  0.68795945  0.00809778  1
  Se  Se99  1  0.35116964  0.75892690  0.83846557  1
  Se  Se100  1  0.64883036  0.24107310  0.16153443  1
  Se  Se101  1  0.57804092  0.31204055  0.99190222  1
  Se  Se102  1  0.87384840  0.32408416  0.66558766  1
  Se  Se103  1  0.81204055  0.07804092  0.49190222  1
  Se  Se104  1  0.69252880  0.55646956  0.16788682  1
  Se  Se105  1  0.98797866  0.25924623  0.83781252  1
  Se  Se106  1  0.14850444  0.92157782  0.16156109  1
  Se  Se107  1  0.07806939  0.68131610  0.99258388  1
  Se  Se108  1  0.08634117  0.18862972  0.00752066  1
  Se  Se109  1  0.02501829  0.94400095  0.83168565  1
  Se  Se110  1  0.25892690  0.85116964  0.33846557  1
  Se  Se111  1  0.19219428  0.61317891  0.16921078  1
  Se  Se112  1  0.48765874  0.57788955  0.83837997  1
  Se  Se113  1  0.58610221  0.81806625  0.00764488  1
  Se  Se114  1  0.52422931  0.88654965  0.83113096  1
  Se  Se115  1  0.95337935  0.24995816  0.49897408  1
  Se  Se116  1  0.74995816  0.45337935  0.99897408  1
  Se  Se117  1  0.82408416  0.37384840  0.16558766  1
  Se  Se118  1  0.05646956  0.19252880  0.66788682  1
  Se  Se119  1  0.15877723  0.12626380  0.83320849  1
  Se  Se120  1  0.11317891  0.69219428  0.66921078  1
  Se  Se121  1  0.32392542  0.79330481  0.16611880  1
  Se  Se122  1  0.44400095  0.52501829  0.33168565  1
  Se  Se123  1  0.65833880  0.70617010  0.83335002  1
  Se  Se124  1  0.74954235  0.95283606  0.99941226  1
  Se  Se125  1  0.54716394  0.75045765  0.50058774  1
  Se  Se126  1  0.18131610  0.57806939  0.49258388  1
  Se  Se127  1  0.29330481  0.82392542  0.66611880  1
  Se  Se128  1  0.68862972  0.58634117  0.50752066  1
  Se  Se129  1  0.62626380  0.65877723  0.33320849  1
  Se  Se130  1  0.42157782  0.64850444  0.66156109  1
  Se  Se131  1  0.75924623  0.48797866  0.33781252  1
  Se  Se132  1  0.61345035  0.97577069  0.66886904  1
  Se  Se133  1  0.68193375  0.91389779  0.49235512  1
  Se  Se134  1  0.79382990  0.84166120  0.66664998  1
  Se  Se135  1  0.92211045  0.01234126  0.66162003  1
