# generated using pymatgen
data_In2Ge2O7
_symmetry_space_group_name_H-M   'P 1'
_cell_length_a   5.00987164
_cell_length_b   5.61587980
_cell_length_c   5.61587980
_cell_angle_alpha   105.97106387
_cell_angle_beta   97.49956369
_cell_angle_gamma   97.49956361
_symmetry_Int_Tables_number   1
_chemical_formula_structural   In2Ge2O7
_chemical_formula_sum   'In2 Ge2 O7'
_cell_volume   148.29017631
_cell_formula_units_Z   1
loop_
 _symmetry_equiv_pos_site_id
 _symmetry_equiv_pos_as_xyz
  1  'x, y, z'
loop_
 _atom_site_type_symbol
 _atom_site_label
 _atom_site_symmetry_multiplicity
 _atom_site_fract_x
 _atom_site_fract_y
 _atom_site_fract_z
 _atom_site_occupancy
  O  O0  1  0.78924109  0.92582080  0.59558498  1
  O  O1  1  0.21075891  0.40441502  0.07417920  1
  O  O2  1  0.21075891  0.07417920  0.40441502  1
  O  O3  1  0.78924109  0.59558498  0.92582080  1
  O  O4  1  0.50000000  0.00000000  0.00000000  1
  O  O5  1  0.27445113  0.59042530  0.59042530  1
  O  O6  1  0.72554887  0.40957470  0.40957470  1
  Ge  Ge7  1  0.40547541  0.23326751  0.23326751  1
  Ge  Ge8  1  0.59452459  0.76673249  0.76673249  1
  In  In9  1  0.00000000  0.30803561  0.69196439  1
  In  In10  1  0.00000000  0.69196439  0.30803561  1
