# generated using pymatgen
data_Ba2(Mo2S3)3
_symmetry_space_group_name_H-M   'P 1'
_cell_length_a   10.81029303
_cell_length_b   10.81029323
_cell_length_c   14.38887009
_cell_angle_alpha   90.00000000
_cell_angle_beta   90.00000000
_cell_angle_gamma   119.99999943
_symmetry_Int_Tables_number   1
_chemical_formula_structural   Ba2(Mo2S3)3
_chemical_formula_sum   'Ba8 Mo24 S36'
_cell_volume   1456.23768724
_cell_formula_units_Z   4
loop_
 _symmetry_equiv_pos_site_id
 _symmetry_equiv_pos_as_xyz
  1  'x, y, z'
loop_
 _atom_site_type_symbol
 _atom_site_label
 _atom_site_symmetry_multiplicity
 _atom_site_fract_x
 _atom_site_fract_y
 _atom_site_fract_z
 _atom_site_occupancy
  Ba  Ba0  1  0.18689641  0.81310359  0.74492391  1
  Ba  Ba1  1  0.18689641  0.37379282  0.74492391  1
  Ba  Ba2  1  0.00000000  0.00000000  0.44720832  1
  Ba  Ba3  1  0.00000000  0.00000000  0.94720832  1
  Ba  Ba4  1  0.62620718  0.81310359  0.74492391  1
  Ba  Ba5  1  0.37379282  0.18689641  0.24492391  1
  Ba  Ba6  1  0.81310359  0.62620718  0.24492391  1
  Ba  Ba7  1  0.81310359  0.18689641  0.24492391  1
  Mo  Mo8  1  0.24283402  0.75716598  0.36114714  1
  Mo  Mo9  1  0.24241973  0.75758027  0.13941488  1
  Mo  Mo10  1  0.16560325  0.58280162  0.51175027  1
  Mo  Mo11  1  0.16602919  0.58301460  0.98819406  1
  Mo  Mo12  1  0.24241973  0.48483946  0.13941488  1
  Mo  Mo13  1  0.41719838  0.83439675  0.51175027  1
  Mo  Mo14  1  0.41698540  0.83397081  0.98819406  1
  Mo  Mo15  1  0.24283402  0.48566804  0.36114714  1
  Mo  Mo16  1  0.41698540  0.58301460  0.98819406  1
  Mo  Mo17  1  0.41719838  0.58280162  0.51175027  1
  Mo  Mo18  1  0.51516054  0.75758027  0.13941488  1
  Mo  Mo19  1  0.51433196  0.75716598  0.36114714  1
  Mo  Mo20  1  0.48483946  0.24241973  0.63941488  1
  Mo  Mo21  1  0.48566804  0.24283402  0.86114714  1
  Mo  Mo22  1  0.58280162  0.41719838  0.01175027  1
  Mo  Mo23  1  0.58301460  0.41698540  0.48819406  1
  Mo  Mo24  1  0.58301460  0.16602919  0.48819406  1
  Mo  Mo25  1  0.75716598  0.51433196  0.86114714  1
  Mo  Mo26  1  0.58280162  0.16560325  0.01175027  1
  Mo  Mo27  1  0.75758027  0.51516054  0.63941488  1
  Mo  Mo28  1  0.83439675  0.41719838  0.01175027  1
  Mo  Mo29  1  0.83397081  0.41698540  0.48819406  1
  Mo  Mo30  1  0.75758027  0.24241973  0.63941488  1
  Mo  Mo31  1  0.75716598  0.24283402  0.86114714  1
  S  S32  1  0.13689626  0.86310374  0.25466657  1
  S  S33  1  0.18107705  0.81892295  0.51168015  1
  S  S34  1  0.18130653  0.81869347  0.98780572  1
  S  S35  1  0.02946379  0.51473189  0.13522622  1
  S  S36  1  0.02912176  0.51456088  0.36476257  1
  S  S37  1  0.33333300  0.66666700  0.25000988  1
  S  S38  1  0.48526811  0.97053621  0.13522622  1
  S  S39  1  0.48543912  0.97087824  0.36476257  1
  S  S40  1  0.33333300  0.66666700  0.64072828  1
  S  S41  1  0.33333300  0.66666700  0.85843907  1
  S  S42  1  0.18130653  0.36261306  0.98780572  1
  S  S43  1  0.13689626  0.27379253  0.25466657  1
  S  S44  1  0.18107705  0.36215411  0.51168015  1
  S  S45  1  0.27379253  0.13689626  0.75466657  1
  S  S46  1  0.48526811  0.51473189  0.13522622  1
  S  S47  1  0.48543912  0.51456088  0.36476257  1
  S  S48  1  0.63738694  0.81869347  0.98780572  1
  S  S49  1  0.63784589  0.81892295  0.51168015  1
  S  S50  1  0.36261306  0.18130653  0.48780572  1
  S  S51  1  0.36215411  0.18107705  0.01168015  1
  S  S52  1  0.51456088  0.48543912  0.86476257  1
  S  S53  1  0.51473189  0.48526811  0.63522622  1
  S  S54  1  0.72620747  0.86310374  0.25466657  1
  S  S55  1  0.66666700  0.33333300  0.14072828  1
  S  S56  1  0.51473189  0.02946379  0.63522622  1
  S  S57  1  0.81892295  0.63784589  0.01168015  1
  S  S58  1  0.66666700  0.33333300  0.35843907  1
  S  S59  1  0.86310374  0.72620747  0.75466657  1
  S  S60  1  0.66666700  0.33333300  0.75000988  1
  S  S61  1  0.81869347  0.63738694  0.48780572  1
  S  S62  1  0.51456088  0.02912176  0.86476257  1
  S  S63  1  0.97087824  0.48543912  0.86476257  1
  S  S64  1  0.97053621  0.48526811  0.63522622  1
  S  S65  1  0.81892295  0.18107705  0.01168015  1
  S  S66  1  0.81869347  0.18130653  0.48780572  1
  S  S67  1  0.86310374  0.13689626  0.75466657  1
