# generated using pymatgen
data_TlPPbS4
_symmetry_space_group_name_H-M   'P 1'
_cell_length_a   6.66462427
_cell_length_b   8.94670977
_cell_length_c   12.52310691
_cell_angle_alpha   90.00000000
_cell_angle_beta   90.00000000
_cell_angle_gamma   90.00000000
_symmetry_Int_Tables_number   1
_chemical_formula_structural   TlPPbS4
_chemical_formula_sum   'Tl4 P4 Pb4 S16'
_cell_volume   746.70852160
_cell_formula_units_Z   4
loop_
 _symmetry_equiv_pos_site_id
 _symmetry_equiv_pos_as_xyz
  1  'x, y, z'
loop_
 _atom_site_type_symbol
 _atom_site_label
 _atom_site_symmetry_multiplicity
 _atom_site_fract_x
 _atom_site_fract_y
 _atom_site_fract_z
 _atom_site_occupancy
  Tl  Tl0  1  0.75000000  0.62909112  0.39170397  1
  Tl  Tl1  1  0.25000000  0.37090888  0.60829603  1
  Tl  Tl2  1  0.25000000  0.12909112  0.10829603  1
  Tl  Tl3  1  0.75000000  0.87090888  0.89170397  1
  Pb  Pb4  1  0.25000000  0.89514573  0.62960075  1
  Pb  Pb5  1  0.75000000  0.10485427  0.37039925  1
  Pb  Pb6  1  0.75000000  0.39514573  0.87039925  1
  Pb  Pb7  1  0.25000000  0.60485427  0.12960075  1
  P  P8  1  0.25000000  0.87339667  0.34692234  1
  P  P9  1  0.75000000  0.12660333  0.65307766  1
  P  P10  1  0.75000000  0.37339667  0.15307766  1
  P  P11  1  0.25000000  0.62660333  0.84692234  1
  S  S12  1  0.25000000  0.69476984  0.45023731  1
  S  S13  1  0.75000000  0.30523016  0.54976269  1
  S  S14  1  0.75000000  0.19476984  0.04976269  1
  S  S15  1  0.25000000  0.80523016  0.95023731  1
  S  S16  1  0.25000000  0.07179143  0.43091422  1
  S  S17  1  0.75000000  0.92820857  0.56908578  1
  S  S18  1  0.75000000  0.57179143  0.06908578  1
  S  S19  1  0.25000000  0.42820857  0.93091422  1
  S  S20  1  0.00399188  0.86335804  0.24849703  1
  S  S21  1  0.50399188  0.13664196  0.75150297  1
  S  S22  1  0.99600812  0.36335804  0.25150297  1
  S  S23  1  0.49600812  0.63664196  0.74849703  1
  S  S24  1  0.99600812  0.13664196  0.75150297  1
  S  S25  1  0.49600812  0.86335804  0.24849703  1
  S  S26  1  0.00399188  0.63664196  0.74849703  1
  S  S27  1  0.50399188  0.36335804  0.25150297  1
