# generated using pymatgen
data_Al6SnTe10
_symmetry_space_group_name_H-M   'P 1'
_cell_length_a   14.85223079
_cell_length_b   14.85223038
_cell_length_c   18.12301236
_cell_angle_alpha   90.00000000
_cell_angle_beta   90.00000000
_cell_angle_gamma   120.00000088
_symmetry_Int_Tables_number   1
_chemical_formula_structural   Al6SnTe10
_chemical_formula_sum   'Al36 Sn6 Te60'
_cell_volume   3462.13804859
_cell_formula_units_Z   6
loop_
 _symmetry_equiv_pos_site_id
 _symmetry_equiv_pos_as_xyz
  1  'x, y, z'
loop_
 _atom_site_type_symbol
 _atom_site_label
 _atom_site_symmetry_multiplicity
 _atom_site_fract_x
 _atom_site_fract_y
 _atom_site_fract_z
 _atom_site_occupancy
  Al  Al0  1  0.99135542  0.91894757  0.91901226  1
  Al  Al1  1  0.07240785  0.08105243  0.74765474  1
  Al  Al2  1  0.00864458  0.92759215  0.41432174  1
  Al  Al3  1  0.08105243  0.07240785  0.25234526  1
  Al  Al4  1  0.14072634  0.92276209  0.59650132  1
  Al  Al5  1  0.25780044  0.81034703  0.07429765  1
  Al  Al6  1  0.11659336  0.52344935  0.93363106  1
  Al  Al7  1  0.25667595  0.67672299  0.25025763  1
  Al  Al8  1  0.25489616  0.65871483  0.74855274  1
  Al  Al9  1  0.40685599  0.88340664  0.60029806  1
  Al  Al10  1  0.18965297  0.44745341  0.40763065  1
  Al  Al11  1  0.07723791  0.21796425  0.92983432  1
  Al  Al12  1  0.40381867  0.74510384  0.41521874  1
  Al  Al13  1  0.32327701  0.57995296  0.58359163  1
  Al  Al14  1  0.34128517  0.59618133  0.08188574  1
  Al  Al15  1  0.42004704  0.74332405  0.91692463  1
  Al  Al16  1  0.21796425  0.07723791  0.07016568  1
  Al  Al17  1  0.47655065  0.59314401  0.26696406  1
  Al  Al18  1  0.55254659  0.74219956  0.74096465  1
  Al  Al19  1  0.44745341  0.18965297  0.59236935  1
  Al  Al20  1  0.78203575  0.85927366  0.26316732  1
  Al  Al21  1  0.59314401  0.47655065  0.73303594  1
  Al  Al22  1  0.57995296  0.32327701  0.41640837  1
  Al  Al23  1  0.59618133  0.34128517  0.91811426  1
  Al  Al24  1  0.52344935  0.11659336  0.06636894  1
  Al  Al25  1  0.74219956  0.55254659  0.25903535  1
  Al  Al26  1  0.85927366  0.78203575  0.73683268  1
  Al  Al27  1  0.65871483  0.25489616  0.25144726  1
  Al  Al28  1  0.74332405  0.42004704  0.08307537  1
  Al  Al29  1  0.74510384  0.40381867  0.58478126  1
  Al  Al30  1  0.67672299  0.25667595  0.74974237  1
  Al  Al31  1  0.88340664  0.40685599  0.39970194  1
  Al  Al32  1  0.81034703  0.25780044  0.92570235  1
  Al  Al33  1  0.92276209  0.14072634  0.40349868  1
  Al  Al34  1  0.92759215  0.00864458  0.58567826  1
  Al  Al35  1  0.91894757  0.99135542  0.08098774  1
  Sn  Sn36  1  0.08827645  0.74080697  0.84355861  1
  Sn  Sn37  1  0.25919303  0.34746947  0.17689161  1
  Sn  Sn38  1  0.65253053  0.91172355  0.51022561  1
  Sn  Sn39  1  0.34746947  0.25919303  0.82310839  1
  Sn  Sn40  1  0.91172355  0.65253053  0.48977439  1
  Sn  Sn41  1  0.74080697  0.08827645  0.15644139  1
  Te  Te42  1  0.15614489  0.00000000  0.83333300  1
  Te  Te43  1  0.03443220  0.90041452  0.06101715  1
  Te  Te44  1  0.24712707  0.24712707  0.00000000  1
  Te  Te45  1  0.00000000  0.75287293  0.66666700  1
  Te  Te46  1  0.13955219  0.86784577  0.45751098  1
  Te  Te47  1  0.08719033  0.66309423  0.00496321  1
  Te  Te48  1  0.06358054  0.52716089  0.79407606  1
  Te  Te49  1  0.21617652  0.82033045  0.21188318  1
  Te  Te50  1  0.33072424  0.99904157  0.00749301  1
  Te  Te51  1  0.00095843  0.33168267  0.34082601  1
  Te  Te52  1  0.19820945  0.63140637  0.39289663  1
  Te  Te53  1  0.23434492  0.69914725  0.60651724  1
  Te  Te54  1  0.17314299  0.51271538  0.16302573  1
  Te  Te55  1  1.00000000  0.15614489  0.16666700  1
  Te  Te56  1  0.33957239  0.82685701  0.82969273  1
  Te  Te57  1  0.17966955  0.39584606  0.54521718  1
  Te  Te58  1  0.46358035  0.93641946  0.46074306  1
  Te  Te59  1  0.13215423  0.27170642  0.79084398  1
  Te  Te60  1  0.43319692  0.80179055  0.05956363  1
  Te  Te61  1  0.09958548  0.13401768  0.39435015  1
  Te  Te62  1  0.30085275  0.53519767  0.93985024  1
  Te  Te63  1  0.46480233  0.76565508  0.27318324  1
  Te  Te64  1  0.13401768  0.09958548  0.60564985  1
  Te  Te65  1  0.36859363  0.56680308  0.72623063  1
  Te  Te66  1  0.57590391  0.91280967  0.67163021  1
  Te  Te67  1  0.33690577  0.42409609  0.33829621  1
  Te  Te68  1  0.48728462  0.66042761  0.49635973  1
  Te  Te69  1  0.47283911  0.53641965  0.12740906  1
  Te  Te70  1  0.27170642  0.13215423  0.20915602  1
  Te  Te71  1  0.60415394  0.78382348  0.87855018  1
  Te  Te72  1  0.42409609  0.33690577  0.66170379  1
  Te  Te73  1  0.72829358  0.86044781  0.12417698  1
  Te  Te74  1  0.53641965  0.47283911  0.87259094  1
  Te  Te75  1  0.39584606  0.17966955  0.45478282  1
  Te  Te76  1  0.33168267  0.00095843  0.65917399  1
  Te  Te77  1  0.66831733  0.66927576  0.67416001  1
  Te  Te78  1  0.66927576  0.66831733  0.32583999  1
  Te  Te79  1  0.56680308  0.36859363  0.27376937  1
  Te  Te80  1  0.86598232  0.96556780  0.72768415  1
  Te  Te81  1  0.53519767  0.30085275  0.06014976  1
  Te  Te82  1  0.66042761  0.48728462  0.50364027  1
  Te  Te83  1  0.51271538  0.17314299  0.83697427  1
  Te  Te84  1  0.78382348  0.60415394  0.12144982  1
  Te  Te85  1  0.52716089  0.06358054  0.20592394  1
  Te  Te86  1  0.86044781  0.72829358  0.87582302  1
  Te  Te87  1  0.63140637  0.19820945  0.60710337  1
  Te  Te88  1  0.96556780  0.86598232  0.27231585  1
  Te  Te89  1  0.76565508  0.46480233  0.72681676  1
  Te  Te90  1  0.69914725  0.23434492  0.39348276  1
  Te  Te91  1  0.80179055  0.43319692  0.94043637  1
  Te  Te92  1  0.66309423  0.08719033  0.99503679  1
  Te  Te93  1  0.91280967  0.57590391  0.32836979  1
  Te  Te94  1  0.82685701  0.33957239  0.17030727  1
  Te  Te95  1  0.93641946  0.46358035  0.53925694  1
  Te  Te96  1  0.82033045  0.21617652  0.78811682  1
  Te  Te97  1  0.75287293  0.00000000  0.33333300  1
  Te  Te98  1  0.86784577  0.13955219  0.54248902  1
  Te  Te99  1  0.99904157  0.33072424  0.99250699  1
  Te  Te100  1  0.90041452  0.03443220  0.93898285  1
  Te  Te101  1  0.84385511  0.84385511  0.50000000  1
