# generated using pymatgen
data_KNO3
_symmetry_space_group_name_H-M   'P 1'
_cell_length_a   5.49905856
_cell_length_b   6.59908829
_cell_length_c   9.29708997
_cell_angle_alpha   90.00000000
_cell_angle_beta   90.00000000
_cell_angle_gamma   90.00000000
_symmetry_Int_Tables_number   1
_chemical_formula_structural   KNO3
_chemical_formula_sum   'K4 N4 O12'
_cell_volume   337.37998701
_cell_formula_units_Z   4
loop_
 _symmetry_equiv_pos_site_id
 _symmetry_equiv_pos_as_xyz
  1  'x, y, z'
loop_
 _atom_site_type_symbol
 _atom_site_label
 _atom_site_symmetry_multiplicity
 _atom_site_fract_x
 _atom_site_fract_y
 _atom_site_fract_z
 _atom_site_occupancy
  N  N0  1  0.25000000  0.91370127  0.74528309  1
  N  N1  1  0.75000000  0.08629873  0.25471691  1
  N  N2  1  0.25000000  0.41370127  0.75471691  1
  N  N3  1  0.75000000  0.58629873  0.24528309  1
  O  O4  1  0.45010919  0.41338014  0.68633428  1
  O  O5  1  0.95010919  0.58661986  0.31366572  1
  O  O6  1  0.04989081  0.91338014  0.81366572  1
  O  O7  1  0.54989081  0.08661986  0.18633428  1
  O  O8  1  0.75000000  0.58989263  0.10873581  1
  O  O9  1  0.25000000  0.41010737  0.89126419  1
  O  O10  1  0.75000000  0.08989263  0.39126419  1
  O  O11  1  0.25000000  0.91010737  0.60873581  1
  O  O12  1  0.54989081  0.58661986  0.31366572  1
  O  O13  1  0.04989081  0.41338014  0.68633428  1
  O  O14  1  0.95010919  0.08661986  0.18633428  1
  O  O15  1  0.45010919  0.91338014  0.81366572  1
  K  K16  1  0.25000000  0.75457962  0.08316679  1
  K  K17  1  0.75000000  0.24542038  0.91683321  1
  K  K18  1  0.25000000  0.25457962  0.41683321  1
  K  K19  1  0.75000000  0.74542038  0.58316679  1
