# generated using pymatgen
data_LaNbO4
_symmetry_space_group_name_H-M   'P 1'
_cell_length_a   5.44762617
_cell_length_b   5.44814996
_cell_length_c   7.02045085
_cell_angle_alpha   112.83410332
_cell_angle_beta   112.83028933
_cell_angle_gamma   89.99414753
_symmetry_Int_Tables_number   1
_chemical_formula_structural   LaNbO4
_chemical_formula_sum   'La2 Nb2 O8'
_cell_volume   174.19110616
_cell_formula_units_Z   2
loop_
 _symmetry_equiv_pos_site_id
 _symmetry_equiv_pos_as_xyz
  1  'x, y, z'
loop_
 _atom_site_type_symbol
 _atom_site_label
 _atom_site_symmetry_multiplicity
 _atom_site_fract_x
 _atom_site_fract_y
 _atom_site_fract_z
 _atom_site_occupancy
  O  O0  1  0.95005198  0.78542882  0.57792114  1
  O  O1  1  0.79251582  0.44998960  0.07796603  1
  O  O2  1  0.28540127  0.12796564  0.07795782  1
  O  O3  1  0.62792166  0.29253484  0.57793838  1
  O  O4  1  0.37207834  0.70746516  0.42206162  1
  O  O5  1  0.71459873  0.87203436  0.92204218  1
  O  O6  1  0.20748418  0.55001040  0.92203397  1
  O  O7  1  0.04994802  0.21457118  0.42207886  1
  Nb  Nb8  1  0.87500157  0.62499034  0.74993871  1
  Nb  Nb9  1  0.12499843  0.37500966  0.25006129  1
  La  La10  1  0.37499878  0.12499813  0.74999651  1
  La  La11  1  0.62500122  0.87500187  0.25000349  1
