# generated using pymatgen
data_Cs3V2Cl9
_symmetry_space_group_name_H-M   'P 1'
_cell_length_a   7.48688785
_cell_length_b   7.48688792
_cell_length_c   18.28066870
_cell_angle_alpha   90.00000000
_cell_angle_beta   90.00000000
_cell_angle_gamma   119.99999964
_symmetry_Int_Tables_number   1
_chemical_formula_structural   Cs3V2Cl9
_chemical_formula_sum   'Cs6 V4 Cl18'
_cell_volume   887.41215053
_cell_formula_units_Z   2
loop_
 _symmetry_equiv_pos_site_id
 _symmetry_equiv_pos_as_xyz
  1  'x, y, z'
loop_
 _atom_site_type_symbol
 _atom_site_label
 _atom_site_symmetry_multiplicity
 _atom_site_fract_x
 _atom_site_fract_y
 _atom_site_fract_z
 _atom_site_occupancy
  Cs  Cs0  1  0.00000000  0.00000000  0.25000000  1
  Cs  Cs1  1  0.00000000  0.00000000  0.75000000  1
  Cs  Cs2  1  0.33333300  0.66666700  0.07457656  1
  Cs  Cs3  1  0.66666700  0.33333300  0.57457656  1
  Cs  Cs4  1  0.66666700  0.33333300  0.92542344  1
  Cs  Cs5  1  0.33333300  0.66666700  0.42542344  1
  V  V6  1  0.33333300  0.66666700  0.83508932  1
  V  V7  1  0.66666700  0.33333300  0.33508932  1
  V  V8  1  0.66666700  0.33333300  0.16491068  1
  V  V9  1  0.33333300  0.66666700  0.66491068  1
  Cl  Cl10  1  0.51964768  0.03929537  0.25000000  1
  Cl  Cl11  1  0.48035232  0.51964768  0.75000000  1
  Cl  Cl12  1  0.03929537  0.51964768  0.75000000  1
  Cl  Cl13  1  0.96070463  0.48035232  0.25000000  1
  Cl  Cl14  1  0.51964768  0.48035232  0.25000000  1
  Cl  Cl15  1  0.48035232  0.96070463  0.75000000  1
  Cl  Cl16  1  0.81733064  0.63466127  0.09540203  1
  Cl  Cl17  1  0.18266936  0.81733064  0.59540203  1
  Cl  Cl18  1  0.63466127  0.81733064  0.59540203  1
  Cl  Cl19  1  0.36533873  0.18266936  0.09540203  1
  Cl  Cl20  1  0.81733064  0.18266936  0.09540203  1
  Cl  Cl21  1  0.18266936  0.36533873  0.90459797  1
  Cl  Cl22  1  0.18266936  0.81733064  0.90459797  1
  Cl  Cl23  1  0.18266936  0.36533873  0.59540203  1
  Cl  Cl24  1  0.63466127  0.81733064  0.90459797  1
  Cl  Cl25  1  0.36533873  0.18266936  0.40459797  1
  Cl  Cl26  1  0.81733064  0.63466127  0.40459797  1
  Cl  Cl27  1  0.81733064  0.18266936  0.40459797  1
