# generated using pymatgen
data_Sr7Nb6O21
_symmetry_space_group_name_H-M   'P 1'
_cell_length_a   16.73547070
_cell_length_b   16.73547091
_cell_length_c   16.73547124
_cell_angle_alpha   19.78360004
_cell_angle_beta   19.78359810
_cell_angle_gamma   19.78359939
_symmetry_Int_Tables_number   1
_chemical_formula_structural   Sr7Nb6O21
_chemical_formula_sum   'Sr7 Nb6 O21'
_cell_volume   469.64923361
_cell_formula_units_Z   1
loop_
 _symmetry_equiv_pos_site_id
 _symmetry_equiv_pos_as_xyz
  1  'x, y, z'
loop_
 _atom_site_type_symbol
 _atom_site_label
 _atom_site_symmetry_multiplicity
 _atom_site_fract_x
 _atom_site_fract_y
 _atom_site_fract_z
 _atom_site_occupancy
  Sr  Sr0  1  0.84732822  0.84732822  0.84732822  1
  Sr  Sr1  1  0.76768277  0.76768277  0.76768277  1
  Sr  Sr2  1  0.23231723  0.23231723  0.23231723  1
  Sr  Sr3  1  0.15267178  0.15267178  0.15267178  1
  Sr  Sr4  1  0.38445459  0.38445459  0.38445459  1
  Sr  Sr5  1  0.61554541  0.61554541  0.61554541  1
  Sr  Sr6  1  0.00000000  -0.00000000  -0.00000000  1
  Nb  Nb7  1  0.92729334  0.92729334  0.92729334  1
  Nb  Nb8  1  0.45706428  0.45706428  0.45706428  1
  Nb  Nb9  1  0.30954295  0.30954295  0.30954295  1
  Nb  Nb10  1  0.07270666  0.07270666  0.07270666  1
  Nb  Nb11  1  0.69045705  0.69045705  0.69045705  1
  Nb  Nb12  1  0.54293572  0.54293572  0.54293572  1
  O  O13  1  0.30625919  0.75481851  0.21992550  1
  O  O14  1  0.14046991  0.70430747  0.57708020  1
  O  O15  1  0.70430747  0.57708020  0.14046991  1
  O  O16  1  0.14198668  0.62495918  0.09178563  1
  O  O17  1  0.57708020  0.14046991  0.70430747  1
  O  O18  1  0.69374081  0.24518149  0.78007450  1
  O  O19  1  0.24518149  0.78007450  0.69374081  1
  O  O20  1  0.21992550  0.30625919  0.75481851  1
  O  O21  1  0.37504082  0.90821437  0.85801332  1
  O  O22  1  0.85953009  0.29569253  0.42291980  1
  O  O23  1  0.50000000  0.50000000  -0.00000000  1
  O  O24  1  0.09178563  0.14198668  0.62495918  1
  O  O25  1  0.29569253  0.42291980  0.85953009  1
  O  O26  1  0.85801332  0.37504082  0.90821437  1
  O  O27  1  0.75481851  0.21992550  0.30625919  1
  O  O28  1  0.42291980  0.85953009  0.29569253  1
  O  O29  1  0.62495918  0.09178563  0.14198668  1
  O  O30  1  0.90821437  0.85801332  0.37504082  1
  O  O31  1  0.78007450  0.69374081  0.24518149  1
  O  O32  1  0.00000000  0.50000000  0.50000000  1
  O  O33  1  0.50000000  -0.00000000  0.50000000  1
