# generated using pymatgen
data_Zr3P3Pd4
_symmetry_space_group_name_H-M   'P 1'
_cell_length_a   3.85873029
_cell_length_b   10.08250987
_cell_length_c   16.54898277
_cell_angle_alpha   90.00000000
_cell_angle_beta   90.00000000
_cell_angle_gamma   90.00000000
_symmetry_Int_Tables_number   1
_chemical_formula_structural   Zr3P3Pd4
_chemical_formula_sum   'Zr12 P12 Pd16'
_cell_volume   643.84953115
_cell_formula_units_Z   4
loop_
 _symmetry_equiv_pos_site_id
 _symmetry_equiv_pos_as_xyz
  1  'x, y, z'
loop_
 _atom_site_type_symbol
 _atom_site_label
 _atom_site_symmetry_multiplicity
 _atom_site_fract_x
 _atom_site_fract_y
 _atom_site_fract_z
 _atom_site_occupancy
  Zr  Zr0  1  0.25000000  0.02335396  0.26039597  1
  Zr  Zr1  1  0.75000000  0.97664604  0.73960403  1
  Zr  Zr2  1  0.75000000  0.52335396  0.23960403  1
  Zr  Zr3  1  0.25000000  0.47664604  0.76039597  1
  Zr  Zr4  1  0.25000000  0.88299932  0.45172004  1
  Zr  Zr5  1  0.75000000  0.11700068  0.54827996  1
  Zr  Zr6  1  0.75000000  0.38299932  0.04827996  1
  Zr  Zr7  1  0.25000000  0.61700068  0.95172004  1
  Zr  Zr8  1  0.25000000  0.58904551  0.56070807  1
  Zr  Zr9  1  0.75000000  0.41095449  0.43929193  1
  Zr  Zr10  1  0.75000000  0.08904551  0.93929193  1
  Zr  Zr11  1  0.25000000  0.91095449  0.06070807  1
  Pd  Pd12  1  0.25000000  0.31106537  0.17616373  1
  Pd  Pd13  1  0.75000000  0.68893463  0.82383627  1
  Pd  Pd14  1  0.75000000  0.81106537  0.32383627  1
  Pd  Pd15  1  0.25000000  0.18893463  0.67616373  1
  Pd  Pd16  1  0.25000000  0.73545534  0.20621730  1
  Pd  Pd17  1  0.75000000  0.26454466  0.79378270  1
  Pd  Pd18  1  0.75000000  0.23545534  0.29378270  1
  Pd  Pd19  1  0.25000000  0.76454466  0.70621730  1
  Pd  Pd20  1  0.25000000  0.61720864  0.37153135  1
  Pd  Pd21  1  0.75000000  0.38279136  0.62846865  1
  Pd  Pd22  1  0.75000000  0.11720864  0.12846865  1
  Pd  Pd23  1  0.25000000  0.88279136  0.87153135  1
  Pd  Pd24  1  0.25000000  0.18274056  0.41862574  1
  Pd  Pd25  1  0.75000000  0.81725944  0.58137426  1
  Pd  Pd26  1  0.75000000  0.68274056  0.08137426  1
  Pd  Pd27  1  0.25000000  0.31725944  0.91862574  1
  P  P28  1  0.25000000  0.18040965  0.04510760  1
  P  P29  1  0.75000000  0.81959035  0.95489240  1
  P  P30  1  0.75000000  0.68040965  0.45489240  1
  P  P31  1  0.25000000  0.31959035  0.54510760  1
  P  P32  1  0.25000000  0.53695297  0.11417813  1
  P  P33  1  0.75000000  0.46304703  0.88582187  1
  P  P34  1  0.75000000  0.03695297  0.38582187  1
  P  P35  1  0.25000000  0.96304703  0.61417813  1
  P  P36  1  0.25000000  0.38870901  0.32261388  1
  P  P37  1  0.75000000  0.61129099  0.67738612  1
  P  P38  1  0.75000000  0.88870901  0.17738612  1
  P  P39  1  0.25000000  0.11129099  0.82261388  1
