# generated using pymatgen
data_Ca3GaAs3
_symmetry_space_group_name_H-M   'P 1'
_cell_length_a   4.22232304
_cell_length_b   12.28719616
_cell_length_c   13.52907406
_cell_angle_alpha   90.00000000
_cell_angle_beta   90.00000000
_cell_angle_gamma   90.00000000
_symmetry_Int_Tables_number   1
_chemical_formula_structural   Ca3GaAs3
_chemical_formula_sum   'Ca12 Ga4 As12'
_cell_volume   701.89528159
_cell_formula_units_Z   4
loop_
 _symmetry_equiv_pos_site_id
 _symmetry_equiv_pos_as_xyz
  1  'x, y, z'
loop_
 _atom_site_type_symbol
 _atom_site_label
 _atom_site_symmetry_multiplicity
 _atom_site_fract_x
 _atom_site_fract_y
 _atom_site_fract_z
 _atom_site_occupancy
  Ca  Ca0  1  0.75000000  0.72748160  0.71600111  1
  Ca  Ca1  1  0.25000000  0.27251840  0.28399889  1
  Ca  Ca2  1  0.75000000  0.22748160  0.78399889  1
  Ca  Ca3  1  0.25000000  0.77251840  0.21600111  1
  Ca  Ca4  1  0.75000000  0.43735208  0.60872215  1
  Ca  Ca5  1  0.25000000  0.56264792  0.39127785  1
  Ca  Ca6  1  0.75000000  0.93735208  0.89127785  1
  Ca  Ca7  1  0.25000000  0.06264792  0.10872215  1
  Ca  Ca8  1  0.75000000  0.64853114  0.00079344  1
  Ca  Ca9  1  0.25000000  0.35146886  0.99920656  1
  Ca  Ca10  1  0.75000000  0.14853114  0.49920656  1
  Ca  Ca11  1  0.25000000  0.85146886  0.50079344  1
  Ga  Ga12  1  0.75000000  0.43683078  0.20207721  1
  Ga  Ga13  1  0.25000000  0.56316922  0.79792279  1
  Ga  Ga14  1  0.75000000  0.93683078  0.29792279  1
  Ga  Ga15  1  0.25000000  0.06316922  0.70207721  1
  As  As16  1  0.75000000  0.39223735  0.38734516  1
  As  As17  1  0.25000000  0.60776265  0.61265484  1
  As  As18  1  0.75000000  0.89223735  0.11265484  1
  As  As19  1  0.25000000  0.10776265  0.88734516  1
  As  As20  1  0.75000000  0.24944066  0.12156199  1
  As  As21  1  0.25000000  0.75055934  0.87843801  1
  As  As22  1  0.75000000  0.74944066  0.37843801  1
  As  As23  1  0.25000000  0.25055934  0.62156199  1
  As  As24  1  0.75000000  0.95793454  0.64852543  1
  As  As25  1  0.25000000  0.04206546  0.35147457  1
  As  As26  1  0.75000000  0.45793454  0.85147457  1
  As  As27  1  0.25000000  0.54206546  0.14852543  1
