# generated using pymatgen
data_Zr2Fe12P7
_symmetry_space_group_name_H-M   'P 1'
_cell_length_a   8.84360299
_cell_length_b   8.84360312
_cell_length_c   3.59627040
_cell_angle_alpha   90.00000000
_cell_angle_beta   90.00000000
_cell_angle_gamma   119.99999949
_symmetry_Int_Tables_number   1
_chemical_formula_structural   Zr2Fe12P7
_chemical_formula_sum   'Zr2 Fe12 P7'
_cell_volume   243.57990381
_cell_formula_units_Z   1
loop_
 _symmetry_equiv_pos_site_id
 _symmetry_equiv_pos_as_xyz
  1  'x, y, z'
loop_
 _atom_site_type_symbol
 _atom_site_label
 _atom_site_symmetry_multiplicity
 _atom_site_fract_x
 _atom_site_fract_y
 _atom_site_fract_z
 _atom_site_occupancy
  Fe  Fe0  1  0.42981537  0.06138099  0.00000000  1
  Fe  Fe1  1  0.63156562  0.57018463  0.00000000  1
  Fe  Fe2  1  0.93861901  0.36843438  0.00000000  1
  Fe  Fe3  1  0.15568098  0.27573932  0.00000000  1
  Fe  Fe4  1  0.12005834  0.84431902  0.00000000  1
  Fe  Fe5  1  0.72426068  0.87994166  0.00000000  1
  Fe  Fe6  1  0.38454170  0.43668232  0.50000000  1
  Fe  Fe7  1  0.05214062  0.61545830  0.50000000  1
  Fe  Fe8  1  0.56331768  0.94785938  0.50000000  1
  Fe  Fe9  1  0.21609512  0.09689589  0.50000000  1
  Fe  Fe10  1  0.88080077  0.78390488  0.50000000  1
  Fe  Fe11  1  0.90310411  0.11919923  0.50000000  1
  Zr  Zr12  1  0.33333300  0.66666700  0.00000000  1
  Zr  Zr13  1  0.66666700  0.33333300  0.50000000  1
  P  P14  1  0.41306514  0.29877065  0.00000000  1
  P  P15  1  0.88570551  0.58693486  0.00000000  1
  P  P16  1  0.70122935  0.11429449  0.00000000  1
  P  P17  1  0.11404322  0.40372481  0.50000000  1
  P  P18  1  0.28968159  0.88595678  0.50000000  1
  P  P19  1  0.59627519  0.71031841  0.50000000  1
  P  P20  1  0.00000000  0.00000000  0.00000000  1
