# generated using pymatgen
data_Rb4Zr3Te16
_symmetry_space_group_name_H-M   'P 1'
_cell_length_a   11.36030308
_cell_length_b   11.36030255
_cell_length_c   15.65465388
_cell_angle_alpha   96.80409924
_cell_angle_beta   96.80409888
_cell_angle_gamma   115.31020185
_symmetry_Int_Tables_number   1
_chemical_formula_structural   Rb4Zr3Te16
_chemical_formula_sum   'Rb8 Zr6 Te32'
_cell_volume   1781.05225803
_cell_formula_units_Z   2
loop_
 _symmetry_equiv_pos_site_id
 _symmetry_equiv_pos_as_xyz
  1  'x, y, z'
loop_
 _atom_site_type_symbol
 _atom_site_label
 _atom_site_symmetry_multiplicity
 _atom_site_fract_x
 _atom_site_fract_y
 _atom_site_fract_z
 _atom_site_occupancy
  Rb  Rb0  1  0.74878798  0.45059071  0.43206208  1
  Rb  Rb1  1  0.54940929  0.25121202  0.06793792  1
  Rb  Rb2  1  0.25121202  0.54940929  0.56793792  1
  Rb  Rb3  1  0.45059071  0.74878798  0.93206208  1
  Rb  Rb4  1  0.24713198  0.97103748  0.37481599  1
  Rb  Rb5  1  0.02896252  0.75286802  0.12518401  1
  Rb  Rb6  1  0.75286802  0.02896252  0.62518401  1
  Rb  Rb7  1  0.97103748  0.24713198  0.87481599  1
  Zr  Zr8  1  0.20841942  0.43228787  0.22890320  1
  Zr  Zr9  1  0.56771213  0.79158058  0.27109680  1
  Zr  Zr10  1  0.79158058  0.56771213  0.77109680  1
  Zr  Zr11  1  0.43228787  0.20841942  0.72890320  1
  Zr  Zr12  1  0.89172275  0.10827725  0.25000000  1
  Zr  Zr13  1  0.10827725  0.89172275  0.75000000  1
  Te  Te14  1  0.15283278  0.24824158  0.36871108  1
  Te  Te15  1  0.75175842  0.84716722  0.13128892  1
  Te  Te16  1  0.84716722  0.75175842  0.63128892  1
  Te  Te17  1  0.24824158  0.15283278  0.86871108  1
  Te  Te18  1  0.90620783  0.19830858  0.43953817  1
  Te  Te19  1  0.80169142  0.09379217  0.06046183  1
  Te  Te20  1  0.09379217  0.80169142  0.56046183  1
  Te  Te21  1  0.19830858  0.90620783  0.93953817  1
  Te  Te22  1  0.84514767  0.91681862  0.37230750  1
  Te  Te23  1  0.08318138  0.15485233  0.12769250  1
  Te  Te24  1  0.15485233  0.08318138  0.62769250  1
  Te  Te25  1  0.91681862  0.84514767  0.87230750  1
  Te  Te26  1  0.73398074  0.64792334  0.24426624  1
  Te  Te27  1  0.35207666  0.26601926  0.25573376  1
  Te  Te28  1  0.26601926  0.35207666  0.75573376  1
  Te  Te29  1  0.64792334  0.73398074  0.74426624  1
  Te  Te30  1  0.92198850  0.37526132  0.21519035  1
  Te  Te31  1  0.62473868  0.07801150  0.28480965  1
  Te  Te32  1  0.07801150  0.62473868  0.78480965  1
  Te  Te33  1  0.37526132  0.92198850  0.71519035  1
  Te  Te34  1  0.11895431  0.59332362  0.33772550  1
  Te  Te35  1  0.40667638  0.88104569  0.16227450  1
  Te  Te36  1  0.88104569  0.40667638  0.66227450  1
  Te  Te37  1  0.59332362  0.11895431  0.83772550  1
  Te  Te38  1  0.45172270  0.57591328  0.37262258  1
  Te  Te39  1  0.42408672  0.54827730  0.12737742  1
  Te  Te40  1  0.54827730  0.42408672  0.62737742  1
  Te  Te41  1  0.57591328  0.45172270  0.87262258  1
  Te  Te42  1  0.47281500  0.82754997  0.43749237  1
  Te  Te43  1  0.17245003  0.52718500  0.06250763  1
  Te  Te44  1  0.52718500  0.17245003  0.56250763  1
  Te  Te45  1  0.82754997  0.47281500  0.93749237  1
