# generated using pymatgen
data_Eu(BO2)2
_symmetry_space_group_name_H-M   'P 1'
_cell_length_a   4.37490518
_cell_length_b   6.65292334
_cell_length_c   12.10690211
_cell_angle_alpha   90.00000000
_cell_angle_beta   90.00000000
_cell_angle_gamma   90.00000000
_symmetry_Int_Tables_number   1
_chemical_formula_structural   Eu(BO2)2
_chemical_formula_sum   'Eu4 B8 O16'
_cell_volume   352.38238845
_cell_formula_units_Z   4
loop_
 _symmetry_equiv_pos_site_id
 _symmetry_equiv_pos_as_xyz
  1  'x, y, z'
loop_
 _atom_site_type_symbol
 _atom_site_label
 _atom_site_symmetry_multiplicity
 _atom_site_fract_x
 _atom_site_fract_y
 _atom_site_fract_z
 _atom_site_occupancy
  Eu  Eu0  1  0.26426607  0.25000000  0.00000000  1
  Eu  Eu1  1  0.23573393  0.75000000  0.50000000  1
  Eu  Eu2  1  0.73573393  0.75000000  0.00000000  1
  Eu  Eu3  1  0.76426607  0.25000000  0.50000000  1
  B  B4  1  0.82807273  0.12433774  0.19418478  1
  B  B5  1  0.82807273  0.37566226  0.80581522  1
  B  B6  1  0.67192727  0.62433774  0.30581522  1
  B  B7  1  0.67192727  0.87566226  0.69418478  1
  B  B8  1  0.17192727  0.87566226  0.80581522  1
  B  B9  1  0.17192727  0.62433774  0.19418478  1
  B  B10  1  0.32807273  0.37566226  0.69418478  1
  B  B11  1  0.32807273  0.12433774  0.30581522  1
  O  O12  1  0.73381179  0.09310374  0.09049872  1
  O  O13  1  0.73381179  0.40689626  0.90950128  1
  O  O14  1  0.76618821  0.59310374  0.40950128  1
  O  O15  1  0.76618821  0.90689626  0.59049872  1
  O  O16  1  0.26618821  0.90689626  0.90950128  1
  O  O17  1  0.26618821  0.59310374  0.09049872  1
  O  O18  1  0.23381179  0.40689626  0.59049872  1
  O  O19  1  0.23381179  0.09310374  0.40950128  1
  O  O20  1  0.14698909  0.14450211  0.21121110  1
  O  O21  1  0.14698909  0.35549789  0.78878890  1
  O  O22  1  0.35301091  0.64450211  0.28878890  1
  O  O23  1  0.35301091  0.85549789  0.71121110  1
  O  O24  1  0.85301091  0.85549789  0.78878890  1
  O  O25  1  0.85301091  0.64450211  0.21121110  1
  O  O26  1  0.64698909  0.35549789  0.71121110  1
  O  O27  1  0.64698909  0.14450211  0.28878890  1
