# generated using pymatgen
data_Sc3(Si2Ni)2
_symmetry_space_group_name_H-M   'P 1'
_cell_length_a   3.97288655
_cell_length_b   11.63895614
_cell_length_c   11.92963325
_cell_angle_alpha   90.00000000
_cell_angle_beta   90.00000000
_cell_angle_gamma   90.00000000
_symmetry_Int_Tables_number   1
_chemical_formula_structural   Sc3(Si2Ni)2
_chemical_formula_sum   'Sc12 Si16 Ni8'
_cell_volume   551.62925138
_cell_formula_units_Z   4
loop_
 _symmetry_equiv_pos_site_id
 _symmetry_equiv_pos_as_xyz
  1  'x, y, z'
loop_
 _atom_site_type_symbol
 _atom_site_label
 _atom_site_symmetry_multiplicity
 _atom_site_fract_x
 _atom_site_fract_y
 _atom_site_fract_z
 _atom_site_occupancy
  Sc  Sc0  1  0.25000000  0.24748476  0.65166182  1
  Sc  Sc1  1  0.75000000  0.69595638  0.07978926  1
  Sc  Sc2  1  0.75000000  0.75251524  0.34833818  1
  Sc  Sc3  1  0.25000000  0.01912250  0.81427120  1
  Sc  Sc4  1  0.25000000  0.30404362  0.92021074  1
  Sc  Sc5  1  0.75000000  0.98087750  0.18572880  1
  Sc  Sc6  1  0.75000000  0.25251524  0.15166182  1
  Sc  Sc7  1  0.25000000  0.51912250  0.68572880  1
  Sc  Sc8  1  0.25000000  0.74748476  0.84833818  1
  Sc  Sc9  1  0.25000000  0.80404362  0.57978926  1
  Sc  Sc10  1  0.75000000  0.19595638  0.42021074  1
  Sc  Sc11  1  0.75000000  0.48087750  0.31427120  1
  Si  Si12  1  0.25000000  0.82667622  0.20272060  1
  Si  Si13  1  0.25000000  0.05914861  0.53230868  1
  Si  Si14  1  0.75000000  0.17332378  0.79727940  1
  Si  Si15  1  0.75000000  0.94085139  0.46769132  1
  Si  Si16  1  0.75000000  0.89259283  0.93648334  1
  Si  Si17  1  0.25000000  0.12221493  0.26674321  1
  Si  Si18  1  0.75000000  0.44085139  0.03230868  1
  Si  Si19  1  0.75000000  0.37778507  0.76674321  1
  Si  Si20  1  0.75000000  0.87778507  0.73325679  1
  Si  Si21  1  0.25000000  0.55914861  0.96769132  1
  Si  Si22  1  0.25000000  0.32667622  0.29727940  1
  Si  Si23  1  0.25000000  0.62221493  0.23325679  1
  Si  Si24  1  0.25000000  0.10740717  0.06351666  1
  Si  Si25  1  0.75000000  0.39259283  0.56351666  1
  Si  Si26  1  0.25000000  0.60740717  0.43648334  1
  Si  Si27  1  0.75000000  0.67332378  0.70272060  1
  Ni  Ni28  1  0.75000000  0.05047938  0.63398856  1
  Ni  Ni29  1  0.75000000  0.09086535  0.97231855  1
  Ni  Ni30  1  0.75000000  0.55047938  0.86601144  1
  Ni  Ni31  1  0.75000000  0.59086535  0.52768145  1
  Ni  Ni32  1  0.25000000  0.40913465  0.47231855  1
  Ni  Ni33  1  0.25000000  0.44952062  0.13398856  1
  Ni  Ni34  1  0.25000000  0.90913465  0.02768145  1
  Ni  Ni35  1  0.25000000  0.94952062  0.36601144  1
