# generated using pymatgen
data_YMn2O5
_symmetry_space_group_name_H-M   'P 1'
_cell_length_a   5.79104471
_cell_length_b   7.37490860
_cell_length_c   8.58356291
_cell_angle_alpha   90.00000000
_cell_angle_beta   90.00000000
_cell_angle_gamma   90.00000000
_symmetry_Int_Tables_number   1
_chemical_formula_structural   YMn2O5
_chemical_formula_sum   'Y4 Mn8 O20'
_cell_volume   366.59045651
_cell_formula_units_Z   4
loop_
 _symmetry_equiv_pos_site_id
 _symmetry_equiv_pos_as_xyz
  1  'x, y, z'
loop_
 _atom_site_type_symbol
 _atom_site_label
 _atom_site_symmetry_multiplicity
 _atom_site_fract_x
 _atom_site_fract_y
 _atom_site_fract_z
 _atom_site_occupancy
  Y  Y0  1  0.00000000  0.13843699  0.17070236  1
  Y  Y1  1  0.00000000  0.86156301  0.82929764  1
  Y  Y2  1  0.00000000  0.63843699  0.32929764  1
  Y  Y3  1  0.00000000  0.36156301  0.67070236  1
  Mn  Mn4  1  0.50000000  0.41105751  0.34895900  1
  Mn  Mn5  1  0.50000000  0.58894249  0.65104100  1
  Mn  Mn6  1  0.50000000  0.91105751  0.15104100  1
  Mn  Mn7  1  0.50000000  0.08894249  0.84895900  1
  Mn  Mn8  1  0.25374646  0.00000000  0.50000000  1
  Mn  Mn9  1  0.74625354  0.50000000  0.00000000  1
  Mn  Mn10  1  0.74625354  0.00000000  0.50000000  1
  Mn  Mn11  1  0.25374646  0.50000000  0.00000000  1
  O  O12  1  0.27058564  0.00000000  0.00000000  1
  O  O13  1  0.72941436  0.50000000  0.50000000  1
  O  O14  1  0.72941436  0.00000000  0.00000000  1
  O  O15  1  0.27058564  0.50000000  0.50000000  1
  O  O16  1  0.00000000  0.16327367  0.44311783  1
  O  O17  1  0.00000000  0.83672633  0.55688217  1
  O  O18  1  0.00000000  0.66327367  0.05688217  1
  O  O19  1  0.00000000  0.33672633  0.94311783  1
  O  O20  1  0.50000000  0.15157569  0.43188515  1
  O  O21  1  0.50000000  0.84842431  0.56811485  1
  O  O22  1  0.50000000  0.65157569  0.06811485  1
  O  O23  1  0.50000000  0.34842431  0.93188515  1
  O  O24  1  0.24089240  0.39423387  0.20709410  1
  O  O25  1  0.24089240  0.60576613  0.79290590  1
  O  O26  1  0.75910760  0.89423387  0.29290590  1
  O  O27  1  0.75910760  0.10576613  0.70709410  1
  O  O28  1  0.75910760  0.60576613  0.79290590  1
  O  O29  1  0.75910760  0.39423387  0.20709410  1
  O  O30  1  0.24089240  0.10576613  0.70709410  1
  O  O31  1  0.24089240  0.89423387  0.29290590  1
