# generated using pymatgen
data_Pr3RuO7
_symmetry_space_group_name_H-M   'P 1'
_cell_length_a   6.69256843
_cell_length_b   6.69256844
_cell_length_c   7.65552095
_cell_angle_alpha   90.00000000
_cell_angle_beta   90.00000000
_cell_angle_gamma   111.73125132
_symmetry_Int_Tables_number   1
_chemical_formula_structural   Pr3RuO7
_chemical_formula_sum   'Pr6 Ru2 O14'
_cell_volume   318.52515411
_cell_formula_units_Z   2
loop_
 _symmetry_equiv_pos_site_id
 _symmetry_equiv_pos_as_xyz
  1  'x, y, z'
loop_
 _atom_site_type_symbol
 _atom_site_label
 _atom_site_symmetry_multiplicity
 _atom_site_fract_x
 _atom_site_fract_y
 _atom_site_fract_z
 _atom_site_occupancy
  O  O0  1  0.58134982  0.58134982  0.75000000  1
  O  O1  1  0.41865018  0.41865018  0.25000000  1
  O  O2  1  0.10385438  0.84096686  0.75000000  1
  O  O3  1  0.89614562  0.15903314  0.25000000  1
  O  O4  1  0.84096686  0.10385438  0.75000000  1
  O  O5  1  0.15903314  0.89614562  0.25000000  1
  O  O6  1  0.19047646  0.44046053  0.96034047  1
  O  O7  1  0.80952354  0.55953947  0.46034047  1
  O  O8  1  0.44046053  0.19047646  0.96034047  1
  O  O9  1  0.55953947  0.80952354  0.46034047  1
  O  O10  1  0.19047646  0.44046053  0.53965953  1
  O  O11  1  0.80952354  0.55953947  0.03965953  1
  O  O12  1  0.55953947  0.80952354  0.03965953  1
  O  O13  1  0.44046053  0.19047646  0.53965953  1
  Ru  Ru14  1  0.50000000  0.50000000  0.50000000  1
  Ru  Ru15  1  0.50000000  0.50000000  0.00000000  1
  Pr  Pr16  1  0.91108343  0.47056371  0.75000000  1
  Pr  Pr17  1  0.08891657  0.52943629  0.25000000  1
  Pr  Pr18  1  0.47056371  0.91108343  0.75000000  1
  Pr  Pr19  1  0.52943629  0.08891657  0.25000000  1
  Pr  Pr20  1  0.00000000  0.00000000  0.50000000  1
  Pr  Pr21  1  0.00000000  0.00000000  0.00000000  1
