# generated using pymatgen
data_Ca7NbSi4O17F
_symmetry_space_group_name_H-M   'P 1'
_cell_length_a   7.44605902
_cell_length_b   10.55904820
_cell_length_c   11.01313450
_cell_angle_alpha   90.00000000
_cell_angle_beta   110.14616874
_cell_angle_gamma   90.00000000
_symmetry_Int_Tables_number   1
_chemical_formula_structural   Ca7NbSi4O17F
_chemical_formula_sum   'Ca14 Nb2 Si8 O34 F2'
_cell_volume   812.91127604
_cell_formula_units_Z   2
loop_
 _symmetry_equiv_pos_site_id
 _symmetry_equiv_pos_as_xyz
  1  'x, y, z'
loop_
 _atom_site_type_symbol
 _atom_site_label
 _atom_site_symmetry_multiplicity
 _atom_site_fract_x
 _atom_site_fract_y
 _atom_site_fract_z
 _atom_site_occupancy
  Ca  Ca0  1  0.45047959  0.65017266  0.93110060  1
  Ca  Ca1  1  0.95047959  0.34982734  0.43110060  1
  Ca  Ca2  1  0.94564201  0.66577795  0.91998090  1
  Ca  Ca3  1  0.44564201  0.33422205  0.41998090  1
  Ca  Ca4  1  0.12370156  0.38030626  0.80771963  1
  Ca  Ca5  1  0.62370156  0.61969374  0.30771963  1
  Ca  Ca6  1  0.65688955  0.37266625  0.82844016  1
  Ca  Ca7  1  0.15688955  0.62733375  0.32844016  1
  Nb  Nb8  1  0.82137365  0.14049343  0.68207686  1
  Nb  Nb9  1  0.32137365  0.85950657  0.18207686  1
  Ca  Ca10  1  0.30909469  0.13242533  0.65884818  1
  Ca  Ca11  1  0.80909469  0.86757467  0.15884818  1
  Ca  Ca12  1  0.02237949  0.83686772  0.57326307  1
  Ca  Ca13  1  0.52237949  0.16313228  0.07326307  1
  Ca  Ca14  1  0.52061613  0.84656285  0.56026570  1
  Ca  Ca15  1  0.02061613  0.15343715  0.06026570  1
  Si  Si16  1  0.70076082  0.06937046  0.36196740  1
  Si  Si17  1  0.20076082  0.93062954  0.86196740  1
  Si  Si18  1  0.13565867  0.05456806  0.37622150  1
  Si  Si19  1  0.63565867  0.94543194  0.87622150  1
  Si  Si20  1  0.26482646  0.55614599  0.61665289  1
  Si  Si21  1  0.76482646  0.44385401  0.11665289  1
  Si  Si22  1  0.81742123  0.55989600  0.60685414  1
  Si  Si23  1  0.31742123  0.44010400  0.10685414  1
  O  O24  1  0.71958726  0.01251438  0.50487160  1
  O  O25  1  0.21958726  0.98748562  0.00487160  1
  O  O26  1  0.23861199  0.97090202  0.50744550  1
  O  O27  1  0.73861199  0.02909798  0.00744550  1
  O  O28  1  0.54614400  0.99921044  0.23550660  1
  O  O29  1  0.04614400  0.00078956  0.73550660  1
  O  O30  1  0.17077836  0.00803675  0.24428626  1
  O  O31  1  0.67077836  0.99196325  0.74428626  1
  O  O32  1  0.66895926  0.22099701  0.34548283  1
  O  O33  1  0.16895926  0.77900299  0.84548283  1
  O  O34  1  0.18227261  0.20305074  0.41137075  1
  O  O35  1  0.68227261  0.79694926  0.91137075  1
  O  O36  1  0.39204485  0.50514343  0.76027542  1
  O  O37  1  0.89204485  0.49485657  0.26027542  1
  O  O38  1  0.82310230  0.50807171  0.74719421  1
  O  O39  1  0.32310230  0.49192829  0.24719421  1
  O  O40  1  0.26433814  0.46872244  0.49486993  1
  O  O41  1  0.76433814  0.53127756  0.99486993  1
  O  O42  1  0.69675274  0.47860128  0.47835851  1
  O  O43  1  0.19675274  0.52139872  0.97835851  1
  O  O44  1  0.28454934  0.70488392  0.58341441  1
  O  O45  1  0.78454934  0.29511608  0.08341441  1
  O  O46  1  0.77328544  0.71054810  0.58257133  1
  O  O47  1  0.27328544  0.28945190  0.08257133  1
  O  O48  1  0.58571783  0.23258716  0.62943714  1
  O  O49  1  0.08571783  0.76741284  0.12943714  1
  O  O50  1  0.99692248  0.23529099  0.62335377  1
  O  O51  1  0.49692248  0.76470901  0.12335377  1
  F  F52  1  0.40023600  0.24832940  0.85055578  1
  F  F53  1  0.90023600  0.75167060  0.35055578  1
  O  O54  1  0.91111340  0.22198959  0.84574224  1
  O  O55  1  0.41111340  0.77801041  0.34574224  1
  O  O56  1  0.90100138  0.02727145  0.33462382  1
  O  O57  1  0.40100138  0.97272855  0.83462382  1
  O  O58  1  0.04283873  0.52926327  0.61684887  1
  O  O59  1  0.54283873  0.47073673  0.11684887  1
