# generated using pymatgen
data_Y3Ga5O12
_symmetry_space_group_name_H-M   'P 1'
_cell_length_a   10.76565523
_cell_length_b   10.76565523
_cell_length_c   10.76565523
_cell_angle_alpha   109.47122061
_cell_angle_beta   109.47122062
_cell_angle_gamma   109.47122067
_symmetry_Int_Tables_number   1
_chemical_formula_structural   Y3Ga5O12
_chemical_formula_sum   'Y12 Ga20 O48'
_cell_volume   960.50473847
_cell_formula_units_Z   4
loop_
 _symmetry_equiv_pos_site_id
 _symmetry_equiv_pos_as_xyz
  1  'x, y, z'
loop_
 _atom_site_type_symbol
 _atom_site_label
 _atom_site_symmetry_multiplicity
 _atom_site_fract_x
 _atom_site_fract_y
 _atom_site_fract_z
 _atom_site_occupancy
  O  O0  1  0.79430895  0.41762114  0.82258450  1
  O  O1  1  0.08237886  0.87668781  0.40496336  1
  O  O2  1  0.67741550  0.09503664  0.97172445  1
  O  O3  1  0.70569105  0.52827555  0.62331219  1
  O  O4  1  0.70569105  0.67741550  0.08237886  1
  O  O5  1  0.52827555  0.62331219  0.70569105  1
  O  O6  1  0.09503664  0.62331219  0.41762114  1
  O  O7  1  0.62331219  0.70569105  0.52827555  1
  O  O8  1  0.40496336  0.82258450  0.52827555  1
  O  O9  1  0.87668781  0.97172445  0.79430895  1
  O  O10  1  0.97172445  0.79430895  0.87668781  1
  O  O11  1  0.08237886  0.70569105  0.67741550  1
  O  O12  1  0.62331219  0.41762114  0.09503664  1
  O  O13  1  0.52827555  0.40496336  0.82258450  1
  O  O14  1  0.67741550  0.08237886  0.70569105  1
  O  O15  1  0.41762114  0.09503664  0.62331219  1
  O  O16  1  0.82258450  0.52827555  0.40496336  1
  O  O17  1  0.40496336  0.08237886  0.87668781  1
  O  O18  1  0.09503664  0.97172445  0.67741550  1
  O  O19  1  0.59503664  0.17741550  0.47172445  1
  O  O20  1  0.97172445  0.67741550  0.09503664  1
  O  O21  1  0.82258450  0.79430895  0.41762114  1
  O  O22  1  0.87668781  0.40496336  0.08237886  1
  O  O23  1  0.79430895  0.87668781  0.97172445  1
  O  O24  1  0.20569105  0.58237886  0.17741550  1
  O  O25  1  0.91762114  0.12331219  0.59503664  1
  O  O26  1  0.32258450  0.90496336  0.02827555  1
  O  O27  1  0.29430895  0.47172445  0.37668781  1
  O  O28  1  0.29430895  0.32258450  0.91762114  1
  O  O29  1  0.47172445  0.37668781  0.29430895  1
  O  O30  1  0.90496336  0.37668781  0.58237886  1
  O  O31  1  0.37668781  0.29430895  0.47172445  1
  O  O32  1  0.20569105  0.12331219  0.02827555  1
  O  O33  1  0.12331219  0.59503664  0.91762114  1
  O  O34  1  0.17741550  0.20569105  0.58237886  1
  O  O35  1  0.58237886  0.17741550  0.20569105  1
  O  O36  1  0.02827555  0.32258450  0.90496336  1
  O  O37  1  0.90496336  0.02827555  0.32258450  1
  O  O38  1  0.59503664  0.91762114  0.12331219  1
  O  O39  1  0.17741550  0.47172445  0.59503664  1
  O  O40  1  0.58237886  0.90496336  0.37668781  1
  O  O41  1  0.32258450  0.91762114  0.29430895  1
  O  O42  1  0.47172445  0.59503664  0.17741550  1
  O  O43  1  0.37668781  0.58237886  0.90496336  1
  O  O44  1  0.91762114  0.29430895  0.32258450  1
  O  O45  1  0.02827555  0.20569105  0.12331219  1
  O  O46  1  0.12331219  0.02827555  0.20569105  1
  O  O47  1  0.41762114  0.82258450  0.79430895  1
  Ga  Ga48  1  0.25000000  0.12500000  0.87500000  1
  Ga  Ga49  1  0.75000000  0.87500000  0.12500000  1
  Ga  Ga50  1  0.37500000  0.25000000  0.62500000  1
  Ga  Ga51  1  0.62500000  0.37500000  0.25000000  1
  Ga  Ga52  1  0.12500000  0.75000000  0.87500000  1
  Ga  Ga53  1  0.87500000  0.12500000  0.75000000  1
  Ga  Ga54  1  0.75000000  0.37500000  0.62500000  1
  Ga  Ga55  1  0.37500000  0.62500000  0.75000000  1
  Ga  Ga56  1  0.12500000  0.87500000  0.25000000  1
  Ga  Ga57  1  0.87500000  0.25000000  0.12500000  1
  Ga  Ga58  1  0.62500000  0.75000000  0.37500000  1
  Ga  Ga59  1  0.25000000  0.62500000  0.37500000  1
  Ga  Ga60  1  0.50000000  0.50000000  0.50000000  1
  Ga  Ga61  1  0.50000000  0.50000000  0.00000000  1
  Ga  Ga62  1  0.50000000  0.00000000  0.50000000  1
  Ga  Ga63  1  0.00000000  0.50000000  0.50000000  1
  Ga  Ga64  1  0.50000000  0.00000000  0.00000000  1
  Ga  Ga65  1  0.00000000  0.00000000  0.50000000  1
  Ga  Ga66  1  0.00000000  0.50000000  0.00000000  1
  Ga  Ga67  1  0.00000000  0.00000000  0.00000000  1
  Y  Y68  1  0.25000000  0.87500000  0.62500000  1
  Y  Y69  1  0.87500000  0.62500000  0.25000000  1
  Y  Y70  1  0.62500000  0.87500000  0.75000000  1
  Y  Y71  1  0.87500000  0.75000000  0.62500000  1
  Y  Y72  1  0.62500000  0.25000000  0.87500000  1
  Y  Y73  1  0.75000000  0.62500000  0.87500000  1
  Y  Y74  1  0.75000000  0.12500000  0.37500000  1
  Y  Y75  1  0.12500000  0.37500000  0.75000000  1
  Y  Y76  1  0.37500000  0.12500000  0.25000000  1
  Y  Y77  1  0.12500000  0.25000000  0.37500000  1
  Y  Y78  1  0.37500000  0.75000000  0.12500000  1
  Y  Y79  1  0.25000000  0.37500000  0.12500000  1
