# generated using pymatgen
data_Ba2NdBiO6
_symmetry_space_group_name_H-M   'P 1'
_cell_length_a   6.22746215
_cell_length_b   6.22747521
_cell_length_c   6.26608902
_cell_angle_alpha   90.29896368
_cell_angle_beta   119.60833663
_cell_angle_gamma   119.84234253
_symmetry_Int_Tables_number   1
_chemical_formula_structural   Ba2NdBiO6
_chemical_formula_sum   'Ba2 Nd1 Bi1 O6'
_cell_volume   172.80596128
_cell_formula_units_Z   1
loop_
 _symmetry_equiv_pos_site_id
 _symmetry_equiv_pos_as_xyz
  1  'x, y, z'
loop_
 _atom_site_type_symbol
 _atom_site_label
 _atom_site_symmetry_multiplicity
 _atom_site_fract_x
 _atom_site_fract_y
 _atom_site_fract_z
 _atom_site_occupancy
  O  O0  1  0.42766254  0.26178609  0.68944792  1
  Ba  Ba1  1  0.00853154  0.75170274  0.76023665  1
  O  O2  1  0.57233823  0.73821612  0.31055410  1
  O  O3  1  0.02105165  0.29927944  0.80249089  1
  O  O4  1  0.97894773  0.70072001  0.19750754  1
  Ba  Ba5  1  0.99146919  0.24829689  0.23976287  1
  O  O6  1  0.49678815  0.21856068  0.19750909  1
  Nd  Nd7  1  0.49999939  0.00000014  0.50000040  1
  O  O8  1  0.50321176  0.78143842  0.80249141  1
  Bi  Bi9  1  0.49999982  0.49999948  0.99999912  1
