# generated using pymatgen
data_Fe7(PO4)6
_symmetry_space_group_name_H-M   'P 1'
_cell_length_a   6.44715916
_cell_length_b   8.06710286
_cell_length_c   9.43540209
_cell_angle_alpha   104.97769646
_cell_angle_beta   108.42212202
_cell_angle_gamma   101.44565274
_symmetry_Int_Tables_number   1
_chemical_formula_structural   Fe7(PO4)6
_chemical_formula_sum   'Fe7 P6 O24'
_cell_volume   428.24826546
_cell_formula_units_Z   1
loop_
 _symmetry_equiv_pos_site_id
 _symmetry_equiv_pos_as_xyz
  1  'x, y, z'
loop_
 _atom_site_type_symbol
 _atom_site_label
 _atom_site_symmetry_multiplicity
 _atom_site_fract_x
 _atom_site_fract_y
 _atom_site_fract_z
 _atom_site_occupancy
  Fe  Fe0  1  0.04469854  0.72417229  0.02994199  1
  Fe  Fe1  1  0.95530146  0.27582771  0.97005801  1
  Fe  Fe2  1  0.38505586  0.45372300  0.61434988  1
  Fe  Fe3  1  0.61494414  0.54627700  0.38565012  1
  Fe  Fe4  1  0.28179313  0.81097754  0.78827931  1
  Fe  Fe5  1  0.71820687  0.18902246  0.21172069  1
  Fe  Fe6  1  0.00000000  0.00000000  0.50000000  1
  P  P7  1  0.60156698  0.76987215  0.13201768  1
  P  P8  1  0.39843302  0.23012785  0.86798232  1
  P  P9  1  0.09072544  0.59390874  0.33267594  1
  P  P10  1  0.90927456  0.40609126  0.66732406  1
  P  P11  1  0.77088206  0.84855156  0.73114417  1
  P  P12  1  0.22911794  0.15144844  0.26885583  1
  O  O13  1  0.36801386  0.76574020  0.01003316  1
  O  O14  1  0.63198614  0.23425980  0.98996684  1
  O  O15  1  0.74954550  0.72263718  0.03841162  1
  O  O16  1  0.25045450  0.27736282  0.96158838  1
  O  O17  1  0.55104337  0.63455280  0.21436957  1
  O  O18  1  0.44895663  0.36544720  0.78563043  1
  O  O19  1  0.72439659  0.96086075  0.26268854  1
  O  O20  1  0.27560341  0.03913925  0.73731146  1
  O  O21  1  0.06390814  0.55029294  0.15444190  1
  O  O22  1  0.93609186  0.44970706  0.84555810  1
  O  O23  1  0.30748142  0.53975250  0.41561837  1
  O  O24  1  0.69251858  0.46024750  0.58438163  1
  O  O25  1  0.11314566  0.78692564  0.41671523  1
  O  O26  1  0.88685434  0.21307436  0.58328477  1
  O  O27  1  0.87619765  0.46665398  0.33758565  1
  O  O28  1  0.12380235  0.53334602  0.66241435  1
  O  O29  1  0.54402499  0.73090966  0.72600675  1
  O  O30  1  0.45597501  0.26909034  0.27399325  1
  O  O31  1  0.79045326  0.04682895  0.79409851  1
  O  O32  1  0.20954674  0.95317105  0.20590149  1
  O  O33  1  0.77309578  0.79867793  0.55929973  1
  O  O34  1  0.22690422  0.20132207  0.44070027  1
  O  O35  1  0.97938506  0.80923829  0.84187659  1
  O  O36  1  0.02061494  0.19076171  0.15812341  1
