# generated using pymatgen
data_BaAl2(GeO4)2
_symmetry_space_group_name_H-M   'P 1'
_cell_length_a   8.91742360
_cell_length_b   9.66901987
_cell_length_c   9.66901989
_cell_angle_alpha   88.95515136
_cell_angle_beta   82.21909184
_cell_angle_gamma   82.21908840
_symmetry_Int_Tables_number   1
_chemical_formula_structural   BaAl2(GeO4)2
_chemical_formula_sum   'Ba4 Al8 Ge8 O32'
_cell_volume   818.40856194
_cell_formula_units_Z   4
loop_
 _symmetry_equiv_pos_site_id
 _symmetry_equiv_pos_as_xyz
  1  'x, y, z'
loop_
 _atom_site_type_symbol
 _atom_site_label
 _atom_site_symmetry_multiplicity
 _atom_site_fract_x
 _atom_site_fract_y
 _atom_site_fract_z
 _atom_site_occupancy
  Ba  Ba0  1  0.71053969  0.56642666  0.56577664  1
  Ba  Ba1  1  0.28946031  0.43357334  0.43422336  1
  Ba  Ba2  1  0.21053969  0.06577664  0.06642666  1
  Ba  Ba3  1  0.78946031  0.93422336  0.93357334  1
  Al  Al4  1  0.10871528  0.70571539  0.06772973  1
  Al  Al5  1  0.39128472  0.43227027  0.79428461  1
  Al  Al6  1  0.52634659  0.05424078  0.29277913  1
  Al  Al7  1  0.02634659  0.79277913  0.55424078  1
  Al  Al8  1  0.60871528  0.56772973  0.20571539  1
  Al  Al9  1  0.89128472  0.29428461  0.93227027  1
  Al  Al10  1  0.97365341  0.20722087  0.44575922  1
  Al  Al11  1  0.47365341  0.94575922  0.70722087  1
  Ge  Ge12  1  0.47666042  0.70883622  0.94435370  1
  Ge  Ge13  1  0.97666042  0.44435370  0.20883622  1
  Ge  Ge14  1  0.89457869  0.92972451  0.29214534  1
  Ge  Ge15  1  0.60542131  0.20785466  0.57027549  1
  Ge  Ge16  1  0.52333958  0.29116378  0.05564630  1
  Ge  Ge17  1  0.10542131  0.07027549  0.70785466  1
  Ge  Ge18  1  0.02333958  0.55564630  0.79116378  1
  Ge  Ge19  1  0.39457869  0.79214534  0.42972451  1
  O  O20  1  0.50151694  0.63158234  0.36606510  1
  O  O21  1  0.00151694  0.86606510  0.13158234  1
  O  O22  1  0.03966499  0.35314577  0.35562328  1
  O  O23  1  0.78901016  0.52416035  0.26186653  1
  O  O24  1  0.28901016  0.76186653  0.02416035  1
  O  O25  1  0.71427900  0.97612347  0.23841802  1
  O  O26  1  0.60729994  0.06698376  0.68590087  1
  O  O27  1  0.71098984  0.23813347  0.97583965  1
  O  O28  1  0.99103238  0.32216682  0.07360740  1
  O  O29  1  0.21427900  0.73841802  0.47612347  1
  O  O30  1  0.10729994  0.18590087  0.56698376  1
  O  O31  1  0.39270006  0.93301624  0.31409913  1
  O  O32  1  0.99848306  0.13393490  0.86841766  1
  O  O33  1  0.38887870  0.31806778  0.93716366  1
  O  O34  1  0.50846324  0.17660476  0.42856951  1
  O  O35  1  0.28572100  0.02387653  0.76158198  1
  O  O36  1  0.21098984  0.47583965  0.73813347  1
  O  O37  1  0.00896762  0.67783318  0.92639260  1
  O  O38  1  0.50896762  0.42639260  0.17783318  1
  O  O39  1  0.46033501  0.14437672  0.14685423  1
  O  O40  1  0.11112130  0.56283634  0.18193222  1
  O  O41  1  0.61112130  0.68193222  0.06283634  1
  O  O42  1  0.78572100  0.26158198  0.52387653  1
  O  O43  1  0.49103238  0.57360740  0.82216682  1
  O  O44  1  0.96033501  0.64685423  0.64437672  1
  O  O45  1  0.99153676  0.07143049  0.32339524  1
  O  O46  1  0.89270006  0.81409913  0.43301624  1
  O  O47  1  0.49848306  0.36841766  0.63393490  1
  O  O48  1  0.49153676  0.82339524  0.57143049  1
  O  O49  1  0.88887870  0.43716366  0.81806778  1
  O  O50  1  0.53966499  0.85562328  0.85314577  1
  O  O51  1  0.00846324  0.92856951  0.67660476  1
