# generated using pymatgen
data_Na3Dy(Si2O5)3
_symmetry_space_group_name_H-M   'P 1'
_cell_length_a   10.64344898
_cell_length_b   11.65801137
_cell_length_c   11.65801198
_cell_angle_alpha   101.14735000
_cell_angle_beta   90.00000000
_cell_angle_gamma   90.00000000
_symmetry_Int_Tables_number   1
_chemical_formula_structural   Na3Dy(Si2O5)3
_chemical_formula_sum   'Na12 Dy4 Si24 O60'
_cell_volume   1419.25142162
_cell_formula_units_Z   4
loop_
 _symmetry_equiv_pos_site_id
 _symmetry_equiv_pos_as_xyz
  1  'x, y, z'
loop_
 _atom_site_type_symbol
 _atom_site_label
 _atom_site_symmetry_multiplicity
 _atom_site_fract_x
 _atom_site_fract_y
 _atom_site_fract_z
 _atom_site_occupancy
  Na  Na0  1  0.24954426  0.07220905  0.92779095  1
  Na  Na1  1  0.00000000  0.76183562  0.76183562  1
  Na  Na2  1  0.25000000  0.02702718  0.47297282  1
  Na  Na3  1  0.75000000  0.97297282  0.52702718  1
  Na  Na4  1  0.25045574  0.57220905  0.42779095  1
  Na  Na5  1  0.25000000  0.52702718  0.97297282  1
  Na  Na6  1  0.50000000  0.26183562  0.26183562  1
  Na  Na7  1  0.75000000  0.47297282  0.02702718  1
  Na  Na8  1  0.00000000  0.23816438  0.23816438  1
  Na  Na9  1  0.74954426  0.42779095  0.57220905  1
  Na  Na10  1  0.75045574  0.92779095  0.07220905  1
  Na  Na11  1  0.50000000  0.73816438  0.73816438  1
  Dy  Dy12  1  0.75000000  0.16007048  0.33992952  1
  Dy  Dy13  1  0.25000000  0.33992952  0.16007048  1
  Dy  Dy14  1  0.75000000  0.66007048  0.83992952  1
  Dy  Dy15  1  0.25000000  0.83992952  0.66007048  1
  Si  Si16  1  0.29968513  0.52775182  0.69180973  1
  Si  Si17  1  0.20031487  0.80819027  0.97224818  1
  Si  Si18  1  0.97988151  0.74178039  0.47170031  1
  Si  Si19  1  0.97988151  0.52829969  0.25821961  1
  Si  Si20  1  0.70031487  0.69180973  0.52775182  1
  Si  Si21  1  0.46599738  0.79654325  0.41644516  1
  Si  Si22  1  0.52011849  0.24178039  0.97170031  1
  Si  Si23  1  0.70031487  0.47224818  0.30819027  1
  Si  Si24  1  0.46599738  0.58355484  0.20345675  1
  Si  Si25  1  0.02011849  0.47170031  0.74178039  1
  Si  Si26  1  0.53400262  0.41644516  0.79654325  1
  Si  Si27  1  0.02011849  0.25821961  0.52829969  1
  Si  Si28  1  0.47988151  0.97170031  0.24178039  1
  Si  Si29  1  0.20031487  0.02775182  0.19180973  1
  Si  Si30  1  0.03400262  0.08355484  0.70345675  1
  Si  Si31  1  0.29968513  0.30819027  0.47224818  1
  Si  Si32  1  0.53400262  0.20345675  0.58355484  1
  Si  Si33  1  0.96599738  0.70345675  0.08355484  1
  Si  Si34  1  0.96599738  0.91644516  0.29654325  1
  Si  Si35  1  0.03400262  0.29654325  0.91644516  1
  Si  Si36  1  0.79968513  0.97224818  0.80819027  1
  Si  Si37  1  0.79968513  0.19180973  0.02775182  1
  Si  Si38  1  0.52011849  0.02829969  0.75821961  1
  Si  Si39  1  0.47988151  0.75821961  0.02829969  1
  O  O40  1  0.42417917  0.25089384  0.07806011  1
  O  O41  1  0.99178956  0.61050733  0.38949267  1
  O  O42  1  0.01360615  0.83821086  0.39064139  1
  O  O43  1  0.31847034  0.65258985  0.65602468  1
  O  O44  1  0.68152966  0.65602468  0.65258985  1
  O  O45  1  0.16853455  0.51531132  0.76528717  1
  O  O46  1  0.65771780  0.48936537  0.84107510  1
  O  O47  1  0.92417917  0.57806011  0.75089384  1
  O  O48  1  0.92417917  0.24910616  0.42193989  1
  O  O49  1  0.81847034  0.15602468  0.15258985  1
  O  O50  1  0.41190029  0.50030412  0.78049745  1
  O  O51  1  0.20235153  0.92837640  0.07162360  1
  O  O52  1  0.57582083  0.07806011  0.25089384  1
  O  O53  1  0.51360615  0.66178914  0.10935861  1
  O  O54  1  0.98639385  0.16178914  0.60935861  1
  O  O55  1  0.48639385  0.33821086  0.89064139  1
  O  O56  1  0.49178956  0.88949267  0.11050733  1
  O  O57  1  0.43669882  0.66749901  0.33250099  1
  O  O58  1  0.15771780  0.34107510  0.98936538  1
  O  O59  1  0.33146545  0.73471283  0.98468868  1
  O  O60  1  0.58809971  0.49969588  0.21950255  1
  O  O61  1  0.58809971  0.78049745  0.50030412  1
  O  O62  1  0.16853455  0.23471283  0.48468868  1
  O  O63  1  0.42417917  0.92193989  0.74910616  1
  O  O64  1  0.15771780  0.01063463  0.65892490  1
  O  O65  1  0.31847034  0.34397532  0.34741015  1
  O  O66  1  0.33146545  0.01531132  0.26528717  1
  O  O67  1  0.18152966  0.84397532  0.84741015  1
  O  O68  1  0.83146545  0.76528717  0.51531132  1
  O  O69  1  0.66853455  0.98468868  0.73471283  1
  O  O70  1  0.50821044  0.11050733  0.88949267  1
  O  O71  1  0.57582083  0.74910616  0.92193989  1
  O  O72  1  0.66853455  0.26528717  0.01531132  1
  O  O73  1  0.08809971  0.00030412  0.28049745  1
  O  O74  1  0.79764847  0.07162360  0.92837640  1
  O  O75  1  0.81847034  0.84741015  0.84397532  1
  O  O76  1  0.48639385  0.10935861  0.66178914  1
  O  O77  1  0.51360615  0.89064139  0.33821086  1
  O  O78  1  0.65771780  0.15892490  0.51063462  1
  O  O79  1  0.93669882  0.83250099  0.16749901  1
  O  O80  1  0.07582083  0.75089384  0.57806011  1
  O  O81  1  0.34228220  0.51063463  0.15892490  1
  O  O82  1  0.08809971  0.71950255  0.99969588  1
  O  O83  1  0.56330118  0.33250099  0.66749901  1
  O  O84  1  0.34228220  0.84107510  0.48936538  1
  O  O85  1  0.98639385  0.39064139  0.83821086  1
  O  O86  1  0.01360615  0.60935861  0.16178914  1
  O  O87  1  0.29764847  0.42837640  0.57162360  1
  O  O88  1  0.06330118  0.16749901  0.83250099  1
  O  O89  1  0.91190029  0.99969588  0.71950255  1
  O  O90  1  0.00821044  0.38949267  0.61050733  1
  O  O91  1  0.41190029  0.21950255  0.49969588  1
  O  O92  1  0.84228220  0.65892490  0.01063462  1
  O  O93  1  0.07582083  0.42193989  0.24910616  1
  O  O94  1  0.83146545  0.48468868  0.23471283  1
  O  O95  1  0.84228220  0.98936537  0.34107510  1
  O  O96  1  0.91190029  0.28049745  0.00030412  1
  O  O97  1  0.68152966  0.34741015  0.34397532  1
  O  O98  1  0.18152966  0.15258985  0.15602468  1
  O  O99  1  0.70235153  0.57162360  0.42837640  1
