# generated using pymatgen
data_Tl3Hg2S3ClO12
_symmetry_space_group_name_H-M   'P 1'
_cell_length_a   8.11573900
_cell_length_b   9.98962052
_cell_length_c   10.18244020
_cell_angle_alpha   90.00000000
_cell_angle_beta   110.56311605
_cell_angle_gamma   90.00000000
_symmetry_Int_Tables_number   1
_chemical_formula_structural   Tl3Hg2S3ClO12
_chemical_formula_sum   'Tl6 Hg4 S6 Cl2 O24'
_cell_volume   772.92505478
_cell_formula_units_Z   2
loop_
 _symmetry_equiv_pos_site_id
 _symmetry_equiv_pos_as_xyz
  1  'x, y, z'
loop_
 _atom_site_type_symbol
 _atom_site_label
 _atom_site_symmetry_multiplicity
 _atom_site_fract_x
 _atom_site_fract_y
 _atom_site_fract_z
 _atom_site_occupancy
  Tl  Tl0  1  0.90870160  0.25660899  0.72877934  1
  Tl  Tl1  1  0.30993094  0.12329219  0.13940439  1
  Tl  Tl2  1  0.69006906  0.62329219  0.86059561  1
  Tl  Tl3  1  0.67766726  0.44546007  0.29233438  1
  Tl  Tl4  1  0.09129840  0.75660899  0.27122066  1
  Tl  Tl5  1  0.32233274  0.94546007  0.70766562  1
  Hg  Hg6  1  0.24317555  0.57833060  0.95852263  1
  Hg  Hg7  1  0.73204491  0.86175662  0.50082495  1
  Hg  Hg8  1  0.75682445  0.07833060  0.04147737  1
  Hg  Hg9  1  0.26795509  0.36175662  0.49917505  1
  S  S10  1  0.98280378  0.91337617  0.89229873  1
  S  S11  1  0.55550343  0.79744550  0.13782259  1
  S  S12  1  0.01719622  0.41337617  0.10770127  1
  S  S13  1  0.91083998  0.11433750  0.38944589  1
  S  S14  1  0.44449657  0.29744550  0.86217741  1
  S  S15  1  0.08916002  0.61433750  0.61055411  1
  Cl  Cl16  1  0.52027310  0.70719158  0.51547389  1
  Cl  Cl17  1  0.47972690  0.20719158  0.48452611  1
  O  O18  1  0.50586671  0.65083519  0.09367210  1
  O  O19  1  0.87162897  0.04639505  0.51180023  1
  O  O20  1  0.95286350  0.54022329  0.64306270  1
  O  O21  1  0.01514493  0.45993197  0.96149323  1
  O  O22  1  0.42706264  0.36720648  0.98645160  1
  O  O23  1  0.04713650  0.04022329  0.35693730  1
  O  O24  1  0.72938697  0.78909721  0.25385678  1
  O  O25  1  0.12073376  0.99244563  0.86252865  1
  O  O26  1  0.57293736  0.86720648  0.01354840  1
  O  O27  1  0.12837103  0.54639505  0.48819977  1
  O  O28  1  0.97699718  0.26786912  0.09463082  1
  O  O29  1  0.98485507  0.95993197  0.03850677  1
  O  O30  1  0.96599475  0.25225959  0.44291603  1
  O  O31  1  0.57969858  0.35857807  0.81576030  1
  O  O32  1  0.42030142  0.85857807  0.18423970  1
  O  O33  1  0.27061303  0.28909721  0.74614322  1
  O  O34  1  0.87926624  0.49244563  0.13747135  1
  O  O35  1  0.02300282  0.76786912  0.90536918  1
  O  O36  1  0.49413329  0.15083519  0.90632790  1
  O  O37  1  0.80568294  0.93896968  0.78766336  1
  O  O38  1  0.74082553  0.12188950  0.26644567  1
  O  O39  1  0.25917447  0.62188950  0.73355433  1
  O  O40  1  0.19431706  0.43896968  0.21233664  1
  O  O41  1  0.03400525  0.75225959  0.55708397  1
