# generated using pymatgen
data_Na3Ce(PO4)2
_symmetry_space_group_name_H-M   'P 1'
_cell_length_a   5.40932524
_cell_length_b   14.18686302
_cell_length_c   18.85947930
_cell_angle_alpha   90.00000000
_cell_angle_beta   90.00000000
_cell_angle_gamma   90.00000000
_symmetry_Int_Tables_number   1
_chemical_formula_structural   Na3Ce(PO4)2
_chemical_formula_sum   'Na24 Ce8 P16 O64'
_cell_volume   1447.30201891
_cell_formula_units_Z   8
loop_
 _symmetry_equiv_pos_site_id
 _symmetry_equiv_pos_as_xyz
  1  'x, y, z'
loop_
 _atom_site_type_symbol
 _atom_site_label
 _atom_site_symmetry_multiplicity
 _atom_site_fract_x
 _atom_site_fract_y
 _atom_site_fract_z
 _atom_site_occupancy
  Na  Na0  1  -0.00166356  0.95326006  0.42661982  1
  Na  Na1  1  0.49872947  0.61551799  0.02629701  1
  Na  Na2  1  0.00871276  0.72009260  0.08357078  1
  Na  Na3  1  0.50127053  0.38448201  0.52629701  1
  Na  Na4  1  0.47120641  0.47095348  0.18746166  1
  Na  Na5  1  0.00871276  0.77990740  0.58357078  1
  Na  Na6  1  0.99128724  0.22009260  0.08357078  1
  Na  Na7  1  0.99128724  0.27990740  0.58357078  1
  Na  Na8  1  0.48186508  0.79635632  0.34592824  1
  Na  Na9  1  1.00166356  0.45326006  0.42661982  1
  Na  Na10  1  0.98794057  0.63543845  0.74774250  1
  Na  Na11  1  0.50127053  0.11551799  0.02629701  1
  Na  Na12  1  0.01205943  0.13543845  0.74774250  1
  Na  Na13  1  -0.00166356  0.54673994  0.92661982  1
  Na  Na14  1  0.47120641  0.02904652  0.68746166  1
  Na  Na15  1  0.52879359  0.52904652  0.68746166  1
  Na  Na16  1  0.51813492  0.20364368  0.84592824  1
  Na  Na17  1  0.51813492  0.29635632  0.34592824  1
  Na  Na18  1  0.01205943  0.36456155  0.24774250  1
  Na  Na19  1  0.98794057  0.86456155  0.24774250  1
  Na  Na20  1  0.52879359  0.97095348  0.18746166  1
  Na  Na21  1  0.49872947  0.88448201  0.52629701  1
  Na  Na22  1  0.48186508  0.70364368  0.84592824  1
  Na  Na23  1  1.00166356  0.04673994  0.92661982  1
  Ce  Ce24  1  0.93963063  0.88556129  0.77358494  1
  Ce  Ce25  1  0.46070187  0.36500393  1.00030939  1
  Ce  Ce26  1  0.53929813  0.86500393  1.00030939  1
  Ce  Ce27  1  0.53929813  0.63499607  0.50030939  1
  Ce  Ce28  1  0.06036937  0.11443871  0.27358494  1
  Ce  Ce29  1  0.93963063  0.61443871  0.27358494  1
  Ce  Ce30  1  0.06036937  0.38556129  0.77358494  1
  Ce  Ce31  1  0.46070187  0.13499607  0.50030939  1
  P  P32  1  0.02096122  0.97913009  0.09470762  1
  P  P33  1  0.46206531  0.73016480  0.17898782  1
  P  P34  1  0.53793469  0.26983520  0.67898782  1
  P  P35  1  0.97903878  0.02086991  0.59470762  1
  P  P36  1  1.00418402  0.77063754  0.92236716  1
  P  P37  1  -0.00418402  0.22936246  0.42236716  1
  P  P38  1  0.47695420  0.98009806  0.85111055  1
  P  P39  1  0.53793469  0.23016480  0.17898782  1
  P  P40  1  0.97903878  0.47913009  0.09470762  1
  P  P41  1  0.46206531  0.76983520  0.67898782  1
  P  P42  1  -0.00418402  0.27063754  0.92236716  1
  P  P43  1  0.52304580  0.01990194  0.35111055  1
  P  P44  1  0.52304580  0.48009806  0.85111055  1
  P  P45  1  1.00418402  0.72936246  0.42236716  1
  P  P46  1  0.47695420  0.51990194  0.35111055  1
  P  P47  1  0.02096122  0.52086991  0.59470762  1
  O  O48  1  0.53237928  0.24809019  0.59785391  1
  O  O49  1  0.60493775  0.86416116  0.69107859  1
  O  O50  1  0.96976925  0.87930267  0.92279019  1
  O  O51  1  0.99890407  0.76409611  0.34411561  1
  O  O52  1  0.01025219  0.00009985  0.67552462  1
  O  O53  1  0.52546815  0.98654634  0.42985369  1
  O  O54  1  0.11673648  0.38447046  0.07934725  1
  O  O55  1  0.69745921  0.47238796  0.31164550  1
  O  O56  1  0.74797937  0.24129673  0.95745131  1
  O  O57  1  0.98974781  0.99990015  0.17552462  1
  O  O58  1  0.69687942  0.03245123  0.57739522  1
  O  O59  1  0.47453185  0.48654634  0.42985369  1
  O  O60  1  0.00109593  0.23590389  0.84411561  1
  O  O61  1  0.88326352  0.61552954  0.57934725  1
  O  O62  1  0.03023075  0.37930267  0.92279019  1
  O  O63  1  0.81701599  0.21750754  0.20019527  1
  O  O64  1  0.09107307  0.55889219  0.04913487  1
  O  O65  1  0.78681748  0.72431875  0.96413537  1
  O  O66  1  0.23161927  0.49105061  0.31447142  1
  O  O67  1  0.25202063  0.74129673  0.95745131  1
  O  O68  1  0.21318252  0.22431875  0.96413537  1
  O  O69  1  0.18298401  0.78249246  0.70019527  1
  O  O70  1  0.46762072  0.74809019  0.59785391  1
  O  O71  1  0.78681748  0.77568125  0.46413537  1
  O  O72  1  0.18298401  0.71750754  0.20019527  1
  O  O73  1  0.48696920  0.37147381  0.84952857  1
  O  O74  1  0.74797937  0.25870327  0.45745131  1
  O  O75  1  0.23161927  0.00894939  0.81447142  1
  O  O76  1  0.60493775  0.63583884  0.19107859  1
  O  O77  1  0.42191588  0.19049950  0.72379114  1
  O  O78  1  0.30312058  0.53245123  0.57739522  1
  O  O79  1  0.69745921  0.02761204  0.81164550  1
  O  O80  1  0.69687942  0.46754877  0.07739522  1
  O  O81  1  0.99890407  0.73590389  0.84411561  1
  O  O82  1  0.01025219  0.49990015  0.17552462  1
  O  O83  1  0.88326352  0.88447046  0.07934725  1
  O  O84  1  0.25202063  0.75870327  0.45745131  1
  O  O85  1  0.51303080  0.87147381  0.84952857  1
  O  O86  1  0.57808412  0.69049950  0.72379114  1
  O  O87  1  0.21318252  0.27568125  0.46413537  1
  O  O88  1  0.42191588  0.30950050  0.22379114  1
  O  O89  1  0.00109593  0.26409611  0.34411561  1
  O  O90  1  0.96976925  0.62069733  0.42279019  1
  O  O91  1  0.30312058  0.96754877  0.07739522  1
  O  O92  1  0.47453185  0.01345366  0.92985369  1
  O  O93  1  0.48696920  0.12852619  0.34952857  1
  O  O94  1  0.90892693  0.05889219  0.04913487  1
  O  O95  1  0.51303080  0.62852619  0.34952857  1
  O  O96  1  0.46762072  0.75190981  0.09785391  1
  O  O97  1  0.52546815  0.51345366  0.92985369  1
  O  O98  1  0.09107307  0.94110781  0.54913487  1
  O  O99  1  0.30254079  0.52761204  0.81164550  1
  O  O100  1  0.53237928  0.25190981  0.09785391  1
  O  O101  1  0.39506225  0.13583884  0.19107859  1
  O  O102  1  0.03023075  0.12069733  0.42279019  1
  O  O103  1  0.39506225  0.36416116  0.69107859  1
  O  O104  1  0.81701599  0.28249246  0.70019527  1
  O  O105  1  0.90892693  0.44110781  0.54913487  1
  O  O106  1  0.57808412  0.80950050  0.22379114  1
  O  O107  1  0.76838073  0.50894939  0.81447142  1
  O  O108  1  0.30254079  0.97238796  0.31164550  1
  O  O109  1  0.98974781  0.50009985  0.67552462  1
  O  O110  1  0.76838073  0.99105061  0.31447142  1
  O  O111  1  0.11673648  0.11552954  0.57934725  1
