# generated using pymatgen
data_Sm2US5
_symmetry_space_group_name_H-M   'P 1'
_cell_length_a   7.46109175
_cell_length_b   7.99821046
_cell_length_c   11.87576330
_cell_angle_alpha   90.00000000
_cell_angle_beta   90.00000000
_cell_angle_gamma   90.00000000
_symmetry_Int_Tables_number   1
_chemical_formula_structural   Sm2US5
_chemical_formula_sum   'Sm8 U4 S20'
_cell_volume   708.69071239
_cell_formula_units_Z   4
loop_
 _symmetry_equiv_pos_site_id
 _symmetry_equiv_pos_as_xyz
  1  'x, y, z'
loop_
 _atom_site_type_symbol
 _atom_site_label
 _atom_site_symmetry_multiplicity
 _atom_site_fract_x
 _atom_site_fract_y
 _atom_site_fract_z
 _atom_site_occupancy
  Sm  Sm0  1  0.47881377  0.99889317  0.67791911  1
  Sm  Sm1  1  0.97881377  0.49889317  0.82208089  1
  Sm  Sm2  1  0.02118623  0.99889317  0.17791911  1
  Sm  Sm3  1  0.52118623  0.49889317  0.32208089  1
  Sm  Sm4  1  0.52118623  0.00110683  0.32208089  1
  Sm  Sm5  1  0.02118623  0.50110683  0.17791911  1
  Sm  Sm6  1  0.47881377  0.50110683  0.67791911  1
  Sm  Sm7  1  0.97881377  0.00110683  0.82208089  1
  U  U8  1  0.42765352  0.75000000  0.99085368  1
  U  U9  1  0.07234648  0.75000000  0.49085368  1
  U  U10  1  0.92765352  0.25000000  0.50914632  1
  U  U11  1  0.57234648  0.25000000  0.00914632  1
  S  S12  1  0.66084838  0.54311050  0.09721163  1
  S  S13  1  0.16084838  0.04311050  0.40278837  1
  S  S14  1  0.95563088  0.25000000  1.00005212  1
  S  S15  1  0.30167896  0.75000000  0.21472614  1
  S  S16  1  0.54436912  0.25000000  0.50005212  1
  S  S17  1  0.16084838  0.45688950  0.40278837  1
  S  S18  1  0.33915162  0.45688950  0.90278837  1
  S  S19  1  0.32833356  0.25000000  0.18600508  1
  S  S20  1  0.04436912  0.75000000  -0.00005212  1
  S  S21  1  0.80167896  0.25000000  0.28527386  1
  S  S22  1  0.66084838  0.95688950  0.09721163  1
  S  S23  1  0.19832104  0.75000000  0.71472614  1
  S  S24  1  0.33915162  0.04311050  0.90278837  1
  S  S25  1  0.17166644  0.25000000  0.68600508  1
  S  S26  1  0.69832104  0.25000000  0.78527386  1
  S  S27  1  0.83915162  0.54311050  0.59721163  1
  S  S28  1  0.83915162  0.95688950  0.59721163  1
  S  S29  1  0.67166644  0.75000000  0.81399492  1
  S  S30  1  0.45563088  0.75000000  0.49994788  1
  S  S31  1  0.82833356  0.75000000  0.31399492  1
