# generated using pymatgen
data_CsAu(SO4)2
_symmetry_space_group_name_H-M   'P 1'
_cell_length_a   9.30700493
_cell_length_b   9.24685567
_cell_length_c   10.55066466
_cell_angle_alpha   111.41054368
_cell_angle_beta   90.00000000
_cell_angle_gamma   90.00000000
_symmetry_Int_Tables_number   1
_chemical_formula_structural   CsAu(SO4)2
_chemical_formula_sum   'Cs4 Au4 S8 O32'
_cell_volume   845.33379424
_cell_formula_units_Z   4
loop_
 _symmetry_equiv_pos_site_id
 _symmetry_equiv_pos_as_xyz
  1  'x, y, z'
loop_
 _atom_site_type_symbol
 _atom_site_label
 _atom_site_symmetry_multiplicity
 _atom_site_fract_x
 _atom_site_fract_y
 _atom_site_fract_z
 _atom_site_occupancy
  Cs  Cs0  1  0.85942164  0.61232892  0.75605648  1
  Cs  Cs1  1  0.35942164  0.88767108  0.24394352  1
  Cs  Cs2  1  0.14057836  0.38767108  0.24394352  1
  Cs  Cs3  1  0.64057836  0.11232892  0.75605648  1
  Au  Au4  1  0.64447762  0.36691556  0.28896288  1
  Au  Au5  1  0.85552238  0.86691556  0.28896288  1
  Au  Au6  1  0.14447762  0.13308444  0.71103712  1
  Au  Au7  1  0.35552238  0.63308444  0.71103712  1
  S  S8  1  0.25714386  0.45990681  0.90164833  1
  S  S9  1  0.52868112  0.69543269  0.47366621  1
  S  S10  1  0.24285614  0.95990681  0.90164833  1
  S  S11  1  0.74285614  0.54009319  0.09835167  1
  S  S12  1  0.02868112  0.80456731  0.52633379  1
  S  S13  1  0.97131888  0.19543269  0.47366621  1
  S  S14  1  0.75714386  0.04009319  0.09835167  1
  S  S15  1  0.47131888  0.30456731  0.52633379  1
  O  O16  1  0.29366588  0.03790046  0.80038648  1
  O  O17  1  0.50599376  0.25327810  0.37130034  1
  O  O18  1  0.64556324  0.56882207  0.45438913  1
  O  O19  1  0.49400624  0.74672190  0.62869966  1
  O  O20  1  0.00599376  0.24672190  0.62869966  1
  O  O21  1  0.76678207  0.43470689  0.95932693  1
  O  O22  1  0.79366588  0.46209954  0.19961352  1
  O  O23  1  0.60092731  0.60486279  0.13453966  1
  O  O24  1  0.09475152  0.66753689  0.53766541  1
  O  O25  1  0.14556324  0.93117793  0.54561087  1
  O  O26  1  0.70633412  0.96209954  0.19961352  1
  O  O27  1  0.59475152  0.83246311  0.46233459  1
  O  O28  1  0.26678207  0.06529311  0.04067307  1
  O  O29  1  0.35443676  0.43117793  0.54561087  1
  O  O30  1  0.10092731  0.89513721  0.86546034  1
  O  O31  1  0.09489763  0.13241875  0.38819782  1
  O  O32  1  0.89907269  0.10486279  0.13453966  1
  O  O33  1  0.20633412  0.53790046  0.80038648  1
  O  O34  1  0.64032211  0.16812006  0.11998711  1
  O  O35  1  0.99400624  0.75327810  0.37130034  1
  O  O36  1  0.40510237  0.63241875  0.38819782  1
  O  O37  1  0.59489763  0.36758125  0.61180218  1
  O  O38  1  0.85443676  0.06882207  0.45438913  1
  O  O39  1  0.35967789  0.83187994  0.88001289  1
  O  O40  1  0.40524848  0.16753689  0.53766541  1
  O  O41  1  0.23321793  0.56529311  0.04067307  1
  O  O42  1  0.39907269  0.39513721  0.86546034  1
  O  O43  1  0.73321793  0.93470689  0.95932693  1
  O  O44  1  0.90524848  0.33246311  0.46233459  1
  O  O45  1  0.85967789  0.66812006  0.11998711  1
  O  O46  1  0.14032211  0.33187994  0.88001289  1
  O  O47  1  0.90510237  0.86758125  0.61180218  1
