# generated using pymatgen
data_Tb(IO3)3
_symmetry_space_group_name_H-M   'P 1'
_cell_length_a   6.11634671
_cell_length_b   8.82671232
_cell_length_c   15.34237147
_cell_angle_alpha   96.74773120
_cell_angle_beta   90.00000000
_cell_angle_gamma   90.00000000
_symmetry_Int_Tables_number   1
_chemical_formula_structural   Tb(IO3)3
_chemical_formula_sum   'Tb4 I12 O36'
_cell_volume   822.55469300
_cell_formula_units_Z   4
loop_
 _symmetry_equiv_pos_site_id
 _symmetry_equiv_pos_as_xyz
  1  'x, y, z'
loop_
 _atom_site_type_symbol
 _atom_site_label
 _atom_site_symmetry_multiplicity
 _atom_site_fract_x
 _atom_site_fract_y
 _atom_site_fract_z
 _atom_site_occupancy
  Tb  Tb0  1  0.21417067  0.04286747  0.89628661  1
  Tb  Tb1  1  0.28582933  0.54286747  0.39628661  1
  Tb  Tb2  1  0.71417067  0.45713253  0.60371339  1
  Tb  Tb3  1  0.78582933  0.95713253  0.10371339  1
  I  I4  1  0.35654039  0.16481288  0.52021682  1
  I  I5  1  0.81281848  0.28503359  0.35720923  1
  I  I6  1  0.18718152  0.71496641  0.64279077  1
  I  I7  1  0.31281848  0.21496641  0.14279077  1
  I  I8  1  0.09371421  0.88383703  0.30219433  1
  I  I9  1  0.90628579  0.11616297  0.69780567  1
  I  I10  1  0.68718152  0.78503359  0.85720923  1
  I  I11  1  0.59371421  0.61616297  0.19780567  1
  I  I12  1  0.64345961  0.83518712  0.47978318  1
  I  I13  1  0.14345961  0.66481288  0.02021682  1
  I  I14  1  0.40628579  0.38383703  0.80219433  1
  I  I15  1  0.85654039  0.33518712  0.97978318  1
  O  O16  1  0.08304566  0.04830979  0.38749297  1
  O  O17  1  0.37656404  0.14203123  0.02947624  1
  O  O18  1  0.97175569  0.72441471  0.11707021  1
  O  O19  1  0.52824431  0.22441471  0.61707021  1
  O  O20  1  0.89375540  0.92580424  0.82981119  1
  O  O21  1  0.10624460  0.07419576  0.17018881  1
  O  O22  1  0.05500783  0.37123985  0.31140336  1
  O  O23  1  0.02824431  0.27558529  0.88292979  1
  O  O24  1  0.58304566  0.45169021  0.11250703  1
  O  O25  1  0.91695434  0.95169021  0.61250703  1
  O  O26  1  0.07365849  0.41276111  0.05814672  1
  O  O27  1  0.39375540  0.57419576  0.67018881  1
  O  O28  1  0.61966024  0.64065319  0.51370907  1
  O  O29  1  0.57365849  0.08723889  0.44185328  1
  O  O30  1  0.87656404  0.35796877  0.47052376  1
  O  O31  1  0.55500783  0.12876015  0.18859664  1
  O  O32  1  0.94499217  0.62876015  0.68859664  1
  O  O33  1  0.60624460  0.42580424  0.32981119  1
  O  O34  1  0.42634151  0.91276111  0.55814672  1
  O  O35  1  0.49029157  0.22941062  0.86632282  1
  O  O36  1  0.47175569  0.77558529  0.38292979  1
  O  O37  1  0.92634151  0.58723889  0.94185328  1
  O  O38  1  0.99029157  0.27058938  0.63367718  1
  O  O39  1  0.41695434  0.54830979  0.88749297  1
  O  O40  1  0.17793379  0.08944761  0.74475229  1
  O  O41  1  0.38033976  0.35934681  0.48629093  1
  O  O42  1  0.44499217  0.87123985  0.81140336  1
  O  O43  1  0.12343596  0.64203123  0.52947624  1
  O  O44  1  0.88033976  0.14065319  0.01370907  1
  O  O45  1  0.11966024  0.85934681  0.98629093  1
  O  O46  1  0.67793379  0.41055239  0.75524771  1
  O  O47  1  0.82206621  0.91055239  0.25524771  1
  O  O48  1  0.50970843  0.77058938  0.13367718  1
  O  O49  1  0.62343596  0.85796877  0.97052376  1
  O  O50  1  0.00970843  0.72941062  0.36632282  1
  O  O51  1  0.32206621  0.58944761  0.24475229  1
