# generated using pymatgen
data_Np2O5
_symmetry_space_group_name_H-M   'P 1'
_cell_length_a   6.67830674
_cell_length_b   8.03292142
_cell_length_c   9.27533917
_cell_angle_alpha   115.51003138
_cell_angle_beta   90.00000000
_cell_angle_gamma   90.00000000
_symmetry_Int_Tables_number   1
_chemical_formula_structural   Np2O5
_chemical_formula_sum   'Np8 O20'
_cell_volume   449.07786941
_cell_formula_units_Z   4
loop_
 _symmetry_equiv_pos_site_id
 _symmetry_equiv_pos_as_xyz
  1  'x, y, z'
loop_
 _atom_site_type_symbol
 _atom_site_label
 _atom_site_symmetry_multiplicity
 _atom_site_fract_x
 _atom_site_fract_y
 _atom_site_fract_z
 _atom_site_occupancy
  Np  Np0  1  0.71156406  0.75000000  0.75000000  1
  Np  Np1  1  0.24874310  0.00041258  0.75038462  1
  Np  Np2  1  0.24874310  0.49958742  0.74961538  1
  Np  Np3  1  0.21442037  0.75000000  0.25000000  1
  Np  Np4  1  0.28843594  0.25000000  0.25000000  1
  Np  Np5  1  0.75125690  0.99958742  0.24961538  1
  Np  Np6  1  0.75125690  0.50041258  0.25038462  1
  Np  Np7  1  0.78557963  0.25000000  0.75000000  1
  O  O8  1  0.64807197  0.25000000  0.25000000  1
  O  O9  1  0.28120959  0.36060205  0.47898221  1
  O  O10  1  0.71879041  0.63939795  0.52101779  1
  O  O11  1  0.22022684  0.86264277  0.47844016  1
  O  O12  1  0.35192803  0.75000000  0.75000000  1
  O  O13  1  0.28120959  0.13939795  0.02101779  1
  O  O14  1  0.22022684  0.63735723  0.02155984  1
  O  O15  1  0.77977316  0.36264277  0.97844016  1
  O  O16  1  0.45272908  0.96173882  0.25792148  1
  O  O17  1  0.04957998  0.46265480  0.25956161  1
  O  O18  1  0.04957998  0.03734520  0.24043839  1
  O  O19  1  0.45272908  0.53826118  0.24207852  1
  O  O20  1  0.77977316  0.13735723  0.52155984  1
  O  O21  1  0.54727092  0.46173882  0.75792148  1
  O  O22  1  0.95042002  0.53734520  0.74043839  1
  O  O23  1  0.54727092  0.03826118  0.74207852  1
  O  O24  1  0.14475070  0.25000000  0.75000000  1
  O  O25  1  0.71879041  0.86060205  0.97898221  1
  O  O26  1  0.85524930  0.75000000  0.25000000  1
  O  O27  1  0.95042002  0.96265480  0.75956161  1
