# generated using pymatgen
data_Ba2Ca3Tl2(CuO3)4
_symmetry_space_group_name_H-M   'P 1'
_cell_length_a   3.87734520
_cell_length_b   3.87734520
_cell_length_c   21.83341916
_cell_angle_alpha   95.09422001
_cell_angle_beta   95.09422001
_cell_angle_gamma   90.00000000
_symmetry_Int_Tables_number   1
_chemical_formula_structural   Ba2Ca3Tl2(CuO3)4
_chemical_formula_sum   'Ba2 Ca3 Tl2 Cu4 O12'
_cell_volume   325.64114867
_cell_formula_units_Z   1
loop_
 _symmetry_equiv_pos_site_id
 _symmetry_equiv_pos_as_xyz
  1  'x, y, z'
loop_
 _atom_site_type_symbol
 _atom_site_label
 _atom_site_symmetry_multiplicity
 _atom_site_fract_x
 _atom_site_fract_y
 _atom_site_fract_z
 _atom_site_occupancy
  Ba  Ba0  1  0.84405056  0.84405056  0.68810113  1
  Ba  Ba1  1  0.15594944  0.15594944  0.31189887  1
  Ca  Ca2  1  -0.00000000  -0.00000000  -0.00000000  1
  Ca  Ca3  1  0.92586983  0.92586983  0.85173967  1
  Ca  Ca4  1  0.07413017  0.07413017  0.14826033  1
  Tl  Tl5  1  0.27696966  0.27696966  0.55393932  1
  Tl  Tl6  1  0.72303034  0.72303034  0.44606068  1
  Cu  Cu7  1  0.46300403  0.46300403  0.92600805  1
  Cu  Cu8  1  0.53699597  0.53699597  0.07399195  1
  Cu  Cu9  1  0.39207451  0.39207451  0.78414901  1
  Cu  Cu10  1  0.60792549  0.60792549  0.21585099  1
  O  O11  1  0.96356120  0.46356120  0.92712239  1
  O  O12  1  0.46356120  0.96356120  0.92712239  1
  O  O13  1  0.03643880  0.53643880  0.07287761  1
  O  O14  1  0.53643880  0.03643880  0.07287761  1
  O  O15  1  0.89069597  0.39069597  0.78139195  1
  O  O16  1  0.39069597  0.89069597  0.78139195  1
  O  O17  1  0.10930403  0.60930403  0.21860805  1
  O  O18  1  0.60930403  0.10930403  0.21860805  1
  O  O19  1  0.32436793  0.32436793  0.64873587  1
  O  O20  1  0.67563207  0.67563207  0.35126413  1
  O  O21  1  0.22842215  0.22842215  0.45684429  1
  O  O22  1  0.77157785  0.77157785  0.54315571  1
