# generated using pymatgen
data_DyNbO4
_symmetry_space_group_name_H-M   'P 1'
_cell_length_a   5.14675767
_cell_length_b   5.35030736
_cell_length_c   6.61424738
_cell_angle_alpha   112.11755938
_cell_angle_beta   111.10116204
_cell_angle_gamma   94.11886991
_symmetry_Int_Tables_number   1
_chemical_formula_structural   DyNbO4
_chemical_formula_sum   'Dy2 Nb2 O8'
_cell_volume   152.81959380
_cell_formula_units_Z   2
loop_
 _symmetry_equiv_pos_site_id
 _symmetry_equiv_pos_as_xyz
  1  'x, y, z'
loop_
 _atom_site_type_symbol
 _atom_site_label
 _atom_site_symmetry_multiplicity
 _atom_site_fract_x
 _atom_site_fract_y
 _atom_site_fract_z
 _atom_site_occupancy
  Dy  Dy0  1  0.37830134  0.12830134  0.75660268  1
  Dy  Dy1  1  0.62169866  0.87169866  0.24339732  1
  Nb  Nb2  1  0.85801630  0.60801630  0.71603260  1
  Nb  Nb3  1  0.14198370  0.39198370  0.28396740  1
  O  O4  1  0.78863289  0.12988300  0.07981674  1
  O  O5  1  0.29118386  0.44993374  0.07981674  1
  O  O6  1  0.21136711  0.87011700  0.92018326  1
  O  O7  1  0.70881614  0.55006626  0.92018326  1
  O  O8  1  0.57930639  0.78298610  0.56551932  1
  O  O9  1  0.98621293  0.28253322  0.56551932  1
  O  O10  1  0.42069361  0.21701390  0.43448068  1
  O  O11  1  0.01378707  0.71746678  0.43448068  1
