# generated using pymatgen
data_K4Na2TeO6
_symmetry_space_group_name_H-M   'P 1'
_cell_length_a   6.77673788
_cell_length_b   6.76621733
_cell_length_c   10.06244559
_cell_angle_alpha   90.00000000
_cell_angle_beta   90.00000000
_cell_angle_gamma   114.38485761
_symmetry_Int_Tables_number   1
_chemical_formula_structural   K4Na2TeO6
_chemical_formula_sum   'K8 Na4 Te2 O12'
_cell_volume   420.23262673
_cell_formula_units_Z   2
loop_
 _symmetry_equiv_pos_site_id
 _symmetry_equiv_pos_as_xyz
  1  'x, y, z'
loop_
 _atom_site_type_symbol
 _atom_site_label
 _atom_site_symmetry_multiplicity
 _atom_site_fract_x
 _atom_site_fract_y
 _atom_site_fract_z
 _atom_site_occupancy
  K  K0  1  0.06668197  0.75392177  0.51219334  1
  K  K1  1  0.51419048  0.01262509  0.67720468  1
  K  K2  1  0.43331803  0.74607823  0.01219334  1
  K  K3  1  0.48580952  0.98737491  0.32279532  1
  K  K4  1  0.01419048  0.51262509  0.82279532  1
  K  K5  1  0.56668197  0.25392177  0.98780666  1
  K  K6  1  0.98580952  0.48737491  0.17720468  1
  K  K7  1  0.93331803  0.24607823  0.48780666  1
  Na  Na8  1  0.21429182  0.22637037  0.74200975  1
  Na  Na9  1  0.78570818  0.77362963  0.25799025  1
  Na  Na10  1  0.28570818  0.27362963  0.24200975  1
  Na  Na11  1  0.71429182  0.72637037  0.75799025  1
  Te  Te12  1  0.00000000  0.00000000  0.00000000  1
  Te  Te13  1  0.50000000  0.50000000  0.50000000  1
  O  O14  1  0.84353694  0.06572371  0.84960873  1
  O  O15  1  0.19749931  0.94645416  0.87081735  1
  O  O16  1  0.69749931  0.44645416  0.62918265  1
  O  O17  1  0.20146117  0.31317996  0.00825203  1
  O  O18  1  0.70146117  0.81317996  0.49174797  1
  O  O19  1  0.34353694  0.56572371  0.65039127  1
  O  O20  1  0.79853883  0.68682004  0.99174797  1
  O  O21  1  0.30250069  0.55354584  0.37081735  1
  O  O22  1  0.15646306  0.93427629  0.15039127  1
  O  O23  1  0.65646306  0.43427629  0.34960873  1
  O  O24  1  0.29853883  0.18682004  0.50825203  1
  O  O25  1  0.80250069  0.05354584  0.12918265  1
