# generated using pymatgen
data_Ba7MnFe6F34
_symmetry_space_group_name_H-M   'P 1'
_cell_length_a   7.84667787
_cell_length_b   10.42693839
_cell_length_c   10.42693841
_cell_angle_alpha   67.54131954
_cell_angle_beta   79.89298089
_cell_angle_gamma   79.89298085
_symmetry_Int_Tables_number   1
_chemical_formula_structural   Ba7MnFe6F34
_chemical_formula_sum   'Ba7 Mn1 Fe6 F34'
_cell_volume   770.62771672
_cell_formula_units_Z   1
loop_
 _symmetry_equiv_pos_site_id
 _symmetry_equiv_pos_as_xyz
  1  'x, y, z'
loop_
 _atom_site_type_symbol
 _atom_site_label
 _atom_site_symmetry_multiplicity
 _atom_site_fract_x
 _atom_site_fract_y
 _atom_site_fract_z
 _atom_site_occupancy
  Ba  Ba0  1  0.70371853  0.84004988  0.44489335  1
  Ba  Ba1  1  0.29628147  0.55510665  0.15995012  1
  Ba  Ba2  1  0.29628147  0.15995012  0.55510665  1
  Ba  Ba3  1  0.70371853  0.44489335  0.84004988  1
  Ba  Ba4  1  0.12501243  0.73763611  0.73763611  1
  Ba  Ba5  1  0.87498757  0.26236389  0.26236389  1
  Ba  Ba6  1  0.00000000  0.00000000  0.00000000  1
  Mn  Mn7  1  0.50000000  0.50000000  0.50000000  1
  Fe  Fe8  1  0.79929317  0.64700797  0.13385728  1
  Fe  Fe9  1  0.79929317  0.13385728  0.64700797  1
  Fe  Fe10  1  0.20070683  0.35299203  0.86614272  1
  Fe  Fe11  1  0.54002576  0.82814389  0.82814389  1
  Fe  Fe12  1  0.45997424  0.17185611  0.17185611  1
  Fe  Fe13  1  0.20070683  0.86614272  0.35299203  1
  F  F14  1  0.68618758  0.56835108  0.56835108  1
  F  F15  1  0.31381242  0.43164892  0.43164892  1
  F  F16  1  0.30592310  0.89157029  0.89157029  1
  F  F17  1  0.69407690  0.10842971  0.10842971  1
  F  F18  1  0.75983519  0.74858433  0.74858433  1
  F  F19  1  0.24016481  0.25141567  0.25141567  1
  F  F20  1  0.54506384  0.11771914  0.35348151  1
  F  F21  1  0.45493616  0.64651849  0.88228086  1
  F  F22  1  0.45493616  0.88228086  0.64651849  1
  F  F23  1  0.54506384  0.35348151  0.11771914  1
  F  F24  1  0.38339816  0.98573552  0.22953809  1
  F  F25  1  0.61660184  0.77046191  0.01426448  1
  F  F26  1  0.61660184  0.01426448  0.77046191  1
  F  F27  1  0.38339816  0.22953809  0.98573552  1
  F  F28  1  0.96680555  0.51045449  0.24748377  1
  F  F29  1  0.03319445  0.75251623  0.48954551  1
  F  F30  1  0.03319445  0.48954551  0.75251623  1
  F  F31  1  0.96680555  0.24748377  0.51045449  1
  F  F32  1  0.00612963  0.26387870  1.00193474  1
  F  F33  1  0.99387037  -0.00193474  0.73612130  1
  F  F34  1  0.99387037  0.73612130  -0.00193474  1
  F  F35  1  0.00612963  1.00193474  0.26387870  1
  F  F36  1  0.80369342  0.51673514  0.04139494  1
  F  F37  1  0.19630658  0.95860506  0.48326486  1
  F  F38  1  0.19630658  0.48326486  0.95860506  1
  F  F39  1  0.80369342  0.04139494  0.51673514  1
  F  F40  1  0.20284636  0.21075364  0.78972210  1
  F  F41  1  0.79715364  0.21027790  0.78924636  1
  F  F42  1  0.79715364  0.78924636  0.21027790  1
  F  F43  1  0.20284636  0.78972210  0.21075364  1
  F  F44  1  0.61081004  0.55287002  0.27556236  1
  F  F45  1  0.38918996  0.72443764  0.44712998  1
  F  F46  1  0.38918996  0.44712998  0.72443764  1
  F  F47  1  0.61081004  0.27556236  0.55287002  1
