# generated using pymatgen
data_RbNa3SnO4
_symmetry_space_group_name_H-M   'P 1'
_cell_length_a   11.92883306
_cell_length_b   11.92882833
_cell_length_c   11.92882023
_cell_angle_alpha   100.46027009
_cell_angle_beta   114.15630126
_cell_angle_gamma   114.15624471
_symmetry_Int_Tables_number   1
_chemical_formula_structural   RbNa3SnO4
_chemical_formula_sum   'Rb8 Na24 Sn8 O32'
_cell_volume   1282.99252502
_cell_formula_units_Z   8
loop_
 _symmetry_equiv_pos_site_id
 _symmetry_equiv_pos_as_xyz
  1  'x, y, z'
loop_
 _atom_site_type_symbol
 _atom_site_label
 _atom_site_symmetry_multiplicity
 _atom_site_fract_x
 _atom_site_fract_y
 _atom_site_fract_z
 _atom_site_occupancy
  Rb  Rb0  1  0.21707016  0.56997252  0.81432795  1
  Rb  Rb1  1  0.25564377  0.85290128  0.06997190  1
  Rb  Rb2  1  0.28293017  0.09725764  0.35290173  1
  Rb  Rb3  1  0.75564445  0.68567223  0.40274158  1
  Rb  Rb4  1  0.78292984  0.43002748  0.18567205  1
  Rb  Rb5  1  0.74435623  0.14709872  0.93002810  1
  Rb  Rb6  1  0.71706983  0.90274236  0.64709827  1
  Rb  Rb7  1  0.24435555  0.31432777  0.59725842  1
  Na  Na8  1  0.06039720  0.65478245  0.53384237  1
  Na  Na9  1  0.61004023  0.29230845  0.67559271  1
  Na  Na10  1  0.11671663  0.18226789  0.79230918  1
  Na  Na11  1  0.87905994  0.03384230  0.47344518  1
  Na  Na12  1  0.11004081  0.43444843  0.31773121  1
  Na  Na13  1  0.11388542  0.46517214  0.03499059  1
  Na  Na14  1  0.56039824  0.02655502  0.40561497  1
  Na  Na15  1  0.88611458  0.53482786  0.96500941  1
  Na  Na16  1  0.37906084  0.90561397  0.84521748  1
  Na  Na17  1  0.88328337  0.81773211  0.20769082  1
  Na  Na18  1  0.38995977  0.70769155  0.32440729  1
  Na  Na19  1  0.43018122  0.46500902  0.07889500  1
  Na  Na20  1  0.56981878  0.53499098  0.92110500  1
  Na  Na21  1  0.38611398  0.42110496  0.35128657  1
  Na  Na22  1  0.88995919  0.56555157  0.68226879  1
  Na  Na23  1  0.61388602  0.57889504  0.64871343  1
  Na  Na24  1  0.62093916  0.09438603  0.15478252  1
  Na  Na25  1  0.61671556  0.82440745  0.93444744  1
  Na  Na26  1  0.38328444  0.17559255  0.06555256  1
  Na  Na27  1  0.93960280  0.34521755  0.46615763  1
  Na  Na28  1  0.12094006  0.96615770  0.52655482  1
  Na  Na29  1  0.43960176  0.97344498  0.59438503  1
  Na  Na30  1  0.06981820  0.14871284  0.03482624  1
  Na  Na31  1  0.93018180  0.85128716  0.96517376  1
  Sn  Sn32  1  0.88948856  0.26761468  0.73121259  1
  Sn  Sn33  1  0.03640128  0.87812622  0.76761462  1
  Sn  Sn34  1  0.61051297  0.34172668  0.37812739  1
  Sn  Sn35  1  0.53640091  0.76878633  0.15827377  1
  Sn  Sn36  1  0.11051144  0.73238532  0.26878741  1
  Sn  Sn37  1  0.46359909  0.23121367  0.84172623  1
  Sn  Sn38  1  0.38948703  0.65827332  0.62187261  1
  Sn  Sn39  1  0.96359872  0.12187378  0.23238538  1
  O  O40  1  0.94027312  0.45543705  0.81617624  1
  O  O41  1  0.87060995  0.22508813  0.24701822  1
  O  O42  1  0.49512252  0.86095449  0.03739109  1
  O  O43  1  0.99512292  0.95773114  0.63416819  1
  O  O44  1  0.86073847  0.98483545  0.04456243  1
  O  O45  1  0.63926033  0.68382436  0.12409702  1
  O  O46  1  0.82356403  0.46260887  0.45773161  1
  O  O47  1  0.52192984  0.14552106  0.27491166  1
  O  O48  1  0.36073967  0.31617564  0.87590298  1
  O  O49  1  0.12939005  0.77491187  0.75298178  1
  O  O50  1  0.65379928  0.38947332  0.89436367  1
  O  O51  1  0.37060936  0.12359095  0.64552089  1
  O  O52  1  0.62939064  0.87640905  0.35447911  1
  O  O53  1  0.44027245  0.62409707  0.48483594  1
  O  O54  1  0.32356395  0.86583220  0.36095481  1
  O  O55  1  0.50489006  0.39436286  0.24056445  1
  O  O56  1  0.55972755  0.37590293  0.51516406  1
  O  O57  1  0.49510994  0.60563714  0.75943555  1
  O  O58  1  0.84620100  0.74056410  0.73567397  1
  O  O59  1  0.05972688  0.54456295  0.18382376  1
  O  O60  1  0.17643597  0.53739113  0.54226839  1
  O  O61  1  0.15379900  0.25943590  0.26432603  1
  O  O62  1  0.99510989  0.23567384  0.88947246  1
  O  O63  1  0.00489011  0.76432616  0.11052754  1
  O  O64  1  0.47807016  0.85447894  0.72508834  1
  O  O65  1  0.97806971  0.25298169  0.62359133  1
  O  O66  1  0.67643605  0.13416780  0.63904519  1
  O  O67  1  0.34620072  0.61052668  0.10563633  1
  O  O68  1  0.00487708  0.04226886  0.36583181  1
  O  O69  1  0.02193029  0.74701831  0.37640867  1
  O  O70  1  0.13926153  0.01516455  0.95543757  1
  O  O71  1  0.50487748  0.13904551  0.96260891  1
