# generated using pymatgen
data_Ca2BiAsO6
_symmetry_space_group_name_H-M   'P 1'
_cell_length_a   5.60745566
_cell_length_b   7.56076914
_cell_length_c   7.56076865
_cell_angle_alpha   106.70395138
_cell_angle_beta   90.00000000
_cell_angle_gamma   90.00000000
_symmetry_Int_Tables_number   1
_chemical_formula_structural   Ca2BiAsO6
_chemical_formula_sum   'Ca4 Bi2 As2 O12'
_cell_volume   307.02505682
_cell_formula_units_Z   2
loop_
 _symmetry_equiv_pos_site_id
 _symmetry_equiv_pos_as_xyz
  1  'x, y, z'
loop_
 _atom_site_type_symbol
 _atom_site_label
 _atom_site_symmetry_multiplicity
 _atom_site_fract_x
 _atom_site_fract_y
 _atom_site_fract_z
 _atom_site_occupancy
  Ca  Ca0  1  0.76196220  0.69397164  0.90777022  1
  Ca  Ca1  1  0.76196220  0.09222978  0.30602836  1
  Ca  Ca2  1  0.26196220  0.90777022  0.69397164  1
  Ca  Ca3  1  0.26196220  0.30602836  0.09222978  1
  Bi  Bi4  1  0.25189346  0.41081241  0.58918759  1
  Bi  Bi5  1  0.75189346  0.58918759  0.41081241  1
  As  As6  1  0.80465243  0.18225868  0.81774132  1
  As  As7  1  0.30465243  0.81774132  0.18225868  1
  O  O8  1  0.51179570  0.65033715  0.65600326  1
  O  O9  1  0.91799192  0.40205029  0.91120946  1
  O  O10  1  0.41799192  0.91120946  0.40205029  1
  O  O11  1  0.51179570  0.34399674  0.34966285  1
  O  O12  1  0.99721225  0.81816741  0.18183259  1
  O  O13  1  0.01179570  0.34966285  0.34399674  1
  O  O14  1  0.49721225  0.18183259  0.81816741  1
  O  O15  1  0.01179570  0.65600326  0.65033715  1
  O  O16  1  0.43674120  0.94701689  0.05298311  1
  O  O17  1  0.41799192  0.59794971  0.08879054  1
  O  O18  1  0.93674120  0.05298311  0.94701689  1
  O  O19  1  0.91799192  0.08879054  0.59794971  1
