# generated using pymatgen
data_Tl3Ga9S13O2
_symmetry_space_group_name_H-M   'P 1'
_cell_length_a   9.75931420
_cell_length_b   9.75931436
_cell_length_c   7.50932370
_cell_angle_alpha   90.00000000
_cell_angle_beta   90.00000000
_cell_angle_gamma   119.99999949
_symmetry_Int_Tables_number   1
_chemical_formula_structural   Tl3Ga9S13O2
_chemical_formula_sum   'Tl3 Ga9 S13 O2'
_cell_volume   619.39838313
_cell_formula_units_Z   1
loop_
 _symmetry_equiv_pos_site_id
 _symmetry_equiv_pos_as_xyz
  1  'x, y, z'
loop_
 _atom_site_type_symbol
 _atom_site_label
 _atom_site_symmetry_multiplicity
 _atom_site_fract_x
 _atom_site_fract_y
 _atom_site_fract_z
 _atom_site_occupancy
  Tl  Tl0  1  0.33333300  0.66666700  0.50000000  1
  Tl  Tl1  1  0.00000000  0.00000000  0.00000000  1
  Tl  Tl2  1  0.00000000  0.00000000  0.50000000  1
  Ga  Ga3  1  0.80467510  0.55795081  0.26446318  1
  Ga  Ga4  1  0.07166204  0.45539053  0.00000000  1
  Ga  Ga5  1  0.80467510  0.55795081  0.73553682  1
  Ga  Ga6  1  0.75327571  0.19532490  0.73553682  1
  Ga  Ga7  1  0.54460947  0.61627151  0.00000000  1
  Ga  Ga8  1  0.44204919  0.24672429  0.26446318  1
  Ga  Ga9  1  0.44204919  0.24672429  0.73553682  1
  Ga  Ga10  1  0.38372849  0.92833796  0.00000000  1
  Ga  Ga11  1  0.75327571  0.19532490  0.26446318  1
  S  S12  1  0.68389556  0.70445820  0.25461517  1
  S  S13  1  0.35997050  0.33250809  0.50000000  1
  S  S14  1  0.95600212  0.61575084  0.00000000  1
  S  S15  1  0.97253759  0.64002950  0.50000000  1
  S  S16  1  0.02056264  0.31610444  0.25461517  1
  S  S17  1  0.38424916  0.34025129  0.00000000  1
  S  S18  1  0.66749191  0.02746241  0.50000000  1
  S  S19  1  0.68389556  0.70445820  0.74538483  1
  S  S20  1  0.02056264  0.31610444  0.74538483  1
  S  S21  1  0.29554180  0.97943736  0.25461517  1
  S  S22  1  0.65974871  0.04399788  0.00000000  1
  S  S23  1  0.29554180  0.97943736  0.74538483  1
  S  S24  1  0.33333300  0.66666700  0.00000000  1
  O  O25  1  0.66666700  0.33333300  0.73671198  1
  O  O26  1  0.66666700  0.33333300  0.26328802  1
