# generated using pymatgen
data_Rb2Ge4O9
_symmetry_space_group_name_H-M   'P 1'
_cell_length_a   12.29853290
_cell_length_b   12.29853301
_cell_length_c   10.02983517
_cell_angle_alpha   90.00000000
_cell_angle_beta   90.00000000
_cell_angle_gamma   119.99999970
_symmetry_Int_Tables_number   1
_chemical_formula_structural   Rb2Ge4O9
_chemical_formula_sum   'Rb12 Ge24 O54'
_cell_volume   1313.80541455
_cell_formula_units_Z   6
loop_
 _symmetry_equiv_pos_site_id
 _symmetry_equiv_pos_as_xyz
  1  'x, y, z'
loop_
 _atom_site_type_symbol
 _atom_site_label
 _atom_site_symmetry_multiplicity
 _atom_site_fract_x
 _atom_site_fract_y
 _atom_site_fract_z
 _atom_site_occupancy
  Rb  Rb0  1  0.99764015  0.66299071  0.56929328  1
  Rb  Rb1  1  0.66299071  0.66535056  0.43070672  1
  Rb  Rb2  1  0.33464944  0.33700929  0.93070672  1
  Rb  Rb3  1  0.00235985  0.33700929  0.43070672  1
  Rb  Rb4  1  0.33700929  0.00235985  0.06929328  1
  Rb  Rb5  1  0.99764015  0.33464944  0.06929328  1
  Rb  Rb6  1  0.66535056  0.00235985  0.56929328  1
  Rb  Rb7  1  0.66535056  0.66299071  0.06929328  1
  Rb  Rb8  1  0.66299071  0.99764015  0.93070672  1
  Rb  Rb9  1  0.00235985  0.66535056  0.93070672  1
  Rb  Rb10  1  0.33464944  0.99764015  0.43070672  1
  Rb  Rb11  1  0.33700929  0.33464944  0.56929328  1
  Ge  Ge12  1  0.00000000  0.17804225  0.75000000  1
  Ge  Ge13  1  0.33365506  0.48421280  0.22156824  1
  Ge  Ge14  1  0.84944226  0.33365506  0.77843176  1
  Ge  Ge15  1  0.33365506  0.84944226  0.72156824  1
  Ge  Ge16  1  0.51578720  0.66634494  0.72156824  1
  Ge  Ge17  1  0.15055774  0.48421280  0.72156824  1
  Ge  Ge18  1  0.17804225  0.17804225  0.25000000  1
  Ge  Ge19  1  0.15055774  0.66634494  0.22156824  1
  Ge  Ge20  1  0.66666700  0.33333300  0.02936266  1
  Ge  Ge21  1  0.66634494  0.51578720  0.77843176  1
  Ge  Ge22  1  0.48421280  0.33365506  0.27843176  1
  Ge  Ge23  1  1.00000000  0.82195775  0.25000000  1
  Ge  Ge24  1  0.33333300  0.66666700  0.97063734  1
  Ge  Ge25  1  0.82195775  0.00000000  0.25000000  1
  Ge  Ge26  1  0.48421280  0.15055774  0.77843176  1
  Ge  Ge27  1  0.66634494  0.15055774  0.27843176  1
  Ge  Ge28  1  0.00000000  0.00000000  0.50000000  1
  Ge  Ge29  1  0.33333300  0.66666700  0.47063734  1
  Ge  Ge30  1  0.82195775  0.82195775  0.75000000  1
  Ge  Ge31  1  0.17804225  0.00000000  0.75000000  1
  Ge  Ge32  1  0.00000000  0.00000000  0.00000000  1
  Ge  Ge33  1  0.51578720  0.84944226  0.22156824  1
  Ge  Ge34  1  0.84944226  0.51578720  0.27843176  1
  Ge  Ge35  1  0.66666700  0.33333300  0.52936266  1
  O  O36  1  0.67276945  0.88191192  0.17971103  1
  O  O37  1  0.42354582  0.60991242  0.57741903  1
  O  O38  1  0.00000000  0.52853131  0.25000000  1
  O  O39  1  0.60991242  0.18636660  0.42258097  1
  O  O40  1  0.07763257  0.14862574  0.38739252  1
  O  O41  1  0.27195694  0.51782254  0.36231753  1
  O  O42  1  0.47146869  0.00000000  0.75000000  1
  O  O43  1  0.81363340  0.39008758  0.92258097  1
  O  O44  1  0.48217746  0.72804306  0.86231753  1
  O  O45  1  0.47146869  0.47146869  0.25000000  1
  O  O46  1  0.72804306  0.24586560  0.13768247  1
  O  O47  1  0.60991242  0.42354582  0.92258097  1
  O  O48  1  0.18636660  0.57645418  0.57741903  1
  O  O49  1  0.32723055  0.20914246  0.32028897  1
  O  O50  1  0.52853131  0.52853131  0.75000000  1
  O  O51  1  0.79085754  0.11808808  0.32028897  1
  O  O52  1  0.39008758  0.81363340  0.57741903  1
  O  O53  1  0.14862574  0.07763257  0.11260748  1
  O  O54  1  0.32723055  0.11808808  0.82028897  1
  O  O55  1  0.92900683  0.07763257  0.61260748  1
  O  O56  1  0.11808808  0.32723055  0.67971103  1
  O  O57  1  0.57645418  0.18636660  0.92258097  1
  O  O58  1  0.75413440  0.48217746  0.13768247  1
  O  O59  1  0.48217746  0.75413440  0.36231753  1
  O  O60  1  0.57645418  0.39008758  0.42258097  1
  O  O61  1  0.24586560  0.72804306  0.36231753  1
  O  O62  1  0.27195694  0.75413440  0.86231753  1
  O  O63  1  0.42354582  0.81363340  0.07741903  1
  O  O64  1  0.92900683  0.85137426  0.11260748  1
  O  O65  1  0.79085754  0.67276945  0.82028897  1
  O  O66  1  0.07763257  0.92900683  0.88739252  1
  O  O67  1  0.92236743  0.85137426  0.61260748  1
  O  O68  1  0.39008758  0.57645418  0.07741903  1
  O  O69  1  0.81363340  0.42354582  0.42258097  1
  O  O70  1  0.51782254  0.24586560  0.63768247  1
  O  O71  1  0.20914246  0.32723055  0.17971103  1
  O  O72  1  0.88191192  0.67276945  0.32028897  1
  O  O73  1  0.51782254  0.27195694  0.13768247  1
  O  O74  1  0.52853131  0.00000000  0.25000000  1
  O  O75  1  0.11808808  0.79085754  0.17971103  1
  O  O76  1  0.92236743  0.07099317  0.11260748  1
  O  O77  1  0.20914246  0.88191192  0.67971103  1
  O  O78  1  0.07099317  0.14862574  0.88739252  1
  O  O79  1  0.85137426  0.92900683  0.38739252  1
  O  O80  1  0.14862574  0.07099317  0.61260748  1
  O  O81  1  0.85137426  0.92236743  0.88739252  1
  O  O82  1  0.07099317  0.92236743  0.38739252  1
  O  O83  1  1.00000000  0.47146869  0.75000000  1
  O  O84  1  0.72804306  0.48217746  0.63768247  1
  O  O85  1  0.24586560  0.51782254  0.86231753  1
  O  O86  1  0.88191192  0.20914246  0.82028897  1
  O  O87  1  0.75413440  0.27195694  0.63768247  1
  O  O88  1  0.67276945  0.79085754  0.67971103  1
  O  O89  1  0.18636660  0.60991242  0.07741903  1
