# generated using pymatgen
data_Ba2Zn(BO3)2
_symmetry_space_group_name_H-M   'P 1'
_cell_length_a   8.86034328
_cell_length_b   10.25503060
_cell_length_c   15.29637863
_cell_angle_alpha   90.00000000
_cell_angle_beta   90.00000000
_cell_angle_gamma   90.00000000
_symmetry_Int_Tables_number   1
_chemical_formula_structural   Ba2Zn(BO3)2
_chemical_formula_sum   'Ba16 Zn8 B16 O48'
_cell_volume   1389.87625051
_cell_formula_units_Z   8
loop_
 _symmetry_equiv_pos_site_id
 _symmetry_equiv_pos_as_xyz
  1  'x, y, z'
loop_
 _atom_site_type_symbol
 _atom_site_label
 _atom_site_symmetry_multiplicity
 _atom_site_fract_x
 _atom_site_fract_y
 _atom_site_fract_z
 _atom_site_occupancy
  Ba  Ba0  1  0.13597459  0.62599587  0.38650289  1
  Ba  Ba1  1  0.13597459  0.12599587  0.11349711  1
  Ba  Ba2  1  0.20816407  0.67758219  0.11401473  1
  Ba  Ba3  1  0.79183593  0.17758219  0.88598527  1
  Ba  Ba4  1  0.69040627  0.41385653  0.09912228  1
  Ba  Ba5  1  0.86402541  0.12599587  0.61349711  1
  Ba  Ba6  1  0.67363108  0.88938108  0.11761424  1
  Ba  Ba7  1  0.79183593  0.67758219  0.61401473  1
  Ba  Ba8  1  0.67363108  0.38938108  0.38238576  1
  Ba  Ba9  1  0.30959373  0.41385653  0.59912228  1
  Ba  Ba10  1  0.32636892  0.38938108  0.88238576  1
  Ba  Ba11  1  0.30959373  0.91385653  0.90087772  1
  Ba  Ba12  1  0.69040627  0.91385653  0.40087772  1
  Ba  Ba13  1  0.86402541  0.62599587  0.88650289  1
  Ba  Ba14  1  0.32636892  0.88938108  0.61761424  1
  Ba  Ba15  1  0.20816407  0.17758219  0.38598527  1
  Zn  Zn16  1  0.50609945  0.64998841  0.28800754  1
  Zn  Zn17  1  0.01243536  0.90316818  0.27422338  1
  Zn  Zn18  1  0.98756464  0.90316818  0.77422338  1
  Zn  Zn19  1  0.01243536  0.40316818  0.22577662  1
  Zn  Zn20  1  0.98756464  0.40316818  0.72577662  1
  Zn  Zn21  1  0.49390055  0.14998841  0.71199246  1
  Zn  Zn22  1  0.49390055  0.64998841  0.78800754  1
  Zn  Zn23  1  0.50609945  0.14998841  0.21199246  1
  B  B24  1  0.65434763  0.91132044  0.76429413  1
  B  B25  1  0.55376310  0.17222657  0.51360688  1
  B  B26  1  0.84063839  0.15682356  0.25059616  1
  B  B27  1  0.98935002  0.92142977  0.98503133  1
  B  B28  1  0.55376310  0.67222657  0.98639312  1
  B  B29  1  0.15936161  0.15682356  0.75059616  1
  B  B30  1  0.15936161  0.65682356  0.74940384  1
  B  B31  1  0.34565237  0.41132044  0.23570587  1
  B  B32  1  0.98935002  0.42142977  0.51496867  1
  B  B33  1  0.01064998  0.92142977  0.48503133  1
  B  B34  1  0.44623690  0.17222657  0.01360688  1
  B  B35  1  0.01064998  0.42142977  0.01496867  1
  B  B36  1  0.44623690  0.67222657  0.48639312  1
  B  B37  1  0.84063839  0.65682356  0.24940384  1
  B  B38  1  0.34565237  0.91132044  0.26429413  1
  B  B39  1  0.65434763  0.41132044  0.73570587  1
  O  O40  1  0.65742420  0.77613167  0.76570060  1
  O  O41  1  0.34257580  0.77613167  0.26570060  1
  O  O42  1  0.47928454  0.98069209  0.27436077  1
  O  O43  1  -0.00108416  0.36614396  0.09902113  1
  O  O44  1  0.29286105  0.22517936  0.73571380  1
  O  O45  1  0.52965945  0.59452505  0.91162309  1
  O  O46  1  0.78839351  0.47986308  0.74758889  1
  O  O47  1  0.52071546  0.98069209  0.77436077  1
  O  O48  1  0.69108800  0.15836802  0.46971452  1
  O  O49  1  0.10529430  0.89073997  0.04236031  1
  O  O50  1  0.47928454  0.48069209  0.22563923  1
  O  O51  1  0.12477052  0.00607195  0.50844992  1
  O  O52  1  0.47034055  0.59452505  0.41162309  1
  O  O53  1  0.52965945  0.09452505  0.58837691  1
  O  O54  1  0.30891200  0.15836802  0.96971452  1
  O  O55  1  0.02816845  0.22497567  0.77067317  1
  O  O56  1  0.52071546  0.48069209  0.72563923  1
  O  O57  1  0.44777071  0.26032962  0.48347599  1
  O  O58  1  0.44777071  0.76032962  0.01652401  1
  O  O59  1  0.30891200  0.65836802  0.53028548  1
  O  O60  1  1.00108416  0.36614396  0.59902113  1
  O  O61  1  0.47034055  0.09452505  0.08837691  1
  O  O62  1  0.21160649  0.97986308  0.25241111  1
  O  O63  1  0.89470570  0.39073997  0.95763969  1
  O  O64  1  0.12477052  0.50607195  0.99155008  1
  O  O65  1  0.02816845  0.72497567  0.72932683  1
  O  O66  1  0.34257580  0.27613167  0.23429940  1
  O  O67  1  0.78839351  0.97986308  0.75241111  1
  O  O68  1  0.87522948  0.00607195  0.00844992  1
  O  O69  1  1.00108416  0.86614396  0.90097887  1
  O  O70  1  0.87522948  0.50607195  0.49155008  1
  O  O71  1  0.70713895  0.72517936  0.26428620  1
  O  O72  1  0.69108800  0.65836802  0.03028548  1
  O  O73  1  0.55222929  0.26032962  0.98347599  1
  O  O74  1  -0.00108416  0.86614396  0.40097887  1
  O  O75  1  0.89470570  0.89073997  0.54236031  1
  O  O76  1  0.21160649  0.47986308  0.24758889  1
  O  O77  1  0.70713895  0.22517936  0.23571380  1
  O  O78  1  0.84351815  0.02170694  0.24460894  1
  O  O79  1  0.15648185  0.52170694  0.75539106  1
  O  O80  1  0.84351815  0.52170694  0.25539106  1
  O  O81  1  0.29286105  0.72517936  0.76428620  1
  O  O82  1  0.15648185  0.02170694  0.74460894  1
  O  O83  1  0.97183155  0.22497567  0.27067317  1
  O  O84  1  0.10529430  0.39073997  0.45763969  1
  O  O85  1  0.55222929  0.76032962  0.51652401  1
  O  O86  1  0.97183155  0.72497567  0.22932683  1
  O  O87  1  0.65742420  0.27613167  0.73429940  1
