# generated using pymatgen
data_K2ScSi4O10F
_symmetry_space_group_name_H-M   'P 1'
_cell_length_a   8.26827917
_cell_length_b   9.01900793
_cell_length_c   9.01900752
_cell_angle_alpha   77.87103158
_cell_angle_beta   62.71733229
_cell_angle_gamma   62.71733400
_symmetry_Int_Tables_number   1
_chemical_formula_structural   K2ScSi4O10F
_chemical_formula_sum   'K4 Sc2 Si8 O20 F2'
_cell_volume   531.24846142
_cell_formula_units_Z   2
loop_
 _symmetry_equiv_pos_site_id
 _symmetry_equiv_pos_as_xyz
  1  'x, y, z'
loop_
 _atom_site_type_symbol
 _atom_site_label
 _atom_site_symmetry_multiplicity
 _atom_site_fract_x
 _atom_site_fract_y
 _atom_site_fract_z
 _atom_site_occupancy
  K  K0  1  0.68425469  0.63154701  0.99994361  1
  K  K1  1  0.68419830  0.00005639  0.63154701  1
  K  K2  1  0.31574531  0.36845299  0.00005639  1
  K  K3  1  0.31580170  0.99994361  0.36845299  1
  Sc  Sc4  1  0.75502299  0.00000000  0.00000000  1
  Sc  Sc5  1  0.24497701  1.00000000  1.00000000  1
  Si  Si6  1  0.12208564  0.69723590  0.67560569  1
  Si  Si7  1  0.49492723  0.30276410  0.32439431  1
  Si  Si8  1  0.20230867  0.67560569  0.30276410  1
  Si  Si9  1  0.18067846  0.32439431  0.69723590  1
  Si  Si10  1  0.50507277  0.69723590  0.67560569  1
  Si  Si11  1  0.79769133  0.32439431  0.69723590  1
  Si  Si12  1  0.81932154  0.67560569  0.30276410  1
  Si  Si13  1  0.87791436  0.30276410  0.32439431  1
  O  O14  1  0.94794405  0.36934372  0.73476818  1
  O  O15  1  0.44875627  0.81469733  0.81711712  1
  O  O16  1  0.90905554  0.27042447  0.49894965  1
  O  O17  1  0.73654640  0.18288288  0.81469733  1
  O  O18  1  0.91942928  0.81469733  0.81711712  1
  O  O19  1  0.17948002  0.49894965  0.72957553  1
  O  O20  1  0.40800519  0.50105035  0.27042447  1
  O  O21  1  0.26587339  0.18288288  0.81469733  1
  O  O22  1  0.05205595  0.63065628  0.26523182  1
  O  O23  1  0.82051998  0.50105035  0.27042447  1
  O  O24  1  0.32157033  0.27042447  0.49894965  1
  O  O25  1  0.59199481  0.49894965  0.72957553  1
  O  O26  1  0.31728777  0.73476818  0.63065628  1
  O  O27  1  0.08057072  0.18530267  0.18288288  1
  O  O28  1  0.26345360  0.81711712  0.18530267  1
  O  O29  1  0.55124373  0.18530267  0.18288288  1
  O  O30  1  0.73412661  0.81711712  0.18530267  1
  O  O31  1  0.68271223  0.26523182  0.36934372  1
  O  O32  1  0.09094446  0.72957553  0.50105035  1
  O  O33  1  0.67842967  0.72957553  0.50105035  1
  F  F34  1  0.00000000  0.00000000  0.00000000  1
  F  F35  1  0.50000000  0.00000000  0.00000000  1
