# generated using pymatgen
data_Cu2SeS3
_symmetry_space_group_name_H-M   'P 1'
_cell_length_a   6.33822297
_cell_length_b   6.26153103
_cell_length_c   7.19019304
_cell_angle_alpha   81.95916023
_cell_angle_beta   73.95615985
_cell_angle_gamma   59.59400174
_symmetry_Int_Tables_number   1
_chemical_formula_structural   Cu2SeS3
_chemical_formula_sum   'Cu4 Se2 S6'
_cell_volume   236.52340493
_cell_formula_units_Z   2
loop_
 _symmetry_equiv_pos_site_id
 _symmetry_equiv_pos_as_xyz
  1  'x, y, z'
loop_
 _atom_site_type_symbol
 _atom_site_label
 _atom_site_symmetry_multiplicity
 _atom_site_fract_x
 _atom_site_fract_y
 _atom_site_fract_z
 _atom_site_occupancy
  Cu  Cu0  1  0.59614939  0.85698368  0.98754597  1
  Cu  Cu1  1  0.74387305  0.50664969  0.49400365  1
  Cu  Cu2  1  0.45313307  0.14301632  0.48754597  1
  Cu  Cu3  1  0.25052274  0.49335031  0.99400365  1
  Se  Se4  1  0.11494348  0.78426136  0.49299973  1
  Se  Se5  1  0.89920484  0.21573864  0.99299973  1
  S  S6  1  0.08875504  0.13611171  0.55134807  1
  S  S7  1  0.22486675  0.86388829  0.05134807  1
  S  S8  1  0.86201608  0.53131391  0.15369935  1
  S  S9  1  0.39332999  0.46868609  0.65369935  1
  S  S10  1  0.54159163  0.18462032  0.14940223  1
  S  S11  1  0.72621194  0.81537968  0.64940223  1
