# generated using pymatgen
data_Tl3AsS3
_symmetry_space_group_name_H-M   'P 1'
_cell_length_a   5.81846630
_cell_length_b   12.70492003
_cell_length_c   22.37138700
_cell_angle_alpha   90.00000000
_cell_angle_beta   90.00000000
_cell_angle_gamma   90.00000000
_symmetry_Int_Tables_number   1
_chemical_formula_structural   Tl3AsS3
_chemical_formula_sum   'Tl24 As8 S24'
_cell_volume   1653.76337540
_cell_formula_units_Z   8
loop_
 _symmetry_equiv_pos_site_id
 _symmetry_equiv_pos_as_xyz
  1  'x, y, z'
loop_
 _atom_site_type_symbol
 _atom_site_label
 _atom_site_symmetry_multiplicity
 _atom_site_fract_x
 _atom_site_fract_y
 _atom_site_fract_z
 _atom_site_occupancy
  Tl  Tl0  1  0.91740670  0.77986336  0.18253533  1
  Tl  Tl1  1  0.41740670  0.72013664  0.81746467  1
  Tl  Tl2  1  0.07855262  0.83834541  0.97628905  1
  Tl  Tl3  1  0.57855262  0.66165459  0.02371095  1
  Tl  Tl4  1  0.92144738  0.33834541  0.52371095  1
  Tl  Tl5  1  0.58259330  0.27986336  0.18253533  1
  Tl  Tl6  1  0.07855262  0.66165459  0.47628905  1
  Tl  Tl7  1  0.58259330  0.22013664  0.68253533  1
  Tl  Tl8  1  0.42144738  0.33834541  0.97628905  1
  Tl  Tl9  1  0.41740670  0.77986336  0.31746467  1
  Tl  Tl10  1  0.57855262  0.83834541  0.52371095  1
  Tl  Tl11  1  0.91740670  0.72013664  0.68253533  1
  Tl  Tl12  1  0.08259330  0.22013664  0.81746467  1
  Tl  Tl13  1  0.95399843  0.93264197  0.80941940  1
  Tl  Tl14  1  0.45399843  0.93264197  0.69058060  1
  Tl  Tl15  1  0.08259330  0.27986336  0.31746467  1
  Tl  Tl16  1  0.04600157  0.43264197  0.69058060  1
  Tl  Tl17  1  0.04600157  0.06735803  0.19058060  1
  Tl  Tl18  1  0.95399843  0.56735803  0.30941940  1
  Tl  Tl19  1  0.92144738  0.16165459  0.02371095  1
  Tl  Tl20  1  0.42144738  0.16165459  0.47628905  1
  Tl  Tl21  1  0.54600157  0.06735803  0.30941940  1
  Tl  Tl22  1  0.54600157  0.43264197  0.80941940  1
  Tl  Tl23  1  0.45399843  0.56735803  0.19058060  1
  As  As24  1  0.45387108  0.54954576  0.58706557  1
  As  As25  1  0.04612892  0.04954576  0.58706557  1
  As  As26  1  0.54612892  0.04954576  0.91293443  1
  As  As27  1  0.04612892  0.45045424  0.08706557  1
  As  As28  1  0.54612892  0.45045424  0.41293443  1
  As  As29  1  0.95387108  0.95045424  0.41293443  1
  As  As30  1  0.95387108  0.54954576  0.91293443  1
  As  As31  1  0.45387108  0.95045424  0.08706557  1
  S  S32  1  0.61496606  0.39505749  0.31769279  1
  S  S33  1  0.61496606  0.10494251  0.81769279  1
  S  S34  1  0.11496606  0.39505749  0.18230721  1
  S  S35  1  0.34753768  0.55395561  0.91482238  1
  S  S36  1  0.88503394  0.89505749  0.31769279  1
  S  S37  1  0.11950710  0.62588781  0.09136876  1
  S  S38  1  0.88049290  0.12588781  0.40863124  1
  S  S39  1  0.11496606  0.10494251  0.68230721  1
  S  S40  1  0.61950710  0.87411219  0.90863124  1
  S  S41  1  0.38049290  0.12588781  0.09136876  1
  S  S42  1  0.65246232  0.05395561  0.58517762  1
  S  S43  1  0.61950710  0.62588781  0.40863124  1
  S  S44  1  0.15246232  0.44604439  0.41482238  1
  S  S45  1  0.15246232  0.05395561  0.91482238  1
  S  S46  1  0.65246232  0.44604439  0.08517762  1
  S  S47  1  0.88049290  0.37411219  0.90863124  1
  S  S48  1  0.38049290  0.37411219  0.59136876  1
  S  S49  1  0.38503394  0.60494251  0.68230721  1
  S  S50  1  0.84753768  0.55395561  0.58517762  1
  S  S51  1  0.38503394  0.89505749  0.18230721  1
  S  S52  1  0.11950710  0.87411219  0.59136876  1
  S  S53  1  0.34753768  0.94604439  0.41482238  1
  S  S54  1  0.84753768  0.94604439  0.08517762  1
  S  S55  1  0.88503394  0.60494251  0.81769279  1
