# generated using pymatgen
data_Ca4Si6Pb6Cl2O21
_symmetry_space_group_name_H-M   'P 1'
_cell_length_a   10.27248083
_cell_length_b   10.27248076
_cell_length_c   13.44940270
_cell_angle_alpha   90.00000000
_cell_angle_beta   90.00000000
_cell_angle_gamma   120.00000023
_symmetry_Int_Tables_number   1
_chemical_formula_structural   Ca4Si6Pb6Cl2O21
_chemical_formula_sum   'Ca8 Si12 Pb12 Cl4 O42'
_cell_volume   1229.09175166
_cell_formula_units_Z   2
loop_
 _symmetry_equiv_pos_site_id
 _symmetry_equiv_pos_as_xyz
  1  'x, y, z'
loop_
 _atom_site_type_symbol
 _atom_site_label
 _atom_site_symmetry_multiplicity
 _atom_site_fract_x
 _atom_site_fract_y
 _atom_site_fract_z
 _atom_site_occupancy
  Ca  Ca0  1  0.33333300  0.66666700  0.99343960  1
  Ca  Ca1  1  0.66666700  0.33333300  0.00656040  1
  Ca  Ca2  1  0.66666700  0.33333300  0.49343960  1
  Ca  Ca3  1  0.66666700  0.33333300  0.25000000  1
  Ca  Ca4  1  0.33333300  0.66666700  0.50656040  1
  Ca  Ca5  1  0.33333300  0.66666700  0.25000000  1
  Ca  Ca6  1  0.66666700  0.33333300  0.75000000  1
  Ca  Ca7  1  0.33333300  0.66666700  0.75000000  1
  Si  Si8  1  0.97470894  0.57773299  0.63646763  1
  Si  Si9  1  0.57773299  0.60302405  0.13646763  1
  Si  Si10  1  0.60302405  0.02529106  0.86353237  1
  Si  Si11  1  0.42226701  0.39697595  0.86353237  1
  Si  Si12  1  0.39697595  0.97470894  0.36353237  1
  Si  Si13  1  0.57773299  0.60302405  0.36353237  1
  Si  Si14  1  0.39697595  0.97470894  0.13646763  1
  Si  Si15  1  0.02529106  0.42226701  0.13646763  1
  Si  Si16  1  0.02529106  0.42226701  0.36353237  1
  Si  Si17  1  0.42226701  0.39697595  0.63646763  1
  Si  Si18  1  0.60302405  0.02529106  0.63646763  1
  Si  Si19  1  0.97470894  0.57773299  0.86353237  1
  Pb  Pb20  1  0.98764986  0.25530251  0.89240358  1
  Pb  Pb21  1  0.01235014  0.74469749  0.39240358  1
  Pb  Pb22  1  0.73234735  0.98764986  0.39240358  1
  Pb  Pb23  1  0.73234735  0.98764986  0.10759642  1
  Pb  Pb24  1  0.74469749  0.73234735  0.89240358  1
  Pb  Pb25  1  0.25530251  0.26765265  0.39240358  1
  Pb  Pb26  1  0.26765265  0.01235014  0.89240358  1
  Pb  Pb27  1  0.25530251  0.26765265  0.10759642  1
  Pb  Pb28  1  0.26765265  0.01235014  0.60759642  1
  Pb  Pb29  1  0.74469749  0.73234735  0.60759642  1
  Pb  Pb30  1  0.01235014  0.74469749  0.10759642  1
  Pb  Pb31  1  0.98764986  0.25530251  0.60759642  1
  Cl  Cl32  1  0.00000000  0.00000000  0.25000000  1
  Cl  Cl33  1  0.00000000  0.00000000  0.75000000  1
  Cl  Cl34  1  0.00000000  0.00000000  0.50000000  1
  Cl  Cl35  1  0.00000000  0.00000000  0.00000000  1
  O  O36  1  0.92939559  0.61420176  0.75000000  1
  O  O37  1  0.07323231  0.33031341  0.05664535  1
  O  O38  1  0.07060441  0.38579824  0.25000000  1
  O  O39  1  0.14893964  0.62383291  0.62850506  1
  O  O40  1  0.46382301  0.85909046  0.12115692  1
  O  O41  1  0.31519383  0.92939559  0.25000000  1
  O  O42  1  0.33031341  0.25708110  0.94335465  1
  O  O43  1  0.60473255  0.46382301  0.87884308  1
  O  O44  1  0.25708110  0.92676769  0.44335465  1
  O  O45  1  0.39526745  0.53617699  0.37884308  1
  O  O46  1  0.85909046  0.39526745  0.87884308  1
  O  O47  1  0.74291890  0.07323231  0.55664535  1
  O  O48  1  0.66968659  0.74291890  0.44335465  1
  O  O49  1  0.46382301  0.85909046  0.37884308  1
  O  O50  1  0.53617699  0.14090954  0.62115692  1
  O  O51  1  0.62383291  0.47489326  0.37149494  1
  O  O52  1  0.47489326  0.85106036  0.87149494  1
  O  O53  1  0.74291890  0.07323231  0.94335465  1
  O  O54  1  0.66968659  0.74291890  0.05664535  1
  O  O55  1  0.14090954  0.60473255  0.37884308  1
  O  O56  1  0.85106036  0.37616709  0.37149494  1
  O  O57  1  0.14893964  0.62383291  0.87149494  1
  O  O58  1  0.38579824  0.31519383  0.75000000  1
  O  O59  1  0.52510674  0.14893964  0.37149494  1
  O  O60  1  0.14090954  0.60473255  0.12115692  1
  O  O61  1  0.07323231  0.33031341  0.44335465  1
  O  O62  1  0.92676769  0.66968659  0.55664535  1
  O  O63  1  0.39526745  0.53617699  0.12115692  1
  O  O64  1  0.62383291  0.47489326  0.12850506  1
  O  O65  1  0.85106036  0.37616709  0.12850506  1
  O  O66  1  0.53617699  0.14090954  0.87884308  1
  O  O67  1  0.68480617  0.07060441  0.75000000  1
  O  O68  1  0.33031341  0.25708110  0.55664535  1
  O  O69  1  0.47489326  0.85106036  0.62850506  1
  O  O70  1  0.52510674  0.14893964  0.12850506  1
  O  O71  1  0.85909046  0.39526745  0.62115692  1
  O  O72  1  0.25708110  0.92676769  0.05664535  1
  O  O73  1  0.37616709  0.52510674  0.87149494  1
  O  O74  1  0.60473255  0.46382301  0.62115692  1
  O  O75  1  0.61420176  0.68480617  0.25000000  1
  O  O76  1  0.37616709  0.52510674  0.62850506  1
  O  O77  1  0.92676769  0.66968659  0.94335465  1
