# generated using pymatgen
data_Ba5Cu4ClF17
_symmetry_space_group_name_H-M   'P 1'
_cell_length_a   10.88786621
_cell_length_b   10.88786657
_cell_length_c   13.02938713
_cell_angle_alpha   90.00000000
_cell_angle_beta   90.00000000
_cell_angle_gamma   119.99999895
_symmetry_Int_Tables_number   1
_chemical_formula_structural   Ba5Cu4ClF17
_chemical_formula_sum   'Ba15 Cu12 Cl3 F51'
_cell_volume   1337.64290344
_cell_formula_units_Z   3
loop_
 _symmetry_equiv_pos_site_id
 _symmetry_equiv_pos_as_xyz
  1  'x, y, z'
loop_
 _atom_site_type_symbol
 _atom_site_label
 _atom_site_symmetry_multiplicity
 _atom_site_fract_x
 _atom_site_fract_y
 _atom_site_fract_z
 _atom_site_occupancy
  Ba  Ba0  1  1.00000000  0.26856875  0.30854125  1
  Ba  Ba1  1  0.66666700  0.33333300  0.83959943  1
  Ba  Ba2  1  0.73143125  0.73143125  0.30854125  1
  Ba  Ba3  1  0.33333300  0.66666700  0.83959943  1
  Ba  Ba4  1  0.33333300  0.66666700  0.16040057  1
  Ba  Ba5  1  0.73143125  0.73143125  0.69145875  1
  Ba  Ba6  1  1.00000000  0.26856875  0.69145875  1
  Ba  Ba7  1  0.66666700  0.33333300  0.16040057  1
  Ba  Ba8  1  0.00000000  0.75593779  0.00000000  1
  Ba  Ba9  1  0.26856875  0.00000000  0.69145875  1
  Ba  Ba10  1  0.24406221  0.24406221  0.00000000  1
  Ba  Ba11  1  0.75593779  0.00000000  0.00000000  1
  Ba  Ba12  1  0.66666700  0.33333300  0.50000000  1
  Ba  Ba13  1  0.33333300  0.66666700  0.50000000  1
  Ba  Ba14  1  0.26856875  0.00000000  0.30854125  1
  Cu  Cu15  1  0.00000000  0.76210599  0.50000000  1
  Cu  Cu16  1  0.42112793  0.00000000  0.00000000  1
  Cu  Cu17  1  0.76210599  0.00000000  0.50000000  1
  Cu  Cu18  1  0.59596535  0.00000000  0.73455987  1
  Cu  Cu19  1  1.00000000  0.42112793  0.00000000  1
  Cu  Cu20  1  0.40403465  0.40403465  0.26544013  1
  Cu  Cu21  1  0.00000000  0.59596535  0.73455987  1
  Cu  Cu22  1  0.57887207  0.57887207  0.00000000  1
  Cu  Cu23  1  0.23789401  0.23789401  0.50000000  1
  Cu  Cu24  1  0.00000000  0.59596535  0.26544013  1
  Cu  Cu25  1  0.59596535  0.00000000  0.26544013  1
  Cu  Cu26  1  0.40403465  0.40403465  0.73455987  1
  Cl  Cl27  1  0.00000000  0.00000000  0.16576716  1
  Cl  Cl28  1  0.00000000  0.00000000  0.83423284  1
  Cl  Cl29  1  0.00000000  0.00000000  0.50000000  1
  F  F30  1  0.75822207  0.14454191  0.19013177  1
  F  F31  1  0.36887809  0.16298283  0.50000000  1
  F  F32  1  0.57005774  0.14394132  0.66507569  1
  F  F33  1  0.24380613  0.00000000  0.00000000  1
  F  F34  1  0.85545809  0.61368017  0.80986823  1
  F  F35  1  0.14394132  0.57005774  0.66507569  1
  F  F36  1  0.57388358  0.42994226  0.66507569  1
  F  F37  1  0.85605868  0.42611642  0.66507569  1
  F  F38  1  0.14394132  0.57005774  0.33492431  1
  F  F39  1  0.63320594  0.16145905  0.00000000  1
  F  F40  1  0.20589526  0.83701717  0.50000000  1
  F  F41  1  1.00000000  0.24380613  0.00000000  1
  F  F42  1  0.42994226  0.57388358  0.66507569  1
  F  F43  1  0.85545809  0.61368017  0.19013177  1
  F  F44  1  0.83701717  0.20589526  0.50000000  1
  F  F45  1  0.75822207  0.14454191  0.80986823  1
  F  F46  1  0.52825311  0.36679406  0.00000000  1
  F  F47  1  0.22782409  0.22782409  0.35567202  1
  F  F48  1  0.42962412  0.00000000  0.85240667  1
  F  F49  1  0.38631983  0.24177793  0.80986823  1
  F  F50  1  0.42611642  0.85605868  0.33492431  1
  F  F51  1  0.42611642  0.85605868  0.66507569  1
  F  F52  1  0.61368017  0.85545809  0.80986823  1
  F  F53  1  0.57388358  0.42994226  0.33492431  1
  F  F54  1  0.14454191  0.75822207  0.19013177  1
  F  F55  1  0.42994226  0.57388358  0.33492431  1
  F  F56  1  0.61368017  0.85545809  0.19013177  1
  F  F57  1  0.00000000  0.77217591  0.64432798  1
  F  F58  1  0.36679406  0.52825311  0.00000000  1
  F  F59  1  0.00000000  0.42962412  0.85240667  1
  F  F60  1  0.16145905  0.63320594  0.00000000  1
  F  F61  1  0.16298283  0.36887809  0.50000000  1
  F  F62  1  0.42962412  0.00000000  0.14759333  1
  F  F63  1  0.24177793  0.38631983  0.19013177  1
  F  F64  1  0.77217591  0.00000000  0.35567202  1
  F  F65  1  0.24177793  0.38631983  0.80986823  1
  F  F66  1  0.00000000  0.42962412  0.14759333  1
  F  F67  1  0.38631983  0.24177793  0.19013177  1
  F  F68  1  0.57037588  0.57037588  0.14759333  1
  F  F69  1  0.22782409  0.22782409  0.64432798  1
  F  F70  1  0.79410474  0.63112191  0.50000000  1
  F  F71  1  0.85605868  0.42611642  0.33492431  1
  F  F72  1  0.57037588  0.57037588  0.85240667  1
  F  F73  1  0.63112191  0.79410474  0.50000000  1
  F  F74  1  0.00000000  0.77217591  0.35567202  1
  F  F75  1  0.14454191  0.75822207  0.80986823  1
  F  F76  1  0.47174689  0.83854095  0.00000000  1
  F  F77  1  0.77217591  0.00000000  0.64432798  1
  F  F78  1  0.83854095  0.47174689  0.00000000  1
  F  F79  1  0.57005774  0.14394132  0.33492431  1
  F  F80  1  0.75619387  0.75619387  0.00000000  1
