# generated using pymatgen
data_BiPO4
_symmetry_space_group_name_H-M   'P 1'
_cell_length_a   4.78051562
_cell_length_b   4.81157684
_cell_length_c   7.28307064
_cell_angle_alpha   90.00000000
_cell_angle_beta   90.00000000
_cell_angle_gamma   94.89619167
_symmetry_Int_Tables_number   1
_chemical_formula_structural   BiPO4
_chemical_formula_sum   'Bi2 P2 O8'
_cell_volume   166.91256764
_cell_formula_units_Z   2
loop_
 _symmetry_equiv_pos_site_id
 _symmetry_equiv_pos_as_xyz
  1  'x, y, z'
loop_
 _atom_site_type_symbol
 _atom_site_label
 _atom_site_symmetry_multiplicity
 _atom_site_fract_x
 _atom_site_fract_y
 _atom_site_fract_z
 _atom_site_occupancy
  Bi  Bi0  1  0.86880574  0.86306719  0.49910940  1
  Bi  Bi1  1  0.13119426  0.13693281  0.99910940  1
  P  P2  1  0.34004166  0.33211743  0.50029892  1
  P  P3  1  0.65995834  0.66788257  0.00029892  1
  O  O4  1  0.18953107  0.17468447  0.33423683  1
  O  O5  1  0.70312974  0.35334375  0.99976010  1
  O  O6  1  0.81046893  0.82531553  0.83423683  1
  O  O7  1  0.80869941  0.82428593  0.16724428  1
  O  O8  1  0.19130059  0.17571407  0.66724428  1
  O  O9  1  0.29687026  0.64665625  0.49976010  1
  O  O10  1  0.65997089  0.30711425  0.49935048  1
  O  O11  1  0.34002911  0.69288575  0.99935048  1
