# generated using pymatgen
data_K6Ti2S6O
_symmetry_space_group_name_H-M   'P 1'
_cell_length_a   10.47563618
_cell_length_b   13.12379299
_cell_length_c   13.46625827
_cell_angle_alpha   105.87560479
_cell_angle_beta   90.00000000
_cell_angle_gamma   90.00000000
_symmetry_Int_Tables_number   1
_chemical_formula_structural   K6Ti2S6O
_chemical_formula_sum   'K24 Ti8 S24 O4'
_cell_volume   1780.72813193
_cell_formula_units_Z   4
loop_
 _symmetry_equiv_pos_site_id
 _symmetry_equiv_pos_as_xyz
  1  'x, y, z'
loop_
 _atom_site_type_symbol
 _atom_site_label
 _atom_site_symmetry_multiplicity
 _atom_site_fract_x
 _atom_site_fract_y
 _atom_site_fract_z
 _atom_site_occupancy
  K  K0  1  0.65827426  0.60378182  0.99525644  1
  K  K1  1  0.83223475  0.60300788  0.53069188  1
  K  K2  1  0.95519030  0.83012193  0.40604828  1
  K  K3  1  0.45519030  0.66987807  0.59395172  1
  K  K4  1  0.73517654  0.93519048  0.20339343  1
  K  K5  1  0.28353536  0.58363235  0.28588775  1
  K  K6  1  0.76482346  0.43519048  0.20339343  1
  K  K7  1  0.54480970  0.33012193  0.40604828  1
  K  K8  1  0.47614882  0.16044698  0.08685120  1
  K  K9  1  0.26482346  0.06480952  0.79660657  1
  K  K10  1  0.04480970  0.16987807  0.59395172  1
  K  K11  1  0.16776525  0.39699212  0.46930812  1
  K  K12  1  0.84172574  0.10378182  0.99525644  1
  K  K13  1  0.66776525  0.10300788  0.53069188  1
  K  K14  1  0.78353536  0.91636765  0.71411225  1
  K  K15  1  0.71646464  0.41636765  0.71411225  1
  K  K16  1  0.23517654  0.56480952  0.79660657  1
  K  K17  1  0.97614882  0.33955302  0.91314880  1
  K  K18  1  0.34172574  0.39621818  0.00474356  1
  K  K19  1  0.15827426  0.89621818  0.00474356  1
  K  K20  1  0.52385118  0.83955302  0.91314880  1
  K  K21  1  0.21646464  0.08363235  0.28588775  1
  K  K22  1  0.33223475  0.89699212  0.46930812  1
  K  K23  1  0.02385118  0.66044698  0.08685120  1
  Ti  Ti24  1  0.39055646  0.28340494  0.66200601  1
  Ti  Ti25  1  0.13017629  0.29302053  0.17841482  1
  Ti  Ti26  1  0.89055646  0.21659506  0.33799399  1
  Ti  Ti27  1  0.36982371  0.79302053  0.17841482  1
  Ti  Ti28  1  0.86982371  0.70697947  0.82158518  1
  Ti  Ti29  1  0.63017629  0.20697947  0.82158518  1
  Ti  Ti30  1  0.10944354  0.78340494  0.66200601  1
  Ti  Ti31  1  0.60944354  0.71659506  0.33799399  1
  S  S32  1  0.64993537  0.84251688  0.48875231  1
  S  S33  1  0.94175155  0.55846493  0.85797603  1
  S  S34  1  0.85333734  0.84507763  0.96695019  1
  S  S35  1  0.82579792  0.16787778  0.75268026  1
  S  S36  1  0.32579792  0.33212222  0.24731974  1
  S  S37  1  0.35006463  0.15748312  0.51124769  1
  S  S38  1  0.42671865  0.43815647  0.62509424  1
  S  S39  1  0.07328135  0.93815647  0.62509424  1
  S  S40  1  0.35333734  0.65492237  0.03304981  1
  S  S41  1  0.64666266  0.34507763  0.96695019  1
  S  S42  1  0.77373110  0.69470955  0.22474064  1
  S  S43  1  0.22626890  0.30529045  0.77525936  1
  S  S44  1  0.55824845  0.05846493  0.85797603  1
  S  S45  1  0.14666266  0.15492237  0.03304981  1
  S  S46  1  0.57328135  0.56184353  0.37490576  1
  S  S47  1  0.14993537  0.65748312  0.51124769  1
  S  S48  1  0.05824845  0.44153507  0.14202397  1
  S  S49  1  0.27373110  0.80529045  0.77525936  1
  S  S50  1  0.92671865  0.06184353  0.37490576  1
  S  S51  1  0.85006463  0.34251688  0.48875231  1
  S  S52  1  0.67420208  0.66787778  0.75268026  1
  S  S53  1  0.17420208  0.83212222  0.24731974  1
  S  S54  1  0.44175155  0.94153507  0.14202397  1
  S  S55  1  0.72626890  0.19470955  0.22474064  1
  O  O56  1  0.03799788  0.25586285  0.28096769  1
  O  O57  1  0.96200212  0.74413715  0.71903231  1
  O  O58  1  0.46200212  0.75586285  0.28096769  1
  O  O59  1  0.53799788  0.24413715  0.71903231  1
