# generated using pymatgen
data_Ag2PO3F
_symmetry_space_group_name_H-M   'P 1'
_cell_length_a   5.50267292
_cell_length_b   5.50267279
_cell_length_c   15.24917504
_cell_angle_alpha   88.01805988
_cell_angle_beta   88.01805990
_cell_angle_gamma   61.78975150
_symmetry_Int_Tables_number   1
_chemical_formula_structural   Ag2PO3F
_chemical_formula_sum   'Ag8 P4 O12 F4'
_cell_volume   406.55989846
_cell_formula_units_Z   4
loop_
 _symmetry_equiv_pos_site_id
 _symmetry_equiv_pos_as_xyz
  1  'x, y, z'
loop_
 _atom_site_type_symbol
 _atom_site_label
 _atom_site_symmetry_multiplicity
 _atom_site_fract_x
 _atom_site_fract_y
 _atom_site_fract_z
 _atom_site_occupancy
  Ag  Ag0  1  0.38633517  0.31236723  0.66704278  1
  Ag  Ag1  1  0.97211266  0.02788734  0.25000000  1
  Ag  Ag2  1  0.61366483  0.68763277  0.33295722  1
  Ag  Ag3  1  0.31236723  0.38633517  0.16704278  1
  Ag  Ag4  1  0.68763277  0.61366483  0.83295722  1
  Ag  Ag5  1  0.02788734  0.97211266  0.75000000  1
  Ag  Ag6  1  0.00000000  0.00000000  0.00000000  1
  Ag  Ag7  1  0.00000000  0.00000000  0.50000000  1
  P  P8  1  0.35621036  0.26867970  0.87978261  1
  P  P9  1  0.64378964  0.73132030  0.12021739  1
  P  P10  1  0.26867970  0.35621036  0.37978261  1
  P  P11  1  0.73132030  0.64378964  0.62021739  1
  O  O12  1  0.83883515  0.51012589  0.18490958  1
  O  O13  1  0.33905096  0.80683657  0.13408713  1
  O  O14  1  0.30248404  0.01962781  0.89147213  1
  O  O15  1  0.80683657  0.33905096  0.63408713  1
  O  O16  1  0.16116485  0.48987411  0.81509042  1
  O  O17  1  0.48987411  0.16116485  0.31509042  1
  O  O18  1  0.01962781  0.30248404  0.39147213  1
  O  O19  1  0.51012589  0.83883515  0.68490958  1
  O  O20  1  0.98037219  0.69751596  0.60852787  1
  O  O21  1  0.69751596  0.98037219  0.10852787  1
  O  O22  1  0.19316343  0.66094904  0.36591287  1
  O  O23  1  0.66094904  0.19316343  0.86591287  1
  F  F24  1  0.58349787  0.72512071  0.52647232  1
  F  F25  1  0.41650213  0.27487929  0.47352768  1
  F  F26  1  0.27487929  0.41650213  0.97352768  1
  F  F27  1  0.72512071  0.58349787  0.02647232  1
