# generated using pymatgen
data_V3(Bi3O8)2
_symmetry_space_group_name_H-M   'P 1'
_cell_length_a   5.58064035
_cell_length_b   15.23604875
_cell_length_c   17.47726278
_cell_angle_alpha   90.00000000
_cell_angle_beta   90.00000000
_cell_angle_gamma   90.00000000
_symmetry_Int_Tables_number   1
_chemical_formula_structural   V3(Bi3O8)2
_chemical_formula_sum   'V12 Bi24 O64'
_cell_volume   1486.03762198
_cell_formula_units_Z   4
loop_
 _symmetry_equiv_pos_site_id
 _symmetry_equiv_pos_as_xyz
  1  'x, y, z'
loop_
 _atom_site_type_symbol
 _atom_site_label
 _atom_site_symmetry_multiplicity
 _atom_site_fract_x
 _atom_site_fract_y
 _atom_site_fract_z
 _atom_site_occupancy
  V  V0  1  0.75292197  0.96702594  0.75000000  1
  V  V1  1  0.25292197  0.53297406  0.75000000  1
  V  V2  1  0.74707803  0.46702594  0.25000000  1
  V  V3  1  0.24707803  0.03297406  0.25000000  1
  V  V4  1  0.73332908  0.51679288  0.61248750  1
  V  V5  1  0.23332908  0.98320712  0.88751250  1
  V  V6  1  0.76667092  0.01679288  0.38751250  1
  V  V7  1  0.26667092  0.48320712  0.11248750  1
  V  V8  1  0.26667092  0.48320712  0.38751250  1
  V  V9  1  0.76667092  0.01679288  0.11248750  1
  V  V10  1  0.23332908  0.98320712  0.61248750  1
  V  V11  1  0.73332908  0.51679288  0.88751250  1
  Bi  Bi12  1  0.79392236  0.68510556  0.75000000  1
  Bi  Bi13  1  0.29392236  0.81489444  0.75000000  1
  Bi  Bi14  1  0.70607764  0.18510556  0.25000000  1
  Bi  Bi15  1  0.20607764  0.31489444  0.25000000  1
  Bi  Bi16  1  0.73324706  0.32890634  0.75000000  1
  Bi  Bi17  1  0.23324706  0.17109366  0.75000000  1
  Bi  Bi18  1  0.76675294  0.82890634  0.25000000  1
  Bi  Bi19  1  0.26675294  0.67109366  0.25000000  1
  Bi  Bi20  1  0.77920692  0.16550705  0.58943292  1
  Bi  Bi21  1  0.27920692  0.33449295  0.91056708  1
  Bi  Bi22  1  0.72079308  0.66550705  0.41056708  1
  Bi  Bi23  1  0.22079308  0.83449295  0.08943292  1
  Bi  Bi24  1  0.22079308  0.83449295  0.41056708  1
  Bi  Bi25  1  0.72079308  0.66550705  0.08943292  1
  Bi  Bi26  1  0.27920692  0.33449295  0.58943292  1
  Bi  Bi27  1  0.77920692  0.16550705  0.91056708  1
  Bi  Bi28  1  0.71123825  0.82985641  0.57087971  1
  Bi  Bi29  1  0.21123825  0.67014359  0.92912029  1
  Bi  Bi30  1  0.78876175  0.32985641  0.42912029  1
  Bi  Bi31  1  0.28876175  0.17014359  0.07087971  1
  Bi  Bi32  1  0.28876175  0.17014359  0.42912029  1
  Bi  Bi33  1  0.78876175  0.32985641  0.07087971  1
  Bi  Bi34  1  0.21123825  0.67014359  0.57087971  1
  Bi  Bi35  1  0.71123825  0.82985641  0.92912029  1
  O  O36  1  0.99509800  0.75193060  0.01522296  1
  O  O37  1  0.49509800  0.74806940  0.48477704  1
  O  O38  1  0.50490200  0.25193060  0.98477704  1
  O  O39  1  0.00490200  0.24806940  0.51522296  1
  O  O40  1  0.00490200  0.24806940  0.98477704  1
  O  O41  1  0.50490200  0.25193060  0.51522296  1
  O  O42  1  0.49509800  0.74806940  0.01522296  1
  O  O43  1  0.99509800  0.75193060  0.48477704  1
  O  O44  1  0.91401368  0.73185668  0.63322613  1
  O  O45  1  0.41401368  0.76814332  0.86677387  1
  O  O46  1  0.58598632  0.23185668  0.36677387  1
  O  O47  1  0.08598632  0.26814332  0.13322613  1
  O  O48  1  0.08598632  0.26814332  0.36677387  1
  O  O49  1  0.58598632  0.23185668  0.13322613  1
  O  O50  1  0.41401368  0.76814332  0.63322613  1
  O  O51  1  0.91401368  0.73185668  0.86677387  1
  O  O52  1  0.99636673  0.25215533  0.67326109  1
  O  O53  1  0.49636673  0.24784467  0.82673891  1
  O  O54  1  0.50363327  0.75215533  0.32673891  1
  O  O55  1  0.00363327  0.74784467  0.17326109  1
  O  O56  1  0.00363327  0.74784467  0.32673891  1
  O  O57  1  0.50363327  0.75215533  0.17326109  1
  O  O58  1  0.49636673  0.24784467  0.67326109  1
  O  O59  1  0.99636673  0.25215533  0.82673891  1
  O  O60  1  0.99201979  0.93901255  0.66524337  1
  O  O61  1  0.49201979  0.56098745  0.83475663  1
  O  O62  1  0.50798021  0.43901255  0.33475663  1
  O  O63  1  0.00798021  0.06098745  0.16524337  1
  O  O64  1  0.00798021  0.06098745  0.33475663  1
  O  O65  1  0.50798021  0.43901255  0.16524337  1
  O  O66  1  0.49201979  0.56098745  0.66524337  1
  O  O67  1  0.99201979  0.93901255  0.83475663  1
  O  O68  1  0.99535668  0.53294748  0.66698076  1
  O  O69  1  0.49535668  0.96705252  0.83301924  1
  O  O70  1  0.50464332  0.03294748  0.33301924  1
  O  O71  1  0.00464332  0.46705252  0.16698076  1
  O  O72  1  0.00464332  0.46705252  0.33301924  1
  O  O73  1  0.50464332  0.03294748  0.16698076  1
  O  O74  1  0.49535668  0.96705252  0.66698076  1
  O  O75  1  0.99535668  0.53294748  0.83301924  1
  O  O76  1  0.68194002  0.40517207  0.60006553  1
  O  O77  1  0.18194002  0.09482793  0.89993447  1
  O  O78  1  0.81805998  0.90517207  0.39993447  1
  O  O79  1  0.31805998  0.59482793  0.10006553  1
  O  O80  1  0.31805998  0.59482793  0.39993447  1
  O  O81  1  0.81805998  0.90517207  0.10006553  1
  O  O82  1  0.18194002  0.09482793  0.60006553  1
  O  O83  1  0.68194002  0.40517207  0.89993447  1
  O  O84  1  0.76073791  0.57231810  0.52721323  1
  O  O85  1  0.26073791  0.92768190  0.97278677  1
  O  O86  1  0.73926209  0.07231810  0.47278677  1
  O  O87  1  0.23926209  0.42768190  0.02721323  1
  O  O88  1  0.23926209  0.42768190  0.47278677  1
  O  O89  1  0.73926209  0.07231810  0.02721323  1
  O  O90  1  0.26073791  0.92768190  0.52721323  1
  O  O91  1  0.76073791  0.57231810  0.97278677  1
  O  O92  1  0.69029542  0.83242647  0.75000000  1
  O  O93  1  0.19029542  0.66757353  0.75000000  1
  O  O94  1  0.80970458  0.33242647  0.25000000  1
  O  O95  1  0.30970458  0.16757353  0.25000000  1
  O  O96  1  0.80397361  0.07810878  0.75000000  1
  O  O97  1  0.30397361  0.42189122  0.75000000  1
  O  O98  1  0.69602639  0.57810878  0.25000000  1
  O  O99  1  0.19602639  0.92189122  0.25000000  1
