# generated using pymatgen
data_Rb3Hg2S3ClO12
_symmetry_space_group_name_H-M   'P 1'
_cell_length_a   8.08149025
_cell_length_b   10.04379634
_cell_length_c   10.24350309
_cell_angle_alpha   90.00000000
_cell_angle_beta   110.88255539
_cell_angle_gamma   90.00000000
_symmetry_Int_Tables_number   1
_chemical_formula_structural   Rb3Hg2S3ClO12
_chemical_formula_sum   'Rb6 Hg4 S6 Cl2 O24'
_cell_volume   776.83765224
_cell_formula_units_Z   2
loop_
 _symmetry_equiv_pos_site_id
 _symmetry_equiv_pos_as_xyz
  1  'x, y, z'
loop_
 _atom_site_type_symbol
 _atom_site_label
 _atom_site_symmetry_multiplicity
 _atom_site_fract_x
 _atom_site_fract_y
 _atom_site_fract_z
 _atom_site_occupancy
  Rb  Rb0  1  0.09818879  0.24960292  0.26787401  1
  Rb  Rb1  1  0.67590921  0.55408756  0.30133996  1
  Rb  Rb2  1  0.90181121  0.74960292  0.73212599  1
  Rb  Rb3  1  0.32409079  0.05408756  0.69866004  1
  Rb  Rb4  1  0.31644354  0.88156968  0.13105144  1
  Rb  Rb5  1  0.68355646  0.38156968  0.86894856  1
  Hg  Hg6  1  0.24014602  0.42707697  0.95277261  1
  Hg  Hg7  1  0.73516063  0.14864642  0.50050456  1
  Hg  Hg8  1  0.26483937  0.64864642  0.49949544  1
  Hg  Hg9  1  0.75985398  0.92707697  0.04722739  1
  S  S10  1  0.97066363  0.09703732  0.89163185  1
  S  S11  1  0.09381923  0.39208485  0.60887274  1
  S  S12  1  0.54882105  0.21009643  0.14026656  1
  S  S13  1  0.45117895  0.71009643  0.85973344  1
  S  S14  1  0.90618077  0.89208485  0.39112726  1
  S  S15  1  0.02933637  0.59703732  0.10836815  1
  Cl  Cl16  1  0.47589069  0.80268941  0.47998894  1
  Cl  Cl17  1  0.52410931  0.30268941  0.52001106  1
  O  O18  1  0.01559229  0.24126634  0.90735698  1
  O  O19  1  0.89889047  0.51670409  0.14403330  1
  O  O20  1  0.58816015  0.65554363  0.81142395  1
  O  O21  1  0.43549568  0.63415501  0.97978461  1
  O  O22  1  0.97771707  0.05120522  0.03855534  1
  O  O23  1  0.02228293  0.55120522  0.96144466  1
  O  O24  1  0.03782595  0.25554085  0.55431911  1
  O  O25  1  0.27584395  0.72042223  0.74392270  1
  O  O26  1  0.26524510  0.38314442  0.73176468  1
  O  O27  1  0.95762972  0.46580395  0.64179800  1
  O  O28  1  0.10110953  0.01670409  0.85596670  1
  O  O29  1  0.78777721  0.07706515  0.79039742  1
  O  O30  1  0.56450432  0.13415501  0.02021539  1
  O  O31  1  0.49713247  0.85473646  0.91012248  1
  O  O32  1  0.96217405  0.75554085  0.44568089  1
  O  O33  1  0.13286735  0.46082110  0.48800574  1
  O  O34  1  0.86713265  0.96082110  0.51199426  1
  O  O35  1  0.73475490  0.88314442  0.26823532  1
  O  O36  1  0.50286753  0.35473646  0.08987752  1
  O  O37  1  0.98440771  0.74126634  0.09264302  1
  O  O38  1  0.21222279  0.57706515  0.20960258  1
  O  O39  1  0.04237028  0.96580395  0.35820200  1
  O  O40  1  0.72415605  0.22042223  0.25607730  1
  O  O41  1  0.41183985  0.15554363  0.18857605  1
