# generated using pymatgen
data_H5CNO3
_symmetry_space_group_name_H-M   'P 1'
_cell_length_a   7.36305545
_cell_length_b   8.77217550
_cell_length_c   10.74273714
_cell_angle_alpha   90.00000000
_cell_angle_beta   90.00000000
_cell_angle_gamma   90.00000000
_symmetry_Int_Tables_number   1
_chemical_formula_structural   H5CNO3
_chemical_formula_sum   'H40 C8 N8 O24'
_cell_volume   693.87354897
_cell_formula_units_Z   8
loop_
 _symmetry_equiv_pos_site_id
 _symmetry_equiv_pos_as_xyz
  1  'x, y, z'
loop_
 _atom_site_type_symbol
 _atom_site_label
 _atom_site_symmetry_multiplicity
 _atom_site_fract_x
 _atom_site_fract_y
 _atom_site_fract_z
 _atom_site_occupancy
  H  H0  1  0.63278678  0.63245793  0.46659210  1
  H  H1  1  0.86721322  0.13245793  0.46659210  1
  H  H2  1  0.66260477  0.55166504  0.06126766  1
  H  H3  1  0.01837839  0.62198816  0.76526916  1
  H  H4  1  0.63278678  0.13245793  0.03340790  1
  H  H5  1  0.70149424  0.99170455  0.93844091  1
  H  H6  1  0.01837839  0.12198816  0.73473084  1
  H  H7  1  0.30943287  0.33623851  0.06598026  1
  H  H8  1  0.80943287  0.66376149  0.56598026  1
  H  H9  1  0.69056713  0.16376149  0.56598026  1
  H  H10  1  0.16260477  0.94833496  0.93873234  1
  H  H11  1  0.13278678  0.86754207  0.53340790  1
  H  H12  1  0.70149424  0.49170455  0.56155909  1
  H  H13  1  0.30943287  0.83623851  0.43401974  1
  H  H14  1  0.80943287  0.16376149  0.93401974  1
  H  H15  1  0.19056713  0.33623851  0.43401974  1
  H  H16  1  0.83739523  0.05166504  0.06126766  1
  H  H17  1  0.20149424  0.50829545  0.06155909  1
  H  H18  1  0.86721322  0.63245793  0.03340790  1
  H  H19  1  0.20149424  0.00829545  0.43844091  1
  H  H20  1  0.79850576  0.49170455  0.93844091  1
  H  H21  1  0.33739523  0.94833496  0.56126766  1
  H  H22  1  0.98162161  0.37801184  0.23473084  1
  H  H23  1  0.19056713  0.83623851  0.06598026  1
  H  H24  1  0.69056713  0.66376149  0.93401974  1
  H  H25  1  0.36721322  0.36754207  0.53340790  1
  H  H26  1  0.29850576  0.00829545  0.06155909  1
  H  H27  1  0.83739523  0.55166504  0.43873234  1
  H  H28  1  0.36721322  0.86754207  0.96659210  1
  H  H29  1  0.29850576  0.50829545  0.43844091  1
  H  H30  1  0.33739523  0.44833496  0.93873234  1
  H  H31  1  0.51837839  0.87801184  0.23473084  1
  H  H32  1  0.98162161  0.87801184  0.26526916  1
  H  H33  1  0.79850576  0.99170455  0.56155909  1
  H  H34  1  0.48162161  0.12198816  0.76526916  1
  H  H35  1  0.16260477  0.44833496  0.56126766  1
  H  H36  1  0.48162161  0.62198816  0.73473084  1
  H  H37  1  0.13278678  0.36754207  0.96659210  1
  H  H38  1  0.66260477  0.05166504  0.43873234  1
  H  H39  1  0.51837839  0.37801184  0.26526916  1
  C  C40  1  0.48965928  0.15514684  0.25147357  1
  C  C41  1  0.51034072  0.34485316  0.75147357  1
  C  C42  1  0.98965928  0.84485316  0.75147357  1
  C  C43  1  0.48965928  0.65514684  0.24852643  1
  C  C44  1  0.98965928  0.34485316  0.74852643  1
  C  C45  1  0.01034072  0.65514684  0.25147357  1
  C  C46  1  0.01034072  0.15514684  0.24852643  1
  C  C47  1  0.51034072  0.84485316  0.74852643  1
  N  N48  1  0.74573059  0.08417384  0.99116167  1
  N  N49  1  0.74573059  0.58417384  0.50883833  1
  N  N50  1  0.24573059  0.91582616  0.49116167  1
  N  N51  1  0.75426941  0.58417384  0.99116167  1
  N  N52  1  0.24573059  0.41582616  0.00883833  1
  N  N53  1  0.25426941  0.41582616  0.49116167  1
  N  N54  1  0.75426941  0.08417384  0.50883833  1
  N  N55  1  0.25426941  0.91582616  0.00883833  1
  O  O56  1  0.96894465  0.78015368  0.31785118  1
  O  O57  1  0.48305475  0.47143631  0.80775572  1
  O  O58  1  0.53105535  0.78015368  0.18214882  1
  O  O59  1  0.92983843  0.33173059  0.85982836  1
  O  O60  1  0.42983843  0.66826941  0.35982836  1
  O  O61  1  0.03105535  0.21984632  0.68214882  1
  O  O62  1  0.57016157  0.33173059  0.64017164  1
  O  O63  1  0.01694525  0.97143631  0.80775572  1
  O  O64  1  0.07016157  0.16826941  0.35982836  1
  O  O65  1  0.42983843  0.16826941  0.14017164  1
  O  O66  1  0.96894465  0.28015368  0.18214882  1
  O  O67  1  0.51694525  0.02856369  0.30775572  1
  O  O68  1  0.03105535  0.71984632  0.81785118  1
  O  O69  1  0.92983843  0.83173059  0.64017164  1
  O  O70  1  0.46894465  0.21984632  0.81785118  1
  O  O71  1  0.57016157  0.83173059  0.85982836  1
  O  O72  1  0.48305475  0.97143631  0.69224428  1
  O  O73  1  0.46894465  0.71984632  0.68214882  1
  O  O74  1  0.98305475  0.02856369  0.19224428  1
  O  O75  1  0.98305475  0.52856369  0.30775572  1
  O  O76  1  0.51694525  0.52856369  0.19224428  1
  O  O77  1  0.07016157  0.66826941  0.14017164  1
  O  O78  1  0.53105535  0.28015368  0.31785118  1
  O  O79  1  0.01694525  0.47143631  0.69224428  1
