# generated using pymatgen
data_BaBi2(B2O5)2
_symmetry_space_group_name_H-M   'P 1'
_cell_length_a   6.48026717
_cell_length_b   10.27732177
_cell_length_c   12.60511151
_cell_angle_alpha   103.10218820
_cell_angle_beta   90.00000000
_cell_angle_gamma   90.00000000
_symmetry_Int_Tables_number   1
_chemical_formula_structural   BaBi2(B2O5)2
_chemical_formula_sum   'Ba4 Bi8 B16 O40'
_cell_volume   817.64340516
_cell_formula_units_Z   4
loop_
 _symmetry_equiv_pos_site_id
 _symmetry_equiv_pos_as_xyz
  1  'x, y, z'
loop_
 _atom_site_type_symbol
 _atom_site_label
 _atom_site_symmetry_multiplicity
 _atom_site_fract_x
 _atom_site_fract_y
 _atom_site_fract_z
 _atom_site_occupancy
  Ba  Ba0  1  0.40614531  0.12792289  0.37708225  1
  Ba  Ba1  1  0.09385469  0.12792289  0.87708225  1
  Ba  Ba2  1  0.59385469  0.87207711  0.62291775  1
  Ba  Ba3  1  0.90614531  0.87207711  0.12291775  1
  Bi  Bi4  1  0.85010125  0.27221627  0.62858294  1
  Bi  Bi5  1  0.32590454  0.48254577  0.61793651  1
  Bi  Bi6  1  0.14989875  0.72778373  0.37141706  1
  Bi  Bi7  1  0.17409546  0.48254577  0.11793651  1
  Bi  Bi8  1  0.64989875  0.27221627  0.12858294  1
  Bi  Bi9  1  0.67409546  0.51745423  0.38206349  1
  Bi  Bi10  1  0.82590454  0.51745423  0.88206349  1
  Bi  Bi11  1  0.35010125  0.72778373  0.87141706  1
  B  B12  1  0.08506101  0.78362036  0.67192656  1
  B  B13  1  0.79824378  0.61188446  0.66893214  1
  B  B14  1  0.87219997  0.80282101  0.84062002  1
  B  B15  1  0.62780003  0.80282101  0.34062002  1
  B  B16  1  0.11046371  0.00617572  0.60440211  1
  B  B17  1  0.41493899  0.78362036  0.17192656  1
  B  B18  1  0.58506101  0.21637964  0.82807344  1
  B  B19  1  0.70175622  0.61188446  0.16893214  1
  B  B20  1  0.91493899  0.21637964  0.32807344  1
  B  B21  1  0.20175622  0.38811554  0.33106786  1
  B  B22  1  0.29824378  0.38811554  0.83106786  1
  B  B23  1  0.12780003  0.19717899  0.15937998  1
  B  B24  1  0.38953629  0.00617572  0.10440211  1
  B  B25  1  0.88953629  0.99382428  0.39559789  1
  B  B26  1  0.61046371  0.99382428  0.89559789  1
  B  B27  1  0.37219997  0.19717899  0.65937998  1
  O  O28  1  0.09271371  0.49687743  0.29323360  1
  O  O29  1  0.33510840  0.87369181  0.10021200  1
  O  O30  1  0.78388402  0.70955535  0.27425308  1
  O  O31  1  0.23403067  0.08893164  0.07783205  1
  O  O32  1  0.41938446  0.94579844  0.86455399  1
  O  O33  1  0.08061554  0.94579844  0.36455399  1
  O  O34  1  0.59271371  0.50312257  0.20676640  1
  O  O35  1  0.73403067  0.91106836  0.42216795  1
  O  O36  1  0.28388402  0.29044465  0.22574692  1
  O  O37  1  0.37166677  0.43760978  0.40694424  1
  O  O38  1  0.87166677  0.56239022  0.09305576  1
  O  O39  1  0.77362190  0.28701608  0.79970820  1
  O  O40  1  0.83510840  0.12630819  0.39978800  1
  O  O41  1  0.06392362  0.31213068  0.38903893  1
  O  O42  1  0.91938446  0.05420156  0.63544601  1
  O  O43  1  0.72637810  0.28701608  0.29970820  1
  O  O44  1  0.90728629  0.50312257  0.70676640  1
  O  O45  1  0.50276046  0.27212940  0.59565123  1
  O  O46  1  0.16489160  0.87369181  0.60021200  1
  O  O47  1  0.27362190  0.71298392  0.70029180  1
  O  O48  1  0.71611598  0.70955535  0.77425308  1
  O  O49  1  0.99347103  0.86718859  0.76993781  1
  O  O50  1  0.21611598  0.29044465  0.72574692  1
  O  O51  1  0.99723954  0.27212940  0.09565123  1
  O  O52  1  0.62833323  0.56239022  0.59305576  1
  O  O53  1  0.66489160  0.12630819  0.89978800  1
  O  O54  1  0.12833323  0.43760978  0.90694424  1
  O  O55  1  0.26596933  0.08893164  0.57783205  1
  O  O56  1  0.49347103  0.13281141  0.73006219  1
  O  O57  1  0.22637810  0.71298392  0.20029180  1
  O  O58  1  0.76596933  0.91106836  0.92216795  1
  O  O59  1  0.49723954  0.72787060  0.40434877  1
  O  O60  1  0.00652897  0.13281141  0.23006219  1
  O  O61  1  0.58061554  0.05420156  0.13544601  1
  O  O62  1  0.43607638  0.31213068  0.88903893  1
  O  O63  1  0.40728629  0.49687743  0.79323360  1
  O  O64  1  0.56392362  0.68786932  0.11096107  1
  O  O65  1  0.93607638  0.68786932  0.61096107  1
  O  O66  1  0.50652897  0.86718859  0.26993781  1
  O  O67  1  0.00276046  0.72787060  0.90434877  1
