# generated using pymatgen
data_La3NbO7
_symmetry_space_group_name_H-M   'P 1'
_cell_length_a   7.79004847
_cell_length_b   7.83106179
_cell_length_c   11.18163032
_cell_angle_alpha   90.00000000
_cell_angle_beta   90.00000000
_cell_angle_gamma   90.00000000
_symmetry_Int_Tables_number   1
_chemical_formula_structural   La3NbO7
_chemical_formula_sum   'La12 Nb4 O28'
_cell_volume   682.12809985
_cell_formula_units_Z   4
loop_
 _symmetry_equiv_pos_site_id
 _symmetry_equiv_pos_as_xyz
  1  'x, y, z'
loop_
 _atom_site_type_symbol
 _atom_site_label
 _atom_site_symmetry_multiplicity
 _atom_site_fract_x
 _atom_site_fract_y
 _atom_site_fract_z
 _atom_site_occupancy
  La  La0  1  0.04358145  0.75099687  0.47746788  1
  La  La1  1  0.28576416  0.49158598  0.75000000  1
  La  La2  1  0.71423584  0.50841402  0.25000000  1
  La  La3  1  0.45641855  0.25099687  0.02253212  1
  La  La4  1  0.78576416  0.00841402  0.25000000  1
  La  La5  1  0.54358145  0.74900313  0.52253212  1
  La  La6  1  0.54358145  0.74900313  0.97746788  1
  La  La7  1  0.04358145  0.75099687  0.02253212  1
  La  La8  1  0.95641855  0.24900313  0.97746788  1
  La  La9  1  0.95641855  0.24900313  0.52253212  1
  La  La10  1  0.45641855  0.25099687  0.47746788  1
  La  La11  1  0.21423584  0.99158598  0.75000000  1
  Nb  Nb12  1  0.74742073  -0.00709478  0.75000000  1
  Nb  Nb13  1  0.25257927  1.00709478  0.25000000  1
  Nb  Nb14  1  0.75257927  0.49290522  0.75000000  1
  Nb  Nb15  1  0.24742073  0.50709478  0.25000000  1
  O  O16  1  0.22794239  0.24645702  0.61800278  1
  O  O17  1  0.54944544  0.46839737  0.62824324  1
  O  O18  1  0.59045712  0.03820555  0.61663623  1
  O  O19  1  0.40954288  0.96179445  0.38336377  1
  O  O20  1  0.04944544  0.03160263  0.37175676  1
  O  O21  1  0.90954288  0.53820555  0.88336377  1
  O  O22  1  0.31840750  0.24694219  0.25000000  1
  O  O23  1  0.77205761  0.75354298  0.38199722  1
  O  O24  1  0.95055456  0.96839737  0.62824324  1
  O  O25  1  0.27205761  0.74645702  0.88199722  1
  O  O26  1  0.72794239  0.25354298  0.11800278  1
  O  O27  1  0.22794239  0.24645702  0.88199722  1
  O  O28  1  0.81840750  0.25305781  0.75000000  1
  O  O29  1  0.09045712  0.46179445  0.11663623  1
  O  O30  1  0.72794239  0.25354298  0.38199722  1
  O  O31  1  0.04944544  0.03160263  0.12824324  1
  O  O32  1  0.95055456  0.96839737  0.87175676  1
  O  O33  1  0.68159250  0.75305781  0.75000000  1
  O  O34  1  0.27205761  0.74645702  0.61800278  1
  O  O35  1  0.18159250  0.74694219  0.25000000  1
  O  O36  1  0.45055456  0.53160263  0.37175676  1
  O  O37  1  0.90954288  0.53820555  0.61663623  1
  O  O38  1  0.09045712  0.46179445  0.38336377  1
  O  O39  1  0.59045712  0.03820555  0.88336377  1
  O  O40  1  0.45055456  0.53160263  0.12824324  1
  O  O41  1  0.40954288  0.96179445  0.11663623  1
  O  O42  1  0.54944544  0.46839737  0.87175676  1
  O  O43  1  0.77205761  0.75354298  0.11800278  1
