# generated using pymatgen
data_SrBi2(B2O5)2
_symmetry_space_group_name_H-M   'P 1'
_cell_length_a   6.85598158
_cell_length_b   9.90353698
_cell_length_c   7.03602688
_cell_angle_alpha   96.01315742
_cell_angle_beta   101.62707211
_cell_angle_gamma   108.93319349
_symmetry_Int_Tables_number   1
_chemical_formula_structural   SrBi2(B2O5)2
_chemical_formula_sum   'Sr2 Bi4 B8 O20'
_cell_volume   435.08790017
_cell_formula_units_Z   2
loop_
 _symmetry_equiv_pos_site_id
 _symmetry_equiv_pos_as_xyz
  1  'x, y, z'
loop_
 _atom_site_type_symbol
 _atom_site_label
 _atom_site_symmetry_multiplicity
 _atom_site_fract_x
 _atom_site_fract_y
 _atom_site_fract_z
 _atom_site_occupancy
  Sr  Sr0  1  0.96586873  0.83443848  0.15049634  1
  Sr  Sr1  1  0.03413127  0.16556152  0.84950366  1
  Bi  Bi2  1  0.26753408  0.33605267  0.35755888  1
  Bi  Bi3  1  0.73246592  0.66394733  0.64244112  1
  Bi  Bi4  1  0.30404638  0.60071306  0.98282094  1
  Bi  Bi5  1  0.69595362  0.39928694  0.01717906  1
  B  B6  1  0.60090550  0.92508148  0.79543306  1
  B  B7  1  0.39909450  0.07491852  0.20456694  1
  B  B8  1  0.15236434  0.63203027  0.39033739  1
  B  B9  1  0.84763566  0.36796973  0.60966261  1
  B  B10  1  0.58912142  0.90696457  0.25328261  1
  B  B11  1  0.80093552  0.17744112  0.30292904  1
  B  B12  1  0.19906448  0.82255888  0.69707096  1
  B  B13  1  0.41087858  0.09303543  0.74671739  1
  O  O14  1  0.92453309  0.39465126  0.81467673  1
  O  O15  1  0.35941434  0.41322955  0.10320641  1
  O  O16  1  0.39810016  0.93501428  0.22612916  1
  O  O17  1  0.58863800  0.18529776  0.22498230  1
  O  O18  1  0.41136200  0.81470224  0.77501770  1
  O  O19  1  0.64058566  0.58677045  0.89679359  1
  O  O20  1  0.78853794  0.90452067  0.83442345  1
  O  O21  1  0.21829723  0.97950614  0.70395415  1
  O  O22  1  0.78170277  0.02049386  0.29604585  1
  O  O23  1  0.25794475  0.55371248  0.48760586  1
  O  O24  1  0.11096768  0.74886852  0.48518621  1
  O  O25  1  0.06162515  0.74877900  0.81681121  1
  O  O26  1  0.41831806  0.23331468  0.77231172  1
  O  O27  1  0.21146206  0.09547933  0.16557655  1
  O  O28  1  0.88903232  0.25113148  0.51481379  1
  O  O29  1  0.74205525  0.44628752  0.51239414  1
  O  O30  1  0.93837485  0.25122100  0.18318879  1
  O  O31  1  0.07546691  0.60534874  0.18532327  1
  O  O32  1  0.58168194  0.76668532  0.22768828  1
  O  O33  1  0.60189984  0.06498572  0.77387084  1
