# generated using pymatgen
data_LiTaGeO5
_symmetry_space_group_name_H-M   'P 1'
_cell_length_a   7.60534653
_cell_length_b   7.68336515
_cell_length_c   8.18259208
_cell_angle_alpha   90.00000000
_cell_angle_beta   90.00000000
_cell_angle_gamma   119.67213009
_symmetry_Int_Tables_number   1
_chemical_formula_structural   LiTaGeO5
_chemical_formula_sum   'Li4 Ta4 Ge4 O20'
_cell_volume   415.44868697
_cell_formula_units_Z   4
loop_
 _symmetry_equiv_pos_site_id
 _symmetry_equiv_pos_as_xyz
  1  'x, y, z'
loop_
 _atom_site_type_symbol
 _atom_site_label
 _atom_site_symmetry_multiplicity
 _atom_site_fract_x
 _atom_site_fract_y
 _atom_site_fract_z
 _atom_site_occupancy
  Li  Li0  1  0.54116448  0.25022470  0.55885141  1
  Li  Li1  1  0.45883552  0.74977530  0.44114859  1
  Li  Li2  1  0.95883552  0.74977530  0.05885141  1
  Li  Li3  1  0.04116448  0.25022470  0.94114859  1
  Ta  Ta4  1  0.74205584  0.74940960  0.74207655  1
  Ta  Ta5  1  0.75794416  0.25059040  0.24207655  1
  Ta  Ta6  1  0.24205584  0.74940960  0.75792345  1
  Ta  Ta7  1  0.25794416  0.25059040  0.25792345  1
  Ge  Ge8  1  0.49328558  0.25028636  0.88899655  1
  Ge  Ge9  1  0.99328558  0.25028636  0.61100345  1
  Ge  Ge10  1  0.50671442  0.74971364  0.11100345  1
  Ge  Ge11  1  0.00671442  0.74971364  0.38899655  1
  O  O12  1  0.80365851  0.25185350  0.48752864  1
  O  O13  1  0.69634149  0.74814650  0.98752864  1
  O  O14  1  0.31707651  0.74880872  0.98594488  1
  O  O15  1  0.59928411  0.94913107  0.25278069  1
  O  O16  1  0.49888971  0.75088537  0.68224086  1
  O  O17  1  0.68292349  0.25119128  0.01405512  1
  O  O18  1  0.99888971  0.75088537  0.81775914  1
  O  O19  1  0.50111029  0.24911463  0.31775914  1
  O  O20  1  0.09965279  0.44840904  0.75389535  1
  O  O21  1  0.81707651  0.74880872  0.51405512  1
  O  O22  1  0.18292349  0.25119128  0.48594488  1
  O  O23  1  0.09928411  0.94913107  0.24721931  1
  O  O24  1  0.30365851  0.25185350  0.01247136  1
  O  O25  1  0.00111029  0.24911463  0.18224086  1
  O  O26  1  0.40034721  0.55159096  0.25389535  1
  O  O27  1  0.90071589  0.05086893  0.75278069  1
  O  O28  1  0.19634149  0.74814650  0.51247136  1
  O  O29  1  0.40071589  0.05086893  0.74721931  1
  O  O30  1  0.90034721  0.55159096  0.24610465  1
  O  O31  1  0.59965279  0.44840904  0.74610465  1
