# generated using pymatgen
data_CsCoO2
_symmetry_space_group_name_H-M   'P 1'
_cell_length_a   6.06429498
_cell_length_b   6.06435864
_cell_length_c   6.06434908
_cell_angle_alpha   120.00022240
_cell_angle_beta   90.00000441
_cell_angle_gamma   59.99971858
_symmetry_Int_Tables_number   1
_chemical_formula_structural   CsCoO2
_chemical_formula_sum   'Cs2 Co2 O4'
_cell_volume   157.69978416
_cell_formula_units_Z   2
loop_
 _symmetry_equiv_pos_site_id
 _symmetry_equiv_pos_as_xyz
  1  'x, y, z'
loop_
 _atom_site_type_symbol
 _atom_site_label
 _atom_site_symmetry_multiplicity
 _atom_site_fract_x
 _atom_site_fract_y
 _atom_site_fract_z
 _atom_site_occupancy
  Cs  Cs0  1  0.50000049  -0.00000074  0.49999921  1
  Cs  Cs1  1  0.74999951  0.50000074  0.75000079  1
  Co  Co2  1  0.00000338  -0.00000482  -0.00000092  1
  Co  Co3  1  0.24999662  0.50000482  0.25000092  1
  O  O4  1  0.12500000  0.25000000  0.12500000  1
  O  O5  1  0.62500000  0.25000000  0.12500000  1
  O  O6  1  0.12500000  0.75000000  0.62500000  1
  O  O7  1  0.12500000  0.75000000  0.12500000  1
