# generated using pymatgen
data_CaLa2B10O19
_symmetry_space_group_name_H-M   'P 1'
_cell_length_a   6.48009192
_cell_length_b   6.48009255
_cell_length_c   9.18774821
_cell_angle_alpha   88.56450689
_cell_angle_beta   88.56450676
_cell_angle_gamma   61.51215969
_symmetry_Int_Tables_number   1
_chemical_formula_structural   CaLa2B10O19
_chemical_formula_sum   'Ca1 La2 B10 O19'
_cell_volume   338.94980048
_cell_formula_units_Z   1
loop_
 _symmetry_equiv_pos_site_id
 _symmetry_equiv_pos_as_xyz
  1  'x, y, z'
loop_
 _atom_site_type_symbol
 _atom_site_label
 _atom_site_symmetry_multiplicity
 _atom_site_fract_x
 _atom_site_fract_y
 _atom_site_fract_z
 _atom_site_occupancy
  Ca  Ca0  1  0.81159556  0.18840444  0.50000000  1
  La  La1  1  0.15988517  0.16480244  0.85571311  1
  La  La2  1  0.83519756  0.84011483  0.14428689  1
  B  B3  1  0.67407554  0.55544972  0.72999905  1
  B  B4  1  0.28408256  0.63735340  0.83902495  1
  B  B5  1  0.18551876  0.16064432  0.20757844  1
  B  B6  1  0.62531949  0.24115158  0.87395184  1
  B  B7  1  0.78823671  0.74665931  0.52902220  1
  B  B8  1  0.75884842  0.37468051  0.12604816  1
  B  B9  1  0.36264660  0.71591744  0.16097505  1
  B  B10  1  0.25334069  0.21176329  0.47097780  1
  B  B11  1  0.44455028  0.32592446  0.27000095  1
  B  B12  1  0.83935568  0.81448124  0.79242156  1
  O  O13  1  0.36671522  0.40998134  0.88663040  1
  O  O14  1  0.70226013  0.59485859  0.57310917  1
  O  O15  1  0.72467713  0.30796314  0.74620710  1
  O  O16  1  0.85335429  0.85579864  0.63557493  1
  O  O17  1  0.40514141  0.29773987  0.42689083  1
  O  O18  1  0.19597198  0.94793343  0.13357159  1
  O  O19  1  0.76501744  0.23498256  0.00000000  1
  O  O20  1  0.40825787  0.16044042  0.18085576  1
  O  O21  1  0.14420136  0.14664571  0.36442507  1
  O  O22  1  0.05206657  0.80402802  0.86642841  1
  O  O23  1  0.69203686  0.27532287  0.25379290  1
  O  O24  1  0.80687030  0.80488600  0.38888560  1
  O  O25  1  0.83955958  0.59174213  0.81914424  1
  O  O26  1  0.19511400  0.19312970  0.61111440  1
  O  O27  1  0.42530149  0.71882173  0.77789083  1
  O  O28  1  0.98959326  0.36508886  0.13622282  1
  O  O29  1  0.59001866  0.63328478  0.11336960  1
  O  O30  1  0.63491114  0.01040674  0.86377718  1
  O  O31  1  0.28117827  0.57469851  0.22210917  1
