# generated using pymatgen
data_Sr3Ru2O7
_symmetry_space_group_name_H-M   'P 1'
_cell_length_a   5.59237672
_cell_length_b   5.59323680
_cell_length_c   10.77139712
_cell_angle_alpha   90.00000000
_cell_angle_beta   105.04596234
_cell_angle_gamma   90.00000000
_symmetry_Int_Tables_number   1
_chemical_formula_structural   Sr3Ru2O7
_chemical_formula_sum   'Sr6 Ru4 O14'
_cell_volume   325.37332219
_cell_formula_units_Z   2
loop_
 _symmetry_equiv_pos_site_id
 _symmetry_equiv_pos_as_xyz
  1  'x, y, z'
loop_
 _atom_site_type_symbol
 _atom_site_label
 _atom_site_symmetry_multiplicity
 _atom_site_fract_x
 _atom_site_fract_y
 _atom_site_fract_z
 _atom_site_occupancy
  Sr  Sr0  1  0.06417433  0.75000000  0.62834866  1
  Sr  Sr1  1  0.43582567  0.75000000  0.37165134  1
  Sr  Sr2  1  0.93582567  0.25000000  0.37165134  1
  Sr  Sr3  1  0.25000000  0.75000000  0.00000000  1
  Sr  Sr4  1  0.56417433  0.25000000  0.62834866  1
  Sr  Sr5  1  0.75000000  0.25000000  0.00000000  1
  Ru  Ru6  1  0.34763324  0.25000000  0.19526647  1
  Ru  Ru7  1  0.84763324  0.75000000  0.19526647  1
  Ru  Ru8  1  0.65236676  0.75000000  0.80473353  1
  Ru  Ru9  1  0.15236676  0.25000000  0.80473353  1
  O  O10  1  0.63327176  0.46294417  0.19285126  1
  O  O11  1  0.36672824  0.53705583  0.80714874  1
  O  O12  1  0.05957950  0.03705583  0.19285126  1
  O  O13  1  0.44042050  0.03705583  0.80714874  1
  O  O14  1  0.44522208  0.25000000  0.39044416  1
  O  O15  1  0.86672824  0.46294417  0.80714874  1
  O  O16  1  0.05477792  0.25000000  0.60955584  1
  O  O17  1  0.55477792  0.75000000  0.60955584  1
  O  O18  1  0.13327176  0.53705583  0.19285126  1
  O  O19  1  0.94522208  0.75000000  0.39044416  1
  O  O20  1  0.25000000  0.25000000  0.00000000  1
  O  O21  1  0.94042050  0.96294417  0.80714874  1
  O  O22  1  0.75000000  0.75000000  0.00000000  1
  O  O23  1  0.55957950  0.96294417  0.19285126  1
