# generated using pymatgen
data_Cs2Na2B10O17
_symmetry_space_group_name_H-M   'P 1'
_cell_length_a   6.63481243
_cell_length_b   11.20283765
_cell_length_c   11.53274613
_cell_angle_alpha   103.97757461
_cell_angle_beta   106.71378103
_cell_angle_gamma   89.99964236
_symmetry_Int_Tables_number   1
_chemical_formula_structural   Cs2Na2B10O17
_chemical_formula_sum   'Cs4 Na4 B20 O34'
_cell_volume   794.46232065
_cell_formula_units_Z   2
loop_
 _symmetry_equiv_pos_site_id
 _symmetry_equiv_pos_as_xyz
  1  'x, y, z'
loop_
 _atom_site_type_symbol
 _atom_site_label
 _atom_site_symmetry_multiplicity
 _atom_site_fract_x
 _atom_site_fract_y
 _atom_site_fract_z
 _atom_site_occupancy
  Cs  Cs0  1  0.75487415  0.59659174  0.12081226  1
  Cs  Cs1  1  0.63396993  0.90341521  0.87919505  1
  Cs  Cs2  1  0.24512585  0.40340826  0.87918774  1
  Cs  Cs3  1  0.36603007  0.09658479  0.12080495  1
  Na  Na4  1  0.68805544  0.18391058  0.46753172  1
  Na  Na5  1  0.77956439  0.68385615  0.46751756  1
  Na  Na6  1  0.31194456  0.81608942  0.53246828  1
  Na  Na7  1  0.22043561  0.31614385  0.53248244  1
  B  B8  1  0.74762904  0.26223489  0.88912020  1
  B  B9  1  0.25237096  0.73776511  0.11087980  1
  B  B10  1  0.79407925  0.34918541  0.30967647  1
  B  B11  1  0.48432574  0.15081058  0.69032851  1
  B  B12  1  0.14143707  0.76225574  0.88913642  1
  B  B13  1  0.24981635  0.00317582  0.35933499  1
  B  B14  1  0.03394586  0.85894478  0.70979603  1
  B  B15  1  0.51567426  0.84918942  0.30967149  1
  B  B16  1  0.89040351  0.49683172  0.64065787  1
  B  B17  1  0.20592075  0.65081459  0.69032353  1
  B  B18  1  0.32425176  0.64105353  0.29020574  1
  B  B19  1  0.88553208  0.93744644  0.33138398  1
  B  B20  1  0.67574824  0.35894647  0.70979426  1
  B  B21  1  0.44593357  0.43743996  0.33138033  1
  B  B22  1  0.96605414  0.14105522  0.29020397  1
  B  B23  1  0.85856293  0.23774426  0.11086358  1
  B  B24  1  0.10959649  0.50316828  0.35934213  1
  B  B25  1  0.55406643  0.56256004  0.66861967  1
  B  B26  1  0.75018365  0.99682418  0.64066501  1
  B  B27  1  0.11446792  0.06255356  0.66861602  1
  O  O28  1  0.15638784  0.61796504  0.34670565  1
  O  O29  1  0.45068988  0.97424544  0.36078407  1
  O  O30  1  0.89079009  0.24997226  0.99997437  1
  O  O31  1  0.94438469  0.14206526  0.15753756  1
  O  O32  1  0.25348341  0.67808705  0.83082911  1
  O  O33  1  0.42278736  0.82189294  0.16915752  1
  O  O34  1  0.91017702  0.47424313  0.36080848  1
  O  O35  1  0.91348287  0.25551906  0.36127147  1
  O  O36  1  0.10920991  0.75002774  0.00002563  1
  O  O37  1  0.10216758  0.91743190  0.36672620  1
  O  O38  1  0.84361216  0.38203496  0.65329435  1
  O  O39  1  0.40904403  0.64887751  0.65895562  1
  O  O40  1  0.08651713  0.74448094  0.63872853  1
  O  O41  1  0.89783242  0.08256810  0.63327380  1
  O  O42  1  0.21323628  0.64207623  0.15754744  1
  O  O43  1  0.05561531  0.85793474  0.84246244  1
  O  O44  1  0.80960742  0.88202649  0.65330286  1
  O  O45  1  0.82007464  0.03838227  0.28800220  1
  O  O46  1  0.78676372  0.35792377  0.84245256  1
  O  O47  1  0.46803252  0.53837300  0.28799663  1
  O  O48  1  0.57721264  0.17810706  0.83084248  1
  O  O49  1  0.24983152  0.14886542  0.65894836  1
  O  O50  1  0.75016848  0.85113458  0.34105164  1
  O  O51  1  0.44786449  0.75551805  0.36127071  1
  O  O52  1  0.73534944  0.58256980  0.63326871  1
  O  O53  1  0.59095597  0.35112249  0.34104438  1
  O  O54  1  0.19039258  0.11797351  0.34669714  1
  O  O55  1  0.17992536  0.96161773  0.71199780  1
  O  O56  1  0.26465056  0.41743020  0.36673129  1
  O  O57  1  0.54931012  0.02575456  0.63921593  1
  O  O58  1  0.74651659  0.32191295  0.16917089  1
  O  O59  1  0.08982298  0.52575687  0.63919152  1
  O  O60  1  0.53196748  0.46162700  0.71200337  1
  O  O61  1  0.55213551  0.24448195  0.63872929  1
