# generated using pymatgen
data_Sm2(SeO3)3
_symmetry_space_group_name_H-M   'P 1'
_cell_length_a   7.07644810
_cell_length_b   8.05470119
_cell_length_c   9.21817641
_cell_angle_alpha   97.08182159
_cell_angle_beta   104.06531545
_cell_angle_gamma   116.34920093
_symmetry_Int_Tables_number   1
_chemical_formula_structural   Sm2(SeO3)3
_chemical_formula_sum   'Sm4 Se6 O18'
_cell_volume   440.27457109
_cell_formula_units_Z   2
loop_
 _symmetry_equiv_pos_site_id
 _symmetry_equiv_pos_as_xyz
  1  'x, y, z'
loop_
 _atom_site_type_symbol
 _atom_site_label
 _atom_site_symmetry_multiplicity
 _atom_site_fract_x
 _atom_site_fract_y
 _atom_site_fract_z
 _atom_site_occupancy
  Sm  Sm0  1  0.02264926  0.64981919  0.32374864  1
  Sm  Sm1  1  0.97735074  0.35018081  0.67625136  1
  Sm  Sm2  1  0.46053428  0.68873844  0.12826513  1
  Sm  Sm3  1  0.53946572  0.31126156  0.87173487  1
  Se  Se4  1  0.37041044  0.82404051  0.74382308  1
  Se  Se5  1  0.04352604  0.23439495  0.03536135  1
  Se  Se6  1  0.34864549  0.21954197  0.48968707  1
  Se  Se7  1  0.95647396  0.76560505  0.96463865  1
  Se  Se8  1  0.62958956  0.17595949  0.25617692  1
  Se  Se9  1  0.65135451  0.78045803  0.51031293  1
  O  O10  1  0.30666698  0.98145304  0.83470876  1
  O  O11  1  0.69333302  0.01854696  0.16529124  1
  O  O12  1  0.57428165  0.21548283  0.61699186  1
  O  O13  1  0.42571835  0.78451717  0.38300814  1
  O  O14  1  0.82325546  0.21437649  0.89018951  1
  O  O15  1  0.34187702  0.66286312  0.85677450  1
  O  O16  1  0.75363664  0.65647867  0.05369987  1
  O  O17  1  0.12431663  0.66428238  0.59278776  1
  O  O18  1  0.86306454  0.56067277  0.82269003  1
  O  O19  1  0.24636336  0.34352133  0.94630013  1
  O  O20  1  0.84243144  0.01401625  0.58509529  1
  O  O21  1  0.28302112  0.31376467  0.64188087  1
  O  O22  1  0.17674454  0.78562351  0.10981049  1
  O  O23  1  0.65812298  0.33713688  0.14322550  1
  O  O24  1  0.87568337  0.33571762  0.40721224  1
  O  O25  1  0.13693546  0.43932723  0.17730997  1
  O  O26  1  0.15756856  0.98598375  0.41490471  1
  O  O27  1  0.71697888  0.68623533  0.35811913  1
