# generated using pymatgen
data_K4MoS3O14
_symmetry_space_group_name_H-M   'P 1'
_cell_length_a   7.85017919
_cell_length_b   10.77358286
_cell_length_c   17.37504715
_cell_angle_alpha   90.00000000
_cell_angle_beta   90.00000000
_cell_angle_gamma   90.00000000
_symmetry_Int_Tables_number   1
_chemical_formula_structural   K4MoS3O14
_chemical_formula_sum   'K16 Mo4 S12 O56'
_cell_volume   1469.48689766
_cell_formula_units_Z   4
loop_
 _symmetry_equiv_pos_site_id
 _symmetry_equiv_pos_as_xyz
  1  'x, y, z'
loop_
 _atom_site_type_symbol
 _atom_site_label
 _atom_site_symmetry_multiplicity
 _atom_site_fract_x
 _atom_site_fract_y
 _atom_site_fract_z
 _atom_site_occupancy
  K  K0  1  0.06140749  0.25689618  0.90994181  1
  K  K1  1  0.23931500  0.89016232  0.88904140  1
  K  K2  1  0.26068500  0.39016232  0.11095860  1
  K  K3  1  0.73931500  0.60983768  0.88904140  1
  K  K4  1  0.43859251  0.75689618  0.40994181  1
  K  K5  1  0.56140749  0.24310382  0.90994181  1
  K  K6  1  0.06140749  0.25689618  0.59005819  1
  K  K7  1  0.93859251  0.74310382  0.09005819  1
  K  K8  1  0.56140749  0.24310382  0.59005819  1
  K  K9  1  0.26068500  0.39016232  0.38904140  1
  K  K10  1  0.73931500  0.60983768  0.61095860  1
  K  K11  1  0.23931500  0.89016232  0.61095860  1
  K  K12  1  0.76068500  0.10983768  0.11095860  1
  K  K13  1  0.93859251  0.74310382  0.40994181  1
  K  K14  1  0.43859251  0.75689618  0.09005819  1
  K  K15  1  0.76068500  0.10983768  0.38904140  1
  Mo  Mo16  1  0.67516928  0.93349102  0.75000000  1
  Mo  Mo17  1  0.82483072  0.43349102  0.25000000  1
  Mo  Mo18  1  0.32483072  0.06650898  0.25000000  1
  Mo  Mo19  1  0.17516928  0.56650898  0.75000000  1
  S  S20  1  0.26500069  0.56029596  0.93455605  1
  S  S21  1  0.73499931  0.43970404  0.43455605  1
  S  S22  1  0.38011295  0.09774162  0.75000000  1
  S  S23  1  0.88011295  0.40225838  0.75000000  1
  S  S24  1  0.26500069  0.56029596  0.56544395  1
  S  S25  1  0.76500069  0.93970404  0.56544395  1
  S  S26  1  0.23499931  0.06029596  0.43455605  1
  S  S27  1  0.73499931  0.43970404  0.06544395  1
  S  S28  1  0.61988705  0.90225838  0.25000000  1
  S  S29  1  0.23499931  0.06029596  0.06544395  1
  S  S30  1  0.76500069  0.93970404  0.93455605  1
  S  S31  1  0.11988705  0.59774162  0.25000000  1
  O  O32  1  0.93401139  0.63607544  0.25000000  1
  O  O33  1  0.66647922  0.89918816  0.00206313  1
  O  O34  1  0.79458536  0.36340183  0.67920445  1
  O  O35  1  0.13196354  0.55254538  0.63354863  1
  O  O36  1  0.29458536  0.13659817  0.82079555  1
  O  O37  1  0.36803646  0.05254538  0.36645137  1
  O  O38  1  0.10437213  0.15206441  0.41303596  1
  O  O39  1  0.56598861  0.13607544  0.75000000  1
  O  O40  1  0.16647922  0.60081184  0.00206313  1
  O  O41  1  0.89562787  0.84793559  0.91303596  1
  O  O42  1  0.89562787  0.84793559  0.58696404  1
  O  O43  1  0.86803646  0.44745462  0.13354863  1
  O  O44  1  0.36803646  0.05254538  0.13354863  1
  O  O45  1  0.70541464  0.86340183  0.17920445  1
  O  O46  1  0.29458536  0.13659817  0.67920445  1
  O  O47  1  0.69192241  0.77332499  0.75000000  1
  O  O48  1  0.63196354  0.94745462  0.86645137  1
  O  O49  1  0.79458536  0.36340183  0.82079555  1
  O  O50  1  0.60437213  0.34793559  0.08696404  1
  O  O51  1  0.70541464  0.86340183  0.32079555  1
  O  O52  1  0.13196354  0.55254538  0.86645137  1
  O  O53  1  0.39604586  0.95445954  0.75000000  1
  O  O54  1  0.83352078  0.39918816  0.99793687  1
  O  O55  1  0.63196354  0.94745462  0.63354863  1
  O  O56  1  0.33285808  0.43348076  0.94436412  1
  O  O57  1  0.60437213  0.34793559  0.41303596  1
  O  O58  1  0.16714192  0.93348076  0.05563588  1
  O  O59  1  0.83285808  0.06651924  0.94436412  1
  O  O60  1  0.38077718  0.51050329  0.75000000  1
  O  O61  1  0.66647922  0.89918816  0.49793687  1
  O  O62  1  0.39562787  0.65206441  0.91303596  1
  O  O63  1  0.16647922  0.60081184  0.49793687  1
  O  O64  1  0.20541464  0.63659817  0.32079555  1
  O  O65  1  0.61922282  0.48949671  0.25000000  1
  O  O66  1  0.33352078  0.10081184  0.99793687  1
  O  O67  1  0.11922282  0.01050329  0.25000000  1
  O  O68  1  0.30807759  0.22667501  0.25000000  1
  O  O69  1  0.80807759  0.27332499  0.25000000  1
  O  O70  1  0.20541464  0.63659817  0.17920445  1
  O  O71  1  0.33352078  0.10081184  0.50206313  1
  O  O72  1  0.89604586  0.54554046  0.75000000  1
  O  O73  1  0.16714192  0.93348076  0.44436412  1
  O  O74  1  0.66714192  0.56651924  0.05563588  1
  O  O75  1  0.19192241  0.72667501  0.75000000  1
  O  O76  1  0.66714192  0.56651924  0.44436412  1
  O  O77  1  0.10395414  0.45445954  0.25000000  1
  O  O78  1  0.06598861  0.36392456  0.75000000  1
  O  O79  1  0.39562787  0.65206441  0.58696404  1
  O  O80  1  0.86803646  0.44745462  0.36645137  1
  O  O81  1  0.10437213  0.15206441  0.08696404  1
  O  O82  1  0.43401139  0.86392456  0.25000000  1
  O  O83  1  0.88077718  0.98949671  0.75000000  1
  O  O84  1  0.60395414  0.04554046  0.25000000  1
  O  O85  1  0.83285808  0.06651924  0.55563588  1
  O  O86  1  0.33285808  0.43348076  0.55563588  1
  O  O87  1  0.83352078  0.39918816  0.50206313  1
