# generated using pymatgen
data_NaNdH2S2O9
_symmetry_space_group_name_H-M   'P 1'
_cell_length_a   7.06421149
_cell_length_b   7.06421147
_cell_length_c   12.97756273
_cell_angle_alpha   90.00000000
_cell_angle_beta   90.00000000
_cell_angle_gamma   120.00000004
_symmetry_Int_Tables_number   1
_chemical_formula_structural   NaNdH2S2O9
_chemical_formula_sum   'Na3 Nd3 H6 S6 O27'
_cell_volume   560.85571910
_cell_formula_units_Z   3
loop_
 _symmetry_equiv_pos_site_id
 _symmetry_equiv_pos_as_xyz
  1  'x, y, z'
loop_
 _atom_site_type_symbol
 _atom_site_label
 _atom_site_symmetry_multiplicity
 _atom_site_fract_x
 _atom_site_fract_y
 _atom_site_fract_z
 _atom_site_occupancy
  Na  Na0  1  0.52690651  0.52690651  0.50000000  1
  Na  Na1  1  0.47309349  0.00000000  0.83333300  1
  Na  Na2  1  0.00000000  0.47309349  0.16666700  1
  Nd  Nd3  1  0.43838388  0.00000000  0.33333300  1
  Nd  Nd4  1  1.00000000  0.43838388  0.66666700  1
  Nd  Nd5  1  0.56161612  0.56161612  0.00000000  1
  H  H6  1  0.05150710  0.09577947  0.37324384  1
  H  H7  1  0.09577947  0.05150710  0.62675616  1
  H  H8  1  0.95572764  0.90422053  0.29342216  1
  H  H9  1  0.94849290  0.04427236  0.96008916  1
  H  H10  1  0.90422053  0.95572764  0.70657784  1
  H  H11  1  0.04427236  0.94849290  0.03991084  1
  S  S12  1  0.45369397  0.01104947  0.08990273  1
  S  S13  1  0.55735550  0.54630603  0.75656973  1
  S  S14  1  0.98895053  0.44264450  0.42323673  1
  S  S15  1  0.01104947  0.45369397  0.91009727  1
  S  S16  1  0.44264450  0.98895053  0.57676327  1
  S  S17  1  0.54630603  0.55735550  0.24343027  1
  O  O18  1  0.48881860  0.35855823  0.82879130  1
  O  O19  1  1.00000000  0.08637984  0.66666700  1
  O  O20  1  0.61235414  0.74019307  0.82366886  1
  O  O21  1  0.91362016  0.91362016  0.00000000  1
  O  O22  1  0.08637984  0.00000000  0.33333300  1
  O  O23  1  0.12783893  0.38764586  0.49033586  1
  O  O24  1  0.41010192  0.16418151  0.02946462  1
  O  O25  1  0.38192218  0.50694323  0.68231859  1
  O  O26  1  0.50694323  0.38192218  0.31768141  1
  O  O27  1  0.86973963  0.51118140  0.49545830  1
  O  O28  1  0.35855823  0.48881860  0.17120870  1
  O  O29  1  0.58989808  0.75407959  0.30386838  1
  O  O30  1  0.74019307  0.61235414  0.17633114  1
  O  O31  1  0.75407959  0.58989808  0.69613162  1
  O  O32  1  0.49305677  0.87497895  0.01565159  1
  O  O33  1  0.83581849  0.24592041  0.36279762  1
  O  O34  1  0.51118140  0.86973963  0.50454170  1
  O  O35  1  0.61807782  0.12502105  0.65101541  1
  O  O36  1  0.12502105  0.61807782  0.34898459  1
  O  O37  1  0.64144177  0.13026037  0.16212430  1
  O  O38  1  0.13026037  0.64144177  0.83787570  1
  O  O39  1  0.24592041  0.83581849  0.63720238  1
  O  O40  1  0.16418151  0.41010192  0.97053538  1
  O  O41  1  0.87216107  0.25980693  0.84299814  1
  O  O42  1  0.38764586  0.12783893  0.50966414  1
  O  O43  1  0.87497895  0.49305677  0.98434841  1
  O  O44  1  0.25980693  0.87216107  0.15700186  1
