# generated using pymatgen
data_Nb(Cu3O4)2
_symmetry_space_group_name_H-M   'P 1'
_cell_length_a   6.57056515
_cell_length_b   6.56723811
_cell_length_c   6.56767142
_cell_angle_alpha   60.04493669
_cell_angle_beta   60.07845977
_cell_angle_gamma   60.06686617
_symmetry_Int_Tables_number   1
_chemical_formula_structural   Nb(Cu3O4)2
_chemical_formula_sum   'Nb1 Cu6 O8'
_cell_volume   200.68070095
_cell_formula_units_Z   1
loop_
 _symmetry_equiv_pos_site_id
 _symmetry_equiv_pos_as_xyz
  1  'x, y, z'
loop_
 _atom_site_type_symbol
 _atom_site_label
 _atom_site_symmetry_multiplicity
 _atom_site_fract_x
 _atom_site_fract_y
 _atom_site_fract_z
 _atom_site_occupancy
  Nb  Nb0  1  0.50000321  0.49998553  0.50000744  1
  Cu  Cu1  1  0.49999803  -0.00000040  0.50000911  1
  Cu  Cu2  1  0.50000488  0.50000521  0.00000699  1
  Cu  Cu3  1  -0.00000991  0.49999699  0.50000317  1
  Cu  Cu4  1  -0.00000015  0.50000848  -0.00000200  1
  Cu  Cu5  1  -0.00000047  0.99999851  0.49998869  1
  Cu  Cu6  1  0.50000814  0.00000084  0.00000041  1
  O  O7  1  0.63566354  0.09370330  0.63546475  1
  O  O8  1  0.09343946  0.63558033  0.63573291  1
  O  O9  1  0.63581341  0.63546259  0.09351371  1
  O  O10  1  0.90655760  0.36442012  0.36426500  1
  O  O11  1  0.63545090  0.63526716  0.63533036  1
  O  O12  1  0.36454726  0.36473254  0.36466630  1
  O  O13  1  0.36433569  0.90629894  0.36453106  1
  O  O14  1  0.36418842  0.36453785  0.90648210  1
