# generated using pymatgen
data_P2O2F3
_symmetry_space_group_name_H-M   'P 1'
_cell_length_a   13.23493670
_cell_length_b   13.23493666
_cell_length_c   9.54029966
_cell_angle_alpha   90.00000000
_cell_angle_beta   90.00000000
_cell_angle_gamma   120.00000011
_symmetry_Int_Tables_number   1
_chemical_formula_structural   P2O2F3
_chemical_formula_sum   'P24 O24 F36'
_cell_volume   1447.22608893
_cell_formula_units_Z   12
loop_
 _symmetry_equiv_pos_site_id
 _symmetry_equiv_pos_as_xyz
  1  'x, y, z'
loop_
 _atom_site_type_symbol
 _atom_site_label
 _atom_site_symmetry_multiplicity
 _atom_site_fract_x
 _atom_site_fract_y
 _atom_site_fract_z
 _atom_site_occupancy
  P  P0  1  0.33333300  0.66666700  0.96695230  1
  P  P1  1  0.88339258  0.43549314  0.35232551  1
  P  P2  1  0.00000000  0.00000000  0.42145918  1
  P  P3  1  0.55120891  0.76305380  0.78574408  1
  P  P4  1  0.93908395  0.78806444  0.09954315  1
  P  P5  1  0.21184489  0.76305380  0.28574408  1
  P  P6  1  0.21184489  0.44879109  0.78574408  1
  P  P7  1  0.88339258  0.44789944  0.85232551  1
  P  P8  1  0.66666700  0.33333300  0.53227152  1
  P  P9  1  0.66666700  0.33333300  0.03227152  1
  P  P10  1  0.93908395  0.15101951  0.59954315  1
  P  P11  1  0.55210056  0.11660742  0.35232551  1
  P  P12  1  0.84898049  0.78806444  0.59954315  1
  P  P13  1  0.55210056  0.43549314  0.85232551  1
  P  P14  1  0.56450686  0.11660742  0.85232551  1
  P  P15  1  0.21193556  0.06091605  0.59954315  1
  P  P16  1  0.21193556  0.15101951  0.09954315  1
  P  P17  1  0.84898049  0.06091605  0.09954315  1
  P  P18  1  0.33333300  0.66666700  0.46695230  1
  P  P19  1  0.55120891  0.78815511  0.28574408  1
  P  P20  1  0.23694620  0.44879109  0.28574408  1
  P  P21  1  0.56450686  0.44789944  0.35232551  1
  P  P22  1  0.00000000  0.00000000  0.92145918  1
  P  P23  1  0.23694620  0.78815511  0.78574408  1
  O  O24  1  0.64407258  0.21318334  0.46902551  1
  O  O25  1  0.56911076  0.35592742  0.46902551  1
  O  O26  1  0.92131969  0.04772320  0.48499252  1
  O  O27  1  0.30243224  0.54393863  0.90410576  1
  O  O28  1  0.78681666  0.35592742  0.96902551  1
  O  O29  1  0.12640350  0.04772320  0.98499252  1
  O  O30  1  0.30243224  0.75849361  0.40410576  1
  O  O31  1  0.24150639  0.54393863  0.40410576  1
  O  O32  1  0.64407258  0.43088924  0.96902551  1
  O  O33  1  0.45606137  0.69756776  0.40410576  1
  O  O34  1  0.92131969  0.87359650  0.98499252  1
  O  O35  1  0.78681666  0.43088924  0.46902551  1
  O  O36  1  0.33333300  0.66666700  0.12173238  1
  O  O37  1  0.45606137  0.75849361  0.90410576  1
  O  O38  1  0.12640350  0.07868031  0.48499252  1
  O  O39  1  0.95227680  0.07868031  0.98499252  1
  O  O40  1  0.00000000  0.00000000  0.76677481  1
  O  O41  1  0.66666700  0.33333300  0.18703932  1
  O  O42  1  0.24150639  0.69756776  0.90410576  1
  O  O43  1  0.33333300  0.66666700  0.62173238  1
  O  O44  1  0.00000000  0.00000000  0.26677481  1
  O  O45  1  0.56911076  0.21318334  0.96902551  1
  O  O46  1  0.66666700  0.33333300  0.68703932  1
  O  O47  1  0.95227680  0.87359650  0.48499252  1
  F  F48  1  0.45122276  0.09956932  0.77039830  1
  F  F49  1  0.82022252  0.74709585  0.18225321  1
  F  F50  1  0.51010481  0.00568740  0.45366502  1
  F  F51  1  0.99431260  0.50441741  0.45366502  1
  F  F52  1  0.92687333  0.17977748  0.18225321  1
  F  F53  1  0.16964168  0.83267275  0.88615350  1
  F  F54  1  0.12394509  0.43218418  0.20479811  1
  F  F55  1  0.66303107  0.83035832  0.88615350  1
  F  F56  1  0.66303107  0.83267275  0.38615350  1
  F  F57  1  0.51010481  0.50441741  0.95366502  1
  F  F58  1  0.32311338  0.10987686  0.49768551  1
  F  F59  1  0.45122276  0.35165343  0.27039830  1
  F  F60  1  0.64834657  0.09956932  0.27039830  1
  F  F61  1  0.89012314  0.21323652  0.49768551  1
  F  F62  1  0.32311338  0.21323652  0.99768551  1
  F  F63  1  0.49558259  0.00568740  0.95366502  1
  F  F64  1  0.49558259  0.48989519  0.45366502  1
  F  F65  1  0.99431260  0.48989519  0.95366502  1
  F  F66  1  0.56781582  0.69176091  0.20479811  1
  F  F67  1  0.89012314  0.67688662  0.99768551  1
  F  F68  1  0.25290415  0.17977748  0.68225321  1
  F  F69  1  0.78676348  0.10987686  0.99768551  1
  F  F70  1  0.16732725  0.33696893  0.88615350  1
  F  F71  1  0.16964168  0.33696893  0.38615350  1
  F  F72  1  0.25290415  0.07312667  0.18225321  1
  F  F73  1  0.92687333  0.74709585  0.68225321  1
  F  F74  1  0.90043068  0.35165343  0.77039830  1
  F  F75  1  0.12394509  0.69176091  0.70479811  1
  F  F76  1  0.16732725  0.83035832  0.38615350  1
  F  F77  1  0.56781582  0.87605491  0.70479811  1
  F  F78  1  0.30823909  0.87605491  0.20479811  1
  F  F79  1  0.64834657  0.54877724  0.77039830  1
  F  F80  1  0.78676348  0.67688662  0.49768551  1
  F  F81  1  0.82022252  0.07312667  0.68225321  1
  F  F82  1  0.90043068  0.54877724  0.27039830  1
  F  F83  1  0.30823909  0.43218418  0.70479811  1
