# generated using pymatgen
data_Na2CdSnS4
_symmetry_space_group_name_H-M   'P 1'
_cell_length_a   6.50319286
_cell_length_b   6.46666496
_cell_length_c   7.02440169
_cell_angle_alpha   118.49341448
_cell_angle_beta   118.65691216
_cell_angle_gamma   87.92535309
_symmetry_Int_Tables_number   1
_chemical_formula_structural   Na2CdSnS4
_chemical_formula_sum   'Na2 Cd1 Sn1 S4'
_cell_volume   220.60335241
_cell_formula_units_Z   1
loop_
 _symmetry_equiv_pos_site_id
 _symmetry_equiv_pos_as_xyz
  1  'x, y, z'
loop_
 _atom_site_type_symbol
 _atom_site_label
 _atom_site_symmetry_multiplicity
 _atom_site_fract_x
 _atom_site_fract_y
 _atom_site_fract_z
 _atom_site_occupancy
  Na  Na0  1  0.52397954  0.02397954  0.04795907  1
  Na  Na1  1  0.77770215  0.77770215  0.55540430  1
  Cd  Cd2  1  0.01124371  0.51124371  0.02248742  1
  Sn  Sn3  1  0.26134010  0.26134010  0.52268021  1
  S  S4  1  0.92413469  0.37527639  0.27136002  1
  S  S5  1  0.61326485  0.59440519  0.76732448  1
  S  S6  1  0.15405962  0.17291929  0.76732448  1
  S  S7  1  0.34722533  0.89608364  0.27136002  1
