# generated using pymatgen
data_Y(IO3)3
_symmetry_space_group_name_H-M   'P 1'
_cell_length_a   6.15234522
_cell_length_b   8.81729858
_cell_length_c   15.32160449
_cell_angle_alpha   96.69619645
_cell_angle_beta   90.00000000
_cell_angle_gamma   90.00000000
_symmetry_Int_Tables_number   1
_chemical_formula_structural   Y(IO3)3
_chemical_formula_sum   'Y4 I12 O36'
_cell_volume   825.48227776
_cell_formula_units_Z   4
loop_
 _symmetry_equiv_pos_site_id
 _symmetry_equiv_pos_as_xyz
  1  'x, y, z'
loop_
 _atom_site_type_symbol
 _atom_site_label
 _atom_site_symmetry_multiplicity
 _atom_site_fract_x
 _atom_site_fract_y
 _atom_site_fract_z
 _atom_site_occupancy
  Y  Y0  1  0.21443346  0.04202618  0.89483993  1
  Y  Y1  1  0.78556654  0.95797382  0.10516007  1
  Y  Y2  1  0.28556654  0.54202618  0.39483993  1
  Y  Y3  1  0.71443346  0.45797382  0.60516007  1
  I  I4  1  0.59392197  0.61568804  0.19766705  1
  I  I5  1  0.64439264  0.83469594  0.47996721  1
  I  I6  1  0.90607803  0.11568804  0.69766705  1
  I  I7  1  0.35560736  0.16530406  0.52003279  1
  I  I8  1  0.68924119  0.78464614  0.85832016  1
  I  I9  1  0.31075881  0.21535386  0.14167984  1
  I  I10  1  0.85560736  0.33469594  0.97996721  1
  I  I11  1  0.09392197  0.88431196  0.30233295  1
  I  I12  1  0.40607803  0.38431196  0.80233295  1
  I  I13  1  0.81075881  0.28464614  0.35832016  1
  I  I14  1  0.14439264  0.66530406  0.02003279  1
  I  I15  1  0.18924119  0.71535386  0.64167984  1
  O  O16  1  0.87219179  0.14072683  0.01470735  1
  O  O17  1  0.91756214  0.95275786  0.61130530  1
  O  O18  1  0.60459933  0.42417992  0.32983395  1
  O  O19  1  0.58243786  0.45275786  0.11130530  1
  O  O20  1  0.13039785  0.64396981  0.52779378  1
  O  O21  1  0.89540067  0.92417992  0.82983395  1
  O  O22  1  0.06959981  0.41216973  0.05912172  1
  O  O23  1  0.67662844  0.41183554  0.75591240  1
  O  O24  1  0.05160860  0.37234032  0.31331925  1
  O  O25  1  0.52782921  0.22636374  0.61641408  1
  O  O26  1  0.01113882  0.72792955  0.36516955  1
  O  O27  1  0.62780821  0.64072683  0.51470735  1
  O  O28  1  0.98886118  0.27207045  0.63483045  1
  O  O29  1  0.55160860  0.12765968  0.18668075  1
  O  O30  1  0.51113882  0.77207045  0.13483045  1
  O  O31  1  0.56959981  0.08783027  0.44087828  1
  O  O32  1  0.44839140  0.87234032  0.81331925  1
  O  O33  1  0.93040019  0.58783027  0.94087828  1
  O  O34  1  0.86960215  0.35603019  0.47220622  1
  O  O35  1  0.48886118  0.22792955  0.86516955  1
  O  O36  1  0.08243786  0.04724214  0.38869470  1
  O  O37  1  0.37219179  0.35927317  0.48529265  1
  O  O38  1  0.02782921  0.27363626  0.88358592  1
  O  O39  1  0.10459933  0.07582008  0.17016605  1
  O  O40  1  0.39540067  0.57582008  0.67016605  1
  O  O41  1  0.47217079  0.77363626  0.38358592  1
  O  O42  1  0.97217079  0.72636374  0.11641408  1
  O  O43  1  0.41756214  0.54724214  0.88869470  1
  O  O44  1  0.43040019  0.91216973  0.55912172  1
  O  O45  1  0.36960215  0.14396981  0.02779378  1
  O  O46  1  0.82337156  0.91183554  0.25591240  1
  O  O47  1  0.12780821  0.85927317  0.98529265  1
  O  O48  1  0.94839140  0.62765968  0.68668075  1
  O  O49  1  0.63039785  0.85603019  0.97220622  1
  O  O50  1  0.17662844  0.08816446  0.74408760  1
  O  O51  1  0.32337156  0.58816446  0.24408760  1
