# generated using pymatgen
data_Fe2Cu3(SeO3)6
_symmetry_space_group_name_H-M   'P 1'
_cell_length_a   7.73596374
_cell_length_b   8.38731301
_cell_length_c   12.64243356
_cell_angle_alpha   90.00000000
_cell_angle_beta   96.00092756
_cell_angle_gamma   90.00000000
_symmetry_Int_Tables_number   1
_chemical_formula_structural   Fe2Cu3(SeO3)6
_chemical_formula_sum   'Fe4 Cu6 Se12 O36'
_cell_volume   815.79598998
_cell_formula_units_Z   2
loop_
 _symmetry_equiv_pos_site_id
 _symmetry_equiv_pos_as_xyz
  1  'x, y, z'
loop_
 _atom_site_type_symbol
 _atom_site_label
 _atom_site_symmetry_multiplicity
 _atom_site_fract_x
 _atom_site_fract_y
 _atom_site_fract_z
 _atom_site_occupancy
  Fe  Fe0  1  0.86514860  0.99482426  0.17580754  1
  Fe  Fe1  1  0.36514860  0.50517574  0.17580754  1
  Fe  Fe2  1  0.63485140  0.49482426  0.82419246  1
  Fe  Fe3  1  0.13485140  0.00517574  0.82419246  1
  Cu  Cu4  1  0.63329371  0.37295270  0.38144751  1
  Cu  Cu5  1  0.86670629  0.87295270  0.61855249  1
  Cu  Cu6  1  0.13329371  0.12704730  0.38144751  1
  Cu  Cu7  1  0.50000000  0.00000000  0.50000000  1
  Cu  Cu8  1  0.36670629  0.62704730  0.61855249  1
  Cu  Cu9  1  0.00000000  0.50000000  0.50000000  1
  Se  Se10  1  0.19108964  0.19091481  0.60646344  1
  Se  Se11  1  0.69108964  0.30908519  0.60646344  1
  Se  Se12  1  0.13555972  0.80141287  0.04380373  1
  Se  Se13  1  0.36444028  0.30141287  0.95619627  1
  Se  Se14  1  0.44439554  0.10018603  0.21698726  1
  Se  Se15  1  0.86444028  0.19858713  0.95619627  1
  Se  Se16  1  0.30891036  0.69091481  0.39353656  1
  Se  Se17  1  0.80891036  0.80908519  0.39353656  1
  Se  Se18  1  0.63555972  0.69858713  0.04380373  1
  Se  Se19  1  0.94439554  0.39981397  0.21698726  1
  Se  Se20  1  0.05560446  0.60018603  0.78301274  1
  Se  Se21  1  0.55560446  0.89981397  0.78301274  1
  O  O22  1  0.45042158  0.76880871  0.50256040  1
  O  O23  1  0.54957842  0.23119129  0.49743960  1
  O  O24  1  0.96045235  0.90303606  0.32653088  1
  O  O25  1  0.30653922  0.73001706  0.13002087  1
  O  O26  1  0.25025291  0.04153499  0.51579135  1
  O  O27  1  0.15748052  0.53246626  0.67672647  1
  O  O28  1  0.58937077  0.52783205  0.11292548  1
  O  O29  1  0.41062923  0.47216795  0.88707452  1
  O  O30  1  0.04957842  0.26880871  0.49743960  1
  O  O31  1  0.08937077  0.97216795  0.11292548  1
  O  O32  1  0.19346078  0.23001706  0.86998013  1
  O  O33  1  0.48747642  0.30267537  0.25409132  1
  O  O34  1  0.01252358  0.80267537  0.74590868  1
  O  O35  1  0.85571431  0.51547841  0.74741585  1
  O  O36  1  0.25179984  0.88409024  0.94557323  1
  O  O37  1  0.75025291  0.45846501  0.51579135  1
  O  O38  1  0.80653922  0.76998294  0.13002087  1
  O  O39  1  0.24820016  0.38409024  0.05442677  1
  O  O40  1  0.65748052  0.96753374  0.67672647  1
  O  O41  1  0.24974709  0.54153499  0.48420865  1
  O  O42  1  0.74820016  0.11590976  0.05442677  1
  O  O43  1  0.95042158  0.73119129  0.50256040  1
  O  O44  1  0.14428569  0.48452159  0.25258415  1
  O  O45  1  0.84251948  0.46753374  0.32327353  1
  O  O46  1  0.34251948  0.03246626  0.32327353  1
  O  O47  1  0.69346078  0.26998294  0.86998013  1
  O  O48  1  0.74974709  0.95846501  0.48420865  1
  O  O49  1  0.03954765  0.09696394  0.67346912  1
  O  O50  1  0.75179984  0.61590976  0.94557323  1
  O  O51  1  0.51252358  0.69732463  0.74590868  1
  O  O52  1  0.98747642  0.19732463  0.25409132  1
  O  O53  1  0.46045235  0.59696394  0.32653088  1
  O  O54  1  0.91062923  0.02783205  0.88707452  1
  O  O55  1  0.64428569  0.01547841  0.25258415  1
  O  O56  1  0.53954765  0.40303606  0.67346912  1
  O  O57  1  0.35571431  0.98452159  0.74741585  1
