# generated using pymatgen
data_SrBi6(PO5)4
_symmetry_space_group_name_H-M   'P 1'
_cell_length_a   7.05087413
_cell_length_b   7.74309035
_cell_length_c   9.28327815
_cell_angle_alpha   107.14191158
_cell_angle_beta   93.07995022
_cell_angle_gamma   112.22460109
_symmetry_Int_Tables_number   1
_chemical_formula_structural   SrBi6(PO5)4
_chemical_formula_sum   'Sr1 Bi6 P4 O20'
_cell_volume   440.44232849
_cell_formula_units_Z   1
loop_
 _symmetry_equiv_pos_site_id
 _symmetry_equiv_pos_as_xyz
  1  'x, y, z'
loop_
 _atom_site_type_symbol
 _atom_site_label
 _atom_site_symmetry_multiplicity
 _atom_site_fract_x
 _atom_site_fract_y
 _atom_site_fract_z
 _atom_site_occupancy
  Sr  Sr0  1  0.00000000  0.50000000  0.00000000  1
  Bi  Bi1  1  0.19433730  0.19577908  0.67502903  1
  Bi  Bi2  1  0.56342387  0.70733506  0.91284550  1
  Bi  Bi3  1  0.33159434  0.62658884  0.51090797  1
  Bi  Bi4  1  0.80566270  0.80422092  0.32497097  1
  Bi  Bi5  1  0.43657613  0.29266494  0.08715450  1
  Bi  Bi6  1  0.66840566  0.37341116  0.48909203  1
  P  P7  1  0.04750547  0.76883821  0.75665817  1
  P  P8  1  0.65368906  0.10316757  0.74299555  1
  P  P9  1  0.95249453  0.23116179  0.24334183  1
  P  P10  1  0.34631094  0.89683243  0.25700445  1
  O  O11  1  0.35338196  0.82306948  0.08400207  1
  O  O12  1  0.44687677  0.47288481  0.63755123  1
  O  O13  1  0.87142278  0.23680499  0.72102039  1
  O  O14  1  0.21337999  0.68043046  0.75902018  1
  O  O15  1  0.62322036  0.88243981  0.68838847  1
  O  O16  1  0.87873492  0.67388735  0.84412459  1
  O  O17  1  0.85263958  1.00080318  0.16888617  1
  O  O18  1  0.32019436  0.40688684  0.90365896  1
  O  O19  1  0.12126508  0.32611265  0.15587541  1
  O  O20  1  0.51662303  0.87474557  0.35533834  1
  O  O21  1  0.37677964  0.11756019  0.31161153  1
  O  O22  1  0.67980564  0.59311316  0.09634104  1
  O  O23  1  0.95260015  0.70943280  0.58375896  1
  O  O24  1  0.14736042  -0.00080318  0.83111383  1
  O  O25  1  0.12857722  0.76319501  0.27897961  1
  O  O26  1  0.55312323  0.52711519  0.36244877  1
  O  O27  1  0.64661804  0.17693052  0.91599793  1
  O  O28  1  0.78662001  0.31956954  0.24097982  1
  O  O29  1  0.48337697  0.12525443  0.64466166  1
  O  O30  1  0.04739985  0.29056720  0.41624104  1
