# generated using pymatgen
data_UV2PbO9
_symmetry_space_group_name_H-M   'P 1'
_cell_length_a   7.02201025
_cell_length_b   9.90611944
_cell_length_c   12.04506860
_cell_angle_alpha   90.00000000
_cell_angle_beta   92.64269364
_cell_angle_gamma   90.00000000
_symmetry_Int_Tables_number   1
_chemical_formula_structural   UV2PbO9
_chemical_formula_sum   'U4 V8 Pb4 O36'
_cell_volume   836.97440054
_cell_formula_units_Z   4
loop_
 _symmetry_equiv_pos_site_id
 _symmetry_equiv_pos_as_xyz
  1  'x, y, z'
loop_
 _atom_site_type_symbol
 _atom_site_label
 _atom_site_symmetry_multiplicity
 _atom_site_fract_x
 _atom_site_fract_y
 _atom_site_fract_z
 _atom_site_occupancy
  U  U0  1  0.45377304  0.00010826  0.72897885  1
  U  U1  1  0.54622696  0.99989174  0.27102115  1
  U  U2  1  0.95377304  0.49989174  0.22897885  1
  U  U3  1  0.04622696  0.50010826  0.77102115  1
  V  V4  1  0.77911394  0.72742682  0.46183637  1
  V  V5  1  0.27911394  0.77257318  0.96183637  1
  V  V6  1  0.09540231  0.04180013  0.33007005  1
  V  V7  1  0.40459769  0.54180013  0.16992995  1
  V  V8  1  0.72088606  0.22742682  0.03816363  1
  V  V9  1  0.59540231  0.45819987  0.83007005  1
  V  V10  1  0.90459769  0.95819987  0.66992995  1
  V  V11  1  0.22088606  0.27257318  0.53816363  1
  Pb  Pb12  1  0.31155941  0.69297884  0.46411777  1
  Pb  Pb13  1  0.81155941  0.80702116  0.96411777  1
  Pb  Pb14  1  0.68844059  0.30702116  0.53588223  1
  Pb  Pb15  1  0.18844059  0.19297884  0.03588223  1
  O  O16  1  0.40930978  0.64939177  0.04894636  1
  O  O17  1  0.90930978  0.85060823  0.54894636  1
  O  O18  1  0.06280062  0.34333981  0.62875577  1
  O  O19  1  0.06286626  0.37665780  0.88464833  1
  O  O20  1  0.72746941  0.38741345  0.72784153  1
  O  O21  1  0.27253059  0.61258655  0.27215847  1
  O  O22  1  0.40309382  0.18802618  0.61338849  1
  O  O23  1  0.04216137  0.62040009  0.65676584  1
  O  O24  1  0.13235004  0.00201603  0.71918761  1
  O  O25  1  0.09069022  0.14939177  0.45105364  1
  O  O26  1  0.59690618  0.81197382  0.38661151  1
  O  O27  1  0.75609490  0.09137468  0.63824156  1
  O  O28  1  0.93719938  0.65666019  0.37124423  1
  O  O29  1  0.95783863  0.37959991  0.34323416  1
  O  O30  1  0.25609490  0.40862532  0.13824156  1
  O  O31  1  0.22746941  0.11258655  0.22784153  1
  O  O32  1  0.15893125  0.89455932  0.02643413  1
  O  O33  1  0.09690618  0.68802618  0.88661151  1
  O  O34  1  0.93713374  0.62334220  0.11535167  1
  O  O35  1  0.54216137  0.87959991  0.15676584  1
  O  O36  1  0.59069022  0.35060823  0.95105364  1
  O  O37  1  0.56286626  0.12334220  0.38464833  1
  O  O38  1  0.34106875  0.39455932  0.47356587  1
  O  O39  1  0.43719938  0.84333981  0.87124423  1
  O  O40  1  0.24390510  0.90862532  0.36175844  1
  O  O41  1  0.74390510  0.59137468  0.86175844  1
  O  O42  1  0.65893125  0.60544068  0.52643413  1
  O  O43  1  0.77253059  0.88741345  0.77215847  1
  O  O44  1  0.86764996  0.99798397  0.28081239  1
  O  O45  1  0.90309382  0.31197382  0.11338849  1
  O  O46  1  0.43713374  0.87665780  0.61535167  1
  O  O47  1  0.45783863  0.12040009  0.84323416  1
  O  O48  1  0.36764996  0.50201603  0.78081239  1
  O  O49  1  0.56280062  0.15666019  0.12875577  1
  O  O50  1  0.63235004  0.49798397  0.21918761  1
  O  O51  1  0.84106875  0.10544068  0.97356587  1
