# generated using pymatgen
data_K3Sc(MoO4)3
_symmetry_space_group_name_H-M   'P 1'
_cell_length_a   9.58049587
_cell_length_b   11.13339373
_cell_length_c   13.93601392
_cell_angle_alpha   90.00000000
_cell_angle_beta   90.00000000
_cell_angle_gamma   90.00000000
_symmetry_Int_Tables_number   1
_chemical_formula_structural   K3Sc(MoO4)3
_chemical_formula_sum   'K12 Sc4 Mo12 O48'
_cell_volume   1486.46308216
_cell_formula_units_Z   4
loop_
 _symmetry_equiv_pos_site_id
 _symmetry_equiv_pos_as_xyz
  1  'x, y, z'
loop_
 _atom_site_type_symbol
 _atom_site_label
 _atom_site_symmetry_multiplicity
 _atom_site_fract_x
 _atom_site_fract_y
 _atom_site_fract_z
 _atom_site_occupancy
  K  K0  1  0.47784036  0.51450242  0.25000000  1
  K  K1  1  0.54145857  0.25000000  0.00000000  1
  K  K2  1  0.18076462  0.27286591  0.75000000  1
  K  K3  1  0.45854143  0.75000000  0.50000000  1
  K  K4  1  0.47784036  0.98549758  0.75000000  1
  K  K5  1  0.45854143  0.75000000  0.00000000  1
  K  K6  1  0.81923538  0.77286591  0.75000000  1
  K  K7  1  0.18076462  0.22713409  0.25000000  1
  K  K8  1  0.52215964  0.48549758  0.75000000  1
  K  K9  1  0.54145857  0.25000000  0.50000000  1
  K  K10  1  0.81923538  0.72713409  0.25000000  1
  K  K11  1  0.52215964  0.01450242  0.25000000  1
  Sc  Sc12  1  0.06700252  0.75000000  0.50000000  1
  Sc  Sc13  1  0.06700252  0.75000000  0.00000000  1
  Sc  Sc14  1  0.93299748  0.25000000  0.50000000  1
  Sc  Sc15  1  0.93299748  0.25000000  0.00000000  1
  Mo  Mo16  1  0.18171245  0.83045089  0.25000000  1
  Mo  Mo17  1  0.75050650  0.54772397  0.99405221  1
  Mo  Mo18  1  0.24949350  0.04772397  0.99405221  1
  Mo  Mo19  1  0.81828755  0.33045089  0.25000000  1
  Mo  Mo20  1  0.75050650  0.95227603  0.49405221  1
  Mo  Mo21  1  0.24949350  0.45227603  0.00594779  1
  Mo  Mo22  1  0.18171245  0.66954911  0.75000000  1
  Mo  Mo23  1  0.75050650  0.95227603  0.00594779  1
  Mo  Mo24  1  0.24949350  0.45227603  0.49405221  1
  Mo  Mo25  1  0.24949350  0.04772397  0.50594779  1
  Mo  Mo26  1  0.75050650  0.54772397  0.50594779  1
  Mo  Mo27  1  0.81828755  0.16954911  0.75000000  1
  O  O28  1  0.69151789  0.89129959  0.38331244  1
  O  O29  1  0.61631803  0.57622246  0.07905000  1
  O  O30  1  0.61631803  0.57622246  0.42095000  1
  O  O31  1  0.65252097  0.24136409  0.75000000  1
  O  O32  1  0.30848211  0.39129959  0.11668756  1
  O  O33  1  0.07578009  0.71143205  0.64650016  1
  O  O34  1  0.21026647  0.51304969  0.75000000  1
  O  O35  1  0.90797186  0.87511273  0.96890158  1
  O  O36  1  0.22325145  0.61457232  0.01735556  1
  O  O37  1  0.22325145  0.88542768  0.98264444  1
  O  O38  1  0.77674855  0.38542768  0.51735556  1
  O  O39  1  0.90797186  0.62488727  0.03109842  1
  O  O40  1  0.92421991  0.21143205  0.64650016  1
  O  O41  1  0.92421991  0.21143205  0.85349984  1
  O  O42  1  0.38368197  0.42377754  0.57905000  1
  O  O43  1  0.34747903  0.74136409  0.75000000  1
  O  O44  1  0.34747903  0.75863591  0.25000000  1
  O  O45  1  0.65252097  0.25863591  0.25000000  1
  O  O46  1  0.09202814  0.12488727  0.03109842  1
  O  O47  1  0.21026647  0.98695031  0.25000000  1
  O  O48  1  0.69151789  0.89129959  0.11668756  1
  O  O49  1  0.30848211  0.10870041  0.61668756  1
  O  O50  1  0.09202814  0.37511273  0.96890158  1
  O  O51  1  0.09202814  0.37511273  0.53109842  1
  O  O52  1  0.77674855  0.11457232  0.01735556  1
  O  O53  1  0.78973353  0.48695031  0.25000000  1
  O  O54  1  0.77674855  0.11457232  0.48264444  1
  O  O55  1  0.90797186  0.62488727  0.46890158  1
  O  O56  1  0.61631803  0.92377754  0.92095000  1
  O  O57  1  0.92421991  0.28856795  0.14650016  1
  O  O58  1  0.22325145  0.61457232  0.48264444  1
  O  O59  1  0.38368197  0.42377754  0.92095000  1
  O  O60  1  0.30848211  0.39129959  0.38331244  1
  O  O61  1  0.09202814  0.12488727  0.46890158  1
  O  O62  1  0.77674855  0.38542768  0.98264444  1
  O  O63  1  0.78973353  0.01304969  0.75000000  1
  O  O64  1  0.22325145  0.88542768  0.51735556  1
  O  O65  1  0.30848211  0.10870041  0.88331244  1
  O  O66  1  0.69151789  0.60870041  0.61668756  1
  O  O67  1  0.61631803  0.92377754  0.57905000  1
  O  O68  1  0.90797186  0.87511273  0.53109842  1
  O  O69  1  0.07578009  0.78856795  0.35349984  1
  O  O70  1  0.07578009  0.71143205  0.85349984  1
  O  O71  1  0.38368197  0.07622246  0.07905000  1
  O  O72  1  0.07578009  0.78856795  0.14650016  1
  O  O73  1  0.38368197  0.07622246  0.42095000  1
  O  O74  1  0.69151789  0.60870041  0.88331244  1
  O  O75  1  0.92421991  0.28856795  0.35349984  1
