# generated using pymatgen
data_Zn3Fe2(SeO3)6
_symmetry_space_group_name_H-M   'P 1'
_cell_length_a   7.80825899
_cell_length_b   8.53004446
_cell_length_c   12.72240096
_cell_angle_alpha   90.00000000
_cell_angle_beta   96.57018719
_cell_angle_gamma   90.00000000
_symmetry_Int_Tables_number   1
_chemical_formula_structural   Zn3Fe2(SeO3)6
_chemical_formula_sum   'Zn6 Fe4 Se12 O36'
_cell_volume   841.80774926
_cell_formula_units_Z   2
loop_
 _symmetry_equiv_pos_site_id
 _symmetry_equiv_pos_as_xyz
  1  'x, y, z'
loop_
 _atom_site_type_symbol
 _atom_site_label
 _atom_site_symmetry_multiplicity
 _atom_site_fract_x
 _atom_site_fract_y
 _atom_site_fract_z
 _atom_site_occupancy
  Zn  Zn0  1  0.61607711  0.39840106  0.37701667  1
  Zn  Zn1  1  0.38392289  0.60159894  0.62298333  1
  Zn  Zn2  1  0.00000000  0.50000000  0.50000000  1
  Zn  Zn3  1  0.11607711  0.10159894  0.37701667  1
  Zn  Zn4  1  0.50000000  0.00000000  0.50000000  1
  Zn  Zn5  1  0.88392289  0.89840106  0.62298333  1
  Fe  Fe6  1  0.64204702  0.49504213  0.82875799  1
  Fe  Fe7  1  0.14204702  0.00495787  0.82875799  1
  Fe  Fe8  1  0.35795298  0.50495787  0.17124201  1
  Fe  Fe9  1  0.85795298  0.99504213  0.17124201  1
  Se  Se10  1  0.05875654  0.59992619  0.77876713  1
  Se  Se11  1  0.81640006  0.82059839  0.39537507  1
  Se  Se12  1  0.31640006  0.67940161  0.39537507  1
  Se  Se13  1  0.13377915  0.80414680  0.04522454  1
  Se  Se14  1  0.18359994  0.17940161  0.60462493  1
  Se  Se15  1  0.63377915  0.69585320  0.04522454  1
  Se  Se16  1  0.55875654  0.90007381  0.77876713  1
  Se  Se17  1  0.86622085  0.19585320  0.95477546  1
  Se  Se18  1  0.94124346  0.40007381  0.22123287  1
  Se  Se19  1  0.44124346  0.09992619  0.22123287  1
  Se  Se20  1  0.36622085  0.30414680  0.95477546  1
  Se  Se21  1  0.68359994  0.32059839  0.60462493  1
  O  O22  1  0.14294440  0.47944221  0.24735700  1
  O  O23  1  0.98286829  0.19927223  0.24786477  1
  O  O24  1  0.25914509  0.52839525  0.47604085  1
  O  O25  1  0.35805445  0.04216345  0.33629391  1
  O  O26  1  0.24629618  0.39032001  0.04738461  1
  O  O27  1  0.24085591  0.02839525  0.52395915  1
  O  O28  1  0.19922713  0.22848564  0.86822609  1
  O  O29  1  0.30077287  0.72848564  0.13177391  1
  O  O30  1  0.74629618  0.10967999  0.04738461  1
  O  O31  1  0.91495921  0.03070540  0.88442315  1
  O  O32  1  0.35705560  0.97944221  0.75264300  1
  O  O33  1  0.64294440  0.02055779  0.24735700  1
  O  O34  1  0.54559084  0.23947867  0.50098924  1
  O  O35  1  0.96590536  0.91263306  0.32326536  1
  O  O36  1  0.85805445  0.45783655  0.33629391  1
  O  O37  1  0.51713171  0.69927223  0.75213523  1
  O  O38  1  0.41495921  0.46929460  0.88442315  1
  O  O39  1  0.53409464  0.41263306  0.67673464  1
  O  O40  1  0.14194555  0.54216345  0.66370609  1
  O  O41  1  0.74085491  0.47160475  0.52395915  1
  O  O42  1  0.25370382  0.89032001  0.95261539  1
  O  O43  1  0.80077287  0.77151436  0.13177391  1
  O  O44  1  0.03409464  0.08736694  0.67673464  1
  O  O45  1  0.46590536  0.58736694  0.32326536  1
  O  O46  1  0.75914509  0.97160475  0.47604085  1
  O  O47  1  0.04559084  0.26052133  0.50098924  1
  O  O48  1  0.48286829  0.30072777  0.24786477  1
  O  O49  1  0.64194555  0.95783655  0.66370609  1
  O  O50  1  0.85705560  0.52055779  0.75264300  1
  O  O51  1  0.69922713  0.27151436  0.86822609  1
  O  O52  1  0.75370382  0.60967999  0.95261539  1
  O  O53  1  0.01713171  0.80072777  0.75213523  1
  O  O54  1  0.95440916  0.73947867  0.49901076  1
  O  O55  1  0.08504079  0.96929460  0.11557685  1
  O  O56  1  0.45440916  0.76052133  0.49901076  1
  O  O57  1  0.58504079  0.53070540  0.11557685  1
