# generated using pymatgen
data_SrCr2O7
_symmetry_space_group_name_H-M   'P 1'
_cell_length_a   9.82832691
_cell_length_b   11.34101740
_cell_length_c   11.34101740
_cell_angle_alpha   90.00000000
_cell_angle_beta   90.00000000
_cell_angle_gamma   90.00000000
_symmetry_Int_Tables_number   1
_chemical_formula_structural   SrCr2O7
_chemical_formula_sum   'Sr8 Cr16 O56'
_cell_volume   1264.10639119
_cell_formula_units_Z   8
loop_
 _symmetry_equiv_pos_site_id
 _symmetry_equiv_pos_as_xyz
  1  'x, y, z'
loop_
 _atom_site_type_symbol
 _atom_site_label
 _atom_site_symmetry_multiplicity
 _atom_site_fract_x
 _atom_site_fract_y
 _atom_site_fract_z
 _atom_site_occupancy
  Sr  Sr0  1  0.25000000  0.55019597  0.05019597  1
  Sr  Sr1  1  0.75000000  0.44980403  0.55019597  1
  Sr  Sr2  1  0.25000000  0.94980403  0.44980403  1
  Sr  Sr3  1  0.25000000  0.94980403  0.05019597  1
  Sr  Sr4  1  0.75000000  0.05019597  0.55019597  1
  Sr  Sr5  1  0.75000000  0.44980403  0.94980403  1
  Sr  Sr6  1  0.75000000  0.05019597  0.94980403  1
  Sr  Sr7  1  0.25000000  0.55019597  0.44980403  1
  Cr  Cr8  1  0.55466990  0.75000000  0.39971129  1
  Cr  Cr9  1  0.94533010  0.89971129  0.25000000  1
  Cr  Cr10  1  0.48428929  0.61037098  0.75000000  1
  Cr  Cr11  1  0.01571071  0.25000000  0.38962902  1
  Cr  Cr12  1  0.01571071  0.25000000  0.11037098  1
  Cr  Cr13  1  0.05466990  0.10028871  0.75000000  1
  Cr  Cr14  1  0.98428929  0.75000000  0.61037098  1
  Cr  Cr15  1  0.55466990  0.75000000  0.10028871  1
  Cr  Cr16  1  0.48428929  0.88962902  0.75000000  1
  Cr  Cr17  1  0.94533010  0.60028871  0.25000000  1
  Cr  Cr18  1  0.98428929  0.75000000  0.88962902  1
  Cr  Cr19  1  0.51571071  0.11037098  0.25000000  1
  Cr  Cr20  1  0.05466990  0.39971129  0.75000000  1
  Cr  Cr21  1  0.51571071  0.38962902  0.25000000  1
  Cr  Cr22  1  0.44533010  0.25000000  0.60028871  1
  Cr  Cr23  1  0.44533010  0.25000000  0.89971129  1
  O  O24  1  0.56632614  0.75000000  0.75000000  1
  O  O25  1  0.88576312  0.09487614  0.75000000  1
  O  O26  1  0.38911293  0.60135892  0.86664904  1
  O  O27  1  0.11289873  0.03587638  0.86786465  1
  O  O28  1  0.10525535  0.75000000  0.50792513  1
  O  O29  1  0.89474465  0.25000000  0.00792513  1
  O  O30  1  0.11289873  0.03587638  0.63213535  1
  O  O31  1  0.61088707  0.39864108  0.13335096  1
  O  O32  1  0.61289873  0.86786465  0.03587638  1
  O  O33  1  0.61088707  0.39864108  0.36664904  1
  O  O34  1  0.43367386  0.25000000  0.25000000  1
  O  O35  1  0.38911293  0.89864108  0.86664904  1
  O  O36  1  0.88911293  0.63335096  0.89864108  1
  O  O37  1  0.38710127  0.36786465  0.96412362  1
  O  O38  1  0.11289873  0.46412362  0.86786465  1
  O  O39  1  0.11088707  0.36664904  0.39864108  1
  O  O40  1  0.61088707  0.10135892  0.36664904  1
  O  O41  1  0.11423688  0.90512386  0.25000000  1
  O  O42  1  0.88710127  0.96412362  0.13213535  1
  O  O43  1  0.61289873  0.86786465  0.46412362  1
  O  O44  1  0.88911293  0.86664904  0.60135892  1
  O  O45  1  0.61423688  0.25000000  0.90512386  1
  O  O46  1  0.11289873  0.46412362  0.63213535  1
  O  O47  1  0.10528417  0.25000000  0.75000000  1
  O  O48  1  0.88710127  0.53587638  0.36786465  1
  O  O49  1  0.38576312  0.75000000  0.09487614  1
  O  O50  1  0.39471583  0.25000000  0.75000000  1
  O  O51  1  0.39474465  0.49207487  0.25000000  1
  O  O52  1  0.61423688  0.25000000  0.59487614  1
  O  O53  1  0.61289873  0.63213535  0.03587638  1
  O  O54  1  0.11088707  0.13335096  0.10135892  1
  O  O55  1  0.88911293  0.86664904  0.89864108  1
  O  O56  1  0.88710127  0.53587638  0.13213535  1
  O  O57  1  0.11088707  0.36664904  0.10135892  1
  O  O58  1  0.38911293  0.60135892  0.63335096  1
  O  O59  1  0.93367386  0.25000000  0.25000000  1
  O  O60  1  0.60525535  0.99207487  0.75000000  1
  O  O61  1  0.39474465  0.00792513  0.25000000  1
  O  O62  1  0.89471583  0.75000000  0.25000000  1
  O  O63  1  0.61088707  0.10135892  0.13335096  1
  O  O64  1  0.88911293  0.63335096  0.60135892  1
  O  O65  1  0.11088707  0.13335096  0.39864108  1
  O  O66  1  0.38710127  0.13213535  0.96412362  1
  O  O67  1  0.88710127  0.96412362  0.36786465  1
  O  O68  1  0.88576312  0.40512386  0.75000000  1
  O  O69  1  0.60528417  0.75000000  0.25000000  1
  O  O70  1  0.11423688  0.59487614  0.25000000  1
  O  O71  1  0.10525535  0.75000000  0.99207487  1
  O  O72  1  0.61289873  0.63213535  0.46412362  1
  O  O73  1  0.06632614  0.75000000  0.75000000  1
  O  O74  1  0.38911293  0.89864108  0.63335096  1
  O  O75  1  0.38710127  0.13213535  0.53587638  1
  O  O76  1  0.38576312  0.75000000  0.40512386  1
  O  O77  1  0.89474465  0.25000000  0.49207487  1
  O  O78  1  0.38710127  0.36786465  0.53587638  1
  O  O79  1  0.60525535  0.50792513  0.75000000  1
