# generated using pymatgen
data_Ba4NaMn2O9
_symmetry_space_group_name_H-M   'P 1'
_cell_length_a   10.17574010
_cell_length_b   10.17573956
_cell_length_c   8.40369923
_cell_angle_alpha   90.00000000
_cell_angle_beta   90.00000000
_cell_angle_gamma   120.00000177
_symmetry_Int_Tables_number   1
_chemical_formula_structural   Ba4NaMn2O9
_chemical_formula_sum   'Ba12 Na3 Mn6 O27'
_cell_volume   753.58650627
_cell_formula_units_Z   3
loop_
 _symmetry_equiv_pos_site_id
 _symmetry_equiv_pos_as_xyz
  1  'x, y, z'
loop_
 _atom_site_type_symbol
 _atom_site_label
 _atom_site_symmetry_multiplicity
 _atom_site_fract_x
 _atom_site_fract_y
 _atom_site_fract_z
 _atom_site_occupancy
  Ba  Ba0  1  0.00000000  0.35330904  0.50000000  1
  Ba  Ba1  1  0.67366524  0.67366524  0.00000000  1
  Ba  Ba2  1  0.66415953  0.97739076  0.24540945  1
  Ba  Ba3  1  1.00000000  0.32633476  0.00000000  1
  Ba  Ba4  1  0.33584047  0.31323123  0.75459055  1
  Ba  Ba5  1  0.35330904  0.00000000  0.50000000  1
  Ba  Ba6  1  0.97739076  0.66415953  0.75459055  1
  Ba  Ba7  1  0.02260924  0.68676877  0.24540945  1
  Ba  Ba8  1  0.68676877  0.02260924  0.75459055  1
  Ba  Ba9  1  0.31323123  0.33584047  0.24540945  1
  Ba  Ba10  1  0.32633476  0.00000000  0.00000000  1
  Ba  Ba11  1  0.64669096  0.64669096  0.50000000  1
  Na  Na12  1  0.66666700  0.33333300  0.25618797  1
  Na  Na13  1  0.00000000  0.00000000  0.50000000  1
  Na  Na14  1  0.33333300  0.66666700  0.74381203  1
  Mn  Mn15  1  0.66666700  0.33333300  0.59570508  1
  Mn  Mn16  1  0.00000000  0.00000000  0.84031535  1
  Mn  Mn17  1  0.00000000  0.00000000  0.15968465  1
  Mn  Mn18  1  0.33333300  0.66666700  0.40429492  1
  Mn  Mn19  1  0.33333300  0.66666700  0.08505712  1
  Mn  Mn20  1  0.66666700  0.33333300  0.91494288  1
  O  O21  1  0.65568391  0.47586569  0.75571586  1
  O  O22  1  0.85490831  0.00000000  0.00000000  1
  O  O23  1  0.00855990  0.16397939  0.71921651  1
  O  O24  1  0.18205856  0.67860353  0.52758288  1
  O  O25  1  0.50846123  0.32727651  0.03838275  1
  O  O26  1  0.32727651  0.50846123  0.96161725  1
  O  O27  1  0.81881528  0.49153877  0.03838275  1
  O  O28  1  0.52413431  0.17981822  0.75571586  1
  O  O29  1  0.67272349  0.18118472  0.03838275  1
  O  O30  1  0.18118472  0.67272349  0.96161725  1
  O  O31  1  0.50345603  0.32139647  0.47241712  1
  O  O32  1  0.49153877  0.81881528  0.96161725  1
  O  O33  1  0.14509169  0.14509169  0.00000000  1
  O  O34  1  0.34431609  0.82018178  0.24428414  1
  O  O35  1  0.32139647  0.50345603  0.52758288  1
  O  O36  1  0.47586569  0.65568391  0.24428414  1
  O  O37  1  0.81794144  0.49654397  0.47241712  1
  O  O38  1  0.49654397  0.81794144  0.52758288  1
  O  O39  1  0.17981822  0.52413431  0.24428414  1
  O  O40  1  0.99144010  0.15541949  0.28078349  1
  O  O41  1  0.00000000  0.85490831  0.00000000  1
  O  O42  1  0.84458051  0.83602061  0.28078349  1
  O  O43  1  0.16397939  0.00855990  0.28078349  1
  O  O44  1  0.82018178  0.34431609  0.75571586  1
  O  O45  1  0.67860353  0.18205856  0.47241712  1
  O  O46  1  0.15541949  0.99144010  0.71921651  1
  O  O47  1  0.83602061  0.84458051  0.71921651  1
