# generated using pymatgen
data_SmCu(MoO4)2
_symmetry_space_group_name_H-M   'P 1'
_cell_length_a   9.98273153
_cell_length_b   10.42041344
_cell_length_c   14.86667902
_cell_angle_alpha   90.00000000
_cell_angle_beta   90.00000000
_cell_angle_gamma   90.00000000
_symmetry_Int_Tables_number   1
_chemical_formula_structural   SmCu(MoO4)2
_chemical_formula_sum   'Sm8 Cu8 Mo16 O64'
_cell_volume   1546.49424012
_cell_formula_units_Z   8
loop_
 _symmetry_equiv_pos_site_id
 _symmetry_equiv_pos_as_xyz
  1  'x, y, z'
loop_
 _atom_site_type_symbol
 _atom_site_label
 _atom_site_symmetry_multiplicity
 _atom_site_fract_x
 _atom_site_fract_y
 _atom_site_fract_z
 _atom_site_occupancy
  Sm  Sm0  1  0.22294197  0.46491552  0.60393616  1
  Sm  Sm1  1  0.27705803  0.46491552  0.10393616  1
  Sm  Sm2  1  0.22294197  0.96491552  0.89606384  1
  Sm  Sm3  1  0.27705803  0.96491552  0.39606384  1
  Sm  Sm4  1  0.72294197  0.53508448  0.89606384  1
  Sm  Sm5  1  0.77705803  0.53508448  0.39606384  1
  Sm  Sm6  1  0.72294197  0.03508448  0.60393616  1
  Sm  Sm7  1  0.77705803  0.03508448  0.10393616  1
  Cu  Cu8  1  0.80717160  0.18268217  0.30523938  1
  Cu  Cu9  1  0.69282840  0.68268217  0.69476062  1
  Cu  Cu10  1  0.80717160  0.68268217  0.19476062  1
  Cu  Cu11  1  0.30717160  0.31731783  0.30523938  1
  Cu  Cu12  1  0.19282840  0.81731783  0.69476062  1
  Cu  Cu13  1  0.30717160  0.81731783  0.19476062  1
  Cu  Cu14  1  0.69282840  0.18268217  0.80523938  1
  Cu  Cu15  1  0.19282840  0.31731783  0.80523938  1
  Mo  Mo16  1  0.83018843  0.89746978  0.84705272  1
  Mo  Mo17  1  0.50082728  0.72024845  0.55769809  1
  Mo  Mo18  1  0.50082728  0.22024845  0.94230191  1
  Mo  Mo19  1  0.16981157  0.60253022  0.34705272  1
  Mo  Mo20  1  0.33018843  0.10253022  0.65294728  1
  Mo  Mo21  1  0.00082728  0.77975155  0.55769809  1
  Mo  Mo22  1  0.49917272  0.27975155  0.44230191  1
  Mo  Mo23  1  0.66981157  0.39746978  0.15294728  1
  Mo  Mo24  1  0.16981157  0.10253022  0.15294728  1
  Mo  Mo25  1  0.49917272  0.77975155  0.05769809  1
  Mo  Mo26  1  0.66981157  0.89746978  0.34705272  1
  Mo  Mo27  1  0.99917272  0.22024845  0.44230191  1
  Mo  Mo28  1  0.00082728  0.27975155  0.94230191  1
  Mo  Mo29  1  0.83018843  0.39746978  0.65294728  1
  Mo  Mo30  1  0.33018843  0.60253022  0.84705272  1
  Mo  Mo31  1  0.99917272  0.72024845  0.05769809  1
  O  O32  1  0.25529597  0.48718707  0.27295743  1
  O  O33  1  0.59979068  0.38640673  0.37542137  1
  O  O34  1  0.39181085  0.83077955  0.50247906  1
  O  O35  1  0.11214156  0.18168495  0.86857241  1
  O  O36  1  0.24470403  0.98718707  0.72704257  1
  O  O37  1  0.71171562  0.42444701  0.03835295  1
  O  O38  1  0.21171562  0.07555299  0.03835295  1
  O  O39  1  0.10818915  0.83077955  0.00247906  1
  O  O40  1  0.72555013  0.73697319  0.31783516  1
  O  O41  1  0.49310180  0.41200619  0.16567652  1
  O  O42  1  0.27444987  0.26302681  0.68216484  1
  O  O43  1  0.40628411  0.86721324  0.97565914  1
  O  O44  1  0.88785844  0.31831505  0.36857241  1
  O  O45  1  0.74470403  0.01281293  0.77295743  1
  O  O46  1  0.60818915  0.66922045  0.00247906  1
  O  O47  1  0.59979068  0.88640673  0.12457863  1
  O  O48  1  0.49310180  0.91200619  0.33432348  1
  O  O49  1  0.77444987  0.23697319  0.68216484  1
  O  O50  1  0.38785844  0.68168495  0.13142759  1
  O  O51  1  0.11214156  0.68168495  0.63142759  1
  O  O52  1  0.00689820  0.91200619  0.83432348  1
  O  O53  1  0.77444987  0.73697319  0.81783516  1
  O  O54  1  0.75529597  0.01281293  0.27295743  1
  O  O55  1  0.09979068  0.61359327  0.12457863  1
  O  O56  1  0.28828438  0.07555299  0.53835295  1
  O  O57  1  0.00689820  0.41200619  0.66567652  1
  O  O58  1  0.78828438  0.92444701  0.96164705  1
  O  O59  1  0.78828438  0.42444701  0.53835295  1
  O  O60  1  0.10818915  0.33077955  0.49752094  1
  O  O61  1  0.72555013  0.23697319  0.18216484  1
  O  O62  1  0.28828438  0.57555299  0.96164705  1
  O  O63  1  0.22555013  0.26302681  0.18216484  1
  O  O64  1  0.40628411  0.36721324  0.52434086  1
  O  O65  1  0.50689820  0.58799381  0.83432348  1
  O  O66  1  0.89181085  0.66922045  0.50247906  1
  O  O67  1  0.22555013  0.76302681  0.31783516  1
  O  O68  1  0.71171562  0.92444701  0.46164705  1
  O  O69  1  0.40020932  0.11359327  0.87542137  1
  O  O70  1  0.75529597  0.51281293  0.22704257  1
  O  O71  1  0.99310180  0.58799381  0.33432348  1
  O  O72  1  0.24470403  0.48718707  0.77295743  1
  O  O73  1  0.25529597  0.98718707  0.22704257  1
  O  O74  1  0.90628411  0.63278676  0.97565914  1
  O  O75  1  0.21171562  0.57555299  0.46164705  1
  O  O76  1  0.40020932  0.61359327  0.62457863  1
  O  O77  1  0.59371589  0.63278676  0.47565914  1
  O  O78  1  0.59371589  0.13278676  0.02434086  1
  O  O79  1  0.27444987  0.76302681  0.81783516  1
  O  O80  1  0.39181085  0.33077955  0.99752094  1
  O  O81  1  0.09371589  0.86721324  0.47565914  1
  O  O82  1  0.09979068  0.11359327  0.37542137  1
  O  O83  1  0.89181085  0.16922045  0.99752094  1
  O  O84  1  0.90628411  0.13278676  0.52434086  1
  O  O85  1  0.90020932  0.38640673  0.87542137  1
  O  O86  1  0.61214156  0.81831505  0.63142759  1
  O  O87  1  0.74470403  0.51281293  0.72704257  1
  O  O88  1  0.38785844  0.18168495  0.36857241  1
  O  O89  1  0.88785844  0.81831505  0.13142759  1
  O  O90  1  0.90020932  0.88640673  0.62457863  1
  O  O91  1  0.50689820  0.08799381  0.66567652  1
  O  O92  1  0.61214156  0.31831505  0.86857241  1
  O  O93  1  0.09371589  0.36721324  0.02434086  1
  O  O94  1  0.99310180  0.08799381  0.16567652  1
  O  O95  1  0.60818915  0.16922045  0.49752094  1
