# generated using pymatgen
data_K6NbTlAs4
_symmetry_space_group_name_H-M   'P 1'
_cell_length_a   7.87855651
_cell_length_b   10.55825845
_cell_length_c   19.01032100
_cell_angle_alpha   90.00000000
_cell_angle_beta   90.00000000
_cell_angle_gamma   90.00000000
_symmetry_Int_Tables_number   1
_chemical_formula_structural   K6NbTlAs4
_chemical_formula_sum   'K24 Nb4 Tl4 As16'
_cell_volume   1581.35142143
_cell_formula_units_Z   4
loop_
 _symmetry_equiv_pos_site_id
 _symmetry_equiv_pos_as_xyz
  1  'x, y, z'
loop_
 _atom_site_type_symbol
 _atom_site_label
 _atom_site_symmetry_multiplicity
 _atom_site_fract_x
 _atom_site_fract_y
 _atom_site_fract_z
 _atom_site_occupancy
  K  K0  1  0.67891868  0.75000000  0.84762812  1
  K  K1  1  0.49372195  0.95409405  0.24315445  1
  K  K2  1  0.17891868  0.25000000  0.65237188  1
  K  K3  1  0.55584184  0.75000000  0.49717891  1
  K  K4  1  0.82108132  0.75000000  0.34762812  1
  K  K5  1  0.99372195  0.45409405  0.25684555  1
  K  K6  1  0.71948353  0.01892834  0.07870117  1
  K  K7  1  0.99372195  0.04590595  0.25684555  1
  K  K8  1  0.32108132  0.25000000  0.15237188  1
  K  K9  1  0.50627805  0.04590595  0.75684555  1
  K  K10  1  0.00627805  0.95409405  0.74315445  1
  K  K11  1  0.00627805  0.54590595  0.74315445  1
  K  K12  1  0.28051647  0.98107166  0.92129883  1
  K  K13  1  0.50627805  0.45409405  0.75684555  1
  K  K14  1  0.05584184  0.25000000  0.00282109  1
  K  K15  1  0.78051647  0.48107166  0.57870117  1
  K  K16  1  0.78051647  0.01892834  0.57870117  1
  K  K17  1  0.44415816  0.25000000  0.50282109  1
  K  K18  1  0.28051647  0.51892834  0.92129883  1
  K  K19  1  0.21948353  0.98107166  0.42129883  1
  K  K20  1  0.21948353  0.51892834  0.42129883  1
  K  K21  1  0.94415816  0.75000000  0.99717891  1
  K  K22  1  0.71948353  0.48107166  0.07870117  1
  K  K23  1  0.49372195  0.54590595  0.24315445  1
  Nb  Nb24  1  0.10502845  0.75000000  0.16963880  1
  Nb  Nb25  1  0.39497155  0.75000000  0.66963880  1
  Nb  Nb26  1  0.60502845  0.25000000  0.33036120  1
  Nb  Nb27  1  0.89497155  0.25000000  0.83036120  1
  Tl  Tl28  1  0.05981203  0.75000000  0.55110298  1
  Tl  Tl29  1  0.94018797  0.25000000  0.44889702  1
  Tl  Tl30  1  0.55981203  0.25000000  0.94889702  1
  Tl  Tl31  1  0.44018797  0.75000000  0.05110298  1
  As  As32  1  0.71243239  0.44418131  0.39782064  1
  As  As33  1  0.78756761  0.44418131  0.89782064  1
  As  As34  1  0.71243239  0.05581869  0.39782064  1
  As  As35  1  0.78932942  0.75000000  0.16972217  1
  As  As36  1  0.29467121  0.75000000  0.79490095  1
  As  As37  1  0.70532879  0.25000000  0.20509905  1
  As  As38  1  0.21243239  0.94418131  0.10217936  1
  As  As39  1  0.21243239  0.55581869  0.10217936  1
  As  As40  1  0.28756761  0.94418131  0.60217936  1
  As  As41  1  0.71067058  0.75000000  0.66972217  1
  As  As42  1  0.79467121  0.25000000  0.70509905  1
  As  As43  1  0.28756761  0.55581869  0.60217936  1
  As  As44  1  0.28932942  0.25000000  0.33027783  1
  As  As45  1  0.20532879  0.75000000  0.29490095  1
  As  As46  1  0.21067058  0.25000000  0.83027783  1
  As  As47  1  0.78756761  0.05581869  0.89782064  1
