# generated using pymatgen
data_TmB4
_symmetry_space_group_name_H-M   'P 1'
_cell_length_a   3.98404523
_cell_length_b   7.05320928
_cell_length_c   7.05320928
_cell_angle_alpha   90.00000000
_cell_angle_beta   90.00000000
_cell_angle_gamma   90.00000000
_symmetry_Int_Tables_number   1
_chemical_formula_structural   TmB4
_chemical_formula_sum   'Tm4 B16'
_cell_volume   198.19733050
_cell_formula_units_Z   4
loop_
 _symmetry_equiv_pos_site_id
 _symmetry_equiv_pos_as_xyz
  1  'x, y, z'
loop_
 _atom_site_type_symbol
 _atom_site_label
 _atom_site_symmetry_multiplicity
 _atom_site_fract_x
 _atom_site_fract_y
 _atom_site_fract_z
 _atom_site_occupancy
  Tm  Tm0  1  0.00000000  0.31637469  0.81637469  1
  Tm  Tm1  1  0.00000000  0.68362531  0.18362531  1
  Tm  Tm2  1  0.00000000  0.18362531  0.31637469  1
  Tm  Tm3  1  0.00000000  0.81637469  0.68362531  1
  B  B4  1  0.79731756  0.50000000  0.50000000  1
  B  B5  1  0.79731756  -0.00000000  0.00000000  1
  B  B6  1  0.20268244  0.50000000  0.50000000  1
  B  B7  1  0.20268244  0.00000000  -0.00000000  1
  B  B8  1  0.50000000  0.08658459  0.58658459  1
  B  B9  1  0.50000000  0.91341541  0.41341541  1
  B  B10  1  0.50000000  0.41341541  0.08658459  1
  B  B11  1  0.50000000  0.58658459  0.91341541  1
  B  B12  1  0.50000000  0.53850215  0.67683876  1
  B  B13  1  0.50000000  0.46149785  0.32316124  1
  B  B14  1  0.50000000  0.96149785  0.17683876  1
  B  B15  1  0.50000000  0.03850215  0.82316124  1
  B  B16  1  0.50000000  0.67683876  0.46149785  1
  B  B17  1  0.50000000  0.32316124  0.53850215  1
  B  B18  1  0.50000000  0.17683876  0.03850215  1
  B  B19  1  0.50000000  0.82316124  0.96149785  1
