# generated using pymatgen
data_Dy7(TeIr)2
_symmetry_space_group_name_H-M   'P 1'
_cell_length_a   3.95465199
_cell_length_b   9.42943496
_cell_length_c   9.42943479
_cell_angle_alpha   60.18087161
_cell_angle_beta   77.89539813
_cell_angle_gamma   77.89539613
_symmetry_Int_Tables_number   1
_chemical_formula_structural   Dy7(TeIr)2
_chemical_formula_sum   'Dy7 Te2 Ir2'
_cell_volume   295.97445678
_cell_formula_units_Z   1
loop_
 _symmetry_equiv_pos_site_id
 _symmetry_equiv_pos_as_xyz
  1  'x, y, z'
loop_
 _atom_site_type_symbol
 _atom_site_label
 _atom_site_symmetry_multiplicity
 _atom_site_fract_x
 _atom_site_fract_y
 _atom_site_fract_z
 _atom_site_occupancy
  Dy  Dy0  1  0.18370017  0.71361168  0.91898798  1
  Dy  Dy1  1  0.14779735  0.10980252  0.59460277  1
  Dy  Dy2  1  0.50000000  0.02345927  0.97654073  1
  Dy  Dy3  1  0.36872720  0.73755364  0.52499196  1
  Dy  Dy4  1  0.63127280  0.47500804  0.26244636  1
  Dy  Dy5  1  0.81629983  0.08101202  0.28638832  1
  Dy  Dy6  1  0.85220265  0.40539723  0.89019748  1
  Te  Te7  1  0.00000000  0.75998633  0.24001367  1
  Te  Te8  1  0.50000000  0.35903756  0.64096244  1
  Ir  Ir9  1  0.26098835  0.33351751  0.14450579  1
  Ir  Ir10  1  0.73901165  0.85549421  0.66648249  1
