# generated using pymatgen
data_Si3N4
_symmetry_space_group_name_H-M   'P 1'
_cell_length_a   5.61902811
_cell_length_b   5.61902811
_cell_length_c   5.61902812
_cell_angle_alpha   109.47122062
_cell_angle_beta   109.47122062
_cell_angle_gamma   109.47122069
_symmetry_Int_Tables_number   1
_chemical_formula_structural   Si3N4
_chemical_formula_sum   'Si6 N8'
_cell_volume   136.57201731
_cell_formula_units_Z   2
loop_
 _symmetry_equiv_pos_site_id
 _symmetry_equiv_pos_as_xyz
  1  'x, y, z'
loop_
 _atom_site_type_symbol
 _atom_site_label
 _atom_site_symmetry_multiplicity
 _atom_site_fract_x
 _atom_site_fract_y
 _atom_site_fract_z
 _atom_site_occupancy
  N  N0  1  0.06275040  0.06275040  0.06275040  1
  N  N1  1  0.93724960  0.50000000  0.00000000  1
  N  N2  1  0.50000000  0.00000000  0.93724960  1
  N  N3  1  0.00000000  0.93724960  0.50000000  1
  N  N4  1  0.50000000  0.00000000  0.43724960  1
  N  N5  1  0.00000000  0.43724960  0.50000000  1
  N  N6  1  0.56275040  0.56275040  0.56275040  1
  N  N7  1  0.43724960  0.50000000  0.00000000  1
  Si  Si8  1  0.75000000  0.37500000  0.62500000  1
  Si  Si9  1  0.12500000  0.87500000  0.25000000  1
  Si  Si10  1  0.37500000  0.62500000  0.75000000  1
  Si  Si11  1  0.62500000  0.75000000  0.37500000  1
  Si  Si12  1  0.87500000  0.25000000  0.12500000  1
  Si  Si13  1  0.25000000  0.12500000  0.87500000  1
