# generated using pymatgen
data_Th(Al5Fe)2
_symmetry_space_group_name_H-M   'P 1'
_cell_length_a   6.80429041
_cell_length_b   6.80429032
_cell_length_c   9.01958726
_cell_angle_alpha   90.00000000
_cell_angle_beta   90.00000000
_cell_angle_gamma   97.61193185
_symmetry_Int_Tables_number   1
_chemical_formula_structural   Th(Al5Fe)2
_chemical_formula_sum   'Th2 Al20 Fe4'
_cell_volume   413.91233231
_cell_formula_units_Z   2
loop_
 _symmetry_equiv_pos_site_id
 _symmetry_equiv_pos_as_xyz
  1  'x, y, z'
loop_
 _atom_site_type_symbol
 _atom_site_label
 _atom_site_symmetry_multiplicity
 _atom_site_fract_x
 _atom_site_fract_y
 _atom_site_fract_z
 _atom_site_occupancy
  Th  Th0  1  0.87501291  0.12498709  0.25000000  1
  Th  Th1  1  0.12498709  0.87501291  0.75000000  1
  Al  Al2  1  0.51850433  0.77748451  0.25000000  1
  Al  Al3  1  0.48149567  0.22251549  0.75000000  1
  Al  Al4  1  0.58954251  0.86526317  0.75000000  1
  Al  Al5  1  0.77100764  0.77100764  0.50000000  1
  Al  Al6  1  0.16071787  0.83928213  0.09884788  1
  Al  Al7  1  0.22899236  0.22899236  0.50000000  1
  Al  Al8  1  0.13473683  0.41045749  0.75000000  1
  Al  Al9  1  0.62349785  0.37650215  0.45024698  1
  Al  Al10  1  0.83928213  0.16071787  0.59884788  1
  Al  Al11  1  0.37650215  0.62349785  0.95024698  1
  Al  Al12  1  0.16071787  0.83928213  0.40115212  1
  Al  Al13  1  0.22251549  0.48149567  0.25000000  1
  Al  Al14  1  0.37650215  0.62349785  0.54975302  1
  Al  Al15  1  0.83928213  0.16071787  0.90115212  1
  Al  Al16  1  0.62349785  0.37650215  0.04975302  1
  Al  Al17  1  0.41045749  0.13473683  0.25000000  1
  Al  Al18  1  0.77748451  0.51850433  0.75000000  1
  Al  Al19  1  0.77100764  0.77100764  -0.00000000  1
  Al  Al20  1  0.22899236  0.22899236  -0.00000000  1
  Al  Al21  1  0.86526317  0.58954251  0.25000000  1
  Fe  Fe22  1  0.00000000  0.50000000  -0.00000000  1
  Fe  Fe23  1  0.00000000  0.50000000  0.50000000  1
  Fe  Fe24  1  0.50000000  -0.00000000  0.50000000  1
  Fe  Fe25  1  0.50000000  -0.00000000  -0.00000000  1
