# generated using pymatgen
data_YbGa2Ge3
_symmetry_space_group_name_H-M   'P 1'
_cell_length_a   4.22075736
_cell_length_b   10.82942543
_cell_length_c   11.87598747
_cell_angle_alpha   90.00000000
_cell_angle_beta   100.23589861
_cell_angle_gamma   90.00000000
_symmetry_Int_Tables_number   1
_chemical_formula_structural   YbGa2Ge3
_chemical_formula_sum   'Yb4 Ga8 Ge12'
_cell_volume   534.19264918
_cell_formula_units_Z   4
loop_
 _symmetry_equiv_pos_site_id
 _symmetry_equiv_pos_as_xyz
  1  'x, y, z'
loop_
 _atom_site_type_symbol
 _atom_site_label
 _atom_site_symmetry_multiplicity
 _atom_site_fract_x
 _atom_site_fract_y
 _atom_site_fract_z
 _atom_site_occupancy
  Yb  Yb0  1  0.01830398  0.63146630  0.03660796  1
  Yb  Yb1  1  0.29981365  0.81195017  0.59962730  1
  Yb  Yb2  1  0.98169602  0.13146630  0.96339204  1
  Yb  Yb3  1  0.70018635  0.31195017  0.40037270  1
  Ga  Ga4  1  0.15055255  0.75569381  0.30110510  1
  Ga  Ga5  1  0.48523201  0.37797627  0.97046401  1
  Ga  Ga6  1  0.11401080  0.12927346  0.22802159  1
  Ga  Ga7  1  0.84944745  0.25569381  0.69889490  1
  Ga  Ga8  1  0.88598920  0.62927346  0.77197841  1
  Ga  Ga9  1  0.51476799  0.87797627  0.02953599  1
  Ga  Ga10  1  0.74903300  0.99892482  0.49806600  1
  Ga  Ga11  1  0.25096700  0.49892482  0.50193400  1
  Ge  Ge12  1  0.41286464  0.96119627  0.82572929  1
  Ge  Ge13  1  0.58713536  0.46119627  0.17427071  1
  Ge  Ge14  1  0.42841511  0.72478578  0.85683023  1
  Ge  Ge15  1  0.29439706  0.28719946  0.58879411  1
  Ge  Ge16  1  0.07009963  0.90822530  0.14019927  1
  Ge  Ge17  1  0.70560294  0.78719946  0.41120589  1
  Ge  Ge18  1  0.57158489  0.22478578  0.14316977  1
  Ge  Ge19  1  0.22256367  0.10799922  0.44512734  1
  Ge  Ge20  1  0.77743633  0.60799922  0.55487266  1
  Ge  Ge21  1  0.14145829  0.52311913  0.28291658  1
  Ge  Ge22  1  0.85854171  0.02311913  0.71708342  1
  Ge  Ge23  1  0.92990037  0.40822530  0.85980073  1
