# generated using pymatgen
data_K2Th(PSe3)3
_symmetry_space_group_name_H-M   'P 1'
_cell_length_a   7.97773891
_cell_length_b   10.53645246
_cell_length_c   20.89502360
_cell_angle_alpha   93.93429927
_cell_angle_beta   90.00000000
_cell_angle_gamma   90.00000000
_symmetry_Int_Tables_number   1
_chemical_formula_structural   K2Th(PSe3)3
_chemical_formula_sum   'K8 Th4 P12 Se36'
_cell_volume   1752.23529376
_cell_formula_units_Z   4
loop_
 _symmetry_equiv_pos_site_id
 _symmetry_equiv_pos_as_xyz
  1  'x, y, z'
loop_
 _atom_site_type_symbol
 _atom_site_label
 _atom_site_symmetry_multiplicity
 _atom_site_fract_x
 _atom_site_fract_y
 _atom_site_fract_z
 _atom_site_occupancy
  K  K0  1  0.41249353  0.75837474  1.00002713  1
  K  K1  1  0.89880224  0.73651227  0.17711625  1
  K  K2  1  0.58750647  0.24162526  -0.00002713  1
  K  K3  1  0.08750647  0.25837474  0.50002713  1
  K  K4  1  0.10119776  0.26348773  0.82288375  1
  K  K5  1  0.91249353  0.74162526  0.49997287  1
  K  K6  1  0.60119776  0.23651227  0.67711625  1
  K  K7  1  0.39880224  0.76348773  0.32288375  1
  Th  Th8  1  0.40691471  0.74983262  0.64556005  1
  Th  Th9  1  0.59308529  0.25016738  0.35443995  1
  Th  Th10  1  0.90691471  0.75016738  0.85443995  1
  Th  Th11  1  0.09308529  0.24983262  0.14556005  1
  P  P12  1  0.87681019  0.96203191  0.34156079  1
  P  P13  1  0.12318981  0.03796809  0.65843921  1
  P  P14  1  0.11187805  0.05617174  0.98618225  1
  P  P15  1  0.61187805  0.44382826  0.51381775  1
  P  P16  1  0.91305599  0.91354272  0.69330797  1
  P  P17  1  0.08694401  0.08645728  0.30669203  1
  P  P18  1  0.37681019  0.53796809  0.15843921  1
  P  P19  1  0.41305599  0.58645728  0.80669203  1
  P  P20  1  0.88812195  0.94382826  0.01381775  1
  P  P21  1  0.62318981  0.46203191  0.84156079  1
  P  P22  1  0.58694401  0.41354272  0.19330797  1
  P  P23  1  0.38812195  0.55617174  0.48618225  1
  Se  Se24  1  0.17649698  0.00645862  0.21243744  1
  Se  Se25  1  0.04450186  0.72821608  0.70870424  1
  Se  Se26  1  0.28641959  0.43145643  0.06832733  1
  Se  Se27  1  0.32774564  0.00414993  0.72610311  1
  Se  Se28  1  0.03066336  0.23042007  0.65726903  1
  Se  Se29  1  0.21807966  0.58910879  0.88264622  1
  Se  Se30  1  0.69541260  0.53099124  0.60650303  1
  Se  Se31  1  0.80458740  0.03099124  0.10650303  1
  Se  Se32  1  0.67649698  0.49354138  0.28756256  1
  Se  Se33  1  0.30458740  0.46900876  0.39349697  1
  Se  Se34  1  0.82774564  0.49585007  0.77389689  1
  Se  Se35  1  0.53066336  0.26957993  0.84273097  1
  Se  Se36  1  0.70653906  0.95336395  0.93381221  1
  Se  Se37  1  0.52264390  0.24419686  0.50627357  1
  Se  Se38  1  0.97735610  0.74419686  0.00627357  1
  Se  Se39  1  0.29346094  0.04663605  0.06618779  1
  Se  Se40  1  0.32350302  0.50645862  0.71243744  1
  Se  Se41  1  0.46933664  0.73042007  0.15726903  1
  Se  Se42  1  0.21358041  0.93145643  0.56832733  1
  Se  Se43  1  0.45549814  0.22821608  0.20870424  1
  Se  Se44  1  0.47735610  0.75580314  0.49372643  1
  Se  Se45  1  0.79346094  0.45336395  0.43381221  1
  Se  Se46  1  0.19541260  0.96900876  0.89349697  1
  Se  Se47  1  0.78641959  0.06854357  0.43167267  1
  Se  Se48  1  0.17225436  0.50414993  0.22610311  1
  Se  Se49  1  0.54450186  0.77178392  0.79129576  1
  Se  Se50  1  0.67225436  0.99585007  0.27389689  1
  Se  Se51  1  0.71358041  0.56854357  0.93167267  1
  Se  Se52  1  0.95549814  0.27178392  0.29129576  1
  Se  Se53  1  0.96933664  0.76957993  0.34273097  1
  Se  Se54  1  0.82350302  0.99354138  0.78756256  1
  Se  Se55  1  0.28192034  0.08910879  0.38264622  1
  Se  Se56  1  0.20653906  0.54663605  0.56618779  1
  Se  Se57  1  0.78192034  0.41089121  0.11735378  1
  Se  Se58  1  0.02264390  0.25580314  0.99372643  1
  Se  Se59  1  0.71807966  0.91089121  0.61735378  1
