# generated using pymatgen
data_Ta3Si
_symmetry_space_group_name_H-M   'P 1'
_cell_length_a   5.21255919
_cell_length_b   10.22593895
_cell_length_c   10.22593895
_cell_angle_alpha   90.00000000
_cell_angle_beta   90.00000000
_cell_angle_gamma   90.00000000
_symmetry_Int_Tables_number   1
_chemical_formula_structural   Ta3Si
_chemical_formula_sum   'Ta24 Si8'
_cell_volume   545.07641486
_cell_formula_units_Z   8
loop_
 _symmetry_equiv_pos_site_id
 _symmetry_equiv_pos_as_xyz
  1  'x, y, z'
loop_
 _atom_site_type_symbol
 _atom_site_label
 _atom_site_symmetry_multiplicity
 _atom_site_fract_x
 _atom_site_fract_y
 _atom_site_fract_z
 _atom_site_occupancy
  Ta  Ta0  1  0.52331657  0.89631164  0.76743473  1
  Ta  Ta1  1  0.27957928  0.33599432  0.65026773  1
  Ta  Ta2  1  0.76309116  0.06201562  0.96326296  1
  Ta  Ta3  1  0.72042072  0.83599432  0.15026773  1
  Ta  Ta4  1  0.02331657  0.26743473  0.10368836  1
  Ta  Ta5  1  0.47668343  0.39631164  0.26743473  1
  Ta  Ta6  1  0.23690884  0.93798438  0.03673704  1
  Ta  Ta7  1  0.76309116  0.43798438  0.53673704  1
  Ta  Ta8  1  0.26309116  0.46326296  0.93798438  1
  Ta  Ta9  1  0.77957928  0.15026773  0.66400568  1
  Ta  Ta10  1  0.73690884  0.53673704  0.06201562  1
  Ta  Ta11  1  0.97668343  0.76743473  0.60368836  1
  Ta  Ta12  1  0.97668343  0.73256527  0.89631164  1
  Ta  Ta13  1  0.02331657  0.23256527  0.39631164  1
  Ta  Ta14  1  0.23690884  0.56201562  0.46326296  1
  Ta  Ta15  1  0.22042072  0.65026773  0.16400568  1
  Ta  Ta16  1  0.26309116  0.03673704  0.56201562  1
  Ta  Ta17  1  0.27957928  0.16400568  0.84973227  1
  Ta  Ta18  1  0.22042072  0.84973227  0.33599432  1
  Ta  Ta19  1  0.72042072  0.66400568  0.34973227  1
  Ta  Ta20  1  0.47668343  0.10368836  0.23256527  1
  Ta  Ta21  1  0.73690884  0.96326296  0.43798438  1
  Ta  Ta22  1  0.52331657  0.60368836  0.73256527  1
  Ta  Ta23  1  0.77957928  0.34973227  0.83599432  1
  Si  Si24  1  0.97070887  0.04481124  0.22096256  1
  Si  Si25  1  0.52929113  0.22096256  0.45518876  1
  Si  Si26  1  0.52929113  0.27903744  0.04481124  1
  Si  Si27  1  0.02929113  0.54481124  0.72096256  1
  Si  Si28  1  0.47070887  0.77903744  0.54481124  1
  Si  Si29  1  0.97070887  0.45518876  0.27903744  1
  Si  Si30  1  0.47070887  0.72096256  0.95518876  1
  Si  Si31  1  0.02929113  0.95518876  0.77903744  1
