# generated using pymatgen
data_Ca14MnSb11
_symmetry_space_group_name_H-M   'P 1'
_cell_length_a   16.27774204
_cell_length_b   16.27774204
_cell_length_c   16.27774204
_cell_angle_alpha   93.89656776
_cell_angle_beta   117.77639957
_cell_angle_gamma   117.77639957
_symmetry_Int_Tables_number   1
_chemical_formula_structural   Ca14MnSb11
_chemical_formula_sum   'Ca56 Mn4 Sb44'
_cell_volume   3144.40857874
_cell_formula_units_Z   4
loop_
 _symmetry_equiv_pos_site_id
 _symmetry_equiv_pos_as_xyz
  1  'x, y, z'
loop_
 _atom_site_type_symbol
 _atom_site_label
 _atom_site_symmetry_multiplicity
 _atom_site_fract_x
 _atom_site_fract_y
 _atom_site_fract_z
 _atom_site_occupancy
  Ca  Ca0  1  0.88339238  0.09766325  0.62928213  1
  Ca  Ca1  1  0.53161888  0.24588976  0.12928213  1
  Ca  Ca2  1  0.38339238  0.12928213  0.59766325  1
  Ca  Ca3  1  0.46838112  0.71427088  0.09766325  1
  Ca  Ca4  1  0.11660762  0.90233675  0.37071787  1
  Ca  Ca5  1  0.46838112  0.75411024  0.87071787  1
  Ca  Ca6  1  0.61660762  0.87071787  0.40233675  1
  Ca  Ca7  1  0.53161888  0.28572912  0.90233675  1
  Ca  Ca8  1  0.96838112  0.59766325  0.21427088  1
  Ca  Ca9  1  0.61660762  0.74588976  0.71427088  1
  Ca  Ca10  1  0.03161888  0.62928213  0.74588976  1
  Ca  Ca11  1  0.11660762  0.21427088  0.24588976  1
  Ca  Ca12  1  0.03161888  0.40233675  0.78572912  1
  Ca  Ca13  1  0.38339238  0.25411024  0.28572912  1
  Ca  Ca14  1  0.96838112  0.37071787  0.25411024  1
  Ca  Ca15  1  0.88339238  0.78572912  0.75411024  1
  Ca  Ca16  1  0.60043196  0.62672771  0.48060740  1
  Ca  Ca17  1  0.85387969  0.38017544  0.98060740  1
  Ca  Ca18  1  0.10043196  0.98060740  0.12672771  1
  Ca  Ca19  1  0.14612031  0.52629575  0.62672771  1
  Ca  Ca20  1  0.39956804  0.37327229  0.51939260  1
  Ca  Ca21  1  0.14612031  0.61982456  0.01939260  1
  Ca  Ca22  1  0.89956804  0.01939260  0.87327229  1
  Ca  Ca23  1  0.85387969  0.47370425  0.37327229  1
  Ca  Ca24  1  0.64612031  0.12672771  0.02629575  1
  Ca  Ca25  1  0.89956804  0.88017544  0.52629575  1
  Ca  Ca26  1  0.35387969  0.48060740  0.88017544  1
  Ca  Ca27  1  0.39956804  0.02629575  0.38017544  1
  Ca  Ca28  1  0.35387969  0.87327229  0.97370425  1
  Ca  Ca29  1  0.10043196  0.11982456  0.47370425  1
  Ca  Ca30  1  0.64612031  0.51939260  0.11982456  1
  Ca  Ca31  1  0.60043196  0.97370425  0.61982456  1
  Ca  Ca32  1  0.64633289  0.25000000  0.39633289  1
  Ca  Ca33  1  0.14633289  0.25000000  0.89633289  1
  Ca  Ca34  1  0.14633289  0.89633289  0.75000000  1
  Ca  Ca35  1  0.85366711  0.10366711  0.25000000  1
  Ca  Ca36  1  0.35366711  0.75000000  0.60366711  1
  Ca  Ca37  1  0.85366711  0.75000000  0.10366711  1
  Ca  Ca38  1  0.64633289  0.39633289  0.75000000  1
  Ca  Ca39  1  0.35366711  0.60366711  0.25000000  1
  Ca  Ca40  1  0.58777977  0.02188987  0.25186733  1
  Ca  Ca41  1  0.22997746  0.16408756  0.75186733  1
  Ca  Ca42  1  0.08777977  0.75186733  0.52188987  1
  Ca  Ca43  1  0.77002254  0.93411010  0.02188987  1
  Ca  Ca44  1  0.41222023  0.97811013  0.74813267  1
  Ca  Ca45  1  0.77002254  0.83591244  0.24813267  1
  Ca  Ca46  1  0.91222023  0.24813267  0.47811013  1
  Ca  Ca47  1  0.22997746  0.06588990  0.97811013  1
  Ca  Ca48  1  0.27002254  0.52188987  0.43411010  1
  Ca  Ca49  1  0.91222023  0.66408756  0.93411010  1
  Ca  Ca50  1  0.72997746  0.25186733  0.66408756  1
  Ca  Ca51  1  0.41222023  0.43411010  0.16408756  1
  Ca  Ca52  1  0.72997746  0.47811013  0.56588990  1
  Ca  Ca53  1  0.08777977  0.33591244  0.06588990  1
  Ca  Ca54  1  0.27002254  0.74813267  0.33591244  1
  Ca  Ca55  1  0.58777977  0.56588990  0.83591244  1
  Mn  Mn56  1  0.75000000  0.12500000  0.87500000  1
  Mn  Mn57  1  0.75000000  0.62500000  0.37500000  1
  Mn  Mn58  1  0.25000000  0.37500000  0.62500000  1
  Mn  Mn59  1  0.25000000  0.87500000  0.12500000  1
  Sb  Sb60  1  0.47799692  0.73899846  0.48899846  1
  Sb  Sb61  1  0.75000000  0.51100154  0.98899846  1
  Sb  Sb62  1  0.97799692  0.98899846  0.23899846  1
  Sb  Sb63  1  0.25000000  0.76100154  0.73899846  1
  Sb  Sb64  1  0.52200308  0.26100154  0.51100154  1
  Sb  Sb65  1  0.25000000  0.48899846  0.01100154  1
  Sb  Sb66  1  0.02200308  0.01100154  0.76100154  1
  Sb  Sb67  1  0.75000000  0.23899846  0.26100154  1
  Sb  Sb68  1  0.38289553  0.80688853  0.20035311  1
  Sb  Sb69  1  0.39346458  0.31745758  0.70035311  1
  Sb  Sb70  1  0.88289553  0.70035311  0.30688853  1
  Sb  Sb71  1  0.60653542  0.92399300  0.80688853  1
  Sb  Sb72  1  0.61710447  0.19311147  0.79964689  1
  Sb  Sb73  1  0.60653542  0.68254242  0.29964689  1
  Sb  Sb74  1  0.11710447  0.29964689  0.69311147  1
  Sb  Sb75  1  0.39346458  0.07600700  0.19311147  1
  Sb  Sb76  1  0.10653542  0.30688853  0.42399300  1
  Sb  Sb77  1  0.11710447  0.81745758  0.92399300  1
  Sb  Sb78  1  0.89346458  0.20035311  0.81745758  1
  Sb  Sb79  1  0.61710447  0.42399300  0.31745758  1
  Sb  Sb80  1  0.89346458  0.69311147  0.57600700  1
  Sb  Sb81  1  0.88289553  0.18254242  0.07600700  1
  Sb  Sb82  1  0.10653542  0.79964689  0.18254242  1
  Sb  Sb83  1  0.38289553  0.57600700  0.68254242  1
  Sb  Sb84  1  0.84361465  0.02043878  0.41708340  1
  Sb  Sb85  1  0.39664462  0.07346875  0.91708340  1
  Sb  Sb86  1  0.34361465  0.91708340  0.52043878  1
  Sb  Sb87  1  0.60335538  0.67682413  0.02043878  1
  Sb  Sb88  1  0.15638535  0.97956122  0.58291660  1
  Sb  Sb89  1  0.60335538  0.92653125  0.08291660  1
  Sb  Sb90  1  0.65638535  0.08291660  0.47956122  1
  Sb  Sb91  1  0.39664462  0.32317587  0.97956122  1
  Sb  Sb92  1  0.10335538  0.52043878  0.17682413  1
  Sb  Sb93  1  0.65638535  0.57346875  0.67682413  1
  Sb  Sb94  1  0.89664462  0.41708340  0.57346875  1
  Sb  Sb95  1  0.15638535  0.17682413  0.07346875  1
  Sb  Sb96  1  0.89664462  0.47956122  0.82317587  1
  Sb  Sb97  1  0.34361465  0.42653125  0.32317587  1
  Sb  Sb98  1  0.10335538  0.58291660  0.42653125  1
  Sb  Sb99  1  0.84361465  0.82317587  0.92653125  1
  Sb  Sb100  1  0.75000000  0.87500000  0.62500000  1
  Sb  Sb101  1  0.75000000  0.37500000  0.12500000  1
  Sb  Sb102  1  0.25000000  0.12500000  0.37500000  1
  Sb  Sb103  1  0.25000000  0.62500000  0.87500000  1
