# generated using pymatgen
data_Sc3NbO7
_symmetry_space_group_name_H-M   'P 1'
_cell_length_a   7.03953601
_cell_length_b   16.42261117
_cell_length_c   8.76348869
_cell_angle_alpha   27.23380745
_cell_angle_beta   36.46146201
_cell_angle_gamma   50.50898670
_symmetry_Int_Tables_number   1
_chemical_formula_structural   Sc3NbO7
_chemical_formula_sum   'Sc6 Nb2 O14'
_cell_volume   263.60085050
_cell_formula_units_Z   2
loop_
 _symmetry_equiv_pos_site_id
 _symmetry_equiv_pos_as_xyz
  1  'x, y, z'
loop_
 _atom_site_type_symbol
 _atom_site_label
 _atom_site_symmetry_multiplicity
 _atom_site_fract_x
 _atom_site_fract_y
 _atom_site_fract_z
 _atom_site_occupancy
  Sc  Sc0  1  0.00150001  0.00065039  0.99753626  1
  Sc  Sc1  1  0.50220303  0.00077490  0.99681380  1
  Sc  Sc2  1  0.35755426  0.22437266  0.00845891  1
  Sc  Sc3  1  0.77637982  0.22449483  0.08839648  1
  Sc  Sc4  1  0.22669433  0.77637360  0.90696805  1
  Sc  Sc5  1  0.64629774  0.77693538  0.98593463  1
  Nb  Nb6  1  0.23370017  0.50232347  0.01277911  1
  Nb  Nb7  1  0.76816408  0.49864280  0.98299070  1
  O  O8  1  0.54217976  0.99992358  0.20766293  1
  O  O9  1  0.31047762  0.15125646  0.38190221  1
  O  O10  1  0.46015881  0.00102059  0.78842045  1
  O  O11  1  0.33431596  0.53649379  0.16256805  1
  O  O12  1  0.86847634  0.27195810  0.24635215  1
  O  O13  1  0.18355212  0.15201080  0.00740353  1
  O  O14  1  0.05019374  0.72849173  0.33581475  1
  O  O15  1  0.69234986  0.46594103  0.30379940  1
  O  O16  1  0.30481590  0.53664778  0.69221885  1
  O  O17  1  0.94784707  0.27378900  0.65981799  1
  O  O18  1  0.81706754  0.84706493  0.99267599  1
  O  O19  1  0.13418631  0.72816290  0.75219087  1
  O  O20  1  0.66517649  0.46303628  0.83987487  1
  O  O21  1  0.69160605  0.85294099  0.60980402  1
