# generated using pymatgen
data_Nb10Se40I3
_symmetry_space_group_name_H-M   'P 1'
_cell_length_a   9.78710330
_cell_length_b   9.78710330
_cell_length_c   32.35331616
_cell_angle_alpha   90.00000000
_cell_angle_beta   90.00000000
_cell_angle_gamma   90.00000000
_symmetry_Int_Tables_number   1
_chemical_formula_structural   Nb10Se40I3
_chemical_formula_sum   'Nb20 Se80 I6'
_cell_volume   3099.03974532
_cell_formula_units_Z   2
loop_
 _symmetry_equiv_pos_site_id
 _symmetry_equiv_pos_as_xyz
  1  'x, y, z'
loop_
 _atom_site_type_symbol
 _atom_site_label
 _atom_site_symmetry_multiplicity
 _atom_site_fract_x
 _atom_site_fract_y
 _atom_site_fract_z
 _atom_site_occupancy
  Nb  Nb0  1  0.50000000  0.00000000  0.95103941  1
  Nb  Nb1  1  0.00000000  0.50000000  0.25000000  1
  Nb  Nb2  1  0.50000000  0.00000000  0.84911222  1
  Nb  Nb3  1  0.50000000  0.00000000  0.04896059  1
  Nb  Nb4  1  0.00000000  0.50000000  0.95103941  1
  Nb  Nb5  1  0.00000000  0.50000000  0.54896059  1
  Nb  Nb6  1  0.00000000  0.50000000  0.45103941  1
  Nb  Nb7  1  0.00000000  0.50000000  0.75000000  1
  Nb  Nb8  1  0.50000000  0.00000000  0.54896059  1
  Nb  Nb9  1  0.50000000  0.00000000  0.15088778  1
  Nb  Nb10  1  0.50000000  0.00000000  0.25000000  1
  Nb  Nb11  1  0.50000000  0.00000000  0.45103941  1
  Nb  Nb12  1  0.00000000  0.50000000  0.84911222  1
  Nb  Nb13  1  0.50000000  0.00000000  0.75000000  1
  Nb  Nb14  1  0.00000000  0.50000000  0.15088778  1
  Nb  Nb15  1  0.50000000  0.00000000  0.65088778  1
  Nb  Nb16  1  0.00000000  0.50000000  0.65088778  1
  Nb  Nb17  1  0.50000000  0.00000000  0.34911222  1
  Nb  Nb18  1  0.00000000  0.50000000  0.34911222  1
  Nb  Nb19  1  0.00000000  0.50000000  0.04896059  1
  Se  Se20  1  0.96376987  0.71504289  0.30254989  1
  Se  Se21  1  0.79000147  0.44945248  0.10317670  1
  Se  Se22  1  0.18706811  0.38061824  0.79624578  1
  Se  Se23  1  0.61938176  0.81293189  0.70375422  1
  Se  Se24  1  0.10409521  0.30490097  0.50000000  1
  Se  Se25  1  0.32012548  0.12528408  0.59690424  1
  Se  Se26  1  0.71504289  0.96376987  0.80254989  1
  Se  Se27  1  0.44945248  0.20999853  0.10317670  1
  Se  Se28  1  0.78142455  0.51748315  0.00000000  1
  Se  Se29  1  0.61938176  0.18706811  0.20375422  1
  Se  Se30  1  0.71504289  0.96376987  0.19745011  1
  Se  Se31  1  0.18706811  0.61938176  0.70375422  1
  Se  Se32  1  0.81293189  0.38061824  0.70375422  1
  Se  Se33  1  0.69509903  0.10409521  0.50000000  1
  Se  Se34  1  0.48251685  0.21857545  0.50000000  1
  Se  Se35  1  0.44945248  0.79000147  0.39682330  1
  Se  Se36  1  0.55054752  0.20999853  0.60317670  1
  Se  Se37  1  0.28495711  0.03623013  0.80254989  1
  Se  Se38  1  0.71504289  0.03623013  0.30254989  1
  Se  Se39  1  0.67987452  0.12528408  0.90309576  1
  Se  Se40  1  0.87471592  0.32012548  0.59690424  1
  Se  Se41  1  0.55054752  0.79000147  0.10317670  1
  Se  Se42  1  0.87471592  0.32012548  0.40309576  1
  Se  Se43  1  0.30490097  0.89590479  0.50000000  1
  Se  Se44  1  0.32012548  0.87471592  0.09690424  1
  Se  Se45  1  0.28495711  0.03623013  0.19745011  1
  Se  Se46  1  0.81293189  0.38061824  0.29624578  1
  Se  Se47  1  0.21857545  0.48251685  0.00000000  1
  Se  Se48  1  0.12528408  0.32012548  0.09690424  1
  Se  Se49  1  0.20999853  0.44945248  0.39682330  1
  Se  Se50  1  0.03623013  0.28495711  0.69745011  1
  Se  Se51  1  0.28495711  0.96376987  0.69745011  1
  Se  Se52  1  0.28495711  0.96376987  0.30254989  1
  Se  Se53  1  0.81293189  0.61938176  0.20375422  1
  Se  Se54  1  0.03623013  0.28495711  0.30254989  1
  Se  Se55  1  0.03623013  0.71504289  0.80254989  1
  Se  Se56  1  0.51748315  0.21857545  0.00000000  1
  Se  Se57  1  0.38061824  0.81293189  0.20375422  1
  Se  Se58  1  0.12528408  0.67987452  0.40309576  1
  Se  Se59  1  0.87471592  0.67987452  0.09690424  1
  Se  Se60  1  0.38061824  0.81293189  0.79624578  1
  Se  Se61  1  0.32012548  0.12528408  0.40309576  1
  Se  Se62  1  0.67987452  0.12528408  0.09690424  1
  Se  Se63  1  0.55054752  0.79000147  0.89682330  1
  Se  Se64  1  0.10409521  0.69509903  0.00000000  1
  Se  Se65  1  0.78142455  0.48251685  0.50000000  1
  Se  Se66  1  0.81293189  0.61938176  0.79624578  1
  Se  Se67  1  0.38061824  0.18706811  0.29624578  1
  Se  Se68  1  0.48251685  0.78142455  0.00000000  1
  Se  Se69  1  0.20999853  0.44945248  0.60317670  1
  Se  Se70  1  0.20999853  0.55054752  0.10317670  1
  Se  Se71  1  0.44945248  0.79000147  0.60317670  1
  Se  Se72  1  0.79000147  0.55054752  0.39682330  1
  Se  Se73  1  0.89590479  0.69509903  0.50000000  1
  Se  Se74  1  0.71504289  0.03623013  0.69745011  1
  Se  Se75  1  0.79000147  0.55054752  0.60317670  1
  Se  Se76  1  0.61938176  0.18706811  0.79624578  1
  Se  Se77  1  0.79000147  0.44945248  0.89682330  1
  Se  Se78  1  0.96376987  0.28495711  0.80254989  1
  Se  Se79  1  0.12528408  0.67987452  0.59690424  1
  Se  Se80  1  0.20999853  0.55054752  0.89682330  1
  Se  Se81  1  0.30490097  0.10409521  0.00000000  1
  Se  Se82  1  0.87471592  0.67987452  0.90309576  1
  Se  Se83  1  0.44945248  0.20999853  0.89682330  1
  Se  Se84  1  0.18706811  0.38061824  0.20375422  1
  Se  Se85  1  0.67987452  0.87471592  0.40309576  1
  Se  Se86  1  0.03623013  0.71504289  0.19745011  1
  Se  Se87  1  0.55054752  0.20999853  0.39682330  1
  Se  Se88  1  0.96376987  0.28495711  0.19745011  1
  Se  Se89  1  0.67987452  0.87471592  0.59690424  1
  Se  Se90  1  0.18706811  0.61938176  0.29624578  1
  Se  Se91  1  0.51748315  0.78142455  0.50000000  1
  Se  Se92  1  0.38061824  0.18706811  0.70375422  1
  Se  Se93  1  0.12528408  0.32012548  0.90309576  1
  Se  Se94  1  0.69509903  0.89590479  0.00000000  1
  Se  Se95  1  0.96376987  0.71504289  0.69745011  1
  Se  Se96  1  0.21857545  0.51748315  0.50000000  1
  Se  Se97  1  0.32012548  0.87471592  0.90309576  1
  Se  Se98  1  0.61938176  0.81293189  0.29624578  1
  Se  Se99  1  0.89590479  0.30490097  0.00000000  1
  I  I100  1  0.00000000  0.00000000  0.58036889  1
  I  I101  1  0.00000000  0.00000000  0.41963111  1
  I  I102  1  0.00000000  0.00000000  0.91963111  1
  I  I103  1  0.00000000  0.00000000  0.08036889  1
  I  I104  1  0.50000000  0.50000000  0.25000000  1
  I  I105  1  0.50000000  0.50000000  0.75000000  1
