# generated using pymatgen
data_Yb2CdSb2
_symmetry_space_group_name_H-M   'P 1'
_cell_length_a   4.65819333
_cell_length_b   7.26054817
_cell_length_c   9.06471224
_cell_angle_alpha   90.00000000
_cell_angle_beta   104.88863533
_cell_angle_gamma   90.00000000
_symmetry_Int_Tables_number   1
_chemical_formula_structural   Yb2CdSb2
_chemical_formula_sum   'Yb4 Cd2 Sb4'
_cell_volume   296.28524539
_cell_formula_units_Z   2
loop_
 _symmetry_equiv_pos_site_id
 _symmetry_equiv_pos_as_xyz
  1  'x, y, z'
loop_
 _atom_site_type_symbol
 _atom_site_label
 _atom_site_symmetry_multiplicity
 _atom_site_fract_x
 _atom_site_fract_y
 _atom_site_fract_z
 _atom_site_occupancy
  Yb  Yb0  1  0.47901406  0.72104090  0.95802811  1
  Yb  Yb1  1  0.52098594  0.22104090  0.04197189  1
  Yb  Yb2  1  0.69736102  0.53071367  0.39472205  1
  Yb  Yb3  1  0.30263898  0.03071367  0.60527795  1
  Cd  Cd4  1  0.90144237  0.39528013  0.80288473  1
  Cd  Cd5  1  0.09855763  0.89528013  0.19711527  1
  Sb  Sb6  1  0.32069790  0.51194586  0.64139580  1
  Sb  Sb7  1  0.67930210  0.01194586  0.35860420  1
  Sb  Sb8  1  0.06797922  0.49852943  0.13595844  1
  Sb  Sb9  1  0.93202078  0.99852943  0.86404156  1
