# generated using pymatgen
data_SmNiSb3
_symmetry_space_group_name_H-M   'P 1'
_cell_length_a   6.26567776
_cell_length_b   12.50561723
_cell_length_c   18.18922436
_cell_angle_alpha   90.00000000
_cell_angle_beta   90.00000000
_cell_angle_gamma   90.00000000
_symmetry_Int_Tables_number   1
_chemical_formula_structural   SmNiSb3
_chemical_formula_sum   'Sm12 Ni12 Sb36'
_cell_volume   1425.23791525
_cell_formula_units_Z   12
loop_
 _symmetry_equiv_pos_site_id
 _symmetry_equiv_pos_as_xyz
  1  'x, y, z'
loop_
 _atom_site_type_symbol
 _atom_site_label
 _atom_site_symmetry_multiplicity
 _atom_site_fract_x
 _atom_site_fract_y
 _atom_site_fract_z
 _atom_site_occupancy
  Sm  Sm0  1  0.97259629  0.70140446  0.41637726  1
  Sm  Sm1  1  0.55995579  0.30450575  0.75000000  1
  Sm  Sm2  1  0.94004421  0.30450575  0.25000000  1
  Sm  Sm3  1  0.52740371  0.70140446  0.91637726  1
  Sm  Sm4  1  0.47259629  0.29859554  0.41637726  1
  Sm  Sm5  1  0.44004421  0.69549425  0.25000000  1
  Sm  Sm6  1  0.02740371  0.29859554  0.91637726  1
  Sm  Sm7  1  0.02740371  0.29859554  0.58362274  1
  Sm  Sm8  1  0.97259629  0.70140446  0.08362274  1
  Sm  Sm9  1  0.52740371  0.70140446  0.58362274  1
  Sm  Sm10  1  0.47259629  0.29859554  0.08362274  1
  Sm  Sm11  1  0.05995579  0.69549425  0.75000000  1
  Ni  Ni12  1  0.75000000  0.10529768  0.50000000  1
  Ni  Ni13  1  0.82875832  0.89871971  0.67604742  1
  Ni  Ni14  1  0.17124168  0.10128029  0.17604742  1
  Ni  Ni15  1  0.25000000  0.89470232  0.50000000  1
  Ni  Ni16  1  0.67124168  0.89871971  0.32395258  1
  Ni  Ni17  1  0.32875832  0.10128029  0.67604742  1
  Ni  Ni18  1  0.17124168  0.10128029  0.32395258  1
  Ni  Ni19  1  0.67124168  0.89871971  0.17604742  1
  Ni  Ni20  1  0.32875832  0.10128029  0.82395258  1
  Ni  Ni21  1  0.75000000  0.10529768  -0.00000000  1
  Ni  Ni22  1  0.25000000  0.89470232  -0.00000000  1
  Ni  Ni23  1  0.82875832  0.89871971  0.82395258  1
  Sb  Sb24  1  0.54293566  0.97363903  0.58661643  1
  Sb  Sb25  1  0.04293566  0.02636097  0.91338357  1
  Sb  Sb26  1  0.47420913  0.77069558  0.08427451  1
  Sb  Sb27  1  0.52579087  0.22930442  0.91572549  1
  Sb  Sb28  1  0.44606243  0.22543141  0.25000000  1
  Sb  Sb29  1  0.70554749  0.50387016  0.16586295  1
  Sb  Sb30  1  0.75000000  0.49591631  0.50000000  1
  Sb  Sb31  1  0.75000000  0.49591631  -0.00000000  1
  Sb  Sb32  1  0.45706434  0.02636097  0.08661643  1
  Sb  Sb33  1  0.47420913  0.77069558  0.41572549  1
  Sb  Sb34  1  0.20554749  0.49612984  0.33413705  1
  Sb  Sb35  1  0.29445251  0.49612984  0.66586295  1
  Sb  Sb36  1  0.18696412  0.94158288  0.75000000  1
  Sb  Sb37  1  0.02579087  0.77069558  0.58427451  1
  Sb  Sb38  1  0.31303588  0.94158288  0.25000000  1
  Sb  Sb39  1  0.81303588  0.05841712  0.25000000  1
  Sb  Sb40  1  0.97420913  0.22930442  0.41572549  1
  Sb  Sb41  1  0.05393757  0.22543141  0.75000000  1
  Sb  Sb42  1  0.79445251  0.50387016  0.66586295  1
  Sb  Sb43  1  0.95706434  0.97363903  0.08661643  1
  Sb  Sb44  1  0.79445251  0.50387016  0.83413705  1
  Sb  Sb45  1  0.55393757  0.77456859  0.75000000  1
  Sb  Sb46  1  0.25000000  0.50408369  0.50000000  1
  Sb  Sb47  1  0.25000000  0.50408369  0.00000000  1
  Sb  Sb48  1  0.02579087  0.77069558  0.91572549  1
  Sb  Sb49  1  0.20554749  0.49612984  0.16586295  1
  Sb  Sb50  1  0.29445251  0.49612984  0.83413705  1
  Sb  Sb51  1  0.04293566  0.02636097  0.58661643  1
  Sb  Sb52  1  0.45706434  0.02636097  0.41338357  1
  Sb  Sb53  1  0.97420913  0.22930442  0.08427451  1
  Sb  Sb54  1  0.70554749  0.50387016  0.33413705  1
  Sb  Sb55  1  0.68696412  0.05841712  0.75000000  1
  Sb  Sb56  1  0.52579087  0.22930442  0.58427451  1
  Sb  Sb57  1  0.94606243  0.77456859  0.25000000  1
  Sb  Sb58  1  0.54293566  0.97363903  0.91338357  1
  Sb  Sb59  1  0.95706434  0.97363903  0.41338357  1
