# generated using pymatgen
data_CsZr6MnI14
_symmetry_space_group_name_H-M   'P 1'
_cell_length_a   11.14101775
_cell_length_b   11.14101748
_cell_length_c   13.41627328
_cell_angle_alpha   90.00000000
_cell_angle_beta   90.00000000
_cell_angle_gamma   95.21127944
_symmetry_Int_Tables_number   1
_chemical_formula_structural   CsZr6MnI14
_chemical_formula_sum   'Cs2 Zr12 Mn2 I28'
_cell_volume   1658.37505776
_cell_formula_units_Z   2
loop_
 _symmetry_equiv_pos_site_id
 _symmetry_equiv_pos_as_xyz
  1  'x, y, z'
loop_
 _atom_site_type_symbol
 _atom_site_label
 _atom_site_symmetry_multiplicity
 _atom_site_fract_x
 _atom_site_fract_y
 _atom_site_fract_z
 _atom_site_occupancy
  Cs  Cs0  1  0.00000000  0.00000000  0.00000000  1
  Cs  Cs1  1  0.50000000  0.50000000  0.50000000  1
  Zr  Zr2  1  0.86412004  0.86412004  0.60082636  1
  Zr  Zr3  1  0.67450169  0.45674510  0.88944684  1
  Zr  Zr4  1  0.04325490  0.82549831  0.38944684  1
  Zr  Zr5  1  0.45674510  0.67450169  0.88944684  1
  Zr  Zr6  1  0.36412004  0.36412004  0.89917364  1
  Zr  Zr7  1  0.95674510  0.17450169  0.61055316  1
  Zr  Zr8  1  0.63587996  0.63587996  0.10082636  1
  Zr  Zr9  1  0.13587996  0.13587996  0.39917364  1
  Zr  Zr10  1  0.32549831  0.54325490  0.11055316  1
  Zr  Zr11  1  0.54325490  0.32549831  0.11055316  1
  Zr  Zr12  1  0.17450169  0.95674510  0.61055316  1
  Zr  Zr13  1  0.82549831  0.04325490  0.38944684  1
  Mn  Mn14  1  0.50000000  0.50000000  0.00000000  1
  Mn  Mn15  1  0.00000000  0.00000000  0.50000000  1
  I  I16  1  0.13823611  0.38579091  0.00584571  1
  I  I17  1  0.11420909  0.36176389  0.50584571  1
  I  I18  1  0.21028263  0.96381139  0.25242397  1
  I  I19  1  0.74886490  0.25113510  0.00000000  1
  I  I20  1  0.15664880  0.15664880  0.75653664  1
  I  I21  1  0.61420909  0.86176389  0.99415429  1
  I  I22  1  0.71028263  0.46381139  0.24757603  1
  I  I23  1  0.03618861  0.78971737  0.74757603  1
  I  I24  1  0.60345143  0.10345143  0.25000000  1
  I  I25  1  0.63823611  0.88579091  0.49415429  1
  I  I26  1  0.24886490  0.75113510  0.50000000  1
  I  I27  1  0.88579091  0.63823611  0.49415429  1
  I  I28  1  0.65664880  0.65664880  0.74346336  1
  I  I29  1  0.96381139  0.21028263  0.25242397  1
  I  I30  1  0.84335120  0.84335120  0.24346336  1
  I  I31  1  0.34335120  0.34335120  0.25653664  1
  I  I32  1  0.89654857  0.39654857  0.75000000  1
  I  I33  1  0.38579091  0.13823611  0.00584571  1
  I  I34  1  0.46381139  0.71028263  0.24757603  1
  I  I35  1  0.10345143  0.60345143  0.25000000  1
  I  I36  1  0.25113510  0.74886490  0.00000000  1
  I  I37  1  0.75113510  0.24886490  0.50000000  1
  I  I38  1  0.86176389  0.61420909  0.99415429  1
  I  I39  1  0.53618861  0.28971737  0.75242397  1
  I  I40  1  0.39654857  0.89654857  0.75000000  1
  I  I41  1  0.78971737  0.03618861  0.74757603  1
  I  I42  1  0.28971737  0.53618861  0.75242397  1
  I  I43  1  0.36176389  0.11420909  0.50584571  1
