# generated using pymatgen
data_LiCaBi
_symmetry_space_group_name_H-M   'P 1'
_cell_length_a   4.72900726
_cell_length_b   7.84102308
_cell_length_c   8.60674496
_cell_angle_alpha   90.00000000
_cell_angle_beta   90.00000000
_cell_angle_gamma   90.00000000
_symmetry_Int_Tables_number   1
_chemical_formula_structural   LiCaBi
_chemical_formula_sum   'Li4 Ca4 Bi4'
_cell_volume   319.14029845
_cell_formula_units_Z   4
loop_
 _symmetry_equiv_pos_site_id
 _symmetry_equiv_pos_as_xyz
  1  'x, y, z'
loop_
 _atom_site_type_symbol
 _atom_site_label
 _atom_site_symmetry_multiplicity
 _atom_site_fract_x
 _atom_site_fract_y
 _atom_site_fract_z
 _atom_site_occupancy
  Li  Li0  1  0.75000000  0.35162942  0.93076296  1
  Li  Li1  1  0.75000000  0.85162942  0.56923704  1
  Li  Li2  1  0.25000000  0.14837058  0.43076296  1
  Li  Li3  1  0.25000000  0.64837058  0.06923704  1
  Ca  Ca4  1  0.25000000  0.01404125  0.80131915  1
  Ca  Ca5  1  0.75000000  0.48595875  0.30131915  1
  Ca  Ca6  1  0.75000000  0.98595875  0.19868085  1
  Ca  Ca7  1  0.25000000  0.51404125  0.69868085  1
  Bi  Bi8  1  0.75000000  0.73288689  0.89611875  1
  Bi  Bi9  1  0.25000000  0.26711311  0.10388125  1
  Bi  Bi10  1  0.25000000  0.76711311  0.39611875  1
  Bi  Bi11  1  0.75000000  0.23288689  0.60388125  1
