# generated using pymatgen
data_Sb2Pd5
_symmetry_space_group_name_H-M   'P 1'
_cell_length_a   7.73873920
_cell_length_b   7.73873900
_cell_length_c   14.10340267
_cell_angle_alpha   90.00000000
_cell_angle_beta   90.00000000
_cell_angle_gamma   120.00000085
_symmetry_Int_Tables_number   1
_chemical_formula_structural   Sb2Pd5
_chemical_formula_sum   'Sb12 Pd30'
_cell_volume   731.46734793
_cell_formula_units_Z   6
loop_
 _symmetry_equiv_pos_site_id
 _symmetry_equiv_pos_as_xyz
  1  'x, y, z'
loop_
 _atom_site_type_symbol
 _atom_site_label
 _atom_site_symmetry_multiplicity
 _atom_site_fract_x
 _atom_site_fract_y
 _atom_site_fract_z
 _atom_site_occupancy
  Sb  Sb0  1  0.66666700  0.33333300  0.29182223  1
  Sb  Sb1  1  0.33333300  0.66666700  0.79182223  1
  Sb  Sb2  1  0.33255733  0.33255733  0.01707358  1
  Sb  Sb3  1  1.00000000  0.66744267  0.01707358  1
  Sb  Sb4  1  0.00000000  0.00000000  0.74239126  1
  Sb  Sb5  1  0.00000000  0.00000000  0.24239126  1
  Sb  Sb6  1  0.66744267  0.66744267  0.51707358  1
  Sb  Sb7  1  0.33255733  0.00000000  0.51707358  1
  Sb  Sb8  1  0.00000000  0.33255733  0.51707358  1
  Sb  Sb9  1  0.66666700  0.33333300  0.79182223  1
  Sb  Sb10  1  0.66744267  0.00000000  0.01707358  1
  Sb  Sb11  1  0.33333300  0.66666700  0.29182223  1
  Pd  Pd12  1  0.62777717  0.62777717  0.92251965  1
  Pd  Pd13  1  0.62806022  0.00000000  0.21299270  1
  Pd  Pd14  1  0.33333300  0.66666700  0.08961269  1
  Pd  Pd15  1  0.73711243  0.73711243  0.11439262  1
  Pd  Pd16  1  0.30831854  0.00000000  0.32211605  1
  Pd  Pd17  1  0.30831854  0.30831854  0.82211605  1
  Pd  Pd18  1  0.66666700  0.33333300  0.08961269  1
  Pd  Pd19  1  0.26288757  0.00000000  0.11439262  1
  Pd  Pd20  1  0.26288757  0.26288757  0.61439262  1
  Pd  Pd21  1  0.37222283  0.37222283  0.42251965  1
  Pd  Pd22  1  0.00000000  0.30831854  0.32211605  1
  Pd  Pd23  1  0.00000000  0.37222283  0.92251965  1
  Pd  Pd24  1  0.69168146  0.69168146  0.32211605  1
  Pd  Pd25  1  0.37193978  0.00000000  0.71299270  1
  Pd  Pd26  1  1.00000000  0.62777717  0.42251965  1
  Pd  Pd27  1  0.66666700  0.33333300  0.58961269  1
  Pd  Pd28  1  0.62806022  0.62806022  0.71299270  1
  Pd  Pd29  1  0.00000000  0.00000000  0.94545508  1
  Pd  Pd30  1  0.73711243  0.00000000  0.61439262  1
  Pd  Pd31  1  0.00000000  0.73711243  0.61439262  1
  Pd  Pd32  1  0.33333300  0.66666700  0.58961269  1
  Pd  Pd33  1  0.69168146  0.00000000  0.82211605  1
  Pd  Pd34  1  0.62777717  0.00000000  0.42251965  1
  Pd  Pd35  1  0.00000000  0.00000000  0.44545508  1
  Pd  Pd36  1  0.37193978  0.37193978  0.21299270  1
  Pd  Pd37  1  0.37222283  0.00000000  0.92251965  1
  Pd  Pd38  1  0.00000000  0.62806022  0.21299270  1
  Pd  Pd39  1  1.00000000  0.37193978  0.71299270  1
  Pd  Pd40  1  1.00000000  0.69168146  0.82211605  1
  Pd  Pd41  1  1.00000000  0.26288757  0.11439262  1
