# generated using pymatgen
data_Ce5Si3
_symmetry_space_group_name_H-M   'P 1'
_cell_length_a   7.78747846
_cell_length_b   7.78747789
_cell_length_c   8.50128455
_cell_angle_alpha   117.25926888
_cell_angle_beta   117.25926708
_cell_angle_gamma   89.99999991
_symmetry_Int_Tables_number   1
_chemical_formula_structural   Ce5Si3
_chemical_formula_sum   'Ce10 Si6'
_cell_volume   392.78666548
_cell_formula_units_Z   2
loop_
 _symmetry_equiv_pos_site_id
 _symmetry_equiv_pos_as_xyz
  1  'x, y, z'
loop_
 _atom_site_type_symbol
 _atom_site_label
 _atom_site_symmetry_multiplicity
 _atom_site_fract_x
 _atom_site_fract_y
 _atom_site_fract_z
 _atom_site_occupancy
  Ce  Ce0  1  0.16394980  0.02641573  0.69036554  1
  Ce  Ce1  1  0.47358427  0.33605020  0.30963446  1
  Ce  Ce2  1  0.33605020  0.83605020  0.30963446  1
  Ce  Ce3  1  0.83605020  0.97358427  0.30963446  1
  Ce  Ce4  1  0.52641573  0.66394980  0.69036554  1
  Ce  Ce5  1  0.00000000  0.00000000  -0.00000000  1
  Ce  Ce6  1  0.97358427  0.47358427  0.30963446  1
  Ce  Ce7  1  0.66394980  0.16394980  0.69036554  1
  Ce  Ce8  1  0.50000000  0.50000000  -0.00000000  1
  Ce  Ce9  1  0.02641573  0.52641573  0.69036554  1
  Si  Si10  1  0.11438770  0.38561230  1.00000000  1
  Si  Si11  1  0.38561230  0.88561230  0.00000000  1
  Si  Si12  1  0.61438770  0.11438770  1.00000000  1
  Si  Si13  1  0.88561230  0.61438770  0.00000000  1
  Si  Si14  1  0.75000000  0.75000000  0.50000000  1
  Si  Si15  1  0.25000000  0.25000000  0.50000000  1
