# generated using pymatgen
data_Ti4FeBi2
_symmetry_space_group_name_H-M   'P 1'
_cell_length_a   4.96685778
_cell_length_b   7.87279939
_cell_length_c   7.87279987
_cell_angle_alpha   84.28933473
_cell_angle_beta   71.61237006
_cell_angle_gamma   71.61237292
_symmetry_Int_Tables_number   1
_chemical_formula_structural   Ti4FeBi2
_chemical_formula_sum   'Ti8 Fe2 Bi4'
_cell_volume   277.21799818
_cell_formula_units_Z   2
loop_
 _symmetry_equiv_pos_site_id
 _symmetry_equiv_pos_as_xyz
  1  'x, y, z'
loop_
 _atom_site_type_symbol
 _atom_site_label
 _atom_site_symmetry_multiplicity
 _atom_site_fract_x
 _atom_site_fract_y
 _atom_site_fract_z
 _atom_site_occupancy
  Ti  Ti0  1  0.57971365  0.72941016  0.11116253  1
  Ti  Ti1  1  0.92028635  0.88883747  0.27058984  1
  Ti  Ti2  1  0.30912382  0.11116253  0.27058984  1
  Ti  Ti3  1  0.80912382  0.27058984  0.11116253  1
  Ti  Ti4  1  0.69087618  0.88883747  0.72941016  1
  Ti  Ti5  1  0.07971365  0.11116253  0.72941016  1
  Ti  Ti6  1  0.42028635  0.27058984  0.88883747  1
  Ti  Ti7  1  0.19087618  0.72941016  0.88883747  1
  Fe  Fe8  1  0.25000000  0.00000000  -0.00000000  1
  Fe  Fe9  1  0.75000000  0.00000000  -0.00000000  1
  Bi  Bi10  1  0.36097420  0.77805160  0.50000000  1
  Bi  Bi11  1  0.13902580  0.50000000  0.22194840  1
  Bi  Bi12  1  0.63902580  0.22194840  0.50000000  1
  Bi  Bi13  1  0.86097420  0.50000000  0.77805160  1
