# generated using pymatgen
data_MnP4
_symmetry_space_group_name_H-M   'P 1'
_cell_length_a   5.11123754
_cell_length_b   5.85347909
_cell_length_c   16.35118492
_cell_angle_alpha   89.25905063
_cell_angle_beta   84.83649008
_cell_angle_gamma   64.39879677
_symmetry_Int_Tables_number   1
_chemical_formula_structural   MnP4
_chemical_formula_sum   'Mn6 P24'
_cell_volume   439.20114403
_cell_formula_units_Z   6
loop_
 _symmetry_equiv_pos_site_id
 _symmetry_equiv_pos_as_xyz
  1  'x, y, z'
loop_
 _atom_site_type_symbol
 _atom_site_label
 _atom_site_symmetry_multiplicity
 _atom_site_fract_x
 _atom_site_fract_y
 _atom_site_fract_z
 _atom_site_occupancy
  Mn  Mn0  1  0.49888031  0.18234478  0.59369670  1
  Mn  Mn1  1  0.12944510  0.87953442  0.07523819  1
  Mn  Mn2  1  0.87055490  0.12046558  0.92476181  1
  Mn  Mn3  1  0.50111969  0.81765522  0.40630330  1
  Mn  Mn4  1  0.49108335  0.55019056  0.25882826  1
  Mn  Mn5  1  0.50891665  0.44980944  0.74117174  1
  P  P6  1  0.92625611  0.24103489  0.27354993  1
  P  P7  1  0.65568473  0.75222011  0.76986391  1
  P  P8  1  0.94297862  0.52740543  0.43449308  1
  P  P9  1  0.38292430  0.86513935  0.54879093  1
  P  P10  1  0.56600843  0.57071934  0.11646278  1
  P  P11  1  0.62911451  0.49525846  0.60979119  1
  P  P12  1  0.71677592  0.82662764  0.89984077  1
  P  P13  1  0.94381452  0.14771631  0.78071453  1
  P  P14  1  0.36604781  0.14133331  0.72771538  1
  P  P15  1  0.30804951  0.80909034  0.94393621  1
  P  P16  1  0.98850951  0.57163527  0.06499816  1
  P  P17  1  0.61707570  0.13486065  0.45120907  1
  P  P18  1  0.28322408  0.17337236  0.10015923  1
  P  P19  1  0.01149049  0.42836473  0.93500184  1
  P  P20  1  0.43399157  0.42928066  0.88353722  1
  P  P21  1  0.95270563  0.87870100  0.59979263  1
  P  P22  1  0.07374389  0.75896511  0.72645007  1
  P  P23  1  0.69195049  0.19090966  0.05606379  1
  P  P24  1  0.63395219  0.85866669  0.27228462  1
  P  P25  1  0.34431527  0.24777989  0.23013609  1
  P  P26  1  0.04729437  0.12129900  0.40020737  1
  P  P27  1  0.05618548  0.85228369  0.21928547  1
  P  P28  1  0.37088549  0.50474154  0.39020881  1
  P  P29  1  0.05702138  0.47259457  0.56550692  1
