# generated using pymatgen
data_PrI2
_symmetry_space_group_name_H-M   'P 1'
_cell_length_a   8.92303874
_cell_length_b   8.92303886
_cell_length_c   8.92303811
_cell_angle_alpha   59.99999888
_cell_angle_beta   59.99999845
_cell_angle_gamma   59.99999946
_symmetry_Int_Tables_number   1
_chemical_formula_structural   PrI2
_chemical_formula_sum   'Pr4 I8'
_cell_volume   502.36954354
_cell_formula_units_Z   4
loop_
 _symmetry_equiv_pos_site_id
 _symmetry_equiv_pos_as_xyz
  1  'x, y, z'
loop_
 _atom_site_type_symbol
 _atom_site_label
 _atom_site_symmetry_multiplicity
 _atom_site_fract_x
 _atom_site_fract_y
 _atom_site_fract_z
 _atom_site_occupancy
  Pr  Pr0  1  0.36122092  0.36122092  0.36122092  1
  Pr  Pr1  1  0.36122092  0.91633723  0.36122092  1
  Pr  Pr2  1  0.36122092  0.36122092  0.91633723  1
  Pr  Pr3  1  0.91633723  0.36122092  0.36122092  1
  I  I4  1  0.62369935  0.62369935  0.62369935  1
  I  I5  1  0.11222127  0.66333619  0.11222127  1
  I  I6  1  0.62369935  0.12890194  0.62369935  1
  I  I7  1  0.12890194  0.62369935  0.62369935  1
  I  I8  1  0.66333619  0.11222127  0.11222127  1
  I  I9  1  0.11222127  0.11222127  0.11222127  1
  I  I10  1  0.62369935  0.62369935  0.12890194  1
  I  I11  1  0.11222127  0.11222127  0.66333619  1
