# generated using pymatgen
data_Tb2AlGe3
_symmetry_space_group_name_H-M   'P 1'
_cell_length_a   4.23477411
_cell_length_b   6.80906957
_cell_length_c   17.82672723
_cell_angle_alpha   90.00000000
_cell_angle_beta   90.00000000
_cell_angle_gamma   90.00000000
_symmetry_Int_Tables_number   1
_chemical_formula_structural   Tb2AlGe3
_chemical_formula_sum   'Tb8 Al4 Ge12'
_cell_volume   514.03138945
_cell_formula_units_Z   4
loop_
 _symmetry_equiv_pos_site_id
 _symmetry_equiv_pos_as_xyz
  1  'x, y, z'
loop_
 _atom_site_type_symbol
 _atom_site_label
 _atom_site_symmetry_multiplicity
 _atom_site_fract_x
 _atom_site_fract_y
 _atom_site_fract_z
 _atom_site_occupancy
  Tb  Tb0  1  0.75000000  0.83080615  0.79580393  1
  Tb  Tb1  1  0.75000000  0.82836468  0.58523935  1
  Tb  Tb2  1  0.25000000  0.17163532  0.41476065  1
  Tb  Tb3  1  0.25000000  0.66919385  0.29580393  1
  Tb  Tb4  1  0.75000000  0.32836468  0.91476065  1
  Tb  Tb5  1  0.75000000  0.33080615  0.70419607  1
  Tb  Tb6  1  0.25000000  0.67163532  0.08523935  1
  Tb  Tb7  1  0.25000000  0.16919385  0.20419607  1
  Al  Al8  1  0.75000000  0.05032380  0.06460560  1
  Al  Al9  1  0.25000000  0.44967620  0.56460560  1
  Al  Al10  1  0.75000000  0.55032380  0.43539440  1
  Al  Al11  1  0.25000000  0.94967620  0.93539440  1
  Ge  Ge12  1  0.75000000  0.75159676  0.96543266  1
  Ge  Ge13  1  0.25000000  0.64466366  0.68831835  1
  Ge  Ge14  1  0.75000000  0.35533634  0.31168165  1
  Ge  Ge15  1  0.75000000  0.85533634  0.18831835  1
  Ge  Ge16  1  0.75000000  0.96674070  0.32717645  1
  Ge  Ge17  1  0.25000000  0.53325930  0.82717645  1
  Ge  Ge18  1  0.75000000  0.46674070  0.17282355  1
  Ge  Ge19  1  0.25000000  0.14466366  0.81168165  1
  Ge  Ge20  1  0.25000000  0.24840324  0.03456734  1
  Ge  Ge21  1  0.25000000  0.03325930  0.67282355  1
  Ge  Ge22  1  0.75000000  0.25159676  0.53456734  1
  Ge  Ge23  1  0.25000000  0.74840324  0.46543266  1
