# generated using pymatgen
data_Pr5Sn3
_symmetry_space_group_name_H-M   'P 1'
_cell_length_a   6.24289524
_cell_length_b   9.51655317
_cell_length_c   9.51655323
_cell_angle_alpha   83.82386488
_cell_angle_beta   70.85245410
_cell_angle_gamma   70.85245563
_symmetry_Int_Tables_number   1
_chemical_formula_structural   Pr5Sn3
_chemical_formula_sum   'Pr10 Sn6'
_cell_volume   504.55921344
_cell_formula_units_Z   2
loop_
 _symmetry_equiv_pos_site_id
 _symmetry_equiv_pos_as_xyz
  1  'x, y, z'
loop_
 _atom_site_type_symbol
 _atom_site_label
 _atom_site_symmetry_multiplicity
 _atom_site_fract_x
 _atom_site_fract_y
 _atom_site_fract_z
 _atom_site_occupancy
  Pr  Pr0  1  0.58402439  0.69906746  0.13288375  1
  Pr  Pr1  1  0.41597561  0.30093254  0.86711625  1
  Pr  Pr2  1  0.28309185  0.13288375  0.30093254  1
  Pr  Pr3  1  0.91597561  0.86711625  0.30093254  1
  Pr  Pr4  1  0.78309185  0.30093254  0.13288375  1
  Pr  Pr5  1  0.75000000  0.50000000  0.50000000  1
  Pr  Pr6  1  0.25000000  0.50000000  0.50000000  1
  Pr  Pr7  1  0.08402439  0.13288375  0.69906746  1
  Pr  Pr8  1  0.71690815  0.86711625  0.69906746  1
  Pr  Pr9  1  0.21690815  0.69906746  0.86711625  1
  Sn  Sn10  1  0.33989330  0.82021339  0.50000000  1
  Sn  Sn11  1  0.16010670  0.50000000  0.17978661  1
  Sn  Sn12  1  0.25000000  0.00000000  0.00000000  1
  Sn  Sn13  1  0.83989330  0.50000000  0.82021339  1
  Sn  Sn14  1  0.66010670  0.17978661  0.50000000  1
  Sn  Sn15  1  0.75000000  0.00000000  0.00000000  1
