# generated using pymatgen
data_Sr4In13Au9
_symmetry_space_group_name_H-M   'P 1'
_cell_length_a   12.94508938
_cell_length_b   12.94508969
_cell_length_c   4.50198497
_cell_angle_alpha   90.00000000
_cell_angle_beta   90.00000000
_cell_angle_gamma   119.99999920
_symmetry_Int_Tables_number   1
_chemical_formula_structural   Sr4In13Au9
_chemical_formula_sum   'Sr4 In13 Au9'
_cell_volume   653.34834193
_cell_formula_units_Z   1
loop_
 _symmetry_equiv_pos_site_id
 _symmetry_equiv_pos_as_xyz
  1  'x, y, z'
loop_
 _atom_site_type_symbol
 _atom_site_label
 _atom_site_symmetry_multiplicity
 _atom_site_fract_x
 _atom_site_fract_y
 _atom_site_fract_z
 _atom_site_occupancy
  Sr  Sr0  1  0.20615805  0.79384195  0.50000000  1
  Sr  Sr1  1  0.58768391  0.79384195  0.50000000  1
  Sr  Sr2  1  0.20615805  0.41231609  0.50000000  1
  Sr  Sr3  1  0.66666700  0.33333300  0.00000000  1
  In  In4  1  0.95149896  0.29374767  0.00000000  1
  In  In5  1  0.70625233  0.65775129  0.00000000  1
  In  In6  1  0.95149896  0.65775129  0.00000000  1
  In  In7  1  0.34224871  0.04850104  0.00000000  1
  In  In8  1  0.16623822  0.08311911  0.50000000  1
  In  In9  1  0.91688089  0.83376178  0.50000000  1
  In  In10  1  0.70625233  0.04850104  0.00000000  1
  In  In11  1  0.53253558  0.06507116  0.50000000  1
  In  In12  1  0.91688089  0.08311911  0.50000000  1
  In  In13  1  0.34224871  0.29374767  0.00000000  1
  In  In14  1  0.53253558  0.46746442  0.50000000  1
  In  In15  1  0.93492884  0.46746442  0.50000000  1
  In  In16  1  0.33333300  0.66666700  0.00000000  1
  Au  Au17  1  0.45377368  0.54622632  0.00000000  1
  Au  Au18  1  0.82466926  0.91233463  0.00000000  1
  Au  Au19  1  0.45377368  0.90754736  0.00000000  1
  Au  Au20  1  0.08766537  0.17533074  0.00000000  1
  Au  Au21  1  0.08766537  0.91233463  0.00000000  1
  Au  Au22  1  0.78544051  0.57088102  0.50000000  1
  Au  Au23  1  0.09245264  0.54622632  0.00000000  1
  Au  Au24  1  0.78544051  0.21455949  0.50000000  1
  Au  Au25  1  0.42911898  0.21455949  0.50000000  1
