# generated using pymatgen
data_RuCl3
_symmetry_space_group_name_H-M   'P 1'
_cell_length_a   5.67555915
_cell_length_b   6.59305254
_cell_length_c   11.30811682
_cell_angle_alpha   90.00000000
_cell_angle_beta   90.00000000
_cell_angle_gamma   90.00000000
_symmetry_Int_Tables_number   1
_chemical_formula_structural   RuCl3
_chemical_formula_sum   'Ru4 Cl12'
_cell_volume   423.14135966
_cell_formula_units_Z   4
loop_
 _symmetry_equiv_pos_site_id
 _symmetry_equiv_pos_as_xyz
  1  'x, y, z'
loop_
 _atom_site_type_symbol
 _atom_site_label
 _atom_site_symmetry_multiplicity
 _atom_site_fract_x
 _atom_site_fract_y
 _atom_site_fract_z
 _atom_site_occupancy
  Ru  Ru0  1  0.00056863  0.25521428  0.25000000  1
  Ru  Ru1  1  0.50056863  0.74478572  0.75000000  1
  Ru  Ru2  1  0.49943137  0.25521428  0.25000000  1
  Ru  Ru3  1  0.99943137  0.74478572  0.75000000  1
  Cl  Cl4  1  0.75000000  0.45579041  0.75000000  1
  Cl  Cl5  1  0.25000000  0.60086309  0.60476065  1
  Cl  Cl6  1  0.75000000  0.96710064  0.25000000  1
  Cl  Cl7  1  0.25000000  0.11095168  0.39579342  1
  Cl  Cl8  1  0.25000000  0.60086309  0.89523935  1
  Cl  Cl9  1  0.25000000  0.11095168  0.10420658  1
  Cl  Cl10  1  0.75000000  0.39913691  0.39523935  1
  Cl  Cl11  1  0.75000000  0.88904832  0.89579342  1
  Cl  Cl12  1  0.25000000  0.54420959  0.25000000  1
  Cl  Cl13  1  0.25000000  0.03289936  0.75000000  1
  Cl  Cl14  1  0.75000000  0.39913691  0.10476065  1
  Cl  Cl15  1  0.75000000  0.88904832  0.60420658  1
