# generated using pymatgen
data_Li3MnCoO5
_symmetry_space_group_name_H-M   'P 1'
_cell_length_a   2.91292021
_cell_length_b   12.91319229
_cell_length_c   5.14574021
_cell_angle_alpha   97.14573679
_cell_angle_beta   73.55816960
_cell_angle_gamma   83.52391030
_symmetry_Int_Tables_number   1
_chemical_formula_structural   Li3MnCoO5
_chemical_formula_sum   'Li6 Mn2 Co2 O10'
_cell_volume   181.95952653
_cell_formula_units_Z   2
loop_
 _symmetry_equiv_pos_site_id
 _symmetry_equiv_pos_as_xyz
  1  'x, y, z'
loop_
 _atom_site_type_symbol
 _atom_site_label
 _atom_site_symmetry_multiplicity
 _atom_site_fract_x
 _atom_site_fract_y
 _atom_site_fract_z
 _atom_site_occupancy
  Li  Li0  1  0.19748392  0.10364793  0.50138423  1
  Li  Li1  1  0.58518252  0.32105541  0.50857955  1
  Li  Li2  1  0.00305563  0.50284229  0.49104644  1
  Li  Li3  1  0.41410363  0.69067579  0.48111694  1
  Li  Li4  1  0.80232288  0.88907944  0.50627480  1
  Li  Li5  1  0.79470677  0.40316285  0.00742360  1
  Mn  Mn6  1  0.00139108  0.99910238  0.99811547  1
  Mn  Mn7  1  0.39159390  0.20685894  0.00995326  1
  Co  Co8  1  0.21509847  0.58089757  0.98890549  1
  Co  Co9  1  0.61065262  0.78589729  0.99279746  1
  O  O10  1  0.81963420  0.14461728  0.21611433  1
  O  O11  1  0.21630721  0.33131852  0.23606707  1
  O  O12  1  0.60604541  0.55281917  0.23509000  1
  O  O13  1  0.00205206  0.75726317  0.23863270  1
  O  O14  1  0.41000998  0.95915556  0.22082447  1
  O  O15  1  0.58325786  0.05028103  0.78320325  1
  O  O16  1  0.98813965  0.23970959  0.78401110  1
  O  O17  1  0.39444916  0.45847445  0.75262723  1
  O  O18  1  0.78771496  0.65924436  0.76532572  1
  O  O19  1  0.17679807  0.86389697  0.78250689  1
