# generated using pymatgen
data_K3V(PO4)2
_symmetry_space_group_name_H-M   'P 1'
_cell_length_a   9.73015419
_cell_length_b   11.29016725
_cell_length_c   15.67723466
_cell_angle_alpha   90.00000000
_cell_angle_beta   90.21568739
_cell_angle_gamma   90.00000000
_symmetry_Int_Tables_number   1
_chemical_formula_structural   K3V(PO4)2
_chemical_formula_sum   'K24 V8 P16 O64'
_cell_volume   1722.21147959
_cell_formula_units_Z   8
loop_
 _symmetry_equiv_pos_site_id
 _symmetry_equiv_pos_as_xyz
  1  'x, y, z'
loop_
 _atom_site_type_symbol
 _atom_site_label
 _atom_site_symmetry_multiplicity
 _atom_site_fract_x
 _atom_site_fract_y
 _atom_site_fract_z
 _atom_site_occupancy
  K  K0  1  0.88551516  0.07746053  0.31906105  1
  K  K1  1  0.29751998  0.61991595  0.00725381  1
  K  K2  1  0.81581759  0.36092477  0.25961479  1
  K  K3  1  0.26101878  0.09979090  0.00127708  1
  K  K4  1  0.31581759  0.13907523  0.75961479  1
  K  K5  1  0.59639573  0.11812394  0.57908570  1
  K  K6  1  0.70248002  0.38008405  0.99274619  1
  K  K7  1  0.29314945  0.59787491  0.25435915  1
  K  K8  1  0.38551516  0.42253947  0.81906105  1
  K  K9  1  0.70685055  0.40212509  0.74563985  1
  K  K10  1  0.79751998  0.88008405  0.50725381  1
  K  K11  1  0.76101878  0.40020910  0.50127708  1
  K  K12  1  0.68418241  0.86092477  0.24038521  1
  K  K13  1  0.18418241  0.63907523  0.74038521  1
  K  K14  1  0.23898122  0.59979090  0.49872292  1
  K  K15  1  0.09639573  0.38187606  0.07908570  1
  K  K16  1  0.79314945  0.90212509  0.75436015  1
  K  K17  1  0.11448484  0.92253947  0.68093895  1
  K  K18  1  0.61448484  0.57746053  0.18093895  1
  K  K19  1  0.20248002  0.11991595  0.49274619  1
  K  K20  1  0.20685055  0.09787491  0.24564085  1
  K  K21  1  0.73898122  0.90020910  0.99872292  1
  K  K22  1  0.90360427  0.61812394  0.92091430  1
  K  K23  1  0.40360427  0.88187606  0.42091430  1
  V  V24  1  0.57829512  0.13122019  0.13179638  1
  V  V25  1  0.07829512  0.36877981  0.63179638  1
  V  V26  1  0.07507997  0.84404273  0.11379386  1
  V  V27  1  0.42492003  0.34404273  0.38620614  1
  V  V28  1  0.92492003  0.15595727  0.88620614  1
  V  V29  1  0.92170488  0.63122019  0.36820362  1
  V  V30  1  0.57507997  0.65595727  0.61379386  1
  V  V31  1  0.42170388  0.86877981  0.86820362  1
  P  P32  1  0.43574855  0.86114993  0.64601757  1
  P  P33  1  0.42332311  0.37668121  0.60004375  1
  P  P34  1  0.06425145  0.36114993  0.85398243  1
  P  P35  1  0.92332311  0.12331879  0.10004375  1
  P  P36  1  0.08027812  0.36011795  0.40832820  1
  P  P37  1  0.41972188  0.86011795  0.09167180  1
  P  P38  1  0.07667689  0.87668121  0.89995625  1
  P  P39  1  0.91972188  0.63988205  0.59167180  1
  P  P40  1  0.58027812  0.13988205  0.90832820  1
  P  P41  1  0.93574855  0.63885007  0.14601757  1
  P  P42  1  0.57667689  0.62331879  0.39995625  1
  P  P43  1  0.44264205  0.33649972  0.16436660  1
  P  P44  1  0.05735795  0.83649972  0.33563340  1
  P  P45  1  0.56425145  0.13885007  0.35398243  1
  P  P46  1  0.94264205  0.16350028  0.66436660  1
  P  P47  1  0.55735795  0.66350028  0.83563340  1
  O  O48  1  0.12602964  0.45678350  0.91245448  1
  O  O49  1  0.45059892  0.74226060  0.13541463  1
  O  O50  1  0.93962543  0.65556092  0.49336955  1
  O  O51  1  0.60157597  0.31632343  0.14769777  1
  O  O52  1  0.47550905  0.51816772  0.40676589  1
  O  O53  1  0.11865911  0.93235664  0.39330319  1
  O  O54  1  0.38232148  0.20971405  0.14710053  1
  O  O55  1  0.37397036  0.95678350  0.58754552  1
  O  O56  1  0.47828906  0.04250947  0.87756497  1
  O  O57  1  0.89842403  0.81632343  0.35230223  1
  O  O58  1  0.59480241  0.84647160  0.63481627  1
  O  O59  1  0.52171094  0.95749053  0.12243503  1
  O  O60  1  0.42389630  0.30661776  0.51288154  1
  O  O61  1  0.92417443  0.12312396  0.75851391  1
  O  O62  1  0.07582557  0.87687604  0.24148609  1
  O  O63  1  0.02171094  0.54250947  0.62243503  1
  O  O64  1  0.97550905  0.98183228  0.90676589  1
  O  O65  1  0.77728831  0.07333687  0.11952060  1
  O  O66  1  0.61865911  0.56764336  0.89330319  1
  O  O67  1  0.88232148  0.29028595  0.64710053  1
  O  O68  1  0.37989062  0.73323376  0.62350765  1
  O  O69  1  0.97051150  0.20909973  0.17048942  1
  O  O70  1  0.87397036  0.54321650  0.08754552  1
  O  O71  1  0.56037457  0.15556092  0.00663045  1
  O  O72  1  0.22271169  0.92666313  0.88047940  1
  O  O73  1  0.77079629  0.59598154  0.60959452  1
  O  O74  1  0.52948850  0.70909973  0.32951058  1
  O  O75  1  0.52449095  0.48183228  0.59323411  1
  O  O76  1  0.42417443  0.37687604  0.25851391  1
  O  O77  1  0.39507984  0.89367600  0.73934450  1
  O  O78  1  0.62602964  0.04321650  0.41245448  1
  O  O79  1  0.27728831  0.42666313  0.61952060  1
  O  O80  1  0.88134089  0.06764336  0.60669681  1
  O  O81  1  0.11767852  0.70971405  0.35289947  1
  O  O82  1  0.87989062  0.76676624  0.12350765  1
  O  O83  1  0.57582557  0.62312396  0.74148609  1
  O  O84  1  0.06037457  0.34443908  0.50663045  1
  O  O85  1  0.27079629  0.90401846  0.10959452  1
  O  O86  1  0.95059892  0.75773940  0.63541463  1
  O  O87  1  0.60492016  0.10632400  0.26065550  1
  O  O88  1  0.92389630  0.19338224  0.01288154  1
  O  O89  1  0.54940108  0.25773940  0.86458537  1
  O  O90  1  0.89507984  0.60632400  0.23934450  1
  O  O91  1  0.38134089  0.43235664  0.10669681  1
  O  O92  1  0.22920371  0.40401846  0.39040548  1
  O  O93  1  0.62010938  0.26676624  0.37649235  1
  O  O94  1  0.90519759  0.34647160  0.86518373  1
  O  O95  1  0.09480241  0.65352840  0.13481627  1
  O  O96  1  0.10157597  0.18367657  0.64769777  1
  O  O97  1  0.07610370  0.80661776  0.98711846  1
  O  O98  1  0.57610370  0.69338224  0.48711846  1
  O  O99  1  0.12010938  0.23323376  0.87649235  1
  O  O100  1  0.39842403  0.68367657  0.85230223  1
  O  O101  1  0.02449095  0.01816772  0.09323411  1
  O  O102  1  0.72271169  0.57333687  0.38047940  1
  O  O103  1  0.04940108  0.24226060  0.36458537  1
  O  O104  1  0.40519759  0.15352840  0.36518373  1
  O  O105  1  0.72920371  0.09598154  0.89040548  1
  O  O106  1  0.10492016  0.39367600  0.76065550  1
  O  O107  1  0.97828906  0.45749053  0.37756497  1
  O  O108  1  0.02948850  0.79090027  0.82951058  1
  O  O109  1  0.43962543  0.84443908  0.99336955  1
  O  O110  1  0.47051150  0.29090027  0.67048942  1
  O  O111  1  0.61767852  0.79028595  0.85289947  1
