# generated using pymatgen
data_Pr5(CBr4)2
_symmetry_space_group_name_H-M   'P 1'
_cell_length_a   9.29346774
_cell_length_b   12.45059868
_cell_length_c   17.09196897
_cell_angle_alpha   79.86511478
_cell_angle_beta   90.10666655
_cell_angle_gamma   84.20113183
_symmetry_Int_Tables_number   1
_chemical_formula_structural   Pr5(CBr4)2
_chemical_formula_sum   'Pr20 C8 Br32'
_cell_volume   1936.48703834
_cell_formula_units_Z   4
loop_
 _symmetry_equiv_pos_site_id
 _symmetry_equiv_pos_as_xyz
  1  'x, y, z'
loop_
 _atom_site_type_symbol
 _atom_site_label
 _atom_site_symmetry_multiplicity
 _atom_site_fract_x
 _atom_site_fract_y
 _atom_site_fract_z
 _atom_site_occupancy
  Pr  Pr0  1  0.74047723  0.00576628  0.69796076  1
  Pr  Pr1  1  0.87068759  0.36932847  0.77337442  1
  Pr  Pr2  1  0.16463396  0.93437799  0.09335829  1
  Pr  Pr3  1  0.83536604  0.06562201  0.90664171  1
  Pr  Pr4  1  0.58586652  0.56539447  0.61774190  1
  Pr  Pr5  1  0.44611245  0.74010429  0.24624601  1
  Pr  Pr6  1  0.25952277  0.99423372  0.30203924  1
  Pr  Pr7  1  0.34119993  0.51262920  0.79970180  1
  Pr  Pr8  1  0.65880007  0.48737080  0.20029820  1
  Pr  Pr9  1  0.41413348  0.43460553  0.38225810  1
  Pr  Pr10  1  0.68318851  0.62726782  0.82281887  1
  Pr  Pr11  1  0.61987251  0.35204523  0.96345628  1
  Pr  Pr12  1  0.31681149  0.37273218  0.17718113  1
  Pr  Pr13  1  0.08514093  0.11547280  0.72498008  1
  Pr  Pr14  1  0.55388755  0.25989571  0.75375399  1
  Pr  Pr15  1  0.82284924  0.26844497  0.55867232  1
  Pr  Pr16  1  0.38012749  0.64795477  0.03654372  1
  Pr  Pr17  1  0.12931241  0.63067153  0.22662558  1
  Pr  Pr18  1  0.91485907  0.88452720  0.27501992  1
  Pr  Pr19  1  0.17715076  0.73155503  0.44132768  1
  C  C20  1  0.39822802  0.52392451  0.25126724  1
  C  C21  1  0.18188667  0.79644585  0.30538111  1
  C  C22  1  0.60177198  0.47607549  0.74873276  1
  C  C23  1  0.17755897  0.84540738  0.22434674  1
  C  C24  1  0.81811333  0.20355415  0.69461889  1
  C  C25  1  0.82244103  0.15459262  0.77565326  1
  C  C26  1  0.60861011  0.42736061  0.82954448  1
  C  C27  1  0.39138989  0.57263939  0.17045552  1
  Br  Br28  1  0.07022254  0.72524437  0.04573120  1
  Br  Br29  1  0.13104190  0.20669128  0.55521557  1
  Br  Br30  1  0.69790146  0.56591043  0.01257565  1
  Br  Br31  1  0.47783957  0.85488241  0.07051692  1
  Br  Br32  1  0.21468186  0.31284659  0.76912612  1
  Br  Br33  1  0.99752920  0.57082606  0.81873961  1
  Br  Br34  1  0.89583950  0.48890000  0.59709892  1
  Br  Br35  1  0.78531814  0.68715341  0.23087388  1
  Br  Br36  1  0.29010044  0.92666444  0.47645051  1
  Br  Br37  1  0.57274500  0.94567758  0.28145561  1
  Br  Br38  1  0.86895810  0.79330872  0.44478443  1
  Br  Br39  1  0.50277352  0.64436657  0.42951585  1
  Br  Br40  1  0.00247080  0.42917394  0.18126039  1
  Br  Br41  1  0.96250140  0.09459472  0.31374695  1
  Br  Br42  1  0.25136492  0.14101152  0.13537826  1
  Br  Br43  1  0.74863508  0.85898848  0.86462174  1
  Br  Br44  1  0.10416050  0.51110000  0.40290108  1
  Br  Br45  1  0.33695054  0.22982978  0.33770990  1
  Br  Br46  1  0.38156282  0.72460700  0.84699640  1
  Br  Br47  1  0.92977746  0.27475563  0.95426880  1
  Br  Br48  1  0.42725500  0.05432242  0.71854439  1
  Br  Br49  1  0.66304946  0.77017022  0.66229010  1
  Br  Br50  1  0.84995516  0.99695802  0.10011756  1
  Br  Br51  1  0.03749860  0.90540528  0.68625305  1
  Br  Br52  1  0.15004484  0.00304198  0.89988244  1
  Br  Br53  1  0.30209854  0.43408957  0.98742435  1
  Br  Br54  1  0.61843718  0.27539300  0.15300360  1
  Br  Br55  1  0.27043195  0.62398036  0.63161169  1
  Br  Br56  1  0.72956805  0.37601964  0.36838831  1
  Br  Br57  1  0.52216043  0.14511759  0.92948308  1
  Br  Br58  1  0.49722648  0.35563343  0.57048415  1
  Br  Br59  1  0.70989956  0.07333556  0.52354949  1
