# generated using pymatgen
data_CsZr6BI14
_symmetry_space_group_name_H-M   'P 1'
_cell_length_a   11.02071660
_cell_length_b   11.02071693
_cell_length_c   13.22673787
_cell_angle_alpha   90.00000000
_cell_angle_beta   90.00000000
_cell_angle_gamma   94.67131908
_symmetry_Int_Tables_number   1
_chemical_formula_structural   CsZr6BI14
_chemical_formula_sum   'Cs2 Zr12 B2 I28'
_cell_volume   1601.13305064
_cell_formula_units_Z   2
loop_
 _symmetry_equiv_pos_site_id
 _symmetry_equiv_pos_as_xyz
  1  'x, y, z'
loop_
 _atom_site_type_symbol
 _atom_site_label
 _atom_site_symmetry_multiplicity
 _atom_site_fract_x
 _atom_site_fract_y
 _atom_site_fract_z
 _atom_site_occupancy
  Cs  Cs0  1  0.00000000  0.00000000  0.00000000  1
  Cs  Cs1  1  0.50000000  0.50000000  0.50000000  1
  Zr  Zr2  1  0.86917307  0.86917307  0.59670560  1
  Zr  Zr3  1  0.36917307  0.36917307  0.90329440  1
  Zr  Zr4  1  0.33186015  0.54268291  0.10808655  1
  Zr  Zr5  1  0.13082693  0.13082693  0.40329440  1
  Zr  Zr6  1  0.16813985  0.95731709  0.60808655  1
  Zr  Zr7  1  0.45731709  0.66813985  0.89191345  1
  Zr  Zr8  1  0.66813985  0.45731709  0.89191345  1
  Zr  Zr9  1  0.95731709  0.16813985  0.60808655  1
  Zr  Zr10  1  0.83186015  0.04268291  0.39191345  1
  Zr  Zr11  1  0.63082693  0.63082693  0.09670560  1
  Zr  Zr12  1  0.54268291  0.33186015  0.10808655  1
  Zr  Zr13  1  0.04268291  0.83186015  0.39191345  1
  B  B14  1  0.50000000  0.50000000  0.00000000  1
  B  B15  1  0.00000000  0.00000000  0.50000000  1
  I  I16  1  0.46436704  0.71108349  0.24704107  1
  I  I17  1  0.53563296  0.28891651  0.75295893  1
  I  I18  1  0.89628859  0.39628859  0.75000000  1
  I  I19  1  0.35983592  0.11134924  0.50678479  1
  I  I20  1  0.34556632  0.34556632  0.25743478  1
  I  I21  1  0.14016408  0.38865076  0.00678479  1
  I  I22  1  0.15443368  0.15443368  0.75743478  1
  I  I23  1  0.75142575  0.24857425  0.50000000  1
  I  I24  1  0.65443368  0.65443368  0.74256522  1
  I  I25  1  0.88865076  0.64016408  0.49321521  1
  I  I26  1  0.24857425  0.75142575  0.50000000  1
  I  I27  1  0.03563296  0.78891651  0.74704107  1
  I  I28  1  0.61134924  0.85983592  0.99321521  1
  I  I29  1  0.10371141  0.60371141  0.25000000  1
  I  I30  1  0.71108349  0.46436704  0.24704107  1
  I  I31  1  0.74857425  0.25142575  0.00000000  1
  I  I32  1  0.39628859  0.89628859  0.75000000  1
  I  I33  1  0.85983592  0.61134924  0.99321521  1
  I  I34  1  0.28891651  0.53563296  0.75295893  1
  I  I35  1  0.11134924  0.35983592  0.50678479  1
  I  I36  1  0.25142575  0.74857425  0.00000000  1
  I  I37  1  0.78891651  0.03563296  0.74704107  1
  I  I38  1  0.64016408  0.88865076  0.49321521  1
  I  I39  1  0.21108349  0.96436704  0.25295893  1
  I  I40  1  0.84556632  0.84556632  0.24256522  1
  I  I41  1  0.96436704  0.21108349  0.25295893  1
  I  I42  1  0.38865076  0.14016408  0.00678479  1
  I  I43  1  0.60371141  0.10371141  0.25000000  1
