# generated using pymatgen
data_Li3MnCoO5
_symmetry_space_group_name_H-M   'P 1'
_cell_length_a   2.91660172
_cell_length_b   5.95136836
_cell_length_c   10.55360896
_cell_angle_alpha   82.72249595
_cell_angle_beta   82.05744099
_cell_angle_gamma   90.00000527
_symmetry_Int_Tables_number   1
_chemical_formula_structural   Li3MnCoO5
_chemical_formula_sum   'Li6 Mn2 Co2 O10'
_cell_volume   179.93971327
_cell_formula_units_Z   2
loop_
 _symmetry_equiv_pos_site_id
 _symmetry_equiv_pos_as_xyz
  1  'x, y, z'
loop_
 _atom_site_type_symbol
 _atom_site_label
 _atom_site_symmetry_multiplicity
 _atom_site_fract_x
 _atom_site_fract_y
 _atom_site_fract_z
 _atom_site_occupancy
  Li  Li0  1  0.79547330  0.89846761  0.40905341  1
  Li  Li1  1  0.60456490  0.30798856  0.79087020  1
  Li  Li2  1  0.38904487  0.68621094  0.22191026  1
  Li  Li3  1  0.20552651  0.11747586  0.58894698  1
  Li  Li4  1  0.00259225  0.50103617  0.99481549  1
  Li  Li5  1  0.79649448  0.39804627  0.40701104  1
  Mn  Mn6  1  0.00140258  -0.00030018  0.99719484  1
  Mn  Mn7  1  0.39561332  0.20274551  0.20877336  1
  Co  Co8  1  0.60788814  0.79470135  0.78422372  1
  Co  Co9  1  0.20803249  0.58622553  0.58393501  1
  O  O10  1  0.69862055  0.35986655  0.60275891  1
  O  O11  1  0.50007169  0.78112075  -0.00014338  1
  O  O12  1  0.30942696  0.15155532  0.38114608  1
  O  O13  1  0.09889255  0.56420384  0.80221491  1
  O  O14  1  0.90513910  0.97706212  0.18972180  1
  O  O15  1  0.90258183  0.41998431  0.19483633  1
  O  O16  1  0.69522290  0.84914635  0.60955420  1
  O  O17  1  0.49700630  0.21845321  0.00598741  1
  O  O18  1  0.29495791  0.65293646  0.41008418  1
  O  O19  1  0.09144737  0.03307350  0.81710525  1
