# generated using pymatgen
data_SmSnPd
_symmetry_space_group_name_H-M   'P 1'
_cell_length_a   4.70870486
_cell_length_b   7.40508898
_cell_length_c   8.01999362
_cell_angle_alpha   90.00000000
_cell_angle_beta   90.00000000
_cell_angle_gamma   90.00000000
_symmetry_Int_Tables_number   1
_chemical_formula_structural   SmSnPd
_chemical_formula_sum   'Sm4 Sn4 Pd4'
_cell_volume   279.64417286
_cell_formula_units_Z   4
loop_
 _symmetry_equiv_pos_site_id
 _symmetry_equiv_pos_as_xyz
  1  'x, y, z'
loop_
 _atom_site_type_symbol
 _atom_site_label
 _atom_site_symmetry_multiplicity
 _atom_site_fract_x
 _atom_site_fract_y
 _atom_site_fract_z
 _atom_site_occupancy
  Sm  Sm0  1  0.75000000  0.51019820  0.20532833  1
  Sm  Sm1  1  0.75000000  0.01019820  0.29467167  1
  Sm  Sm2  1  0.25000000  0.98980180  0.70532833  1
  Sm  Sm3  1  0.25000000  0.48980180  0.79467167  1
  Sn  Sn4  1  0.75000000  0.19184015  0.91268869  1
  Sn  Sn5  1  0.75000000  0.69184015  0.58731131  1
  Sn  Sn6  1  0.25000000  0.80815985  0.08731131  1
  Sn  Sn7  1  0.25000000  0.30815985  0.41268869  1
  Pd  Pd8  1  0.75000000  0.79722929  0.91664512  1
  Pd  Pd9  1  0.25000000  0.20277071  0.08335488  1
  Pd  Pd10  1  0.75000000  0.29722929  0.58335488  1
  Pd  Pd11  1  0.25000000  0.70277071  0.41664512  1
