# generated using pymatgen
data_Hf6Si7Ni16
_symmetry_space_group_name_H-M   'P 1'
_cell_length_a   8.06593392
_cell_length_b   8.06593431
_cell_length_c   8.06593378
_cell_angle_alpha   60.00000216
_cell_angle_beta   60.00000057
_cell_angle_gamma   60.00000199
_symmetry_Int_Tables_number   1
_chemical_formula_structural   Hf6Si7Ni16
_chemical_formula_sum   'Hf6 Si7 Ni16'
_cell_volume   371.06416083
_cell_formula_units_Z   1
loop_
 _symmetry_equiv_pos_site_id
 _symmetry_equiv_pos_as_xyz
  1  'x, y, z'
loop_
 _atom_site_type_symbol
 _atom_site_label
 _atom_site_symmetry_multiplicity
 _atom_site_fract_x
 _atom_site_fract_y
 _atom_site_fract_z
 _atom_site_occupancy
  Hf  Hf0  1  0.20579426  0.79420574  0.20579426  1
  Hf  Hf1  1  0.20579426  0.79420574  0.79420574  1
  Hf  Hf2  1  0.79420574  0.79420574  0.20579426  1
  Hf  Hf3  1  0.79420574  0.20579426  0.20579426  1
  Hf  Hf4  1  0.20579426  0.20579426  0.79420574  1
  Hf  Hf5  1  0.79420574  0.20579426  0.79420574  1
  Si  Si6  1  0.00000000  0.50000000  0.00000000  1
  Si  Si7  1  0.50000000  0.50000000  0.50000000  1
  Si  Si8  1  0.50000000  0.00000000  0.00000000  1
  Si  Si9  1  0.50000000  0.00000000  0.50000000  1
  Si  Si10  1  0.00000000  0.00000000  0.50000000  1
  Si  Si11  1  0.00000000  0.50000000  0.50000000  1
  Si  Si12  1  0.50000000  0.50000000  0.00000000  1
  Ni  Ni13  1  0.83197635  0.50407094  0.83197635  1
  Ni  Ni14  1  0.38187838  0.38187838  0.85436487  1
  Ni  Ni15  1  0.61812162  0.14563513  0.61812162  1
  Ni  Ni16  1  0.83197635  0.83197635  0.83197635  1
  Ni  Ni17  1  0.83197635  0.83197635  0.50407094  1
  Ni  Ni18  1  0.85436487  0.38187838  0.38187838  1
  Ni  Ni19  1  0.38187838  0.38187838  0.38187838  1
  Ni  Ni20  1  0.16802365  0.49592906  0.16802365  1
  Ni  Ni21  1  0.14563513  0.61812162  0.61812162  1
  Ni  Ni22  1  0.61812162  0.61812162  0.14563513  1
  Ni  Ni23  1  0.61812162  0.61812162  0.61812162  1
  Ni  Ni24  1  0.49592906  0.16802365  0.16802365  1
  Ni  Ni25  1  0.38187838  0.85436487  0.38187838  1
  Ni  Ni26  1  0.16802365  0.16802365  0.49592906  1
  Ni  Ni27  1  0.50407094  0.83197635  0.83197635  1
  Ni  Ni28  1  0.16802365  0.16802365  0.16802365  1
