# generated using pymatgen
data_CsB5O8
_symmetry_space_group_name_H-M   'P 1'
_cell_length_a   8.12663005
_cell_length_b   12.30490861
_cell_length_c   15.17116848
_cell_angle_alpha   90.00000000
_cell_angle_beta   90.00000000
_cell_angle_gamma   90.00000000
_symmetry_Int_Tables_number   1
_chemical_formula_structural   CsB5O8
_chemical_formula_sum   'Cs8 B40 O64'
_cell_volume   1517.07801091
_cell_formula_units_Z   8
loop_
 _symmetry_equiv_pos_site_id
 _symmetry_equiv_pos_as_xyz
  1  'x, y, z'
loop_
 _atom_site_type_symbol
 _atom_site_label
 _atom_site_symmetry_multiplicity
 _atom_site_fract_x
 _atom_site_fract_y
 _atom_site_fract_z
 _atom_site_occupancy
  Cs  Cs0  1  0.04553947  0.21255318  0.62310722  1
  Cs  Cs1  1  0.54553947  0.21255318  0.87689278  1
  Cs  Cs2  1  0.54553947  0.28744682  0.37689278  1
  Cs  Cs3  1  0.45446053  0.78744682  0.12310722  1
  Cs  Cs4  1  0.04553947  0.28744682  0.12310722  1
  Cs  Cs5  1  0.95446053  0.71255318  0.87689278  1
  Cs  Cs6  1  0.45446053  0.71255318  0.62310722  1
  Cs  Cs7  1  0.95446053  0.78744682  0.37689278  1
  B  B8  1  0.97006296  0.73094993  0.62507137  1
  B  B9  1  0.51288380  0.96472449  0.33743448  1
  B  B10  1  0.44999548  0.90556815  0.79334838  1
  B  B11  1  0.94999548  0.59443185  0.20665162  1
  B  B12  1  0.48711620  0.46472449  0.16256552  1
  B  B13  1  0.61949492  0.89983199  0.92206133  1
  B  B14  1  0.48711620  0.03527551  0.66256552  1
  B  B15  1  0.11949492  0.89983199  0.57793867  1
  B  B16  1  0.98711620  0.46472449  0.33743448  1
  B  B17  1  0.67707769  0.08008868  0.54718931  1
  B  B18  1  0.88050508  0.10016801  0.42206133  1
  B  B19  1  0.47006296  0.73094993  0.87492863  1
  B  B20  1  0.97006296  0.76905007  0.12507137  1
  B  B21  1  0.01288380  0.53527551  0.66256552  1
  B  B22  1  0.94999548  0.90556815  0.70665162  1
  B  B23  1  0.55000452  0.09443185  0.20665162  1
  B  B24  1  0.82292231  0.91991132  0.04718931  1
  B  B25  1  0.98711620  0.03527551  0.83743448  1
  B  B26  1  0.11949492  0.60016801  0.07793867  1
  B  B27  1  0.52993704  0.23094993  0.62507137  1
  B  B28  1  0.32292231  0.91991132  0.45281069  1
  B  B29  1  0.05000452  0.09443185  0.29334838  1
  B  B30  1  0.67707769  0.41991132  0.04718931  1
  B  B31  1  0.82292231  0.58008868  0.54718931  1
  B  B32  1  0.02993704  0.23094993  0.87492863  1
  B  B33  1  0.38050508  0.10016801  0.07793867  1
  B  B34  1  0.52993704  0.26905007  0.12507137  1
  B  B35  1  0.05000452  0.40556815  0.79334838  1
  B  B36  1  0.61949492  0.60016801  0.42206133  1
  B  B37  1  0.01288380  0.96472449  0.16256552  1
  B  B38  1  0.55000452  0.40556815  0.70665162  1
  B  B39  1  0.02993704  0.26905007  0.37492863  1
  B  B40  1  0.51288380  0.53527551  0.83743448  1
  B  B41  1  0.32292231  0.58008868  0.95281069  1
  B  B42  1  0.38050508  0.39983199  0.57793867  1
  B  B43  1  0.88050508  0.39983199  0.92206133  1
  B  B44  1  0.17707769  0.08008868  0.95281069  1
  B  B45  1  0.17707769  0.41991132  0.45281069  1
  B  B46  1  0.47006296  0.76905007  0.37492863  1
  B  B47  1  0.44999548  0.59443185  0.29334838  1
  O  O48  1  0.21832029  0.54316265  0.01911459  1
  O  O49  1  0.94659883  0.14121529  0.82637093  1
  O  O50  1  0.09785031  0.49904078  0.40245665  1
  O  O51  1  0.94659883  0.35878471  0.32637093  1
  O  O52  1  0.15543882  0.31248790  0.43605156  1
  O  O53  1  0.84456118  0.68751210  0.56394844  1
  O  O54  1  0.44659883  0.14121529  0.67362907  1
  O  O55  1  0.95287715  0.03896145  0.35495360  1
  O  O56  1  0.44659883  0.35878471  0.17362907  1
  O  O57  1  0.34456118  0.81248790  0.43605156  1
  O  O58  1  0.28167971  0.04316265  0.01911459  1
  O  O59  1  0.41678654  0.54604219  0.21363420  1
  O  O60  1  0.59357949  0.79118102  0.92814286  1
  O  O61  1  0.08321346  0.04604219  0.21363420  1
  O  O62  1  0.55340117  0.64121529  0.82637093  1
  O  O63  1  0.09357949  0.70881898  0.07185714  1
  O  O64  1  0.40214969  -0.00095922  0.40245665  1
  O  O65  1  0.59357949  0.70881898  0.42814286  1
  O  O66  1  0.10663520  0.30341392  0.80900025  1
  O  O67  1  0.05340117  0.64121529  0.67362907  1
  O  O68  1  0.60663520  0.30341392  0.69099975  1
  O  O69  1  0.05340117  0.85878471  0.17362907  1
  O  O70  1  0.91678654  0.54604219  0.28636580  1
  O  O71  1  0.90214969  0.50095922  0.59754335  1
  O  O72  1  0.59785031  1.00095922  0.59754335  1
  O  O73  1  0.39336480  0.69658608  0.30900025  1
  O  O74  1  0.55340117  0.85878471  0.32637093  1
  O  O75  1  0.34456118  0.68751210  0.93605156  1
  O  O76  1  0.54712285  0.53896145  0.35495360  1
  O  O77  1  0.84456118  0.81248790  0.06394844  1
  O  O78  1  0.58321346  0.45395781  0.78636580  1
  O  O79  1  0.04712285  0.96103855  0.64504640  1
  O  O80  1  0.08321346  0.45395781  0.71363420  1
  O  O81  1  0.90642051  0.20881898  0.42814286  1
  O  O82  1  0.65543882  0.18751210  0.56394844  1
  O  O83  1  0.40642051  0.29118102  0.57185714  1
  O  O84  1  0.78167971  0.45683735  0.98088541  1
  O  O85  1  0.90642051  0.29118102  0.92814286  1
  O  O86  1  0.59785031  0.49904078  0.09754335  1
  O  O87  1  0.78167971  0.04316265  0.48088541  1
  O  O88  1  0.90214969  -0.00095922  0.09754335  1
  O  O89  1  0.45287715  0.46103855  0.64504640  1
  O  O90  1  0.71832029  0.95683735  0.98088541  1
  O  O91  1  0.40642051  0.20881898  0.07185714  1
  O  O92  1  0.71832029  0.54316265  0.48088541  1
  O  O93  1  0.09357949  0.79118102  0.57185714  1
  O  O94  1  0.89336480  0.69658608  0.19099975  1
  O  O95  1  0.41678654  0.95395781  0.71363420  1
  O  O96  1  0.54712285  0.96103855  0.85495360  1
  O  O97  1  0.65543882  0.31248790  0.06394844  1
  O  O98  1  0.58321346  0.04604219  0.28636580  1
  O  O99  1  0.60663520  0.19658608  0.19099975  1
  O  O100  1  0.04712285  0.53896145  0.14504640  1
  O  O101  1  0.89336480  0.80341392  0.69099975  1
  O  O102  1  0.28167971  0.45683735  0.51911459  1
  O  O103  1  0.40214969  0.50095922  0.90245665  1
  O  O104  1  0.15543882  0.18751210  0.93605156  1
  O  O105  1  0.10663520  0.19658608  0.30900025  1
  O  O106  1  0.09785031  1.00095922  0.90245665  1
  O  O107  1  0.39336480  0.80341392  0.80900025  1
  O  O108  1  0.91678654  0.95395781  0.78636580  1
  O  O109  1  0.95287715  0.46103855  0.85495360  1
  O  O110  1  0.45287715  0.03896145  0.14504640  1
  O  O111  1  0.21832029  0.95683735  0.51911459  1
