# generated using pymatgen
data_Cs2LaTa6(Br5O)3
_symmetry_space_group_name_H-M   'P 1'
_cell_length_a   9.66052560
_cell_length_b   9.66052593
_cell_length_c   18.71689308
_cell_angle_alpha   90.00000000
_cell_angle_beta   90.00000000
_cell_angle_gamma   119.99999888
_symmetry_Int_Tables_number   1
_chemical_formula_structural   Cs2LaTa6(Br5O)3
_chemical_formula_sum   'Cs4 La2 Ta12 Br30 O6'
_cell_volume   1512.74568256
_cell_formula_units_Z   2
loop_
 _symmetry_equiv_pos_site_id
 _symmetry_equiv_pos_as_xyz
  1  'x, y, z'
loop_
 _atom_site_type_symbol
 _atom_site_label
 _atom_site_symmetry_multiplicity
 _atom_site_fract_x
 _atom_site_fract_y
 _atom_site_fract_z
 _atom_site_occupancy
  Cs  Cs0  1  0.66666700  0.33333300  0.04483185  1
  Cs  Cs1  1  0.33333300  0.66666700  0.95516815  1
  Cs  Cs2  1  0.66666700  0.33333300  0.45516815  1
  Cs  Cs3  1  0.33333300  0.66666700  0.54483185  1
  La  La4  1  0.66666700  0.33333300  0.75000000  1
  La  La5  1  0.33333300  0.66666700  0.25000000  1
  Ta  Ta6  1  0.18829633  0.01654916  0.81194124  1
  Ta  Ta7  1  0.98345084  0.17174717  0.81194124  1
  Ta  Ta8  1  0.81170367  0.82825283  0.31194124  1
  Ta  Ta9  1  0.98345084  0.81170367  0.68805876  1
  Ta  Ta10  1  0.01654916  0.18829633  0.31194124  1
  Ta  Ta11  1  0.17174717  0.98345084  0.31194124  1
  Ta  Ta12  1  0.18829633  0.17174717  0.68805876  1
  Ta  Ta13  1  0.82825283  0.81170367  0.81194124  1
  Ta  Ta14  1  0.01654916  0.82825283  0.18805876  1
  Ta  Ta15  1  0.82825283  0.01654916  0.68805876  1
  Ta  Ta16  1  0.81170367  0.98345084  0.18805876  1
  Ta  Ta17  1  0.17174717  0.18829633  0.18805876  1
  Br  Br18  1  0.53107393  0.92487114  0.12051635  1
  Br  Br19  1  0.39379721  0.92487114  0.37948365  1
  Br  Br20  1  0.20233204  0.22085068  0.90947620  1
  Br  Br21  1  0.46892607  0.39379721  0.62051635  1
  Br  Br22  1  0.78717189  0.21282811  0.25000000  1
  Br  Br23  1  0.07512886  0.46892607  0.37948365  1
  Br  Br24  1  0.53107393  0.60620279  0.37948365  1
  Br  Br25  1  0.20233204  0.98148137  0.59052380  1
  Br  Br26  1  0.01851863  0.22085068  0.59052380  1
  Br  Br27  1  0.98148137  0.20233204  0.09052380  1
  Br  Br28  1  0.22085068  0.20233204  0.40947620  1
  Br  Br29  1  0.46892607  0.07512886  0.87948365  1
  Br  Br30  1  0.79766796  0.77914932  0.09052380  1
  Br  Br31  1  0.42565623  0.21282811  0.25000000  1
  Br  Br32  1  0.57434377  0.78717189  0.75000000  1
  Br  Br33  1  0.60620279  0.07512886  0.62051635  1
  Br  Br34  1  0.78717189  0.57434377  0.25000000  1
  Br  Br35  1  0.77914932  0.79766796  0.59052380  1
  Br  Br36  1  0.07512886  0.60620279  0.12051635  1
  Br  Br37  1  0.21282811  0.42565623  0.75000000  1
  Br  Br38  1  0.92487114  0.53107393  0.62051635  1
  Br  Br39  1  0.01851863  0.79766796  0.90947620  1
  Br  Br40  1  0.22085068  0.01851863  0.09052380  1
  Br  Br41  1  0.60620279  0.53107393  0.87948365  1
  Br  Br42  1  0.39379721  0.46892607  0.12051635  1
  Br  Br43  1  0.98148137  0.77914932  0.40947620  1
  Br  Br44  1  0.79766796  0.01851863  0.40947620  1
  Br  Br45  1  0.21282811  0.78717189  0.75000000  1
  Br  Br46  1  0.92487114  0.39379721  0.87948365  1
  Br  Br47  1  0.77914932  0.98148137  0.90947620  1
  O  O48  1  0.17988715  0.35977429  0.25000000  1
  O  O49  1  0.64022571  0.82011285  0.25000000  1
  O  O50  1  0.17988715  0.82011285  0.25000000  1
  O  O51  1  0.82011285  0.17988715  0.75000000  1
  O  O52  1  0.82011285  0.64022571  0.75000000  1
  O  O53  1  0.35977429  0.17988715  0.75000000  1
