# generated using pymatgen
data_Mg3Ga7Co2
_symmetry_space_group_name_H-M   'P 1'
_cell_length_a   6.54746601
_cell_length_b   6.54746601
_cell_length_c   9.43177162
_cell_angle_alpha   92.42293827
_cell_angle_beta   92.42293826
_cell_angle_gamma   92.19366749
_symmetry_Int_Tables_number   1
_chemical_formula_structural   Mg3Ga7Co2
_chemical_formula_sum   'Mg6 Ga14 Co4'
_cell_volume   403.28569037
_cell_formula_units_Z   2
loop_
 _symmetry_equiv_pos_site_id
 _symmetry_equiv_pos_as_xyz
  1  'x, y, z'
loop_
 _atom_site_type_symbol
 _atom_site_label
 _atom_site_symmetry_multiplicity
 _atom_site_fract_x
 _atom_site_fract_y
 _atom_site_fract_z
 _atom_site_occupancy
  Mg  Mg0  1  0.25511894  0.36031105  0.19761154  1
  Mg  Mg1  1  0.14782537  0.85217463  0.25000000  1
  Mg  Mg2  1  0.63968895  0.74488106  0.30238846  1
  Mg  Mg3  1  0.85217463  0.14782537  0.75000000  1
  Mg  Mg4  1  0.36031105  0.25511894  0.69761154  1
  Mg  Mg5  1  0.74488106  0.63968895  0.80238846  1
  Ga  Ga6  1  0.77166207  0.22833793  0.25000000  1
  Ga  Ga7  1  0.56342049  0.30683453  0.98148727  1
  Ga  Ga8  1  0.44486291  0.10897105  0.39712925  1
  Ga  Ga9  1  0.10897105  0.44486291  0.89712925  1
  Ga  Ga10  1  0.30683453  0.56342049  0.48148727  1
  Ga  Ga11  1  0.05444840  0.19050166  0.47406472  1
  Ga  Ga12  1  0.80949834  0.94555160  0.02593528  1
  Ga  Ga13  1  0.89102895  0.55513709  0.10287075  1
  Ga  Ga14  1  0.55513709  0.89102895  0.60287075  1
  Ga  Ga15  1  0.19050166  0.05444840  0.97406472  1
  Ga  Ga16  1  0.94555160  0.80949834  0.52593528  1
  Ga  Ga17  1  0.43657951  0.69316547  0.01851273  1
  Ga  Ga18  1  0.69316547  0.43657951  0.51851273  1
  Ga  Ga19  1  0.22833793  0.77166207  0.75000000  1
  Co  Co20  1  0.51591100  0.96874864  0.85503139  1
  Co  Co21  1  0.03125136  0.48408900  0.64496861  1
  Co  Co22  1  0.48408900  0.03125136  0.14496861  1
  Co  Co23  1  0.96874864  0.51591100  0.35503139  1
