# generated using pymatgen
data_LiScO2
_symmetry_space_group_name_H-M   'P 1'
_cell_length_a   4.21514763
_cell_length_b   4.21514764
_cell_length_c   5.56395963
_cell_angle_alpha   112.25876976
_cell_angle_beta   112.25876984
_cell_angle_gamma   90.00000001
_symmetry_Int_Tables_number   1
_chemical_formula_structural   LiScO2
_chemical_formula_sum   'Li2 Sc2 O4'
_cell_volume   83.47669266
_cell_formula_units_Z   2
loop_
 _symmetry_equiv_pos_site_id
 _symmetry_equiv_pos_as_xyz
  1  'x, y, z'
loop_
 _atom_site_type_symbol
 _atom_site_label
 _atom_site_symmetry_multiplicity
 _atom_site_fract_x
 _atom_site_fract_y
 _atom_site_fract_z
 _atom_site_occupancy
  Li  Li0  1  0.87500000  0.12500000  0.75000000  1
  Li  Li1  1  0.12500000  0.87500000  0.25000000  1
  O  O2  1  0.14714878  0.39714878  0.29429756  1
  O  O3  1  0.39714878  0.14714878  0.79429756  1
  O  O4  1  0.60285122  0.85285122  0.20570244  1
  O  O5  1  0.85285122  0.60285122  0.70570244  1
  Sc  Sc6  1  0.62500000  0.37500000  0.25000000  1
  Sc  Sc7  1  0.37500000  0.62500000  0.75000000  1
