# generated using pymatgen
data_CsLi(B3O5)2
_symmetry_space_group_name_H-M   'P 1'
_cell_length_a   8.80481607
_cell_length_b   8.80481607
_cell_length_c   8.80481607
_cell_angle_alpha   106.56386123
_cell_angle_beta   106.56386123
_cell_angle_gamma   115.45691696
_symmetry_Int_Tables_number   1
_chemical_formula_structural   CsLi(B3O5)2
_chemical_formula_sum   'Cs2 Li2 B12 O20'
_cell_volume   521.11344361
_cell_formula_units_Z   2
loop_
 _symmetry_equiv_pos_site_id
 _symmetry_equiv_pos_as_xyz
  1  'x, y, z'
loop_
 _atom_site_type_symbol
 _atom_site_label
 _atom_site_symmetry_multiplicity
 _atom_site_fract_x
 _atom_site_fract_y
 _atom_site_fract_z
 _atom_site_occupancy
  Cs  Cs0  1  0.75000000  0.25000000  0.50000000  1
  Cs  Cs1  1  -0.00000000  0.00000000  0.00000000  1
  Li  Li2  1  0.25000000  0.75000000  0.50000000  1
  Li  Li3  1  0.50000000  0.50000000  0.00000000  1
  B  B4  1  0.87500000  0.64454787  0.26954787  1
  B  B5  1  0.37500000  0.60545213  0.73045213  1
  B  B6  1  0.35545213  0.62500000  0.23045213  1
  B  B7  1  0.39454787  0.12500000  0.76954787  1
  B  B8  1  0.03940876  0.91941649  0.57868186  1
  B  B9  1  0.71059124  0.78927211  0.38000773  1
  B  B10  1  0.34073562  0.46072789  0.42131814  1
  B  B11  1  0.40926438  0.33058351  0.61999227  1
  B  B12  1  0.08058351  0.65926438  0.11999227  1
  B  B13  1  0.66941649  0.28940876  0.07868186  1
  B  B14  1  0.53927211  0.96059124  0.88000773  1
  B  B15  1  0.21072789  0.59073562  0.92131814  1
  O  O16  1  0.87500000  0.92159768  0.54659768  1
  O  O17  1  0.37500000  0.32840232  0.45340232  1
  O  O18  1  0.07840232  0.62500000  0.95340232  1
  O  O19  1  0.67159768  0.12500000  0.04659768  1
  O  O20  1  0.19751913  0.05900607  0.73816203  1
  O  O21  1  0.55248087  0.79064290  0.36148694  1
  O  O22  1  0.32084404  0.45935710  0.26183797  1
  O  O23  1  0.42915596  0.19099393  0.63851306  1
  O  O24  1  0.94099393  0.67915596  0.13851306  1
  O  O25  1  0.80900607  0.44751913  0.23816203  1
  O  O26  1  0.54064290  0.80248087  0.86148694  1
  O  O27  1  0.20935710  0.57084404  0.76183797  1
  O  O28  1  0.03260697  0.77619532  0.45573891  1
  O  O29  1  0.71739303  0.67313194  0.24358836  1
  O  O30  1  0.32045642  0.57686806  0.54426109  1
  O  O31  1  0.42954358  0.47380468  0.75641164  1
  O  O32  1  0.22380468  0.67954358  0.25641164  1
  O  O33  1  0.52619532  0.28260697  0.95573891  1
  O  O34  1  0.42313194  0.96739303  0.74358836  1
  O  O35  1  0.32686806  0.57045642  0.04426109  1
