# generated using pymatgen
data_CsZr6CI14
_symmetry_space_group_name_H-M   'P 1'
_cell_length_a   11.03992811
_cell_length_b   11.03992790
_cell_length_c   13.22130075
_cell_angle_alpha   90.00000000
_cell_angle_beta   90.00000000
_cell_angle_gamma   93.90787427
_symmetry_Int_Tables_number   1
_chemical_formula_structural   CsZr6CI14
_chemical_formula_sum   'Cs2 Zr12 C2 I28'
_cell_volume   1607.66561337
_cell_formula_units_Z   2
loop_
 _symmetry_equiv_pos_site_id
 _symmetry_equiv_pos_as_xyz
  1  'x, y, z'
loop_
 _atom_site_type_symbol
 _atom_site_label
 _atom_site_symmetry_multiplicity
 _atom_site_fract_x
 _atom_site_fract_y
 _atom_site_fract_z
 _atom_site_occupancy
  Cs  Cs0  1  0.00000000  0.00000000  0.00000000  1
  Cs  Cs1  1  0.50000000  0.50000000  0.50000000  1
  Zr  Zr2  1  0.66378980  0.45711977  0.89424467  1
  Zr  Zr3  1  0.83621020  0.04288023  0.39424467  1
  Zr  Zr4  1  0.45711977  0.66378980  0.89424467  1
  Zr  Zr5  1  0.62553261  0.62553261  0.09331135  1
  Zr  Zr6  1  0.04288023  0.83621020  0.39424467  1
  Zr  Zr7  1  0.87446739  0.87446739  0.59331135  1
  Zr  Zr8  1  0.33621020  0.54288023  0.10575533  1
  Zr  Zr9  1  0.12553261  0.12553261  0.40668865  1
  Zr  Zr10  1  0.54288023  0.33621020  0.10575533  1
  Zr  Zr11  1  0.95711977  0.16378980  0.60575533  1
  Zr  Zr12  1  0.16378980  0.95711977  0.60575533  1
  Zr  Zr13  1  0.37446739  0.37446739  0.90668865  1
  C  C14  1  0.50000000  0.50000000  0.00000000  1
  C  C15  1  0.00000000  0.00000000  0.50000000  1
  I  I16  1  0.46456786  0.71122096  0.24559695  1
  I  I17  1  0.35682553  0.10888234  0.50682396  1
  I  I18  1  0.21122096  0.96456786  0.25440305  1
  I  I19  1  0.14317447  0.39111766  0.00682396  1
  I  I20  1  0.89111766  0.64317447  0.49317604  1
  I  I21  1  0.53543214  0.28877904  0.75440305  1
  I  I22  1  0.71122096  0.46456786  0.24559695  1
  I  I23  1  0.03543214  0.78877904  0.74559695  1
  I  I24  1  0.34866250  0.34866250  0.25654372  1
  I  I25  1  0.15133750  0.15133750  0.75654372  1
  I  I26  1  0.28877904  0.53543214  0.75440305  1
  I  I27  1  0.78877904  0.03543214  0.74559695  1
  I  I28  1  0.10624653  0.60624653  0.25000000  1
  I  I29  1  0.60624653  0.10624653  0.25000000  1
  I  I30  1  0.25082976  0.74917024  0.00000000  1
  I  I31  1  0.24917024  0.75082976  0.50000000  1
  I  I32  1  0.65133750  0.65133750  0.74345628  1
  I  I33  1  0.84866250  0.84866250  0.24345628  1
  I  I34  1  0.89375347  0.39375347  0.75000000  1
  I  I35  1  0.64317447  0.89111766  0.49317604  1
  I  I36  1  0.85682553  0.60888234  0.99317604  1
  I  I37  1  0.39111766  0.14317447  0.00682396  1
  I  I38  1  0.96456786  0.21122096  0.25440305  1
  I  I39  1  0.39375347  0.89375347  0.75000000  1
  I  I40  1  0.74917024  0.25082976  0.00000000  1
  I  I41  1  0.60888234  0.85682553  0.99317604  1
  I  I42  1  0.75082976  0.24917024  0.50000000  1
  I  I43  1  0.10888234  0.35682553  0.50682396  1
