# generated using pymatgen
data_Nd(CoB)4
_symmetry_space_group_name_H-M   'P 1'
_cell_length_a   3.80271488
_cell_length_b   7.08032168
_cell_length_c   7.08032168
_cell_angle_alpha   90.00000000
_cell_angle_beta   90.00000000
_cell_angle_gamma   90.00000000
_symmetry_Int_Tables_number   1
_chemical_formula_structural   Nd(CoB)4
_chemical_formula_sum   'Nd2 Co8 B8'
_cell_volume   190.63372888
_cell_formula_units_Z   2
loop_
 _symmetry_equiv_pos_site_id
 _symmetry_equiv_pos_as_xyz
  1  'x, y, z'
loop_
 _atom_site_type_symbol
 _atom_site_label
 _atom_site_symmetry_multiplicity
 _atom_site_fract_x
 _atom_site_fract_y
 _atom_site_fract_z
 _atom_site_occupancy
  Nd  Nd0  1  0.25000000  0.25000000  0.25000000  1
  Nd  Nd1  1  0.75000000  0.75000000  0.75000000  1
  Co  Co2  1  0.64428966  0.13489195  0.60688527  1
  Co  Co3  1  0.14428966  0.10688527  0.86510805  1
  Co  Co4  1  0.64428966  0.36510805  0.89311473  1
  Co  Co5  1  0.35571034  0.86510805  0.39311473  1
  Co  Co6  1  0.85571034  0.89311473  0.13489195  1
  Co  Co7  1  0.35571034  0.63489195  0.10688527  1
  Co  Co8  1  0.14428966  0.39311473  0.63489195  1
  Co  Co9  1  0.85571034  0.60688527  0.36510805  1
  B  B10  1  0.85340503  0.54488010  0.08844040  1
  B  B11  1  0.85340503  0.95511990  0.41155960  1
  B  B12  1  0.35340503  0.91155960  0.04488010  1
  B  B13  1  0.14659497  0.04488010  0.58844040  1
  B  B14  1  0.14659497  0.45511990  0.91155960  1
  B  B15  1  0.64659497  0.41155960  0.54488010  1
  B  B16  1  0.64659497  0.08844040  0.95511990  1
  B  B17  1  0.35340503  0.58844040  0.45511990  1
