# generated using pymatgen
data_Na4Mn3P4O15
_symmetry_space_group_name_H-M   'P 1'
_cell_length_a   6.71912393
_cell_length_b   10.89602153
_cell_length_c   18.36566549
_cell_angle_alpha   90.00000000
_cell_angle_beta   90.00000000
_cell_angle_gamma   90.00000000
_symmetry_Int_Tables_number   1
_chemical_formula_structural   Na4Mn3P4O15
_chemical_formula_sum   'Na16 Mn12 P16 O60'
_cell_volume   1344.58194118
_cell_formula_units_Z   4
loop_
 _symmetry_equiv_pos_site_id
 _symmetry_equiv_pos_as_xyz
  1  'x, y, z'
loop_
 _atom_site_type_symbol
 _atom_site_label
 _atom_site_symmetry_multiplicity
 _atom_site_fract_x
 _atom_site_fract_y
 _atom_site_fract_z
 _atom_site_occupancy
  Na  Na0  1  0.65892279  0.75284501  0.20702871  1
  Na  Na1  1  0.32291827  0.04305536  0.96429595  1
  Na  Na2  1  0.19164256  0.02017408  0.49219413  1
  Na  Na3  1  0.69164256  0.52017408  0.00780587  1
  Na  Na4  1  0.56695545  0.72768763  0.39879290  1
  Na  Na5  1  0.65892279  0.74715499  0.70702871  1
  Na  Na6  1  0.06695545  0.27231237  0.60120710  1
  Na  Na7  1  0.15892279  0.24715499  0.79297129  1
  Na  Na8  1  0.56695545  0.77231237  0.89879290  1
  Na  Na9  1  0.32291827  0.45694464  0.46429595  1
  Na  Na10  1  0.06695545  0.22768763  0.10120710  1
  Na  Na11  1  0.82291827  0.95694464  0.03570405  1
  Na  Na12  1  0.15892279  0.25284501  0.29297129  1
  Na  Na13  1  0.82291827  0.54305536  0.53570405  1
  Na  Na14  1  0.19164256  0.47982592  0.99219413  1
  Na  Na15  1  0.69164256  0.97982592  0.50780587  1
  Mn  Mn16  1  0.40966991  0.98888343  0.64074765  1
  Mn  Mn17  1  0.39818642  0.50554923  0.66196555  1
  Mn  Mn18  1  0.40966991  0.51111657  0.14074765  1
  Mn  Mn19  1  0.67666016  0.25503293  0.23819402  1
  Mn  Mn20  1  0.89818642  0.00554923  0.83803445  1
  Mn  Mn21  1  0.90966991  0.48888343  0.85925235  1
  Mn  Mn22  1  0.90966991  0.01111657  0.35925235  1
  Mn  Mn23  1  0.17666016  0.75503293  0.26180598  1
  Mn  Mn24  1  0.67666016  0.24496707  0.73819402  1
  Mn  Mn25  1  0.89818642  0.49445077  0.33803445  1
  Mn  Mn26  1  0.39818642  0.99445077  0.16196555  1
  Mn  Mn27  1  0.17666016  0.74496707  0.76180598  1
  P  P28  1  0.35427424  0.72979305  0.55173800  1
  P  P29  1  0.41742650  0.48575606  0.82068602  1
  P  P30  1  0.40707014  0.49417999  0.29842068  1
  P  P31  1  0.54477928  0.24213472  0.06396097  1
  P  P32  1  0.35427424  0.77020695  0.05173800  1
  P  P33  1  0.85427424  0.27020695  0.44826200  1
  P  P34  1  0.91742650  0.51424394  0.17931398  1
  P  P35  1  0.40707014  0.00582001  0.79842068  1
  P  P36  1  0.90707014  0.50582001  0.70157932  1
  P  P37  1  0.91742650  0.98575606  0.67931398  1
  P  P38  1  0.04477928  0.74213472  0.43603903  1
  P  P39  1  0.41742650  0.01424394  0.32068602  1
  P  P40  1  0.85427424  0.22979305  0.94826200  1
  P  P41  1  0.90707014  0.99417999  0.20157932  1
  P  P42  1  0.04477928  0.75786528  0.93603903  1
  P  P43  1  0.54477928  0.25786528  0.56396097  1
  O  O44  1  0.44652592  0.12100957  0.26354264  1
  O  O45  1  0.71734943  0.96293395  0.15743608  1
  O  O46  1  0.08055235  0.01571606  0.14855332  1
  O  O47  1  0.89399903  0.63910798  0.42070831  1
  O  O48  1  0.93936792  0.63314979  0.94363760  1
  O  O49  1  0.62813525  0.29309813  0.48234816  1
  O  O50  1  0.59466052  0.99660811  0.37322234  1
  O  O51  1  0.44206232  0.11295490  0.74255983  1
  O  O52  1  0.09466052  0.49660811  0.12677766  1
  O  O53  1  0.21787189  0.74370168  0.38249877  1
  O  O54  1  0.72579631  0.54433542  0.13608092  1
  O  O55  1  0.94206232  0.88704510  0.25744017  1
  O  O56  1  0.93936792  0.86685021  0.44363760  1
  O  O57  1  0.12813525  0.79309813  0.01765184  1
  O  O58  1  0.58055235  0.51571606  0.35144668  1
  O  O59  1  0.94206232  0.61295490  0.75744017  1
  O  O60  1  0.88705091  0.38935787  0.75179007  1
  O  O61  1  0.94652592  0.62100957  0.23645736  1
  O  O62  1  0.44652592  0.37899043  0.76354264  1
  O  O63  1  0.38705091  0.61064213  0.24820993  1
  O  O64  1  0.21734943  0.46293395  0.34256392  1
  O  O65  1  0.71787189  0.25629832  0.61750123  1
  O  O66  1  0.89847111  0.39655789  0.22834573  1
  O  O67  1  0.90488623  0.36557575  0.96153655  1
  O  O68  1  0.62813525  0.20690187  0.98234816  1
  O  O69  1  0.43936792  0.13314979  0.55636240  1
  O  O70  1  0.33705910  0.79891766  0.13336687  1
  O  O71  1  0.83705910  0.20108234  0.86663313  1
  O  O72  1  0.89847111  0.10344211  0.72834573  1
  O  O73  1  0.83705910  0.29891766  0.36663313  1
  O  O74  1  0.98930600  0.36067207  0.48809018  1
  O  O75  1  0.09466052  0.00339189  0.62677766  1
  O  O76  1  0.59466052  0.50339189  0.87322234  1
  O  O77  1  0.39847111  0.89655789  0.27165427  1
  O  O78  1  0.48930600  0.86067207  0.01190982  1
  O  O79  1  0.21734943  0.03706605  0.84256392  1
  O  O80  1  0.72579631  0.95566458  0.63608092  1
  O  O81  1  0.48930600  0.63932793  0.51190982  1
  O  O82  1  0.94652592  0.87899043  0.73645736  1
  O  O83  1  0.38705091  0.88935787  0.74820993  1
  O  O84  1  0.39847111  0.60344211  0.77165427  1
  O  O85  1  0.58055235  0.98428394  0.85144668  1
  O  O86  1  0.33705910  0.70108234  0.63336687  1
  O  O87  1  0.71787189  0.24370168  0.11750123  1
  O  O88  1  0.98930600  0.13932793  0.98809018  1
  O  O89  1  0.40488623  0.63442425  0.03846345  1
  O  O90  1  0.90488623  0.13442425  0.46153655  1
  O  O91  1  0.43936792  0.36685021  0.05636240  1
  O  O92  1  0.44206232  0.38704510  0.24255983  1
  O  O93  1  0.22579631  0.04433542  0.36391908  1
  O  O94  1  0.08055235  0.48428394  0.64855332  1
  O  O95  1  0.40488623  0.86557575  0.53846345  1
  O  O96  1  0.89399903  0.86089202  0.92070831  1
  O  O97  1  0.71734943  0.53706605  0.65743608  1
  O  O98  1  0.22579631  0.45566458  0.86391908  1
  O  O99  1  0.39399903  0.36089202  0.57929169  1
  O  O100  1  0.88705091  0.11064213  0.25179007  1
  O  O101  1  0.12813525  0.70690187  0.51765184  1
  O  O102  1  0.39399903  0.13910798  0.07929169  1
  O  O103  1  0.21787189  0.75629832  0.88249877  1
