# generated using pymatgen
data_Ba2ZrF8
_symmetry_space_group_name_H-M   'P 1'
_cell_length_a   5.72213940
_cell_length_b   10.00261874
_cell_length_c   12.04038246
_cell_angle_alpha   90.00000000
_cell_angle_beta   90.00000000
_cell_angle_gamma   90.00000000
_symmetry_Int_Tables_number   1
_chemical_formula_structural   Ba2ZrF8
_chemical_formula_sum   'Ba8 Zr4 F32'
_cell_volume   689.14789132
_cell_formula_units_Z   4
loop_
 _symmetry_equiv_pos_site_id
 _symmetry_equiv_pos_as_xyz
  1  'x, y, z'
loop_
 _atom_site_type_symbol
 _atom_site_label
 _atom_site_symmetry_multiplicity
 _atom_site_fract_x
 _atom_site_fract_y
 _atom_site_fract_z
 _atom_site_occupancy
  F  F0  1  0.25000000  0.64137806  0.80739344  1
  F  F1  1  0.75000000  0.35862194  0.19260656  1
  F  F2  1  0.25000000  0.14137806  0.69260656  1
  F  F3  1  0.75000000  0.85862194  0.30739344  1
  F  F4  1  0.25000000  0.64355898  0.47590626  1
  F  F5  1  0.75000000  0.35644102  0.52409374  1
  F  F6  1  0.25000000  0.14355898  0.02409374  1
  F  F7  1  0.75000000  0.85644102  0.97590626  1
  F  F8  1  0.51426571  0.15433202  0.25657365  1
  F  F9  1  0.01426571  0.84566798  0.74342635  1
  F  F10  1  0.98573429  0.65433202  0.24342635  1
  F  F11  1  0.48573429  0.34566798  0.75657365  1
  F  F12  1  0.48713099  0.90532574  0.13814735  1
  F  F13  1  0.98713099  0.09467426  0.86185265  1
  F  F14  1  0.01286901  0.40532574  0.36185265  1
  F  F15  1  0.51286901  0.59467426  0.63814735  1
  F  F16  1  0.51286901  0.09467426  0.86185265  1
  F  F17  1  0.01286901  0.90532574  0.13814735  1
  F  F18  1  0.98713099  0.59467426  0.63814735  1
  F  F19  1  0.48713099  0.40532574  0.36185265  1
  F  F20  1  0.01751113  0.85379335  0.53462766  1
  F  F21  1  0.51751113  0.14620665  0.46537234  1
  F  F22  1  0.48248887  0.35379335  0.96537234  1
  F  F23  1  0.98248887  0.64620665  0.03462766  1
  F  F24  1  0.98248887  0.14620665  0.46537234  1
  F  F25  1  0.48248887  0.85379335  0.53462766  1
  F  F26  1  0.51751113  0.64620665  0.03462766  1
  F  F27  1  0.01751113  0.35379335  0.96537234  1
  F  F28  1  0.51426571  0.65433202  0.24342635  1
  F  F29  1  0.01426571  0.34566798  0.75657365  1
  F  F30  1  0.98573429  0.15433202  0.25657365  1
  F  F31  1  0.48573429  0.84566798  0.74342635  1
  Zr  Zr32  1  0.25000000  0.74131178  0.64028277  1
  Zr  Zr33  1  0.75000000  0.25868822  0.35971723  1
  Zr  Zr34  1  0.25000000  0.24131178  0.85971723  1
  Zr  Zr35  1  0.75000000  0.75868822  0.14028277  1
  Ba  Ba36  1  0.25000000  0.95238555  0.34019663  1
  Ba  Ba37  1  0.75000000  0.04761445  0.65980337  1
  Ba  Ba38  1  0.25000000  0.45238555  0.15980337  1
  Ba  Ba39  1  0.75000000  0.54761445  0.84019663  1
  Ba  Ba40  1  0.25000000  0.36231381  0.55959383  1
  Ba  Ba41  1  0.75000000  0.63768619  0.44040617  1
  Ba  Ba42  1  0.25000000  0.86231381  0.94040617  1
  Ba  Ba43  1  0.75000000  0.13768619  0.05959383  1
