# generated using pymatgen
data_Na2Ti2Si2O9
_symmetry_space_group_name_H-M   'P 1'
_cell_length_a   5.28700714
_cell_length_b   8.79768867
_cell_length_c   14.73470779
_cell_angle_alpha   90.00000000
_cell_angle_beta   90.00000000
_cell_angle_gamma   90.00000000
_symmetry_Int_Tables_number   1
_chemical_formula_structural   Na2Ti2Si2O9
_chemical_formula_sum   'Na8 Ti8 Si8 O36'
_cell_volume   685.36198817
_cell_formula_units_Z   4
loop_
 _symmetry_equiv_pos_site_id
 _symmetry_equiv_pos_as_xyz
  1  'x, y, z'
loop_
 _atom_site_type_symbol
 _atom_site_label
 _atom_site_symmetry_multiplicity
 _atom_site_fract_x
 _atom_site_fract_y
 _atom_site_fract_z
 _atom_site_occupancy
  O  O0  1  0.49192512  0.50000000  0.75000000  1
  O  O1  1  0.00807488  0.00000000  0.25000000  1
  O  O2  1  0.50807488  0.50000000  0.25000000  1
  O  O3  1  0.99192512  0.00000000  0.75000000  1
  O  O4  1  0.05947678  0.68328472  0.72200811  1
  O  O5  1  0.05947678  0.31671528  0.77799189  1
  O  O6  1  0.44052322  0.18328472  0.27799189  1
  O  O7  1  0.44052322  0.81671528  0.22200811  1
  O  O8  1  0.94052322  0.31671528  0.27799189  1
  O  O9  1  0.94052322  0.68328472  0.22200811  1
  O  O10  1  0.55947678  0.81671528  0.72200811  1
  O  O11  1  0.55947678  0.18328472  0.77799189  1
  O  O12  1  0.06440679  0.23500825  0.56689193  1
  O  O13  1  0.06440679  0.76499175  0.93310807  1
  O  O14  1  0.74059530  0.49381045  0.42607375  1
  O  O15  1  0.43559321  0.73500825  0.43310807  1
  O  O16  1  0.93559321  0.76499175  0.43310807  1
  O  O17  1  0.93559321  0.23500825  0.06689193  1
  O  O18  1  0.56440679  0.26499175  0.56689193  1
  O  O19  1  0.56440679  0.73500825  0.93310807  1
  O  O20  1  0.25940470  0.50618955  0.57392625  1
  O  O21  1  0.25940470  0.49381045  0.92607375  1
  O  O22  1  0.24059530  0.00618955  0.42607375  1
  O  O23  1  0.24059530  0.99381045  0.07392625  1
  O  O24  1  0.79894543  0.83480615  0.08392177  1
  O  O25  1  0.79894543  0.16519385  0.41607823  1
  O  O26  1  0.70105457  0.33480615  0.91607823  1
  O  O27  1  0.70105457  0.66519385  0.58392177  1
  O  O28  1  0.20105457  0.16519385  0.91607823  1
  O  O29  1  0.20105457  0.83480615  0.58392177  1
  O  O30  1  0.29894543  0.66519385  0.08392177  1
  O  O31  1  0.29894543  0.33480615  0.41607823  1
  O  O32  1  0.75940470  0.00618955  0.92607375  1
  O  O33  1  0.75940470  0.99381045  0.57392625  1
  O  O34  1  0.74059530  0.50618955  0.07392625  1
  O  O35  1  0.43559321  0.26499175  0.06689193  1
  Na  Na36  1  0.85940517  0.43668710  0.65434270  1
  Na  Na37  1  0.85940517  0.56331290  0.84565730  1
  Na  Na38  1  0.64059483  0.93668710  0.34565730  1
  Na  Na39  1  0.64059483  0.06331290  0.15434270  1
  Na  Na40  1  0.14059483  0.56331290  0.34565730  1
  Na  Na41  1  0.14059483  0.43668710  0.15434270  1
  Na  Na42  1  0.35940517  0.06331290  0.65434270  1
  Na  Na43  1  0.35940517  0.93668710  0.84565730  1
  Si  Si44  1  0.30019742  0.34197472  0.52651798  1
  Si  Si45  1  0.30019742  0.65802528  0.97348202  1
  Si  Si46  1  0.19980258  0.84197472  0.47348202  1
  Si  Si47  1  0.19980258  0.15802528  0.02651798  1
  Si  Si48  1  0.69980258  0.65802528  0.47348202  1
  Si  Si49  1  0.69980258  0.34197472  0.02651798  1
  Si  Si50  1  0.80019742  0.15802528  0.52651798  1
  Si  Si51  1  0.80019742  0.84197472  0.97348202  1
  Ti  Ti52  1  0.36980779  0.65035360  0.66891338  1
  Ti  Ti53  1  0.36980779  0.34964640  0.83108662  1
  Ti  Ti54  1  0.13019221  0.15035360  0.33108662  1
  Ti  Ti55  1  0.13019221  0.84964640  0.16891338  1
  Ti  Ti56  1  0.63019221  0.34964640  0.33108662  1
  Ti  Ti57  1  0.63019221  0.65035360  0.16891338  1
  Ti  Ti58  1  0.86980779  0.84964640  0.66891338  1
  Ti  Ti59  1  0.86980779  0.15035360  0.83108662  1
