# generated using pymatgen
data_Li3MnCoO5
_symmetry_space_group_name_H-M   'P 1'
_cell_length_a   2.92074393
_cell_length_b   9.89450219
_cell_length_c   6.52598003
_cell_angle_alpha   79.98653013
_cell_angle_beta   77.06895331
_cell_angle_gamma   89.99999567
_symmetry_Int_Tables_number   1
_chemical_formula_structural   Li3MnCoO5
_chemical_formula_sum   'Li6 Mn2 Co2 O10'
_cell_volume   180.86465403
_cell_formula_units_Z   2
loop_
 _symmetry_equiv_pos_site_id
 _symmetry_equiv_pos_as_xyz
  1  'x, y, z'
loop_
 _atom_site_type_symbol
 _atom_site_label
 _atom_site_symmetry_multiplicity
 _atom_site_fract_x
 _atom_site_fract_y
 _atom_site_fract_z
 _atom_site_occupancy
  Li  Li0  1  0.49803816  0.50888625  0.00392368  1
  Li  Li1  1  0.29416821  0.88406582  0.41166359  1
  Li  Li2  1  0.11258647  0.32145664  0.77482706  1
  Li  Li3  1  0.89373982  0.68367552  0.21252037  1
  Li  Li4  1  0.70271597  0.10851318  0.59456806  1
  Li  Li5  1  0.79841440  0.40129699  0.40317120  1
  Mn  Mn6  1  0.00064309  0.00124962  -0.00128619  1
  Mn  Mn7  1  0.39481082  0.20530550  0.21037836  1
  Co  Co8  1  0.60214649  0.79268880  0.79570701  1
  Co  Co9  1  0.21004944  0.58895910  0.57990112  1
  O  O10  1  0.74553079  0.74807349  0.50893842  1
  O  O11  1  0.53973866  0.13214671  0.92052267  1
  O  O12  1  0.34473922  0.55270012  0.31052156  1
  O  O13  1  0.13738088  0.94514145  0.72523824  1
  O  O14  1  0.94525286  0.32499208  0.10949427  1
  O  O15  1  0.26093028  0.24104715  0.47813944  1
  O  O16  1  0.05317240  0.66211656  0.89365520  1
  O  O17  1  0.86218037  0.06312609  0.27563926  1
  O  O18  1  0.64815391  0.46016821  0.70369219  1
  O  O19  1  0.45560776  0.87439072  0.08878449  1
