# generated using pymatgen
data_LiGaO2
_symmetry_space_group_name_H-M   'P 1'
_cell_length_a   5.09411159
_cell_length_b   5.46649998
_cell_length_c   6.45705077
_cell_angle_alpha   90.00000000
_cell_angle_beta   90.00000000
_cell_angle_gamma   90.00000000
_symmetry_Int_Tables_number   1
_chemical_formula_structural   LiGaO2
_chemical_formula_sum   'Li4 Ga4 O8'
_cell_volume   179.80924035
_cell_formula_units_Z   4
loop_
 _symmetry_equiv_pos_site_id
 _symmetry_equiv_pos_as_xyz
  1  'x, y, z'
loop_
 _atom_site_type_symbol
 _atom_site_label
 _atom_site_symmetry_multiplicity
 _atom_site_fract_x
 _atom_site_fract_y
 _atom_site_fract_z
 _atom_site_occupancy
  Li  Li0  1  0.00014644  0.58233660  0.87562180  1
  Li  Li1  1  0.50014644  0.91766340  0.37562180  1
  Li  Li2  1  0.00014644  0.08233660  0.62437820  1
  Li  Li3  1  0.50014644  0.41766340  0.12437820  1
  O  O4  1  0.37258962  0.06883582  0.11246384  1
  O  O5  1  0.37258962  0.56883582  0.38753616  1
  O  O6  1  0.87258962  0.93116418  0.88753616  1
  O  O7  1  0.87258962  0.43116418  0.61246384  1
  O  O8  1  0.89590730  0.40722640  0.13821274  1
  O  O9  1  0.39590730  0.59277360  0.86178726  1
  O  O10  1  0.39590730  0.09277360  0.63821274  1
  O  O11  1  0.89590730  0.90722640  0.36178726  1
  Ga  Ga12  1  0.00455664  0.58107058  0.37386574  1
  Ga  Ga13  1  0.50455664  0.41892942  0.62613426  1
  Ga  Ga14  1  0.50455664  0.91892942  0.87386574  1
  Ga  Ga15  1  0.00455664  0.08107058  0.12613426  1
