# generated using pymatgen
data_TmPO4
_symmetry_space_group_name_H-M   'P 1'
_cell_length_a   5.71330132
_cell_length_b   5.71330133
_cell_length_c   5.71330133
_cell_angle_alpha   105.97295629
_cell_angle_beta   105.97295622
_cell_angle_gamma   116.72012630
_symmetry_Int_Tables_number   1
_chemical_formula_structural   TmPO4
_chemical_formula_sum   'Tm2 P2 O8'
_cell_volume   141.81777644
_cell_formula_units_Z   2
loop_
 _symmetry_equiv_pos_site_id
 _symmetry_equiv_pos_as_xyz
  1  'x, y, z'
loop_
 _atom_site_type_symbol
 _atom_site_label
 _atom_site_symmetry_multiplicity
 _atom_site_fract_x
 _atom_site_fract_y
 _atom_site_fract_z
 _atom_site_occupancy
  O  O0  1  0.78763204  0.36178754  0.07415550  1
  O  O1  1  0.71347654  0.78763204  0.92584450  1
  O  O2  1  0.36178754  0.78763204  0.57415550  1
  O  O3  1  0.78763204  0.71347654  0.42584450  1
  O  O4  1  0.28652346  0.21236796  0.07415550  1
  O  O5  1  0.21236796  0.63821246  0.92584450  1
  O  O6  1  0.21236796  0.28652346  0.57415550  1
  O  O7  1  0.63821246  0.21236796  0.42584450  1
  P  P8  1  0.37500000  0.62500000  0.75000000  1
  P  P9  1  0.62500000  0.37500000  0.25000000  1
  Tm  Tm10  1  0.12500000  0.87500000  0.25000000  1
  Tm  Tm11  1  0.87500000  0.12500000  0.75000000  1
