# generated using pymatgen
data_BaCa4(CoN2)2
_symmetry_space_group_name_H-M   'P 1'
_cell_length_a   8.37600696
_cell_length_b   8.37600696
_cell_length_c   12.10941983
_cell_angle_alpha   90.00000000
_cell_angle_beta   90.00000000
_cell_angle_gamma   90.00000000
_symmetry_Int_Tables_number   1
_chemical_formula_structural   BaCa4(CoN2)2
_chemical_formula_sum   'Ba4 Ca16 Co8 N16'
_cell_volume   849.56653204
_cell_formula_units_Z   4
loop_
 _symmetry_equiv_pos_site_id
 _symmetry_equiv_pos_as_xyz
  1  'x, y, z'
loop_
 _atom_site_type_symbol
 _atom_site_label
 _atom_site_symmetry_multiplicity
 _atom_site_fract_x
 _atom_site_fract_y
 _atom_site_fract_z
 _atom_site_occupancy
  Ba  Ba0  1  0.75000000  0.75000000  0.34219937  1
  Ba  Ba1  1  0.25000000  0.25000000  0.65780063  1
  Ba  Ba2  1  0.75000000  0.75000000  0.84219937  1
  Ba  Ba3  1  0.25000000  0.25000000  0.15780063  1
  Ca  Ca4  1  0.86940378  0.08378149  0.09554126  1
  Ca  Ca5  1  0.13059622  0.58378149  0.40445874  1
  Ca  Ca6  1  0.08378149  0.86940378  0.59554126  1
  Ca  Ca7  1  0.13059622  0.91621851  0.90445874  1
  Ca  Ca8  1  0.91621851  0.13059622  0.40445874  1
  Ca  Ca9  1  0.86940378  0.41621851  0.59554126  1
  Ca  Ca10  1  0.58378149  0.13059622  0.90445874  1
  Ca  Ca11  1  0.58378149  0.36940378  0.40445874  1
  Ca  Ca12  1  0.08378149  0.63059622  0.09554126  1
  Ca  Ca13  1  0.36940378  0.58378149  0.90445874  1
  Ca  Ca14  1  0.41621851  0.63059622  0.59554126  1
  Ca  Ca15  1  0.41621851  0.86940378  0.09554126  1
  Ca  Ca16  1  0.91621851  0.36940378  0.90445874  1
  Ca  Ca17  1  0.36940378  0.91621851  0.40445874  1
  Ca  Ca18  1  0.63059622  0.41621851  0.09554126  1
  Ca  Ca19  1  0.63059622  0.08378149  0.59554126  1
  Co  Co20  1  0.40613172  0.59386828  0.25000000  1
  Co  Co21  1  0.90613172  0.09386828  0.75000000  1
  Co  Co22  1  0.09386828  0.59386828  0.75000000  1
  Co  Co23  1  0.59386828  0.40613172  0.75000000  1
  Co  Co24  1  0.90613172  0.40613172  0.25000000  1
  Co  Co25  1  0.59386828  0.09386828  0.25000000  1
  Co  Co26  1  0.09386828  0.90613172  0.25000000  1
  Co  Co27  1  0.40613172  0.90613172  0.75000000  1
  N  N28  1  0.87273028  0.43118488  0.39504715  1
  N  N29  1  0.62726972  0.43118488  0.89504715  1
  N  N30  1  0.93118488  0.37273028  0.10495285  1
  N  N31  1  0.62726972  0.06881512  0.39504715  1
  N  N32  1  0.56881512  0.37273028  0.60495285  1
  N  N33  1  0.06881512  0.62726972  0.89504715  1
  N  N34  1  0.37273028  0.93118488  0.60495285  1
  N  N35  1  0.12726972  0.93118488  0.10495285  1
  N  N36  1  0.37273028  0.56881512  0.10495285  1
  N  N37  1  0.12726972  0.56881512  0.60495285  1
  N  N38  1  0.87273028  0.06881512  0.89504715  1
  N  N39  1  0.06881512  0.87273028  0.39504715  1
  N  N40  1  0.43118488  0.87273028  0.89504715  1
  N  N41  1  0.43118488  0.62726972  0.39504715  1
  N  N42  1  0.56881512  0.12726972  0.10495285  1
  N  N43  1  0.93118488  0.12726972  0.60495285  1
