# generated using pymatgen
data_Mg(FeO2)2
_symmetry_space_group_name_H-M   'P 1'
_cell_length_a   6.04878958
_cell_length_b   6.04878922
_cell_length_c   6.04878941
_cell_angle_alpha   59.99999902
_cell_angle_beta   60.00000098
_cell_angle_gamma   59.99999872
_symmetry_Int_Tables_number   1
_chemical_formula_structural   Mg(FeO2)2
_chemical_formula_sum   'Mg2 Fe4 O8'
_cell_volume   156.49136929
_cell_formula_units_Z   2
loop_
 _symmetry_equiv_pos_site_id
 _symmetry_equiv_pos_as_xyz
  1  'x, y, z'
loop_
 _atom_site_type_symbol
 _atom_site_label
 _atom_site_symmetry_multiplicity
 _atom_site_fract_x
 _atom_site_fract_y
 _atom_site_fract_z
 _atom_site_occupancy
  Mg  Mg0  1  0.12500000  0.12500000  0.12500000  1
  Mg  Mg1  1  0.87500000  0.87500000  0.87500000  1
  Fe  Fe2  1  0.50000000  0.50000000  0.00000000  1
  Fe  Fe3  1  0.50000000  0.50000000  0.50000000  1
  Fe  Fe4  1  0.00000000  0.50000000  0.50000000  1
  Fe  Fe5  1  0.50000000  0.00000000  0.50000000  1
  O  O6  1  0.73991025  0.73991025  0.73991025  1
  O  O7  1  0.26008975  0.26008975  0.71973174  1
  O  O8  1  0.26008975  0.71973174  0.26008975  1
  O  O9  1  0.71973174  0.26008975  0.26008975  1
  O  O10  1  0.73991025  0.28026826  0.73991025  1
  O  O11  1  0.28026826  0.73991025  0.73991025  1
  O  O12  1  0.26008975  0.26008975  0.26008975  1
  O  O13  1  0.73991025  0.73991025  0.28026826  1
