# generated using pymatgen
data_Li3MnCoO5
_symmetry_space_group_name_H-M   'P 1'
_cell_length_a   2.90600985
_cell_length_b   5.93717359
_cell_length_c   10.76636124
_cell_angle_alpha   82.58820444
_cell_angle_beta   82.24382047
_cell_angle_gamma   90.00000527
_symmetry_Int_Tables_number   1
_chemical_formula_structural   Li3MnCoO5
_chemical_formula_sum   'Li6 Mn2 Co2 O10'
_cell_volume   182.49129810
_cell_formula_units_Z   2
loop_
 _symmetry_equiv_pos_site_id
 _symmetry_equiv_pos_as_xyz
  1  'x, y, z'
loop_
 _atom_site_type_symbol
 _atom_site_label
 _atom_site_symmetry_multiplicity
 _atom_site_fract_x
 _atom_site_fract_y
 _atom_site_fract_z
 _atom_site_occupancy
  Li  Li0  1  0.80000000  0.90000000  0.40000000  1
  Li  Li1  1  0.60521258  0.30636476  0.78957485  1
  Li  Li2  1  0.39093221  0.68186499  0.21813559  1
  Li  Li3  1  0.20906779  0.11813501  0.58186441  1
  Li  Li4  1  0.99478742  0.49363524  0.01042515  1
  Li  Li5  1  0.80000000  0.40000000  0.40000000  1
  Mn  Mn6  1  0.99872850  0.00154365  0.00254301  1
  Mn  Mn7  1  0.60127150  0.79845635  0.79745699  1
  Co  Co8  1  0.38866187  0.20884465  0.22267625  1
  Co  Co9  1  0.21133813  0.59115535  0.57732375  1
  O  O10  1  0.69656453  0.36367946  0.60687093  1
  O  O11  1  0.50520089  0.77924437  0.98959822  1
  O  O12  1  0.30490912  0.14586254  0.39018176  1
  O  O13  1  0.09595979  0.58183350  0.80808043  1
  O  O14  1  0.91087165  0.96671260  0.17825671  1
  O  O15  1  0.90343547  0.43632054  0.19312907  1
  O  O16  1  0.68912835  0.83328740  0.62174329  1
  O  O17  1  0.50404021  0.21816650  0.99191957  1
  O  O18  1  0.29509088  0.65413746  0.40981824  1
  O  O19  1  0.09479911  0.02075563  0.81040178  1
