# generated using pymatgen
data_NiAs3H3OF18
_symmetry_space_group_name_H-M   'P 1'
_cell_length_a   9.57516353
_cell_length_b   10.42860630
_cell_length_c   14.04655963
_cell_angle_alpha   90.00000000
_cell_angle_beta   90.00000000
_cell_angle_gamma   90.00000000
_symmetry_Int_Tables_number   1
_chemical_formula_structural   NiAs3H3OF18
_chemical_formula_sum   'Ni4 As12 H12 O4 F72'
_cell_volume   1402.62779026
_cell_formula_units_Z   4
loop_
 _symmetry_equiv_pos_site_id
 _symmetry_equiv_pos_as_xyz
  1  'x, y, z'
loop_
 _atom_site_type_symbol
 _atom_site_label
 _atom_site_symmetry_multiplicity
 _atom_site_fract_x
 _atom_site_fract_y
 _atom_site_fract_z
 _atom_site_occupancy
  Ni  Ni0  1  0.50000000  0.50000000  0.50000000  1
  Ni  Ni1  1  0.50000000  0.50000000  0.00000000  1
  Ni  Ni2  1  0.00000000  0.00000000  0.50000000  1
  Ni  Ni3  1  0.00000000  0.00000000  0.00000000  1
  As  As4  1  0.19690001  0.70519036  0.55056277  1
  As  As5  1  0.80309999  0.29480964  0.44943723  1
  As  As6  1  0.80309999  0.29480964  0.05056277  1
  As  As7  1  0.19690001  0.70519036  0.94943723  1
  As  As8  1  0.39070418  0.47786916  0.25000000  1
  As  As9  1  0.30309999  0.20519036  0.55056277  1
  As  As10  1  0.69690001  0.79480964  0.05056277  1
  As  As11  1  0.89070418  0.02213084  0.75000000  1
  As  As12  1  0.69690001  0.79480964  0.44943723  1
  As  As13  1  0.60929582  0.52213084  0.75000000  1
  As  As14  1  0.10929582  0.97786916  0.25000000  1
  As  As15  1  0.30309999  0.20519036  0.94943723  1
  H  H16  1  0.97859425  0.62328475  0.19274350  1
  H  H17  1  0.47859425  0.87671525  0.69274350  1
  H  H18  1  0.47859425  0.87671525  0.80725650  1
  H  H19  1  0.40100702  0.99335829  0.75000000  1
  H  H20  1  0.97859425  0.62328475  0.30725650  1
  H  H21  1  0.59899298  0.00664171  0.25000000  1
  H  H22  1  0.52140575  0.12328475  0.30725650  1
  H  H23  1  0.09899298  0.49335829  0.75000000  1
  H  H24  1  0.02140575  0.37671525  0.69274350  1
  H  H25  1  0.90100702  0.50664171  0.25000000  1
  H  H26  1  0.02140575  0.37671525  0.80725650  1
  H  H27  1  0.52140575  0.12328475  0.19274350  1
  O  O28  1  0.52031172  0.06854391  0.25000000  1
  O  O29  1  0.02031172  0.43145609  0.75000000  1
  O  O30  1  0.97968828  0.56854391  0.25000000  1
  O  O31  1  0.47968828  0.93145609  0.75000000  1
  F  F32  1  0.40051109  0.12179348  0.63659362  1
  F  F33  1  0.11133070  0.97563725  0.11954382  1
  F  F34  1  0.79483472  0.71279929  0.96606442  1
  F  F35  1  0.67164047  0.42149048  0.44017632  1
  F  F36  1  0.56193231  0.67208101  0.05014832  1
  F  F37  1  0.88866930  0.02436275  0.88045618  1
  F  F38  1  0.28429069  0.78853202  0.85786381  1
  F  F39  1  0.71956338  0.07643024  0.75000000  1
  F  F40  1  0.61133070  0.52436275  0.61954382  1
  F  F41  1  0.05186024  0.81605507  0.25000000  1
  F  F42  1  0.78429069  0.71146798  0.35786381  1
  F  F43  1  0.78429069  0.71146798  0.14213619  1
  F  F44  1  0.09948891  0.62179348  0.86340638  1
  F  F45  1  0.90051109  0.37820652  0.36340638  1
  F  F46  1  0.21570931  0.28853202  0.64213619  1
  F  F47  1  0.43427817  0.47345976  0.75000000  1
  F  F48  1  0.94813976  0.18394493  0.75000000  1
  F  F49  1  0.89071366  0.37849554  0.53962851  1
  F  F50  1  0.71570931  0.21146798  0.35786381  1
  F  F51  1  0.43806769  0.32791899  0.55014832  1
  F  F52  1  0.93427817  0.02654024  0.25000000  1
  F  F53  1  0.82835953  0.92149048  0.44017632  1
  F  F54  1  0.21956338  0.42356976  0.25000000  1
  F  F55  1  0.78043662  0.57643024  0.75000000  1
  F  F56  1  0.43806769  0.32791899  0.94985168  1
  F  F57  1  0.33453287  0.63651764  0.25000000  1
  F  F58  1  0.89071366  0.37849554  0.96037149  1
  F  F59  1  0.06572183  0.97345976  0.75000000  1
  F  F60  1  0.21570931  0.28853202  0.85786381  1
  F  F61  1  0.67164047  0.42149048  0.05982368  1
  F  F62  1  0.09948891  0.62179348  0.63659362  1
  F  F63  1  0.11133070  0.97563725  0.38045618  1
  F  F64  1  0.93806769  0.17208101  0.05014832  1
  F  F65  1  0.61133070  0.52436275  0.88045618  1
  F  F66  1  0.28429069  0.78853202  0.64213619  1
  F  F67  1  0.88866930  0.02436275  0.61954382  1
  F  F68  1  0.79483472  0.71279929  0.53393558  1
  F  F69  1  0.66546713  0.36348236  0.75000000  1
  F  F70  1  0.40051109  0.12179348  0.86340638  1
  F  F71  1  0.20516528  0.28720071  0.03393558  1
  F  F72  1  0.70516528  0.21279929  0.96606442  1
  F  F73  1  0.29483472  0.78720071  0.03393558  1
  F  F74  1  0.38866930  0.47563725  0.38045618  1
  F  F75  1  0.20516528  0.28720071  0.46606442  1
  F  F76  1  0.06193231  0.82791899  0.55014832  1
  F  F77  1  0.32835953  0.57850952  0.55982368  1
  F  F78  1  0.38866930  0.47563725  0.11954382  1
  F  F79  1  0.10928634  0.62150446  0.03962851  1
  F  F80  1  0.59948891  0.87820652  0.13659362  1
  F  F81  1  0.90051109  0.37820652  0.13659362  1
  F  F82  1  0.60928634  0.87849554  0.53962851  1
  F  F83  1  0.17164047  0.07850952  0.55982368  1
  F  F84  1  0.56193231  0.67208101  0.44985168  1
  F  F85  1  0.39071366  0.12150446  0.46037149  1
  F  F86  1  0.71570931  0.21146798  0.14213619  1
  F  F87  1  0.59948891  0.87820652  0.36340638  1
  F  F88  1  0.17164047  0.07850952  0.94017632  1
  F  F89  1  0.60928634  0.87849554  0.96037149  1
  F  F90  1  0.10928634  0.62150446  0.46037149  1
  F  F91  1  0.44813976  0.31605507  0.25000000  1
  F  F92  1  0.93806769  0.17208101  0.44985168  1
  F  F93  1  0.83453287  0.86348236  0.75000000  1
  F  F94  1  0.28043662  0.92356976  0.25000000  1
  F  F95  1  0.29483472  0.78720071  0.46606442  1
  F  F96  1  0.32835953  0.57850952  0.94017632  1
  F  F97  1  0.39071366  0.12150446  0.03962851  1
  F  F98  1  0.06193231  0.82791899  0.94985168  1
  F  F99  1  0.16546713  0.13651764  0.25000000  1
  F  F100  1  0.82835953  0.92149048  0.05982368  1
  F  F101  1  0.56572183  0.52654024  0.25000000  1
  F  F102  1  0.55186024  0.68394493  0.75000000  1
  F  F103  1  0.70516528  0.21279929  0.53393558  1
