# generated using pymatgen
data_Ca3InP3
_symmetry_space_group_name_H-M   'P 1'
_cell_length_a   4.15886839
_cell_length_b   12.12151715
_cell_length_c   13.59512350
_cell_angle_alpha   89.99898672
_cell_angle_beta   90.00670945
_cell_angle_gamma   90.01043457
_symmetry_Int_Tables_number   1
_chemical_formula_structural   Ca3InP3
_chemical_formula_sum   'Ca12 In4 P12'
_cell_volume   685.35455542
_cell_formula_units_Z   4
loop_
 _symmetry_equiv_pos_site_id
 _symmetry_equiv_pos_as_xyz
  1  'x, y, z'
loop_
 _atom_site_type_symbol
 _atom_site_label
 _atom_site_symmetry_multiplicity
 _atom_site_fract_x
 _atom_site_fract_y
 _atom_site_fract_z
 _atom_site_occupancy
  Ca  Ca0  1  0.25020345  0.34708590  0.00443533  1
  Ca  Ca1  1  0.25035754  0.26808849  0.28883136  1
  Ca  Ca2  1  0.25009810  0.84722122  0.49554494  1
  Ca  Ca3  1  0.75042721  0.15271311  0.50439161  1
  Ca  Ca4  1  0.75037219  0.65270866  0.99576706  1
  Ca  Ca5  1  0.74956543  0.93450628  0.89731852  1
  Ca  Ca6  1  0.74992182  0.43461959  0.60267554  1
  Ca  Ca7  1  0.25006978  0.06544472  0.10248741  1
  Ca  Ca8  1  0.75014327  0.73186648  0.71103291  1
  Ca  Ca9  1  0.75003343  0.23166083  0.78879827  1
  Ca  Ca10  1  0.25013552  0.56535073  0.39725810  1
  Ca  Ca11  1  0.25028230  0.76823623  0.21129899  1
  In  In12  1  0.74951720  0.94819016  0.30032219  1
  In  In13  1  0.25010426  0.55201085  0.80037664  1
  In  In14  1  0.24936745  0.05184738  0.69958707  1
  In  In15  1  0.74986408  0.44823829  0.19973354  1
  P  P16  1  0.75007159  0.44898914  0.86737669  1
  P  P17  1  0.24940504  0.05104179  0.36753128  1
  P  P18  1  0.74962977  0.74613676  0.37193802  1
  P  P19  1  0.25017122  0.75395052  0.87179041  1
  P  P20  1  0.75031266  0.89538206  0.11349477  1
  P  P21  1  0.75033120  0.39520368  0.38640203  1
  P  P22  1  0.74971131  0.24625120  0.12822774  1
  P  P23  1  0.25039081  0.10464257  0.88647684  1
  P  P24  1  0.25043514  0.25393014  0.62814495  1
  P  P25  1  0.74917031  0.94887482  0.63256546  1
  P  P26  1  0.25019807  0.60465656  0.61346985  1
  P  P27  1  0.24970986  0.55115184  0.13272247  1
