# generated using pymatgen
data_TlSnPS4
_symmetry_space_group_name_H-M   'P 1'
_cell_length_a   6.79843854
_cell_length_b   8.95834409
_cell_length_c   12.22810690
_cell_angle_alpha   90.00000000
_cell_angle_beta   90.00000000
_cell_angle_gamma   90.00000000
_symmetry_Int_Tables_number   1
_chemical_formula_structural   TlSnPS4
_chemical_formula_sum   'Tl4 Sn4 P4 S16'
_cell_volume   744.72535849
_cell_formula_units_Z   4
loop_
 _symmetry_equiv_pos_site_id
 _symmetry_equiv_pos_as_xyz
  1  'x, y, z'
loop_
 _atom_site_type_symbol
 _atom_site_label
 _atom_site_symmetry_multiplicity
 _atom_site_fract_x
 _atom_site_fract_y
 _atom_site_fract_z
 _atom_site_occupancy
  P  P0  1  0.97649986  0.13124372  0.15485058  1
  P  P1  1  0.47649986  0.86875628  0.84514942  1
  P  P2  1  0.97649986  0.36875628  0.65485058  1
  P  P3  1  0.47649986  0.63124372  0.34514942  1
  S  S4  1  0.99330878  0.19668834  0.54267067  1
  S  S5  1  0.49330878  0.80331166  0.45732933  1
  S  S6  1  0.99330878  0.30331166  0.04267067  1
  S  S7  1  0.49330878  0.69668834  0.95732933  1
  S  S8  1  0.72417749  0.86658485  0.74857791  1
  S  S9  1  0.22417749  0.13341515  0.25142209  1
  S  S10  1  0.72417749  0.63341515  0.24857791  1
  S  S11  1  0.22417749  0.36658485  0.75142209  1
  S  S12  1  0.95131551  0.93142724  0.07032857  1
  S  S13  1  0.45131551  0.06857276  0.92967143  1
  S  S14  1  0.95131551  0.56857276  0.57032857  1
  S  S15  1  0.45131551  0.43142724  0.42967143  1
  S  S16  1  0.24133057  0.84384281  0.74370985  1
  S  S17  1  0.74133057  0.15615719  0.25629015  1
  S  S18  1  0.24133057  0.65615719  0.24370985  1
  S  S19  1  0.74133057  0.34384281  0.75629015  1
  Sn  Sn20  1  0.04714786  0.11458567  0.87063888  1
  Sn  Sn21  1  0.54714786  0.88541433  0.12936112  1
  Sn  Sn22  1  0.04714786  0.38541433  0.37063888  1
  Sn  Sn23  1  0.54714786  0.61458567  0.62936112  1
  Tl  Tl24  1  0.99761993  0.63212386  0.89014499  1
  Tl  Tl25  1  0.49761993  0.36787614  0.10985501  1
  Tl  Tl26  1  0.99761993  0.86787614  0.39014499  1
  Tl  Tl27  1  0.49761993  0.13212386  0.60985501  1
