# generated using pymatgen
data_LiZr3H18N4F19
_symmetry_space_group_name_H-M   'P 1'
_cell_length_a   11.56922281
_cell_length_b   12.82793219
_cell_length_c   13.33996325
_cell_angle_alpha   90.00000000
_cell_angle_beta   90.00000000
_cell_angle_gamma   110.56774332
_symmetry_Int_Tables_number   1
_chemical_formula_structural   LiZr3H18N4F19
_chemical_formula_sum   'Li4 Zr12 H72 N16 F76'
_cell_volume   1853.57758646
_cell_formula_units_Z   4
loop_
 _symmetry_equiv_pos_site_id
 _symmetry_equiv_pos_as_xyz
  1  'x, y, z'
loop_
 _atom_site_type_symbol
 _atom_site_label
 _atom_site_symmetry_multiplicity
 _atom_site_fract_x
 _atom_site_fract_y
 _atom_site_fract_z
 _atom_site_occupancy
  Li  Li0  1  0.75138887  0.24748660  0.87736153  1
  Li  Li1  1  0.74861113  0.25251340  0.37736153  1
  Li  Li2  1  0.25138887  0.74748660  0.62263847  1
  Li  Li3  1  0.24861113  0.75251340  0.12263847  1
  Zr  Zr4  1  0.41696704  0.76107303  0.87363936  1
  Zr  Zr5  1  0.22830444  0.25094404  0.62577081  1
  Zr  Zr6  1  0.27169556  0.24905596  0.12577081  1
  Zr  Zr7  1  0.72830444  0.75094404  0.87422919  1
  Zr  Zr8  1  0.08737565  0.73499989  0.87341130  1
  Zr  Zr9  1  0.91696704  0.26107303  0.62636064  1
  Zr  Zr10  1  0.08303296  0.73892697  0.37363936  1
  Zr  Zr11  1  0.58737565  0.23499989  0.62658870  1
  Zr  Zr12  1  0.91262435  0.26500011  0.12658870  1
  Zr  Zr13  1  0.77169556  0.74905596  0.37422919  1
  Zr  Zr14  1  0.41262435  0.76500011  0.37341130  1
  Zr  Zr15  1  0.58303296  0.23892697  0.12636064  1
  H  H16  1  0.92034167  0.00962549  0.37986263  1
  H  H17  1  0.94579648  0.99472770  0.86866318  1
  H  H18  1  0.43835223  0.11373861  0.40689915  1
  H  H19  1  0.56923685  0.35716595  0.88253352  1
  H  H20  1  0.45954619  0.39815831  0.43626033  1
  H  H21  1  0.82693897  0.60442358  0.56543739  1
  H  H22  1  0.04220499  0.10440012  0.43709542  1
  H  H23  1  0.13309483  0.52158452  0.12436240  1
  H  H24  1  0.68006596  0.01151061  0.12971639  1
  H  H25  1  0.93529255  0.61156048  0.65140477  1
  H  H26  1  0.31993404  0.98848939  0.87028361  1
  H  H27  1  0.28869965  0.09264700  0.81158632  1
  H  H28  1  0.07965833  0.99037451  0.62013737  1
  H  H29  1  0.96116773  0.89055308  0.18914482  1
  H  H30  1  0.06470745  0.38843952  0.34859523  1
  H  H31  1  0.79199868  0.59493532  0.05476910  1
  H  H32  1  0.18006596  0.51151061  0.37028361  1
  H  H33  1  0.93835223  0.61373861  0.09310085  1
  H  H34  1  0.54220499  0.60440012  0.06290458  1
  H  H35  1  0.43076315  0.64283405  0.11746648  1
  H  H36  1  0.95954619  0.89815831  0.06373967  1
  H  H37  1  0.17769696  0.50716154  0.88145575  1
  H  H38  1  0.42034167  0.50962549  0.12013737  1
  H  H39  1  0.71130035  0.90735300  0.18841368  1
  H  H40  1  0.93076315  0.14283405  0.38253352  1
  H  H41  1  0.70800132  0.90506468  0.55476910  1
  H  H42  1  0.32980305  0.11249791  0.32283431  1
  H  H43  1  0.20800132  0.40506468  0.94523090  1
  H  H44  1  0.03112044  0.10366672  0.31170721  1
  H  H45  1  0.13414743  0.51382817  0.62097776  1
  H  H46  1  0.82980305  0.61249791  0.17716569  1
  H  H47  1  0.05420352  0.00527230  0.13133682  1
  H  H48  1  0.32693897  0.10442358  0.93456261  1
  H  H49  1  0.78869965  0.59264700  0.68841368  1
  H  H50  1  0.41474537  0.61305485  0.62365656  1
  H  H51  1  0.81993404  0.48848939  0.62971639  1
  H  H52  1  0.54045381  0.60184169  0.56373967  1
  H  H53  1  0.63414743  0.01382817  0.87902224  1
  H  H54  1  0.56164777  0.88626139  0.59310085  1
  H  H55  1  0.86690517  0.47841548  0.87563760  1
  H  H56  1  0.55420352  0.50527230  0.36866318  1
  H  H57  1  0.43529255  0.11156048  0.84859523  1
  H  H58  1  0.36585257  0.98617183  0.12097776  1
  H  H59  1  0.58525463  0.38694515  0.37634344  1
  H  H60  1  0.53112044  0.60366672  0.18829279  1
  H  H61  1  0.36690517  0.97841548  0.62436240  1
  H  H62  1  0.67019695  0.88750209  0.67716569  1
  H  H63  1  0.46887956  0.39633328  0.81170721  1
  H  H64  1  0.67769696  0.00716154  0.61854425  1
  H  H65  1  0.17019695  0.38750209  0.82283431  1
  H  H66  1  0.17306103  0.39557642  0.43456261  1
  H  H67  1  0.95779501  0.89559988  0.56290458  1
  H  H68  1  0.53883227  0.60944692  0.68914482  1
  H  H69  1  0.29199868  0.09493532  0.44523090  1
  H  H70  1  0.46116773  0.39055308  0.31085518  1
  H  H71  1  0.96887956  0.89633328  0.68829279  1
  H  H72  1  0.63309483  0.02158452  0.37563760  1
  H  H73  1  0.44579648  0.49472770  0.63133682  1
  H  H74  1  0.91474537  0.11305485  0.87634344  1
  H  H75  1  0.56470745  0.88843952  0.15140477  1
  H  H76  1  0.86585257  0.48617183  0.37902224  1
  H  H77  1  0.03883227  0.10944692  0.81085518  1
  H  H78  1  0.04045381  0.10184169  0.93626033  1
  H  H79  1  0.08525463  0.88694515  0.12365656  1
  H  H80  1  0.32230304  0.99283846  0.38145575  1
  H  H81  1  0.06164777  0.38626139  0.90689915  1
  H  H82  1  0.45779501  0.39559988  0.93709542  1
  H  H83  1  0.21130035  0.40735300  0.31158632  1
  H  H84  1  0.67306103  0.89557642  0.06543739  1
  H  H85  1  0.57965833  0.49037451  0.87986263  1
  H  H86  1  0.06923685  0.85716595  0.61746648  1
  H  H87  1  0.82230304  0.49283846  0.11854425  1
  N  N88  1  0.98403881  0.08009313  0.87332841  1
  N  N89  1  0.15400048  0.42136246  0.88922186  1
  N  N90  1  0.98098027  0.09031144  0.37776920  1
  N  N91  1  0.48403881  0.58009313  0.62667159  1
  N  N92  1  0.34310756  0.07449038  0.86627190  1
  N  N93  1  0.48098027  0.59031144  0.12223080  1
  N  N94  1  0.01596119  0.91990687  0.12667159  1
  N  N95  1  0.65689244  0.92550962  0.13372810  1
  N  N96  1  0.01901973  0.90968856  0.62223080  1
  N  N97  1  0.84599952  0.57863754  0.11077814  1
  N  N98  1  0.51901973  0.40968856  0.87776920  1
  N  N99  1  0.34599952  0.07863754  0.38922186  1
  N  N100  1  0.15689244  0.42550962  0.36627190  1
  N  N101  1  0.65400048  0.92136246  0.61077814  1
  N  N102  1  0.51596119  0.41990687  0.37332841  1
  N  N103  1  0.84310756  0.57449038  0.63372810  1
  F  F104  1  0.51347608  0.93864300  0.37965810  1
  F  F105  1  0.36752911  0.75118688  0.72714060  1
  F  F106  1  0.81660252  0.87827007  0.47851039  1
  F  F107  1  0.91263710  0.27672040  0.27928268  1
  F  F108  1  0.39397605  0.21174566  0.62633155  1
  F  F109  1  0.41108831  0.22442453  0.21751186  1
  F  F110  1  0.41263710  0.77672040  0.22071732  1
  F  F111  1  0.18339748  0.12172993  0.52148961  1
  F  F112  1  0.68339748  0.62172993  0.97851039  1
  F  F113  1  0.41857704  0.60959468  0.36659881  1
  F  F114  1  0.01347608  0.43864300  0.12034190  1
  F  F115  1  0.91857704  0.10959468  0.13340119  1
  F  F116  1  0.62847451  0.23866428  0.97896958  1
  F  F117  1  0.17192082  0.13454970  0.22920605  1
  F  F118  1  0.28015806  0.93204360  0.11091550  1
  F  F119  1  0.78015806  0.43204360  0.38908450  1
  F  F120  1  0.81438118  0.87937611  0.27237693  1
  F  F121  1  0.58971453  0.23413525  0.47371692  1
  F  F122  1  0.31438118  0.37937611  0.22762307  1
  F  F123  1  0.59207133  0.78290776  0.96418371  1
  F  F124  1  0.78041990  0.35199016  0.12370812  1
  F  F125  1  0.78306588  0.41995361  0.87025240  1
  F  F126  1  0.12847451  0.73866428  0.52103042  1
  F  F127  1  0.91028547  0.26586475  0.97371692  1
  F  F128  1  0.58891169  0.77557547  0.78248814  1
  F  F129  1  0.28306588  0.91995361  0.62974760  1
  F  F130  1  0.13247089  0.74881312  0.22714060  1
  F  F131  1  0.71984194  0.06795640  0.88908450  1
  F  F132  1  0.66895246  0.63699040  0.47906945  1
  F  F133  1  0.08736290  0.72327960  0.72071732  1
  F  F134  1  0.21693412  0.58004639  0.12974760  1
  F  F135  1  0.10602395  0.28825434  0.12633155  1
  F  F136  1  0.63247089  0.24881312  0.27285940  1
  F  F137  1  0.41028547  0.76586475  0.52628308  1
  F  F138  1  0.08891169  0.27557547  0.71751186  1
  F  F139  1  0.68561882  0.62062389  0.77237693  1
  F  F140  1  0.77736829  0.34608140  0.62793829  1
  F  F141  1  0.98500715  0.56693142  0.36824658  1
  F  F142  1  0.91108831  0.72442453  0.28248814  1
  F  F143  1  0.31660252  0.37827007  0.02148961  1
  F  F144  1  0.21984194  0.56795640  0.61091550  1
  F  F145  1  0.48500715  0.06693142  0.13175342  1
  F  F146  1  0.82807918  0.86545030  0.77079395  1
  F  F147  1  0.60602395  0.78825434  0.37366845  1
  F  F148  1  0.22263171  0.65391860  0.37206171  1
  F  F149  1  0.92677569  0.10656384  0.62113356  1
  F  F150  1  0.83104754  0.86300960  0.97906945  1
  F  F151  1  0.40792867  0.21709224  0.03581629  1
  F  F152  1  0.28041990  0.85199016  0.37629188  1
  F  F153  1  0.08142296  0.89040532  0.86659881  1
  F  F154  1  0.48652392  0.06135700  0.62034190  1
  F  F155  1  0.87152549  0.26133572  0.47896958  1
  F  F156  1  0.72263171  0.15391860  0.12793829  1
  F  F157  1  0.67192082  0.63454970  0.27079395  1
  F  F158  1  0.01499285  0.43306858  0.63175342  1
  F  F159  1  0.27736829  0.84608140  0.87206171  1
  F  F160  1  0.86752911  0.25118688  0.77285940  1
  F  F161  1  0.32807918  0.36545030  0.72920605  1
  F  F162  1  0.71958010  0.14800984  0.62370812  1
  F  F163  1  0.58142296  0.39040532  0.63340119  1
  F  F164  1  0.71693412  0.08004639  0.37025240  1
  F  F165  1  0.90792867  0.71709224  0.46418371  1
  F  F166  1  0.16895246  0.13699040  0.02093055  1
  F  F167  1  0.21958010  0.64800984  0.87629188  1
  F  F168  1  0.42677569  0.60656384  0.87886644  1
  F  F169  1  0.57322431  0.39343616  0.12113356  1
  F  F170  1  0.98652392  0.56135700  0.87965810  1
  F  F171  1  0.89397605  0.71174566  0.87366845  1
  F  F172  1  0.37152549  0.76133572  0.02103042  1
  F  F173  1  0.51499285  0.93306858  0.86824658  1
  F  F174  1  0.09207133  0.28290776  0.53581629  1
  F  F175  1  0.08971453  0.73413525  0.02628308  1
  F  F176  1  0.18561882  0.12062389  0.72762307  1
  F  F177  1  0.33104754  0.36300960  0.52093055  1
  F  F178  1  0.58736290  0.22327960  0.77928268  1
  F  F179  1  0.07322431  0.89343616  0.37886644  1
