# generated using pymatgen
data_RbCr3S5
_symmetry_space_group_name_H-M   'P 1'
_cell_length_a   3.54097245
_cell_length_b   9.92566205
_cell_length_c   10.90123987
_cell_angle_alpha   71.74163074
_cell_angle_beta   80.65310853
_cell_angle_gamma   79.72489831
_symmetry_Int_Tables_number   1
_chemical_formula_structural   RbCr3S5
_chemical_formula_sum   'Rb2 Cr6 S10'
_cell_volume   355.68127953
_cell_formula_units_Z   2
loop_
 _symmetry_equiv_pos_site_id
 _symmetry_equiv_pos_as_xyz
  1  'x, y, z'
loop_
 _atom_site_type_symbol
 _atom_site_label
 _atom_site_symmetry_multiplicity
 _atom_site_fract_x
 _atom_site_fract_y
 _atom_site_fract_z
 _atom_site_occupancy
  Rb  Rb0  1  0.25415603  0.65690196  0.83478598  1
  Rb  Rb1  1  0.74584397  0.34309804  0.16521402  1
  Cr  Cr2  1  0.98350570  0.26252048  0.77046813  1
  Cr  Cr3  1  0.83493965  0.94117080  0.38894991  1
  Cr  Cr4  1  0.50000000  0.00000000  0.00000000  1
  Cr  Cr5  1  0.01649430  0.73747952  0.22953187  1
  Cr  Cr6  1  0.16506035  0.05882920  0.61105009  1
  Cr  Cr7  1  0.50000000  0.50000000  0.50000000  1
  S  S8  1  0.40977865  0.26355650  0.91688620  1
  S  S9  1  0.42456256  0.75862152  0.39225336  1
  S  S10  1  0.07440097  0.00278853  0.84840952  1
  S  S11  1  0.57543744  0.24137848  0.60774664  1
  S  S12  1  0.92102854  0.50753960  0.65040333  1
  S  S13  1  0.92559903  0.99721147  0.15159048  1
  S  S14  1  0.25628126  0.10318230  0.38425519  1
  S  S15  1  0.59022135  0.73644350  0.08311380  1
  S  S16  1  0.74371874  0.89681770  0.61574481  1
  S  S17  1  0.07897146  0.49246040  0.34959667  1
