# generated using pymatgen
data_Ba2NdSbO6
_symmetry_space_group_name_H-M   'P 1'
_cell_length_a   6.11480629
_cell_length_b   6.11480628
_cell_length_c   6.11480628
_cell_angle_alpha   60.29661562
_cell_angle_beta   60.29661567
_cell_angle_gamma   60.29661562
_symmetry_Int_Tables_number   1
_chemical_formula_structural   Ba2NdSbO6
_chemical_formula_sum   'Ba2 Nd1 Sb1 O6'
_cell_volume   162.75655859
_cell_formula_units_Z   1
loop_
 _symmetry_equiv_pos_site_id
 _symmetry_equiv_pos_as_xyz
  1  'x, y, z'
loop_
 _atom_site_type_symbol
 _atom_site_label
 _atom_site_symmetry_multiplicity
 _atom_site_fract_x
 _atom_site_fract_y
 _atom_site_fract_z
 _atom_site_occupancy
  O  O0  1  0.69268354  0.27011809  0.77101473  1
  O  O1  1  0.27011809  0.77101473  0.69268354  1
  O  O2  1  0.77101473  0.69268354  0.27011809  1
  O  O3  1  0.30731646  0.72988191  0.22898527  1
  O  O4  1  0.22898527  0.30731646  0.72988191  1
  O  O5  1  0.72988191  0.22898527  0.30731646  1
  Sb  Sb6  1  0.50000000  0.50000000  0.50000000  1
  Ba  Ba7  1  0.74905985  0.74905985  0.74905985  1
  Ba  Ba8  1  0.25094015  0.25094015  0.25094015  1
  Nd  Nd9  1  0.00000000  0.00000000  0.00000000  1
