# generated using pymatgen
data_Ba3Yb(BO3)3
_symmetry_space_group_name_H-M   'P 1'
_cell_length_a   9.52605917
_cell_length_b   9.52605917
_cell_length_c   18.12647759
_cell_angle_alpha   90.00000000
_cell_angle_beta   90.00000000
_cell_angle_gamma   120.00000002
_symmetry_Int_Tables_number   1
_chemical_formula_structural   Ba3Yb(BO3)3
_chemical_formula_sum   'Ba18 Yb6 B18 O54'
_cell_volume   1424.52671977
_cell_formula_units_Z   6
loop_
 _symmetry_equiv_pos_site_id
 _symmetry_equiv_pos_as_xyz
  1  'x, y, z'
loop_
 _atom_site_type_symbol
 _atom_site_label
 _atom_site_symmetry_multiplicity
 _atom_site_fract_x
 _atom_site_fract_y
 _atom_site_fract_z
 _atom_site_occupancy
  B  B0  1  0.32222781  0.32222781  0.57646216  1
  B  B1  1  0.65621182  0.65621182  0.41760127  1
  B  B2  1  0.00000000  0.65621182  0.91760127  1
  B  B3  1  0.65621182  0.00000000  0.91760127  1
  B  B4  1  0.34378818  0.00000000  0.41760127  1
  B  B5  1  0.00000000  0.34378818  0.41760127  1
  B  B6  1  0.34378818  0.34378818  0.91760127  1
  B  B7  1  0.66825914  0.66825914  0.24923351  1
  B  B8  1  0.00000000  0.66825914  0.74923351  1
  B  B9  1  0.66825914  0.00000000  0.74923351  1
  B  B10  1  0.33174086  0.00000000  0.24923351  1
  B  B11  1  0.00000000  0.33174086  0.24923351  1
  B  B12  1  0.33174086  0.33174086  0.74923351  1
  B  B13  1  0.67777219  0.67777219  0.07646216  1
  B  B14  1  0.00000000  0.67777219  0.57646216  1
  B  B15  1  0.67777219  0.00000000  0.57646216  1
  B  B16  1  0.32222781  0.00000000  0.07646216  1
  B  B17  1  0.00000000  0.32222781  0.07646216  1
  O  O18  1  0.14525150  0.67927728  0.57022850  1
  O  O19  1  0.00000000  0.52264556  0.74677552  1
  O  O20  1  0.52264556  0.00000000  0.74677552  1
  O  O21  1  0.47735444  0.00000000  0.24677552  1
  O  O22  1  0.00000000  0.47735444  0.24677552  1
  O  O23  1  0.81396376  0.14593156  0.75085605  1
  O  O24  1  0.79996620  0.79996620  0.43061156  1
  O  O25  1  0.34294721  0.48854282  0.91089793  1
  O  O26  1  0.85440439  0.34294721  0.41089793  1
  O  O27  1  0.48854282  0.14559561  0.41089793  1
  O  O28  1  0.51145718  0.85440439  0.91089793  1
  O  O29  1  0.14559561  0.65705279  0.91089793  1
  O  O30  1  0.65705279  0.51145718  0.41089793  1
  O  O31  1  0.14559561  0.48854282  0.41089793  1
  O  O32  1  0.34294721  0.85440439  0.41089793  1
  O  O33  1  0.51145718  0.65705279  0.41089793  1
  O  O34  1  0.48854282  0.34294721  0.91089793  1
  O  O35  1  0.85440439  0.51145718  0.91089793  1
  O  O36  1  0.65705279  0.14559561  0.91089793  1
  O  O37  1  0.20003380  0.20003380  0.93061156  1
  O  O38  1  0.00000000  0.20003380  0.43061156  1
  O  O39  1  0.20003380  0.00000000  0.43061156  1
  O  O40  1  0.79996620  0.00000000  0.93061156  1
  O  O41  1  0.00000000  0.79996620  0.93061156  1
  O  O42  1  0.17870885  0.17870885  0.58897731  1
  O  O43  1  0.00000000  0.17870885  0.08897731  1
  O  O44  1  0.17870885  0.00000000  0.08897731  1
  O  O45  1  0.82129115  0.00000000  0.58897731  1
  O  O46  1  0.00000000  0.82129115  0.58897731  1
  O  O47  1  0.82129115  0.82129115  0.08897731  1
  O  O48  1  0.32072272  0.46597422  0.57022850  1
  O  O49  1  0.85474850  0.32072272  0.07022850  1
  O  O50  1  0.46597422  0.14525150  0.07022850  1
  O  O51  1  0.53402578  0.85474850  0.57022850  1
  O  O52  1  0.52264556  0.52264556  0.24677552  1
  O  O53  1  0.67927728  0.53402578  0.07022850  1
  O  O54  1  0.14525150  0.46597422  0.07022850  1
  O  O55  1  0.32072272  0.85474850  0.07022850  1
  O  O56  1  0.53402578  0.67927728  0.07022850  1
  O  O57  1  0.46597422  0.32072272  0.57022850  1
  O  O58  1  0.85474850  0.53402578  0.57022850  1
  O  O59  1  0.67927728  0.14525150  0.57022850  1
  O  O60  1  0.18603624  0.33196780  0.75085605  1
  O  O61  1  0.85406844  0.18603624  0.25085605  1
  O  O62  1  0.33196780  0.14593156  0.25085605  1
  O  O63  1  0.66803220  0.85406844  0.75085605  1
  O  O64  1  0.14593156  0.81396376  0.75085605  1
  O  O65  1  0.81396376  0.66803220  0.25085605  1
  O  O66  1  0.14593156  0.33196780  0.25085605  1
  O  O67  1  0.18603624  0.85406844  0.25085605  1
  O  O68  1  0.66803220  0.81396376  0.25085605  1
  O  O69  1  0.33196780  0.18603624  0.75085605  1
  O  O70  1  0.85406844  0.66803220  0.75085605  1
  O  O71  1  0.47735444  0.47735444  0.74677552  1
  Ba  Ba72  1  0.68784811  0.68784811  0.87531635  1
  Ba  Ba73  1  0.00000000  0.68784811  0.37531635  1
  Ba  Ba74  1  0.68784811  0.00000000  0.37531635  1
  Ba  Ba75  1  0.31215189  0.00000000  0.87531635  1
  Ba  Ba76  1  0.00000000  0.31215189  0.87531635  1
  Ba  Ba77  1  0.31215189  0.31215189  0.37531635  1
  Ba  Ba78  1  0.64586774  0.64586774  0.62669843  1
  Ba  Ba79  1  0.00000000  0.64586774  0.12669843  1
  Ba  Ba80  1  0.64586774  0.00000000  0.12669843  1
  Ba  Ba81  1  0.35413226  0.00000000  0.62669843  1
  Ba  Ba82  1  0.00000000  0.35413226  0.62669843  1
  Ba  Ba83  1  0.35413226  0.35413226  0.12669843  1
  Ba  Ba84  1  0.00000000  0.00000000  0.21183796  1
  Ba  Ba85  1  0.66666667  0.33333333  0.78421996  1
  Ba  Ba86  1  0.33333333  0.66666667  0.78421996  1
  Ba  Ba87  1  0.66666667  0.33333333  0.28421996  1
  Ba  Ba88  1  0.00000000  0.00000000  0.71183796  1
  Ba  Ba89  1  0.33333333  0.66666667  0.28421996  1
  Yb  Yb90  1  0.33333333  0.66666667  0.99591187  1
  Yb  Yb91  1  0.66666667  0.33333333  0.49591187  1
  Yb  Yb92  1  0.33333333  0.66666667  0.49591187  1
  Yb  Yb93  1  0.66666667  0.33333333  0.99591187  1
  Yb  Yb94  1  0.00000000  0.00000000  0.50319514  1
  Yb  Yb95  1  0.00000000  0.00000000  0.00319514  1
