# generated using pymatgen
data_Sm4(CoB2)3
_symmetry_space_group_name_H-M   'P 1'
_cell_length_a   5.34720734
_cell_length_b   5.34720734
_cell_length_c   8.15355061
_cell_angle_alpha   70.85823147
_cell_angle_beta   70.85823147
_cell_angle_gamma   59.99999881
_symmetry_Int_Tables_number   1
_chemical_formula_structural   Sm4(CoB2)3
_chemical_formula_sum   'Sm4 Co3 B6'
_cell_volume   186.86573711
_cell_formula_units_Z   1
loop_
 _symmetry_equiv_pos_site_id
 _symmetry_equiv_pos_as_xyz
  1  'x, y, z'
loop_
 _atom_site_type_symbol
 _atom_site_label
 _atom_site_symmetry_multiplicity
 _atom_site_fract_x
 _atom_site_fract_y
 _atom_site_fract_z
 _atom_site_occupancy
  Sm  Sm0  1  0.25614344  0.25614344  0.23156967  1
  Sm  Sm1  1  0.74385656  0.74385656  0.76843033  1
  Sm  Sm2  1  0.41115802  0.41115802  0.76652593  1
  Sm  Sm3  1  0.58884198  0.58884198  0.23347407  1
  Co  Co4  1  -0.00000000  0.00000000  -0.00000000  1
  Co  Co5  1  0.11488879  0.11488879  0.65533363  1
  Co  Co6  1  0.88511121  0.88511121  0.34466637  1
  B  B7  1  0.16743246  0.83256754  0.50000000  1
  B  B8  1  0.83256754  0.50000000  0.50000000  1
  B  B9  1  0.50000000  0.16743246  0.50000000  1
  B  B10  1  0.16743246  0.50000000  0.50000000  1
  B  B11  1  0.50000000  0.83256754  0.50000000  1
  B  B12  1  0.83256754  0.16743246  0.50000000  1
