# generated using pymatgen
data_SrLi2CrN3
_symmetry_space_group_name_H-M   'P 1'
_cell_length_a   7.36285825
_cell_length_b   9.16550210
_cell_length_c   10.55640004
_cell_angle_alpha   90.00000000
_cell_angle_beta   90.00000000
_cell_angle_gamma   90.00000000
_symmetry_Int_Tables_number   1
_chemical_formula_structural   SrLi2CrN3
_chemical_formula_sum   'Sr8 Li16 Cr8 N24'
_cell_volume   712.39119071
_cell_formula_units_Z   8
loop_
 _symmetry_equiv_pos_site_id
 _symmetry_equiv_pos_as_xyz
  1  'x, y, z'
loop_
 _atom_site_type_symbol
 _atom_site_label
 _atom_site_symmetry_multiplicity
 _atom_site_fract_x
 _atom_site_fract_y
 _atom_site_fract_z
 _atom_site_occupancy
  Sr  Sr0  1  0.91461234  0.19192573  0.91806125  1
  Sr  Sr1  1  0.08538766  0.80807427  0.08193875  1
  Sr  Sr2  1  0.58538766  0.69192573  0.08193875  1
  Sr  Sr3  1  0.41461234  0.80807427  0.58193875  1
  Sr  Sr4  1  0.91461234  0.69192573  0.58193875  1
  Sr  Sr5  1  0.41461234  0.30807427  0.91806125  1
  Sr  Sr6  1  0.08538766  0.30807427  0.41806125  1
  Sr  Sr7  1  0.58538766  0.19192573  0.41806125  1
  Li  Li8  1  0.28881764  0.61991229  0.31608101  1
  Li  Li9  1  0.09613161  0.38199709  0.71981791  1
  Li  Li10  1  0.59613161  0.61800291  0.78018209  1
  Li  Li11  1  0.71118236  0.38008771  0.68391899  1
  Li  Li12  1  0.40386839  0.38199709  0.21981791  1
  Li  Li13  1  0.78881764  0.38008771  0.18391899  1
  Li  Li14  1  0.21118236  0.11991229  0.68391899  1
  Li  Li15  1  0.90386839  0.11800291  0.21981791  1
  Li  Li16  1  0.90386839  0.61800291  0.28018209  1
  Li  Li17  1  0.09613161  0.88199709  0.78018209  1
  Li  Li18  1  0.40386839  0.88199709  0.28018209  1
  Li  Li19  1  0.28881764  0.11991229  0.18391899  1
  Li  Li20  1  0.78881764  0.88008771  0.31608101  1
  Li  Li21  1  0.59613161  0.11800291  0.71981791  1
  Li  Li22  1  0.21118236  0.61991229  0.81608101  1
  Li  Li23  1  0.71118236  0.88008771  0.81608101  1
  Cr  Cr24  1  0.60613406  0.54768300  0.41776050  1
  Cr  Cr25  1  0.10613406  0.95231700  0.41776050  1
  Cr  Cr26  1  0.89386594  0.04768300  0.58223950  1
  Cr  Cr27  1  0.39386594  0.45231700  0.58223950  1
  Cr  Cr28  1  0.10613406  0.45231700  0.08223950  1
  Cr  Cr29  1  0.60613406  0.04768300  0.08223950  1
  Cr  Cr30  1  0.89386594  0.54768300  0.91776050  1
  Cr  Cr31  1  0.39386594  0.95231700  0.91776050  1
  N  N32  1  0.60194655  0.06791397  0.90390814  1
  N  N33  1  0.92255344  0.21660928  0.65558384  1
  N  N34  1  0.79416949  0.45090399  0.37496924  1
  N  N35  1  0.10194655  0.93208603  0.59609186  1
  N  N36  1  0.57744656  0.21660928  0.15558384  1
  N  N37  1  0.39805345  0.43208603  0.40390814  1
  N  N38  1  0.70583051  0.45090399  0.87496924  1
  N  N39  1  0.92255344  0.71660928  0.84441616  1
  N  N40  1  0.29416949  0.54909601  0.12503076  1
  N  N41  1  0.20583051  0.54909601  0.62503076  1
  N  N42  1  0.07744656  0.78339072  0.34441616  1
  N  N43  1  0.42255344  0.28339072  0.65558384  1
  N  N44  1  0.10194655  0.43208603  0.90390814  1
  N  N45  1  0.57744656  0.71660928  0.34441616  1
  N  N46  1  0.42255344  0.78339072  0.84441616  1
  N  N47  1  0.20583051  0.04909601  0.87496924  1
  N  N48  1  0.07744656  0.28339072  0.15558384  1
  N  N49  1  0.60194655  0.56791397  0.59609186  1
  N  N50  1  0.79416949  0.95090399  0.12503076  1
  N  N51  1  0.29416949  0.04909601  0.37496924  1
  N  N52  1  0.39805345  0.93208603  0.09609186  1
  N  N53  1  0.89805345  0.56791397  0.09609186  1
  N  N54  1  0.89805345  0.06791397  0.40390814  1
  N  N55  1  0.70583051  0.95090399  0.62503076  1
