# generated using pymatgen
data_Cu7S4
_symmetry_space_group_name_H-M   'P 1'
_cell_length_a   7.87305464
_cell_length_b   7.82934881
_cell_length_c   10.88931563
_cell_angle_alpha   90.00410542
_cell_angle_beta   89.99880560
_cell_angle_gamma   89.99919405
_symmetry_Int_Tables_number   1
_chemical_formula_structural   Cu7S4
_chemical_formula_sum   'Cu28 S16'
_cell_volume   671.22711512
_cell_formula_units_Z   4
loop_
 _symmetry_equiv_pos_site_id
 _symmetry_equiv_pos_as_xyz
  1  'x, y, z'
loop_
 _atom_site_type_symbol
 _atom_site_label
 _atom_site_symmetry_multiplicity
 _atom_site_fract_x
 _atom_site_fract_y
 _atom_site_fract_z
 _atom_site_occupancy
  Cu  Cu0  1  0.75000740  0.47910512  0.34770311  1
  Cu  Cu1  1  0.24999185  0.02084213  0.84775229  1
  Cu  Cu2  1  0.75000490  0.58060769  0.67048312  1
  Cu  Cu3  1  0.75000836  0.48193901  0.09151286  1
  Cu  Cu4  1  0.41459109  0.73502068  0.34048387  1
  Cu  Cu5  1  0.74998288  0.97913121  0.15225997  1
  Cu  Cu6  1  0.47678554  0.67297435  0.07401564  1
  Cu  Cu7  1  0.02316992  0.17279377  0.42609929  1
  Cu  Cu8  1  0.58542683  0.26498170  0.65950041  1
  Cu  Cu9  1  0.91461490  0.76499093  0.84048309  1
  Cu  Cu10  1  0.25002826  0.51814376  0.90824576  1
  Cu  Cu11  1  0.97683314  0.32718198  0.92604917  1
  Cu  Cu12  1  0.91457321  0.26500610  0.65950133  1
  Cu  Cu13  1  0.74997931  0.98188392  0.40819488  1
  Cu  Cu14  1  0.52317693  0.82718314  0.57394169  1
  Cu  Cu15  1  0.58536339  0.76497542  0.84047351  1
  Cu  Cu16  1  0.74998628  0.08067074  0.82943555  1
  Cu  Cu17  1  0.02321185  0.67296786  0.07402263  1
  Cu  Cu18  1  0.47685495  0.17279449  0.42609754  1
  Cu  Cu19  1  0.25001677  0.52084991  0.65228001  1
  Cu  Cu20  1  0.25000585  0.41938530  0.32948138  1
  Cu  Cu21  1  0.41458118  0.23500128  0.15951427  1
  Cu  Cu22  1  0.08539980  0.73500662  0.34049095  1
  Cu  Cu23  1  0.08541563  0.23503940  0.15948876  1
  Cu  Cu24  1  0.52312786  0.32718600  0.92608313  1
  Cu  Cu25  1  0.25002240  0.01806152  0.59173372  1
  Cu  Cu26  1  0.97681635  0.82716726  0.57394788  1
  Cu  Cu27  1  0.24999542  0.91940624  0.17050835  1
  S  S28  1  0.25001384  0.78795543  0.98436551  1
  S  S29  1  0.50209077  0.99861654  0.26230852  1
  S  S30  1  0.74999913  0.21183661  0.01566199  1
  S  S31  1  0.99791113  0.49855050  0.23776335  1
  S  S32  1  0.00207093  0.50139239  0.76232193  1
  S  S33  1  0.75000277  0.25530355  0.48417124  1
  S  S34  1  0.49791142  0.00138898  0.73772143  1
  S  S35  1  0.75000344  0.75515235  0.01578015  1
  S  S36  1  0.00209157  0.00138978  0.73772665  1
  S  S37  1  0.50209382  0.49853172  0.23777331  1
  S  S38  1  0.24999682  0.74480692  0.51581793  1
  S  S39  1  0.99791366  0.99862079  0.26230907  1
  S  S40  1  0.75000206  0.71195687  0.48426964  1
  S  S41  1  0.49793166  0.50138733  0.76232422  1
  S  S42  1  0.24999871  0.24475039  0.98418526  1
  S  S43  1  0.24999603  0.28806236  0.51571564  1
