# generated using pymatgen
data_Ca3Nb2CoO9
_symmetry_space_group_name_H-M   'P 1'
_cell_length_a   5.50045123
_cell_length_b   9.72595518
_cell_length_c   13.88612111
_cell_angle_alpha   91.06043345
_cell_angle_beta   90.00000000
_cell_angle_gamma   90.00000000
_symmetry_Int_Tables_number   1
_chemical_formula_structural   Ca3Nb2CoO9
_chemical_formula_sum   'Ca12 Nb8 Co4 O36'
_cell_volume   742.74056450
_cell_formula_units_Z   4
loop_
 _symmetry_equiv_pos_site_id
 _symmetry_equiv_pos_as_xyz
  1  'x, y, z'
loop_
 _atom_site_type_symbol
 _atom_site_label
 _atom_site_symmetry_multiplicity
 _atom_site_fract_x
 _atom_site_fract_y
 _atom_site_fract_z
 _atom_site_occupancy
  Ca  Ca0  1  0.51421027  0.14926962  0.60034232  1
  Ca  Ca1  1  0.00783948  0.01428875  0.22728258  1
  Ca  Ca2  1  0.98578973  0.64926962  0.10034232  1
  Ca  Ca3  1  0.49216052  0.51428875  0.72728258  1
  Ca  Ca4  1  0.01825438  0.69076985  0.56814265  1
  Ca  Ca5  1  0.48578973  0.85073038  0.39965768  1
  Ca  Ca6  1  0.50783948  0.48571125  0.27271742  1
  Ca  Ca7  1  0.01421027  0.35073038  0.89965768  1
  Ca  Ca8  1  0.51825438  0.80923015  0.93185735  1
  Ca  Ca9  1  0.48174562  0.19076985  0.06814265  1
  Ca  Ca10  1  0.98174562  0.30923015  0.43185735  1
  Ca  Ca11  1  0.99216052  0.98571125  0.77271742  1
  Nb  Nb12  1  0.98960205  0.33314493  0.15992060  1
  Nb  Nb13  1  0.99677423  0.66375190  0.33957797  1
  Nb  Nb14  1  0.01039795  0.66685507  0.84007940  1
  Nb  Nb15  1  0.51039795  0.83314493  0.65992060  1
  Nb  Nb16  1  0.00322577  0.33624810  0.66042203  1
  Nb  Nb17  1  0.49677423  0.83624810  0.16042203  1
  Nb  Nb18  1  0.48960205  0.16685507  0.34007940  1
  Nb  Nb19  1  0.50322577  0.16375190  0.83957797  1
  Co  Co20  1  0.50000000  0.50000000  0.50000000  1
  Co  Co21  1  0.00000000  0.00000000  0.00000000  1
  Co  Co22  1  0.50000000  0.50000000  0.00000000  1
  Co  Co23  1  0.00000000  0.00000000  0.50000000  1
  O  O24  1  0.19152442  0.47019409  0.59040525  1
  O  O25  1  0.29973763  0.56746795  0.88036470  1
  O  O26  1  0.70197994  0.36729970  0.58810885  1
  O  O27  1  0.20197994  0.13270030  0.91189115  1
  O  O28  1  0.19018815  0.39410572  0.05266353  1
  O  O29  1  0.40681413  0.01006648  0.73807065  1
  O  O30  1  0.29802006  0.63270030  0.41189115  1
  O  O31  1  0.09318587  0.51006648  0.23807065  1
  O  O32  1  0.10117736  0.83955325  0.90451128  1
  O  O33  1  0.40299583  0.68355113  0.07501019  1
  O  O34  1  0.79802006  0.86729970  0.08810885  1
  O  O35  1  0.79973763  0.93253205  0.61963530  1
  O  O36  1  0.70803194  0.76661419  0.78095666  1
  O  O37  1  0.89882264  0.16044675  0.09548872  1
  O  O38  1  0.80847558  0.52980591  0.40959475  1
  O  O39  1  0.79462110  0.20310001  0.74914916  1
  O  O40  1  0.70026237  0.43253205  0.11963530  1
  O  O41  1  0.90299583  0.81644887  0.42498981  1
  O  O42  1  0.20803194  0.73338581  0.71904334  1
  O  O43  1  0.69018815  0.10589428  0.44733647  1
  O  O44  1  0.30981185  0.89410572  0.55266353  1
  O  O45  1  0.20026237  0.06746795  0.38036470  1
  O  O46  1  0.90681413  0.48993352  0.76192935  1
  O  O47  1  0.29462110  0.29689999  0.75085084  1
  O  O48  1  0.20537890  0.79689999  0.25085084  1
  O  O49  1  0.69152442  0.02980591  0.90959475  1
  O  O50  1  0.60117736  0.66044675  0.59548872  1
  O  O51  1  0.80981185  0.60589428  0.94733647  1
  O  O52  1  0.29196806  0.23338581  0.21904334  1
  O  O53  1  0.39882264  0.33955325  0.40451128  1
  O  O54  1  0.09700417  0.18355113  0.57501019  1
  O  O55  1  0.79196806  0.26661419  0.28095666  1
  O  O56  1  0.70537890  0.70310001  0.24914916  1
  O  O57  1  0.59318587  0.98993352  0.26192935  1
  O  O58  1  0.59700417  0.31644887  0.92498981  1
  O  O59  1  0.30847558  0.97019409  0.09040525  1
