# generated using pymatgen
data_LuNiGe2
_symmetry_space_group_name_H-M   'P 1'
_cell_length_a   4.12507445
_cell_length_b   8.45778618
_cell_length_c   9.18845049
_cell_angle_alpha   117.40260104
_cell_angle_beta   102.97174908
_cell_angle_gamma   90.00000172
_symmetry_Int_Tables_number   1
_chemical_formula_structural   LuNiGe2
_chemical_formula_sum   'Lu4 Ni4 Ge8'
_cell_volume   275.35802929
_cell_formula_units_Z   4
loop_
 _symmetry_equiv_pos_site_id
 _symmetry_equiv_pos_as_xyz
  1  'x, y, z'
loop_
 _atom_site_type_symbol
 _atom_site_label
 _atom_site_symmetry_multiplicity
 _atom_site_fract_x
 _atom_site_fract_y
 _atom_site_fract_z
 _atom_site_occupancy
  Lu  Lu0  1  0.50000000  0.23819007  1.00000000  1
  Lu  Lu1  1  0.50000000  0.76180993  0.00000000  1
  Lu  Lu2  1  0.29667314  0.79667314  0.59334629  1
  Lu  Lu3  1  0.70332686  0.20332686  0.40665371  1
  Ni  Ni4  1  0.14731045  0.89879672  0.29462089  1
  Ni  Ni5  1  0.85268955  0.10120328  0.70537911  1
  Ni  Ni6  1  0.14731045  0.39582417  0.29462089  1
  Ni  Ni7  1  0.85268955  0.60417583  0.70537911  1
  Ge  Ge8  1  0.30325424  0.14567178  0.60650849  1
  Ge  Ge9  1  0.07938243  0.57938243  0.15876487  1
  Ge  Ge10  1  0.07710102  0.07710102  0.15420204  1
  Ge  Ge11  1  0.69674576  0.85432822  0.39349151  1
  Ge  Ge12  1  0.92289898  0.92289898  0.84579796  1
  Ge  Ge13  1  0.30325424  0.46083671  0.60650849  1
  Ge  Ge14  1  0.92061757  0.42061757  0.84123513  1
  Ge  Ge15  1  0.69674576  0.53916329  0.39349151  1
