# generated using pymatgen
data_K17In41
_symmetry_space_group_name_H-M   'P 1'
_cell_length_a   17.34702846
_cell_length_b   17.34702863
_cell_length_c   17.34702801
_cell_angle_alpha   59.99999921
_cell_angle_beta   59.99999886
_cell_angle_gamma   60.00000071
_symmetry_Int_Tables_number   1
_chemical_formula_structural   K17In41
_chemical_formula_sum   'K34 In82'
_cell_volume   3691.13784584
_cell_formula_units_Z   2
loop_
 _symmetry_equiv_pos_site_id
 _symmetry_equiv_pos_as_xyz
  1  'x, y, z'
loop_
 _atom_site_type_symbol
 _atom_site_label
 _atom_site_symmetry_multiplicity
 _atom_site_fract_x
 _atom_site_fract_y
 _atom_site_fract_z
 _atom_site_occupancy
  K  K0  1  0.77713651  0.77713651  0.77713651  1
  K  K1  1  0.62052333  0.00560473  0.25334862  1
  K  K2  1  0.25334862  0.00560473  0.62052333  1
  K  K3  1  0.00560473  0.62052333  0.25334862  1
  K  K4  1  0.37947667  0.99439527  0.74665138  1
  K  K5  1  0.62052333  0.62052333  0.25334862  1
  K  K6  1  0.16859047  0.77713651  0.77713651  1
  K  K7  1  0.00560473  0.25334862  0.62052333  1
  K  K8  1  0.12500000  0.12500000  0.12500000  1
  K  K9  1  0.77713651  0.16859047  0.77713651  1
  K  K10  1  0.22286349  0.22286349  0.83140953  1
  K  K11  1  0.74665138  0.99439527  0.37947667  1
  K  K12  1  0.99439527  0.37947667  0.37947667  1
  K  K13  1  0.25334862  0.62052333  0.62052333  1
  K  K14  1  0.83140953  0.22286349  0.22286349  1
  K  K15  1  0.74665138  0.37947667  0.37947667  1
  K  K16  1  0.22286349  0.22286349  0.22286349  1
  K  K17  1  0.37947667  0.37947667  0.74665138  1
  K  K18  1  0.62052333  0.62052333  0.00560473  1
  K  K19  1  0.22286349  0.83140953  0.22286349  1
  K  K20  1  0.99439527  0.37947667  0.74665138  1
  K  K21  1  0.37947667  0.99439527  0.37947667  1
  K  K22  1  0.25334862  0.62052333  0.00560473  1
  K  K23  1  0.37947667  0.74665138  0.37947667  1
  K  K24  1  0.62052333  0.00560473  0.62052333  1
  K  K25  1  0.37947667  0.74665138  0.99439527  1
  K  K26  1  0.37947667  0.37947667  0.99439527  1
  K  K27  1  0.62052333  0.25334862  0.62052333  1
  K  K28  1  0.62052333  0.25334862  0.00560473  1
  K  K29  1  0.74665138  0.37947667  0.99439527  1
  K  K30  1  0.00560473  0.62052333  0.62052333  1
  K  K31  1  0.87500000  0.87500000  0.87500000  1
  K  K32  1  0.99439527  0.74665138  0.37947667  1
  K  K33  1  0.77713651  0.77713651  0.16859047  1
  In  In34  1  0.34308513  0.17227909  0.99231789  1
  In  In35  1  0.59946811  0.23913372  0.42226446  1
  In  In36  1  0.80906943  0.11454927  0.46183204  1
  In  In37  1  0.53816796  0.88545073  0.88545073  1
  In  In38  1  0.57773554  0.76086628  0.40053189  1
  In  In39  1  0.11454927  0.11454927  0.46183204  1
  In  In40  1  0.65691487  0.00768211  0.82772091  1
  In  In41  1  0.00768211  0.00768211  0.82772091  1
  In  In42  1  0.11454927  0.80906943  0.46183204  1
  In  In43  1  0.76086628  0.40053189  0.76086628  1
  In  In44  1  0.42226446  0.23913372  0.23913372  1
  In  In45  1  0.42226446  0.23913372  0.59946811  1
  In  In46  1  0.82772091  0.65691487  0.00768211  1
  In  In47  1  0.17227909  0.99231789  0.99231789  1
  In  In48  1  0.23913372  0.23913372  0.42226446  1
  In  In49  1  0.59946811  0.23913372  0.23913372  1
  In  In50  1  0.99231789  0.17227909  0.99231789  1
  In  In51  1  0.11454927  0.11454927  0.80906943  1
  In  In52  1  0.99231789  0.34308513  0.17227909  1
  In  In53  1  0.54429898  0.86710305  0.54429898  1
  In  In54  1  0.99231789  0.17227909  0.34308513  1
  In  In55  1  0.88545073  0.53816796  0.19093057  1
  In  In56  1  0.53816796  0.88545073  0.19093057  1
  In  In57  1  0.46183204  0.80906943  0.11454927  1
  In  In58  1  0.00768211  0.65691487  0.00768211  1
  In  In59  1  0.23913372  0.42226446  0.59946811  1
  In  In60  1  0.34308513  0.99231789  0.17227909  1
  In  In61  1  0.40053189  0.76086628  0.57773554  1
  In  In62  1  0.76086628  0.57773554  0.76086628  1
  In  In63  1  0.17227909  0.99231789  0.34308513  1
  In  In64  1  0.23913372  0.59946811  0.42226446  1
  In  In65  1  0.76086628  0.40053189  0.57773554  1
  In  In66  1  0.37500000  0.37500000  0.37500000  1
  In  In67  1  0.57773554  0.40053189  0.76086628  1
  In  In68  1  0.57773554  0.76086628  0.76086628  1
  In  In69  1  0.88545073  0.19093057  0.88545073  1
  In  In70  1  0.00768211  0.00768211  0.65691487  1
  In  In71  1  0.46183204  0.11454927  0.80906943  1
  In  In72  1  0.80906943  0.11454927  0.11454927  1
  In  In73  1  0.53816796  0.19093057  0.88545073  1
  In  In74  1  0.19093057  0.88545073  0.53816796  1
  In  In75  1  0.40053189  0.57773554  0.76086628  1
  In  In76  1  0.00768211  0.82772091  0.65691487  1
  In  In77  1  0.59946811  0.42226446  0.23913372  1
  In  In78  1  0.99231789  0.34308513  0.99231789  1
  In  In79  1  0.65691487  0.82772091  0.00768211  1
  In  In80  1  0.19093057  0.53816796  0.88545073  1
  In  In81  1  0.23913372  0.23913372  0.59946811  1
  In  In82  1  0.88545073  0.88545073  0.53816796  1
  In  In83  1  0.13289695  0.45570102  0.45570102  1
  In  In84  1  0.11454927  0.80906943  0.11454927  1
  In  In85  1  0.80906943  0.46183204  0.11454927  1
  In  In86  1  0.19093057  0.88545073  0.88545073  1
  In  In87  1  0.54429898  0.54429898  0.86710305  1
  In  In88  1  0.76086628  0.57773554  0.40053189  1
  In  In89  1  0.34308513  0.99231789  0.99231789  1
  In  In90  1  0.11454927  0.46183204  0.80906943  1
  In  In91  1  0.62500000  0.62500000  0.62500000  1
  In  In92  1  0.76086628  0.76086628  0.57773554  1
  In  In93  1  0.86710305  0.54429898  0.54429898  1
  In  In94  1  0.46183204  0.11454927  0.11454927  1
  In  In95  1  0.00768211  0.65691487  0.82772091  1
  In  In96  1  0.88545073  0.19093057  0.53816796  1
  In  In97  1  0.88545073  0.88545073  0.19093057  1
  In  In98  1  0.76086628  0.76086628  0.40053189  1
  In  In99  1  0.45570102  0.45570102  0.13289695  1
  In  In100  1  0.45570102  0.45570102  0.45570102  1
  In  In101  1  0.54429898  0.54429898  0.54429898  1
  In  In102  1  0.82772091  0.00768211  0.00768211  1
  In  In103  1  0.45570102  0.13289695  0.45570102  1
  In  In104  1  0.11454927  0.46183204  0.11454927  1
  In  In105  1  0.99231789  0.99231789  0.34308513  1
  In  In106  1  0.42226446  0.59946811  0.23913372  1
  In  In107  1  0.23913372  0.59946811  0.23913372  1
  In  In108  1  0.88545073  0.53816796  0.88545073  1
  In  In109  1  0.82772091  0.00768211  0.65691487  1
  In  In110  1  0.23913372  0.42226446  0.23913372  1
  In  In111  1  0.00768211  0.82772091  0.00768211  1
  In  In112  1  0.99231789  0.99231789  0.17227909  1
  In  In113  1  0.40053189  0.76086628  0.76086628  1
  In  In114  1  0.17227909  0.34308513  0.99231789  1
  In  In115  1  0.65691487  0.00768211  0.00768211  1
