# generated using pymatgen
data_AlInCl4
_symmetry_space_group_name_H-M   'P 1'
_cell_length_a   7.14881036
_cell_length_b   9.43730336
_cell_length_c   11.02026238
_cell_angle_alpha   90.00000000
_cell_angle_beta   90.00000000
_cell_angle_gamma   90.00000000
_symmetry_Int_Tables_number   1
_chemical_formula_structural   AlInCl4
_chemical_formula_sum   'Al4 In4 Cl16'
_cell_volume   743.48742377
_cell_formula_units_Z   4
loop_
 _symmetry_equiv_pos_site_id
 _symmetry_equiv_pos_as_xyz
  1  'x, y, z'
loop_
 _atom_site_type_symbol
 _atom_site_label
 _atom_site_symmetry_multiplicity
 _atom_site_fract_x
 _atom_site_fract_y
 _atom_site_fract_z
 _atom_site_occupancy
  Al  Al0  1  0.75000000  0.81123112  0.56699850  1
  Al  Al1  1  0.25000000  0.31123112  0.93300150  1
  Al  Al2  1  0.25000000  0.18876888  0.43300150  1
  Al  Al3  1  0.75000000  0.68876888  0.06699850  1
  In  In4  1  0.75000000  0.31301024  0.68584906  1
  In  In5  1  0.75000000  0.18698976  0.18584906  1
  In  In6  1  0.25000000  0.68698976  0.31415094  1
  In  In7  1  0.25000000  0.81301024  0.81415094  1
  Cl  Cl8  1  0.00479991  0.32313207  0.42498612  1
  Cl  Cl9  1  0.25000000  0.05133053  0.27698874  1
  Cl  Cl10  1  0.49520009  0.17686793  0.92498612  1
  Cl  Cl11  1  0.75000000  0.94866947  0.72301126  1
  Cl  Cl12  1  0.50479991  0.82313207  0.07501388  1
  Cl  Cl13  1  0.75000000  0.55133053  0.22301126  1
  Cl  Cl14  1  0.99520009  0.82313207  0.07501388  1
  Cl  Cl15  1  0.49520009  0.32313207  0.42498612  1
  Cl  Cl16  1  0.75000000  0.92875713  0.40020316  1
  Cl  Cl17  1  0.00479991  0.17686793  0.92498612  1
  Cl  Cl18  1  0.25000000  0.42875713  0.09979684  1
  Cl  Cl19  1  0.75000000  0.57124287  0.90020316  1
  Cl  Cl20  1  0.25000000  0.07124287  0.59979684  1
  Cl  Cl21  1  0.99520009  0.67686793  0.57501388  1
  Cl  Cl22  1  0.50479991  0.67686793  0.57501388  1
  Cl  Cl23  1  0.25000000  0.44866947  0.77698874  1
