# generated using pymatgen
data_Cs4V2S4O3
_symmetry_space_group_name_H-M   'P 1'
_cell_length_a   8.98696506
_cell_length_b   12.66180148
_cell_length_c   13.58315548
_cell_angle_alpha   90.00000000
_cell_angle_beta   90.00000000
_cell_angle_gamma   90.00000000
_symmetry_Int_Tables_number   1
_chemical_formula_structural   Cs4V2S4O3
_chemical_formula_sum   'Cs16 V8 S16 O12'
_cell_volume   1545.64312037
_cell_formula_units_Z   4
loop_
 _symmetry_equiv_pos_site_id
 _symmetry_equiv_pos_as_xyz
  1  'x, y, z'
loop_
 _atom_site_type_symbol
 _atom_site_label
 _atom_site_symmetry_multiplicity
 _atom_site_fract_x
 _atom_site_fract_y
 _atom_site_fract_z
 _atom_site_occupancy
  Cs  Cs0  1  0.75000000  0.14230008  0.44206868  1
  Cs  Cs1  1  0.75000000  0.85014458  0.58719495  1
  Cs  Cs2  1  0.75000000  0.49042794  0.66519438  1
  Cs  Cs3  1  0.75000000  0.64985542  0.08719495  1
  Cs  Cs4  1  0.25000000  0.35014458  0.91280505  1
  Cs  Cs5  1  0.25000000  0.99042794  0.83480562  1
  Cs  Cs6  1  0.75000000  0.35769992  0.94206868  1
  Cs  Cs7  1  0.25000000  0.50957206  0.33480562  1
  Cs  Cs8  1  0.75000000  0.06497321  0.83631843  1
  Cs  Cs9  1  0.25000000  0.93502679  0.16368157  1
  Cs  Cs10  1  0.25000000  0.64230008  0.05793132  1
  Cs  Cs11  1  0.75000000  0.00957206  0.16519438  1
  Cs  Cs12  1  0.25000000  0.14985542  0.41280505  1
  Cs  Cs13  1  0.75000000  0.43502679  0.33631843  1
  Cs  Cs14  1  0.25000000  0.56497321  0.66368157  1
  Cs  Cs15  1  0.25000000  0.85769992  0.55793132  1
  V  V16  1  0.44563807  0.25164634  0.16630445  1
  V  V17  1  0.94563807  0.75164634  0.33369555  1
  V  V18  1  0.44563807  0.24835366  0.66630445  1
  V  V19  1  0.05436193  0.25164634  0.16630445  1
  V  V20  1  0.05436193  0.24835366  0.66630445  1
  V  V21  1  0.55436193  0.75164634  0.33369555  1
  V  V22  1  0.94563807  0.74835366  0.83369555  1
  V  V23  1  0.55436193  0.74835366  0.83369555  1
  S  S24  1  0.50678236  0.91766670  0.36342053  1
  S  S25  1  0.00678236  0.08233330  0.63657947  1
  S  S26  1  0.49321764  0.41766670  0.13657947  1
  S  S27  1  0.48624902  0.15696079  0.03498432  1
  S  S28  1  0.98624902  0.65696079  0.46501568  1
  S  S29  1  0.48624902  0.34303921  0.53498432  1
  S  S30  1  0.00678236  0.41766670  0.13657947  1
  S  S31  1  0.51375098  0.65696079  0.46501568  1
  S  S32  1  0.99321764  0.91766670  0.36342053  1
  S  S33  1  0.98624902  0.84303921  0.96501568  1
  S  S34  1  0.49321764  0.08233330  0.63657947  1
  S  S35  1  0.99321764  0.58233330  0.86342053  1
  S  S36  1  0.01375098  0.15696079  0.03498432  1
  S  S37  1  0.51375098  0.84303921  0.96501568  1
  S  S38  1  0.01375098  0.34303921  0.53498432  1
  S  S39  1  0.50678236  0.58233330  0.86342053  1
  O  O40  1  0.25000000  0.23704270  0.20217548  1
  O  O41  1  0.04994044  0.79188256  0.73985517  1
  O  O42  1  0.45005956  0.70811744  0.23985517  1
  O  O43  1  0.54994044  0.20811744  0.26014483  1
  O  O44  1  0.45005956  0.79188256  0.73985517  1
  O  O45  1  0.04994044  0.70811744  0.23985517  1
  O  O46  1  0.75000000  0.76295730  0.79782452  1
  O  O47  1  0.95005956  0.20811744  0.26014483  1
  O  O48  1  0.25000000  0.26295730  0.70217548  1
  O  O49  1  0.75000000  0.73704270  0.29782452  1
  O  O50  1  0.54994044  0.29188256  0.76014483  1
  O  O51  1  0.95005956  0.29188256  0.76014483  1
