# generated using pymatgen
data_Pr4NiI5
_symmetry_space_group_name_H-M   'P 1'
_cell_length_a   4.22540944
_cell_length_b   9.13763709
_cell_length_c   19.13484258
_cell_angle_alpha   90.00410988
_cell_angle_beta   89.99999635
_cell_angle_gamma   89.99992039
_symmetry_Int_Tables_number   1
_chemical_formula_structural   Pr4NiI5
_chemical_formula_sum   'Pr8 Ni2 I10'
_cell_volume   738.80120703
_cell_formula_units_Z   2
loop_
 _symmetry_equiv_pos_site_id
 _symmetry_equiv_pos_as_xyz
  1  'x, y, z'
loop_
 _atom_site_type_symbol
 _atom_site_label
 _atom_site_symmetry_multiplicity
 _atom_site_fract_x
 _atom_site_fract_y
 _atom_site_fract_z
 _atom_site_occupancy
  Pr  Pr0  1  0.25000010  0.13058574  0.10321900  1
  Pr  Pr1  1  0.74999956  0.91846001  0.24999646  1
  Pr  Pr2  1  0.24999990  0.13059042  0.39679185  1
  Pr  Pr3  1  0.25000063  0.66206906  0.75000144  1
  Pr  Pr4  1  0.74999910  0.86941024  0.60321396  1
  Pr  Pr5  1  0.24999985  0.08153279  0.75000293  1
  Pr  Pr6  1  0.74999956  0.86941462  0.89677368  1
  Pr  Pr7  1  0.74999993  0.33793658  0.24999785  1
  Ni  Ni8  1  0.75000085  0.87405741  0.75003338  1
  Ni  Ni9  1  0.25000036  0.12594748  0.24997297  1
  I  I10  1  0.74999968  0.39404501  0.42034866  1
  I  I11  1  0.25000053  0.14007476  0.92392323  1
  I  I12  1  0.24999999  0.62886020  0.25000381  1
  I  I13  1  0.24999993  0.60595558  0.57965240  1
  I  I14  1  0.75000028  0.39404558  0.07965315  1
  I  I15  1  0.75000008  0.85992290  0.07607353  1
  I  I16  1  0.24999991  0.60595525  0.92034431  1
  I  I17  1  0.25000005  0.14007402  0.57607459  1
  I  I18  1  0.75000020  0.85992329  0.42392737  1
  I  I19  1  0.74999953  0.37113906  0.74999544  1
