# generated using pymatgen
data_Li4Co3O7
_symmetry_space_group_name_H-M   'P 1'
_cell_length_a   2.94542219
_cell_length_b   5.90500368
_cell_length_c   14.55687171
_cell_angle_alpha   83.62384812
_cell_angle_beta   95.94400012
_cell_angle_gamma   91.43738671
_symmetry_Int_Tables_number   1
_chemical_formula_structural   Li4Co3O7
_chemical_formula_sum   'Li8 Co6 O14'
_cell_volume   250.24115305
_cell_formula_units_Z   2
loop_
 _symmetry_equiv_pos_site_id
 _symmetry_equiv_pos_as_xyz
  1  'x, y, z'
loop_
 _atom_site_type_symbol
 _atom_site_label
 _atom_site_symmetry_multiplicity
 _atom_site_fract_x
 _atom_site_fract_y
 _atom_site_fract_z
 _atom_site_occupancy
  Li  Li0  1  0.00350297  0.50454032  0.00445688  1
  Li  Li1  1  0.57142900  0.21428600  0.14285700  1
  Li  Li2  1  0.13935403  0.92403068  0.28125712  1
  Li  Li3  1  0.43100966  0.78643469  0.85864345  1
  Li  Li4  1  0.85645932  0.07199481  0.71350974  1
  Li  Li5  1  0.28639768  0.35657719  0.57220526  1
  Li  Li6  1  0.71184734  0.64213631  0.42707055  1
  Li  Li7  1  0.57142900  0.71428600  0.14285700  1
  Co  Co8  1  0.00267231  0.98970639  0.00831571  1
  Co  Co9  1  0.14018469  0.43886461  0.27739829  1
  Co  Co10  1  0.71126492  0.14412115  0.42566560  1
  Co  Co11  1  0.28596498  0.85936155  0.57110580  1
  Co  Co12  1  0.85689202  0.56921045  0.71460920  1
  Co  Co13  1  0.43159208  0.28444985  0.86004840  1
  O  O14  1  0.45864888  0.23371803  0.99825114  1
  O  O15  1  0.06318126  0.96912199  0.12928741  1
  O  O16  1  0.60963683  0.65889210  0.28639292  1
  O  O17  1  0.92924220  0.51793326  0.85450428  1
  O  O18  1  0.36011129  0.80726025  0.71140888  1
  O  O19  1  0.78972240  0.09549978  0.56773471  1
  O  O20  1  0.21603989  0.37884484  0.41795996  1
  O  O21  1  0.53322017  0.76967990  0.99932208  1
  O  O22  1  0.07967574  0.45945001  0.15642759  1
  O  O23  1  0.68420812  0.19485297  0.28746286  1
  O  O24  1  0.92681711  0.04972616  0.86775404  1
  O  O25  1  0.35313460  0.33307122  0.71797929  1
  O  O26  1  0.78274671  0.62131175  0.57430512  1
  O  O27  1  0.21361480  0.91063774  0.43120972  1
