# generated using pymatgen
data_Li3MnCoO5
_symmetry_space_group_name_H-M   'P 1'
_cell_length_a   2.89202023
_cell_length_b   5.12051353
_cell_length_c   13.15102938
_cell_angle_alpha   99.21769308
_cell_angle_beta   96.31268079
_cell_angle_gamma   73.59676654
_symmetry_Int_Tables_number   1
_chemical_formula_structural   Li3MnCoO5
_chemical_formula_sum   'Li6 Mn2 Co2 O10'
_cell_volume   183.97837381
_cell_formula_units_Z   2
loop_
 _symmetry_equiv_pos_site_id
 _symmetry_equiv_pos_as_xyz
  1  'x, y, z'
loop_
 _atom_site_type_symbol
 _atom_site_label
 _atom_site_symmetry_multiplicity
 _atom_site_fract_x
 _atom_site_fract_y
 _atom_site_fract_z
 _atom_site_occupancy
  Li  Li0  1  0.30000000  0.50000000  0.10000000  1
  Li  Li1  1  0.90549796  0.50617547  0.31717138  1
  Li  Li2  1  0.48807506  0.53872660  0.51487671  1
  Li  Li3  1  0.11192494  0.46127340  0.68512329  1
  Li  Li4  1  0.69450204  0.49382453  0.88282862  1
  Li  Li5  1  0.80000000  0.00000000  0.60000000  1
  Mn  Mn6  1  0.99801270  0.00230996  0.99833536  1
  Mn  Mn7  1  0.60198730  0.99769004  0.20166464  1
  Co  Co8  1  0.19726310  0.02694264  0.42146884  1
  Co  Co9  1  0.40273690  0.97305736  0.77853116  1
  O  O10  1  0.36617289  0.23123539  0.96358116  1
  O  O11  1  0.96669417  0.21298604  0.14637438  1
  O  O12  1  0.55926774  0.21247890  0.33101437  1
  O  O13  1  0.14389927  0.25133488  0.53913343  1
  O  O14  1  0.76304365  0.23047248  0.75655977  1
  O  O15  1  0.23382711  0.76876461  0.23641884  1
  O  O16  1  0.83695635  0.76952752  0.44344023  1
  O  O17  1  0.45610073  0.74866512  0.66086657  1
  O  O18  1  0.04073226  0.78752110  0.86898563  1
  O  O19  1  0.63330583  0.78701396  0.05362562  1
