# generated using pymatgen
data_Rb2Cd2(SO4)3
_symmetry_space_group_name_H-M   'P 1'
_cell_length_a   10.59517809
_cell_length_b   10.59517809
_cell_length_c   10.59517809
_cell_angle_alpha   90.00000000
_cell_angle_beta   90.00000000
_cell_angle_gamma   90.00000000
_symmetry_Int_Tables_number   1
_chemical_formula_structural   Rb2Cd2(SO4)3
_chemical_formula_sum   'Rb8 Cd8 S12 O48'
_cell_volume   1189.39136984
_cell_formula_units_Z   4
loop_
 _symmetry_equiv_pos_site_id
 _symmetry_equiv_pos_as_xyz
  1  'x, y, z'
loop_
 _atom_site_type_symbol
 _atom_site_label
 _atom_site_symmetry_multiplicity
 _atom_site_fract_x
 _atom_site_fract_y
 _atom_site_fract_z
 _atom_site_occupancy
  O  O0  1  0.33660923  0.00350525  0.10379628  1
  O  O1  1  0.83660923  0.49649475  0.89620372  1
  O  O2  1  0.66339077  0.50350525  0.39620372  1
  O  O3  1  0.49649475  0.89620372  0.83660923  1
  O  O4  1  0.39620372  0.66339077  0.50350525  1
  O  O5  1  0.89620372  0.83660923  0.49649475  1
  O  O6  1  0.00350525  0.10379628  0.33660923  1
  O  O7  1  0.10379628  0.33660923  0.00350525  1
  O  O8  1  0.50350525  0.39620372  0.66339077  1
  O  O9  1  0.99649475  0.60379628  0.16339077  1
  O  O10  1  0.60379628  0.16339077  0.99649475  1
  O  O11  1  0.16339077  0.99649475  0.60379628  1
  O  O12  1  0.26174213  0.99406200  0.31899782  1
  O  O13  1  0.76174213  0.50593800  0.68100218  1
  O  O14  1  0.73825787  0.49406200  0.18100218  1
  O  O15  1  0.50593800  0.68100218  0.76174213  1
  O  O16  1  0.18100218  0.73825787  0.49406200  1
  O  O17  1  0.68100218  0.76174213  0.50593800  1
  O  O18  1  0.25225260  0.57643884  0.34416147  1
  O  O19  1  0.99406200  0.31899782  0.26174213  1
  O  O20  1  0.49406200  0.18100218  0.73825787  1
  O  O21  1  0.00593800  0.81899782  0.23825787  1
  O  O22  1  0.81899782  0.23825787  0.00593800  1
  O  O23  1  0.23825787  0.00593800  0.81899782  1
  O  O24  1  0.42356116  0.84416147  0.24774740  1
  O  O25  1  0.92356116  0.65583853  0.75225260  1
  O  O26  1  0.57643884  0.34416147  0.25225260  1
  O  O27  1  0.65583853  0.75225260  0.92356116  1
  O  O28  1  0.02654585  0.93492334  0.78031109  1
  O  O29  1  0.78031109  0.02654585  0.93492334  1
  O  O30  1  0.93492334  0.78031109  0.02654585  1
  O  O31  1  0.56507666  0.21968891  0.52654585  1
  O  O32  1  0.28031109  0.47345415  0.06507666  1
  O  O33  1  0.06507666  0.28031109  0.47345415  1
  O  O34  1  0.71968891  0.97345415  0.43492334  1
  O  O35  1  0.21968891  0.52654585  0.56507666  1
  O  O36  1  0.43492334  0.71968891  0.97345415  1
  O  O37  1  0.52654585  0.56507666  0.21968891  1
  O  O38  1  0.97345415  0.43492334  0.71968891  1
  O  O39  1  0.47345415  0.06507666  0.28031109  1
  O  O40  1  0.07643884  0.15583853  0.74774740  1
  O  O41  1  0.74774740  0.07643884  0.15583853  1
  O  O42  1  0.15583853  0.74774740  0.07643884  1
  O  O43  1  0.34416147  0.25225260  0.57643884  1
  O  O44  1  0.24774740  0.42356116  0.84416147  1
  O  O45  1  0.84416147  0.24774740  0.42356116  1
  O  O46  1  0.75225260  0.92356116  0.65583853  1
  O  O47  1  0.31899782  0.26174213  0.99406200  1
  S  S48  1  0.37432622  0.97633772  0.23639891  1
  S  S49  1  0.87432622  0.52366228  0.76360109  1
  S  S50  1  0.62567378  0.47633772  0.26360109  1
  S  S51  1  0.52366228  0.76360109  0.87432622  1
  S  S52  1  0.26360109  0.62567378  0.47633772  1
  S  S53  1  0.76360109  0.87432622  0.52366228  1
  S  S54  1  0.97633772  0.23639891  0.37432622  1
  S  S55  1  0.23639891  0.37432622  0.97633772  1
  S  S56  1  0.47633772  0.26360109  0.62567378  1
  S  S57  1  0.12567378  0.02366228  0.73639891  1
  S  S58  1  0.73639891  0.12567378  0.02366228  1
  S  S59  1  0.02366228  0.73639891  0.12567378  1
  Rb  Rb60  1  0.43775957  0.93775957  0.56224043  1
  Rb  Rb61  1  0.56224043  0.43775957  0.93775957  1
  Rb  Rb62  1  0.69849645  0.80150355  0.19849645  1
  Rb  Rb63  1  0.93775957  0.56224043  0.43775957  1
  Rb  Rb64  1  0.30150355  0.30150355  0.30150355  1
  Rb  Rb65  1  0.19849645  0.69849645  0.80150355  1
  Rb  Rb66  1  0.80150355  0.19849645  0.69849645  1
  Rb  Rb67  1  0.06224043  0.06224043  0.06224043  1
  Cd  Cd68  1  0.41891028  0.08108972  0.91891028  1
  Cd  Cd69  1  0.91891028  0.41891028  0.08108972  1
  Cd  Cd70  1  0.08108972  0.91891028  0.41891028  1
  Cd  Cd71  1  0.58108972  0.58108972  0.58108972  1
  Cd  Cd72  1  0.16432939  0.33567061  0.66432939  1
  Cd  Cd73  1  0.33567061  0.66432939  0.16432939  1
  Cd  Cd74  1  0.83567061  0.83567061  0.83567061  1
  Cd  Cd75  1  0.66432939  0.16432939  0.33567061  1
