# generated using pymatgen
data_K3Pr2(NO3)9
_symmetry_space_group_name_H-M   'P 1'
_cell_length_a   13.68255411
_cell_length_b   13.68255411
_cell_length_c   13.68255411
_cell_angle_alpha   90.00000000
_cell_angle_beta   90.00000000
_cell_angle_gamma   90.00000000
_symmetry_Int_Tables_number   1
_chemical_formula_structural   K3Pr2(NO3)9
_chemical_formula_sum   'K12 Pr8 N36 O108'
_cell_volume   2561.54224657
_cell_formula_units_Z   4
loop_
 _symmetry_equiv_pos_site_id
 _symmetry_equiv_pos_as_xyz
  1  'x, y, z'
loop_
 _atom_site_type_symbol
 _atom_site_label
 _atom_site_symmetry_multiplicity
 _atom_site_fract_x
 _atom_site_fract_y
 _atom_site_fract_z
 _atom_site_occupancy
  K  K0  1  0.81164071  0.56164071  0.87500000  1
  K  K1  1  0.62500000  0.18835929  0.06164071  1
  K  K2  1  0.43835929  0.37500000  0.68835929  1
  K  K3  1  0.06164071  0.62500000  0.18835929  1
  K  K4  1  0.12500000  0.31164071  0.93835929  1
  K  K5  1  0.68835929  0.43835929  0.37500000  1
  K  K6  1  0.18835929  0.06164071  0.62500000  1
  K  K7  1  0.93835929  0.12500000  0.31164071  1
  K  K8  1  0.37500000  0.68835929  0.43835929  1
  K  K9  1  0.31164071  0.93835929  0.12500000  1
  K  K10  1  0.87500000  0.81164071  0.56164071  1
  K  K11  1  0.56164071  0.87500000  0.81164071  1
  Pr  Pr12  1  0.04943163  0.45056837  0.54943163  1
  Pr  Pr13  1  0.20056837  0.70056837  0.79943163  1
  Pr  Pr14  1  0.70056837  0.79943163  0.20056837  1
  Pr  Pr15  1  0.79943163  0.20056837  0.70056837  1
  Pr  Pr16  1  0.95056837  0.95056837  0.95056837  1
  Pr  Pr17  1  0.29943163  0.29943163  0.29943163  1
  Pr  Pr18  1  0.45056837  0.54943163  0.04943163  1
  Pr  Pr19  1  0.54943163  0.04943163  0.45056837  1
  N  N20  1  0.48619971  0.76380029  0.12500000  1
  N  N21  1  0.11150070  0.83661193  0.64874199  1
  N  N22  1  0.87500000  0.98619971  0.73619971  1
  N  N23  1  0.12500000  0.48619971  0.76380029  1
  N  N24  1  0.35125801  0.61150070  0.66338807  1
  N  N25  1  0.01380029  0.23619971  0.62500000  1
  N  N26  1  0.38849930  0.16338807  0.14874199  1
  N  N27  1  0.63849930  0.89874199  0.58661193  1
  N  N28  1  0.60125801  0.41338807  0.13849930  1
  N  N29  1  0.98619971  0.73619971  0.87500000  1
  N  N30  1  0.61150070  0.66338807  0.35125801  1
  N  N31  1  0.14874199  0.38849930  0.16338807  1
  N  N32  1  0.51380029  0.26380029  0.37500000  1
  N  N33  1  0.85125801  0.88849930  0.33661193  1
  N  N34  1  0.76380029  0.12500000  0.48619971  1
  N  N35  1  0.86150070  0.10125801  0.08661193  1
  N  N36  1  0.37500000  0.51380029  0.26380029  1
  N  N37  1  0.62500000  0.01380029  0.23619971  1
  N  N38  1  0.83661193  0.64874199  0.11150070  1
  N  N39  1  0.23619971  0.62500000  0.01380029  1
  N  N40  1  0.41338807  0.13849930  0.60125801  1
  N  N41  1  0.64874199  0.11150070  0.83661193  1
  N  N42  1  0.88849930  0.33661193  0.85125801  1
  N  N43  1  0.16338807  0.14874199  0.38849930  1
  N  N44  1  0.10125801  0.08661193  0.86150070  1
  N  N45  1  0.08661193  0.86150070  0.10125801  1
  N  N46  1  0.26380029  0.37500000  0.51380029  1
  N  N47  1  0.39874199  0.91338807  0.36150070  1
  N  N48  1  0.89874199  0.58661193  0.63849930  1
  N  N49  1  0.58661193  0.63849930  0.89874199  1
  N  N50  1  0.66338807  0.35125801  0.61150070  1
  N  N51  1  0.36150070  0.39874199  0.91338807  1
  N  N52  1  0.73619971  0.87500000  0.98619971  1
  N  N53  1  0.33661193  0.85125801  0.88849930  1
  N  N54  1  0.13849930  0.60125801  0.41338807  1
  N  N55  1  0.91338807  0.36150070  0.39874199  1
  O  O56  1  0.00235400  0.82498840  0.08340194  1
  O  O57  1  0.16659806  0.42501160  0.24764600  1
  O  O58  1  0.37500000  0.44688046  0.19688046  1
  O  O59  1  0.08890730  0.42679786  0.10656094  1
  O  O60  1  0.94688046  0.30311954  0.62500000  1
  O  O61  1  0.34195446  0.49270777  0.34658556  1
  O  O62  1  0.49764600  0.17501160  0.58340194  1
  O  O63  1  0.33890730  0.85656094  0.32320214  1
  O  O64  1  0.07320214  0.89343906  0.58890730  1
  O  O65  1  0.35975562  0.80467150  0.81033921  1
  O  O66  1  0.15341444  0.65804554  0.99270777  1
  O  O67  1  0.69688046  0.12500000  0.55311954  1
  O  O68  1  0.80311954  0.87500000  0.05311954  1
  O  O69  1  0.10975562  0.93966079  0.05467150  1
  O  O70  1  0.75235400  0.66659806  0.07498840  1
  O  O71  1  0.74764600  0.33340194  0.57498840  1
  O  O72  1  0.32320214  0.33890730  0.85656094  1
  O  O73  1  0.65341444  0.84195446  0.00729223  1
  O  O74  1  0.69532850  0.18966079  0.85975562  1
  O  O75  1  0.84195446  0.00729223  0.65341444  1
  O  O76  1  0.92679786  0.39343906  0.91109270  1
  O  O77  1  0.83340194  0.92501160  0.25235400  1
  O  O78  1  0.49270777  0.34658556  0.34195446  1
  O  O79  1  0.80467150  0.81033921  0.35975562  1
  O  O80  1  0.91659806  0.50235400  0.67501160  1
  O  O81  1  0.25729223  0.59195446  0.09658556  1
  O  O82  1  0.18966079  0.85975562  0.69532850  1
  O  O83  1  0.75729223  0.90804554  0.90341444  1
  O  O84  1  0.19532850  0.31033921  0.14024438  1
  O  O85  1  0.55467150  0.39024438  0.06033921  1
  O  O86  1  0.31033921  0.14024438  0.19532850  1
  O  O87  1  0.41659806  0.99764600  0.32498840  1
  O  O88  1  0.07498840  0.75235400  0.66659806  1
  O  O89  1  0.41109270  0.57320214  0.60656094  1
  O  O90  1  0.83890730  0.64343906  0.67679786  1
  O  O91  1  0.66659806  0.07498840  0.75235400  1
  O  O92  1  0.09195446  0.40341444  0.74270777  1
  O  O93  1  0.67679786  0.83890730  0.64343906  1
  O  O94  1  0.57498840  0.74764600  0.33340194  1
  O  O95  1  0.82498840  0.08340194  0.00235400  1
  O  O96  1  0.17501160  0.58340194  0.49764600  1
  O  O97  1  0.14343906  0.82320214  0.16109270  1
  O  O98  1  0.30311954  0.62500000  0.94688046  1
  O  O99  1  0.39024438  0.06033921  0.55467150  1
  O  O100  1  0.50729223  0.84658556  0.15804554  1
  O  O101  1  0.66109270  0.35656094  0.17679786  1
  O  O102  1  0.74270777  0.09195446  0.40341444  1
  O  O103  1  0.62500000  0.94688046  0.30311954  1
  O  O104  1  0.68966079  0.64024438  0.30467150  1
  O  O105  1  0.33340194  0.57498840  0.74764600  1
  O  O106  1  0.89343906  0.58890730  0.07320214  1
  O  O107  1  0.19688046  0.37500000  0.44688046  1
  O  O108  1  0.90804554  0.90341444  0.75729223  1
  O  O109  1  0.64343906  0.67679786  0.83890730  1
  O  O110  1  0.42679786  0.10656094  0.08890730  1
  O  O111  1  0.06033921  0.55467150  0.39024438  1
  O  O112  1  0.55311954  0.69688046  0.12500000  1
  O  O113  1  0.43966079  0.44532850  0.89024438  1
  O  O114  1  0.00729223  0.65341444  0.84195446  1
  O  O115  1  0.58340194  0.49764600  0.17501160  1
  O  O116  1  0.99270777  0.15341444  0.65804554  1
  O  O117  1  0.94532850  0.60975562  0.56033921  1
  O  O118  1  0.34658556  0.34195446  0.49270777  1
  O  O119  1  0.08340194  0.00235400  0.82498840  1
  O  O120  1  0.09658556  0.25729223  0.59195446  1
  O  O121  1  0.24270777  0.40804554  0.59658556  1
  O  O122  1  0.93966079  0.05467150  0.10975562  1
  O  O123  1  0.44688046  0.19688046  0.37500000  1
  O  O124  1  0.84658556  0.15804554  0.50729223  1
  O  O125  1  0.32498840  0.41659806  0.99764600  1
  O  O126  1  0.50235400  0.67501160  0.91659806  1
  O  O127  1  0.40804554  0.59658556  0.24270777  1
  O  O128  1  0.56033921  0.94532850  0.60975562  1
  O  O129  1  0.39343906  0.91109270  0.92679786  1
  O  O130  1  0.85656094  0.32320214  0.33890730  1
  O  O131  1  0.87500000  0.05311954  0.80311954  1
  O  O132  1  0.59658556  0.24270777  0.40804554  1
  O  O133  1  0.05311954  0.80311954  0.87500000  1
  O  O134  1  0.14024438  0.19532850  0.31033921  1
  O  O135  1  0.57320214  0.60656094  0.41109270  1
  O  O136  1  0.44532850  0.89024438  0.43966079  1
  O  O137  1  0.92501160  0.25235400  0.83340194  1
  O  O138  1  0.15804554  0.50729223  0.84658556  1
  O  O139  1  0.24764600  0.16659806  0.42501160  1
  O  O140  1  0.89024438  0.43966079  0.44532850  1
  O  O141  1  0.91109270  0.92679786  0.39343906  1
  O  O142  1  0.05467150  0.10975562  0.93966079  1
  O  O143  1  0.82320214  0.16109270  0.14343906  1
  O  O144  1  0.42501160  0.24764600  0.16659806  1
  O  O145  1  0.30467150  0.68966079  0.64024438  1
  O  O146  1  0.85975562  0.69532850  0.18966079  1
  O  O147  1  0.99764600  0.32498840  0.41659806  1
  O  O148  1  0.35656094  0.17679786  0.66109270  1
  O  O149  1  0.12500000  0.55311954  0.69688046  1
  O  O150  1  0.16109270  0.14343906  0.82320214  1
  O  O151  1  0.65804554  0.99270777  0.15341444  1
  O  O152  1  0.67501160  0.91659806  0.50235400  1
  O  O153  1  0.59195446  0.09658556  0.25729223  1
  O  O154  1  0.60656094  0.41109270  0.57320214  1
  O  O155  1  0.10656094  0.08890730  0.42679786  1
  O  O156  1  0.40341444  0.74270777  0.09195446  1
  O  O157  1  0.81033921  0.35975562  0.80467150  1
  O  O158  1  0.90341444  0.75729223  0.90804554  1
  O  O159  1  0.58890730  0.07320214  0.89343906  1
  O  O160  1  0.25235400  0.83340194  0.92501160  1
  O  O161  1  0.17679786  0.66109270  0.35656094  1
  O  O162  1  0.64024438  0.30467150  0.68966079  1
  O  O163  1  0.60975562  0.56033921  0.94532850  1
