# generated using pymatgen
data_Ca5P3O12F
_symmetry_space_group_name_H-M   'P 1'
_cell_length_a   9.50088730
_cell_length_b   9.50088729
_cell_length_c   6.91984831
_cell_angle_alpha   90.00000000
_cell_angle_beta   90.00000000
_cell_angle_gamma   119.99999999
_symmetry_Int_Tables_number   1
_chemical_formula_structural   Ca5P3O12F
_chemical_formula_sum   'Ca10 P6 O24 F2'
_cell_volume   540.94802411
_cell_formula_units_Z   2
loop_
 _symmetry_equiv_pos_site_id
 _symmetry_equiv_pos_as_xyz
  1  'x, y, z'
loop_
 _atom_site_type_symbol
 _atom_site_label
 _atom_site_symmetry_multiplicity
 _atom_site_fract_x
 _atom_site_fract_y
 _atom_site_fract_z
 _atom_site_occupancy
  O  O0  1  0.67121077  0.51391362  0.75000000  1
  O  O1  1  0.46558623  0.87750460  0.75000000  1
  O  O2  1  0.34075572  0.25696596  0.43043578  1
  O  O3  1  0.08378976  0.34075572  0.93043578  1
  O  O4  1  0.25696596  0.91621024  0.93043578  1
  O  O5  1  0.74303404  0.08378976  0.43043578  1
  O  O6  1  0.91621024  0.65924428  0.43043578  1
  O  O7  1  0.65924428  0.74303404  0.93043578  1
  O  O8  1  0.65924428  0.74303404  0.56956422  1
  O  O9  1  0.91621024  0.65924428  0.06956422  1
  O  O10  1  0.74303404  0.08378976  0.06956422  1
  O  O11  1  0.25696596  0.91621024  0.56956422  1
  O  O12  1  0.12249540  0.58808163  0.75000000  1
  O  O13  1  0.34075572  0.25696596  0.06956422  1
  O  O14  1  0.41191837  0.53441377  0.75000000  1
  O  O15  1  0.87750460  0.41191837  0.25000000  1
  O  O16  1  0.32878923  0.48608638  0.25000000  1
  O  O17  1  0.84270285  0.32878923  0.75000000  1
  O  O18  1  0.48608638  0.15729715  0.75000000  1
  O  O19  1  0.51391362  0.84270285  0.25000000  1
  O  O20  1  0.15729715  0.67121077  0.25000000  1
  O  O21  1  0.08378976  0.34075572  0.56956422  1
  O  O22  1  0.58808163  0.46558623  0.25000000  1
  O  O23  1  0.53441377  0.12249540  0.25000000  1
  F  F24  1  0.00000000  0.00000000  0.25000000  1
  F  F25  1  0.00000000  0.00000000  0.75000000  1
  P  P26  1  0.63072663  0.02900366  0.25000000  1
  P  P27  1  0.97099634  0.60172297  0.25000000  1
  P  P28  1  0.60172297  0.63072663  0.75000000  1
  P  P29  1  0.36927337  0.97099634  0.75000000  1
  P  P30  1  0.02900366  0.39827703  0.75000000  1
  P  P31  1  0.39827703  0.36927337  0.25000000  1
  Ca  Ca32  1  0.75404801  0.75540338  0.25000000  1
  Ca  Ca33  1  0.00135537  0.24595199  0.25000000  1
  Ca  Ca34  1  0.75540338  0.00135537  0.75000000  1
  Ca  Ca35  1  0.99864463  0.75404801  0.75000000  1
  Ca  Ca36  1  0.24595199  0.24459662  0.75000000  1
  Ca  Ca37  1  0.24459662  0.99864463  0.25000000  1
  Ca  Ca38  1  0.33333333  0.66666667  0.49891452  1
  Ca  Ca39  1  0.66666667  0.33333333  0.99891452  1
  Ca  Ca40  1  0.66666667  0.33333333  0.50108548  1
  Ca  Ca41  1  0.33333333  0.66666667  0.00108548  1
