# generated using pymatgen
data_Tm2In8Co
_symmetry_space_group_name_H-M   'P 1'
_cell_length_a   4.58661003
_cell_length_b   4.58890504
_cell_length_c   12.18873374
_cell_angle_alpha   89.99744817
_cell_angle_beta   89.99472332
_cell_angle_gamma   89.99158496
_symmetry_Int_Tables_number   1
_chemical_formula_structural   Tm2In8Co
_chemical_formula_sum   'Tm2 In8 Co1'
_cell_volume   256.54258721
_cell_formula_units_Z   1
loop_
 _symmetry_equiv_pos_site_id
 _symmetry_equiv_pos_as_xyz
  1  'x, y, z'
loop_
 _atom_site_type_symbol
 _atom_site_label
 _atom_site_symmetry_multiplicity
 _atom_site_fract_x
 _atom_site_fract_y
 _atom_site_fract_z
 _atom_site_occupancy
  Tm  Tm0  1  -0.00000259  0.00001111  0.30749786  1
  Tm  Tm1  1  0.00003254  0.99996694  0.69247409  1
  In  In2  1  0.00000466  0.49999945  0.11984812  1
  In  In3  1  0.49999778  0.99994832  0.11988629  1
  In  In4  1  0.50000311  0.49999892  0.69612451  1
  In  In5  1  0.50001973  0.00017923  0.88009336  1
  In  In6  1  0.49992191  0.50002763  0.30392424  1
  In  In7  1  0.99997552  0.49996828  0.50002079  1
  In  In8  1  0.00001855  0.49991558  0.88011024  1
  In  In9  1  0.50001051  0.99998789  0.50001354  1
  Co  Co10  1  0.00001827  -0.00000334  0.00000695  1
