# generated using pymatgen
data_AlH2PbO2F3
_symmetry_space_group_name_H-M   'P 1'
_cell_length_a   6.39658858
_cell_length_b   6.92344102
_cell_length_c   5.08162277
_cell_angle_alpha   89.61133324
_cell_angle_beta   107.61806191
_cell_angle_gamma   105.47808322
_symmetry_Int_Tables_number   1
_chemical_formula_structural   AlH2PbO2F3
_chemical_formula_sum   'Al2 H4 Pb2 O4 F6'
_cell_volume   206.04027085
_cell_formula_units_Z   2
loop_
 _symmetry_equiv_pos_site_id
 _symmetry_equiv_pos_as_xyz
  1  'x, y, z'
loop_
 _atom_site_type_symbol
 _atom_site_label
 _atom_site_symmetry_multiplicity
 _atom_site_fract_x
 _atom_site_fract_y
 _atom_site_fract_z
 _atom_site_occupancy
  Al  Al0  1  0.18525864  0.67403780  0.16179215  1
  Al  Al1  1  0.81474136  0.32596220  0.83820785  1
  H  H2  1  0.18571136  0.47689356  0.73393896  1
  H  H3  1  0.81428864  0.52310644  0.26606104  1
  H  H4  1  0.14418605  0.86211091  0.73162167  1
  H  H5  1  0.85581395  0.13788909  0.26837833  1
  Pb  Pb6  1  0.68901540  0.80658752  0.79560027  1
  Pb  Pb7  1  0.31098460  0.19341248  0.20439973  1
  O  O8  1  0.13624257  0.45265611  0.90085188  1
  O  O9  1  0.86375743  0.54734389  0.09914812  1
  O  O10  1  0.10310264  0.86297611  0.90434609  1
  O  O11  1  0.89689736  0.13702389  0.09565391  1
  F  F12  1  0.20603497  0.86309685  0.42875550  1
  F  F13  1  0.79396503  0.13690315  0.57124450  1
  F  F14  1  0.26016622  0.51134657  0.44468836  1
  F  F15  1  0.73983378  0.48865343  0.55531164  1
  F  F16  1  0.48558043  0.77151046  0.18802602  1
  F  F17  1  0.51441957  0.22848954  0.81197398  1
