# generated using pymatgen
data_Ca2GaFeO5
_symmetry_space_group_name_H-M   'P 1'
_cell_length_a   5.48166929
_cell_length_b   5.68694243
_cell_length_c   14.73629337
_cell_angle_alpha   89.99877501
_cell_angle_beta   89.99909559
_cell_angle_gamma   89.99965102
_symmetry_Int_Tables_number   1
_chemical_formula_structural   Ca2GaFeO5
_chemical_formula_sum   'Ca8 Ga4 Fe4 O20'
_cell_volume   459.38829096
_cell_formula_units_Z   4
loop_
 _symmetry_equiv_pos_site_id
 _symmetry_equiv_pos_as_xyz
  1  'x, y, z'
loop_
 _atom_site_type_symbol
 _atom_site_label
 _atom_site_symmetry_multiplicity
 _atom_site_fract_x
 _atom_site_fract_y
 _atom_site_fract_z
 _atom_site_occupancy
  Ca  Ca0  1  0.97925463  0.52845584  0.89157779  1
  Ca  Ca1  1  0.52078049  0.02856027  0.39160800  1
  Ca  Ca2  1  0.52074243  0.02849268  0.10841630  1
  Ca  Ca3  1  0.47925170  0.97150902  0.89158341  1
  Ca  Ca4  1  0.47921148  0.97144710  0.60839433  1
  Ca  Ca5  1  0.02078045  0.47150780  0.39160853  1
  Ca  Ca6  1  0.02074799  0.47154052  0.10842057  1
  Ca  Ca7  1  0.97921829  0.52849006  0.60839282  1
  Ga  Ga8  1  0.45178031  0.42918067  0.74997912  1
  Ga  Ga9  1  0.04822853  0.92924243  0.25001097  1
  Ga  Ga10  1  0.95177084  0.07075745  0.74998893  1
  Ga  Ga11  1  0.54822339  0.57082524  0.25002087  1
  Fe  Fe12  1  0.50000147  0.50000035  0.00000008  1
  Fe  Fe13  1  0.50000122  0.49999978  0.50000143  1
  Fe  Fe14  1  -0.00000056  0.99999617  0.49999961  1
  Fe  Fe15  1  0.99999861  0.99999808  0.99999950  1
  O  O16  1  0.39459532  0.87288595  0.25002670  1
  O  O17  1  0.26274005  0.76393652  0.48479703  1
  O  O18  1  0.23710407  0.26409791  0.98477309  1
  O  O19  1  0.53271474  0.57457314  0.85720940  1
  O  O20  1  0.73709241  0.23591244  0.98477577  1
  O  O21  1  0.76289576  0.73590066  0.01522526  1
  O  O22  1  0.76274116  0.73607606  0.48478961  1
  O  O23  1  0.96731701  0.07457662  0.14276582  1
  O  O24  1  0.89458928  0.62718538  0.25002717  1
  O  O25  1  0.10541573  0.37281525  0.74997212  1
  O  O26  1  0.73726310  0.23606250  0.51520507  1
  O  O27  1  0.46728417  0.42542728  0.14279046  1
  O  O28  1  0.53284994  0.57455864  0.64276170  1
  O  O29  1  0.60540388  0.12711968  0.74997337  1
  O  O30  1  0.23726150  0.26392100  0.51521026  1
  O  O31  1  0.96715596  0.07464197  0.35722108  1
  O  O32  1  0.03268333  0.92541998  0.85723436  1
  O  O33  1  0.26290620  0.76408678  0.01522363  1
  O  O34  1  0.46715560  0.42544470  0.35723939  1
  O  O35  1  0.03284452  0.92535207  0.64277946  1
