# generated using pymatgen
data_KLi3Ca7Ti2Si12(O18F)2
_symmetry_space_group_name_H-M   'P 1'
_cell_length_a   9.82675036
_cell_length_b   9.85771743
_cell_length_c   20.11182355
_cell_angle_alpha   81.78137350
_cell_angle_beta   75.85936432
_cell_angle_gamma   60.10386546
_symmetry_Int_Tables_number   1
_chemical_formula_structural   KLi3Ca7Ti2Si12(O18F)2
_chemical_formula_sum   'K2 Li6 Ca14 Ti4 Si24 O72 F4'
_cell_volume   1637.27256367
_cell_formula_units_Z   2
loop_
 _symmetry_equiv_pos_site_id
 _symmetry_equiv_pos_as_xyz
  1  'x, y, z'
loop_
 _atom_site_type_symbol
 _atom_site_label
 _atom_site_symmetry_multiplicity
 _atom_site_fract_x
 _atom_site_fract_y
 _atom_site_fract_z
 _atom_site_occupancy
  K  K0  1  0.92905106  0.75000000  0.25000000  1
  K  K1  1  0.07094894  0.25000000  0.75000000  1
  Li  Li2  1  0.43638583  0.24393956  0.24867669  1
  Li  Li3  1  0.92900207  0.25606044  0.25132331  1
  Li  Li4  1  0.41663918  0.75000000  0.25000000  1
  Li  Li5  1  0.07099793  0.74393956  0.74867669  1
  Li  Li6  1  0.56361417  0.75606044  0.75132331  1
  Li  Li7  1  0.58336082  0.25000000  0.75000000  1
  Ca  Ca8  1  0.43359044  0.85549262  0.99996560  1
  Ca  Ca9  1  0.71095133  0.35549262  0.49996560  1
  Ca  Ca10  1  0.86219911  0.71608824  0.99324061  1
  Ca  Ca11  1  0.14764551  0.07230174  0.48727273  1
  Ca  Ca12  1  0.70721998  0.42769826  0.01272727  1
  Ca  Ca13  1  0.56640956  0.14450738  0.00003440  1
  Ca  Ca14  1  0.00000000  0.00000000  0.00000000  1
  Ca  Ca15  1  0.13780089  0.28391176  0.00675939  1
  Ca  Ca16  1  0.42847203  0.21608824  0.49324061  1
  Ca  Ca17  1  0.28904867  0.64450738  0.50003440  1
  Ca  Ca18  1  0.29278002  0.57230174  0.98727273  1
  Ca  Ca19  1  0.85235449  0.92769826  0.51272727  1
  Ca  Ca20  1  0.00000000  0.50000000  0.50000000  1
  Ca  Ca21  1  0.57152797  0.78391176  0.50675939  1
  Ti  Ti22  1  0.40499192  0.58230140  0.74809734  1
  Ti  Ti23  1  0.73539066  0.91769860  0.75190266  1
  Ti  Ti24  1  0.59500808  0.41769860  0.25190266  1
  Ti  Ti25  1  0.26460934  0.08230140  0.24809734  1
  Si  Si26  1  0.12061645  0.86776767  0.36030380  1
  Si  Si27  1  0.10765998  0.99765084  0.14014641  1
  Si  Si28  1  0.73345529  0.12160346  0.14084221  1
  Si  Si29  1  0.24635122  0.88496394  0.63797418  1
  Si  Si30  1  0.26654471  0.87839654  0.85915779  1
  Si  Si31  1  0.89234002  0.00234916  0.85985359  1
  Si  Si32  1  0.87938355  0.13223233  0.63969620  1
  Si  Si33  1  0.99590096  0.37839654  0.35915779  1
  Si  Si34  1  0.14191234  0.48822098  0.85909095  1
  Si  Si35  1  0.61145393  0.87797509  0.13969118  1
  Si  Si36  1  0.75364878  0.11503606  0.36202582  1
  Si  Si37  1  0.76928935  0.61503606  0.86202582  1
  Si  Si38  1  0.48922427  0.01177902  0.64090905  1
  Si  Si39  1  0.62912021  0.62202491  0.36030882  1
  Si  Si40  1  0.51077573  0.98822098  0.35909095  1
  Si  Si41  1  0.24545724  0.50234916  0.35985359  1
  Si  Si42  1  0.23071065  0.38496394  0.13797418  1
  Si  Si43  1  0.34868792  0.63223233  0.13969620  1
  Si  Si44  1  0.00409904  0.62160346  0.64084221  1
  Si  Si45  1  0.75454276  0.49765084  0.64014641  1
  Si  Si46  1  0.38854607  0.12202491  0.86030882  1
  Si  Si47  1  0.37087979  0.37797509  0.63969118  1
  Si  Si48  1  0.85808766  0.51177902  0.14090905  1
  Si  Si49  1  0.65131208  0.36776767  0.86030380  1
  O  O50  1  0.67777992  0.98686354  0.15975428  1
  O  O51  1  0.40777499  0.40032137  0.30592647  1
  O  O52  1  0.93903552  0.97190664  0.34474801  1
  O  O53  1  0.30266675  0.34034683  0.05703058  1
  O  O54  1  0.72791401  0.18156204  0.06115379  1
  O  O55  1  0.11714971  0.87776658  0.44140327  1
  O  O56  1  0.74430983  0.47190664  0.84474801  1
  O  O57  1  0.26170633  0.73890951  0.68972584  1
  O  O58  1  0.83077941  0.96494745  0.93981249  1
  O  O59  1  0.69733325  0.65965317  0.94296942  1
  O  O60  1  0.56368044  0.37776658  0.94140327  1
  O  O61  1  0.55604589  0.08828669  0.80910028  1
  O  O62  1  0.24811762  0.29991747  0.84479705  1
  O  O63  1  0.24333965  0.91712957  0.30836086  1
  O  O64  1  0.11402283  0.09967863  0.19407353  1
  O  O65  1  0.97062984  0.31843796  0.43884621  1
  O  O66  1  0.92201462  0.03025062  0.14934106  1
  O  O67  1  0.39849664  0.10083396  0.94187043  1
  O  O68  1  0.26446065  0.46494745  0.43981249  1
  O  O69  1  0.89839370  0.53025062  0.64934106  1
  O  O70  1  0.21164322  0.58607767  0.80413913  1
  O  O71  1  0.55879898  0.60083396  0.44187043  1
  O  O72  1  0.45343287  0.41171331  0.69089972  1
  O  O73  1  0.25569017  0.52809336  0.15525199  1
  O  O74  1  0.39283213  0.20008253  0.65520295  1
  O  O75  1  0.17560225  0.48686354  0.65975428  1
  O  O76  1  0.92625781  0.75729470  0.69584960  1
  O  O77  1  0.54656713  0.58828669  0.30910028  1
  O  O78  1  0.62059790  0.25729470  0.19584960  1
  O  O79  1  0.96481801  0.54048388  0.84461088  1
  O  O80  1  0.75188238  0.70008253  0.15520295  1
  O  O81  1  0.02937016  0.68156204  0.56115379  1
  O  O82  1  0.88285029  0.12223342  0.55859673  1
  O  O83  1  0.78835678  0.41392233  0.19586087  1
  O  O84  1  0.60150336  0.89916604  0.05812957  1
  O  O85  1  0.73553935  0.53505255  0.56018751  1
  O  O86  1  0.12582437  0.51853934  0.93898010  1
  O  O87  1  0.41665620  0.01853934  0.43898010  1
  O  O88  1  0.37940210  0.74270530  0.80415040  1
  O  O89  1  0.70004416  0.15965317  0.44296942  1
  O  O90  1  0.30965832  0.23890951  0.18972584  1
  O  O91  1  0.73829367  0.26109049  0.31027416  1
  O  O92  1  0.69034168  0.76109049  0.81027416  1
  O  O93  1  0.16922059  0.03505255  0.06018751  1
  O  O94  1  0.75666035  0.08287043  0.69163914  1
  O  O95  1  0.79491999  0.18929351  0.84029393  1
  O  O96  1  0.43631956  0.62223342  0.05859673  1
  O  O97  1  0.20508001  0.81070649  0.15970607  1
  O  O98  1  0.06096448  0.02809336  0.65525199  1
  O  O99  1  0.10160630  0.46974938  0.35065894  1
  O  O100  1  0.58334380  0.98146066  0.56101990  1
  O  O101  1  0.34991277  0.95951612  0.65538912  1
  O  O102  1  0.87417563  0.48146066  0.06101990  1
  O  O103  1  0.44395411  0.91171331  0.19089972  1
  O  O104  1  0.07374219  0.24270530  0.30415040  1
  O  O105  1  0.82439775  0.51313646  0.34024572  1
  O  O106  1  0.17549257  0.68929351  0.34029393  1
  O  O107  1  0.60186002  0.91392233  0.69586087  1
  O  O108  1  0.60716787  0.79991747  0.34479705  1
  O  O109  1  0.29995584  0.84034683  0.55703058  1
  O  O110  1  0.82450743  0.31070649  0.65970607  1
  O  O111  1  0.44120102  0.39916604  0.55812957  1
  O  O112  1  0.53116992  0.41712957  0.80836086  1
  O  O113  1  0.46883008  0.58287043  0.19163914  1
  O  O114  1  0.07798538  0.96974938  0.85065894  1
  O  O115  1  0.59222501  0.59967863  0.69407353  1
  O  O116  1  0.32222008  0.01313646  0.84024572  1
  O  O117  1  0.88597717  0.90032137  0.80592647  1
  O  O118  1  0.27208599  0.81843796  0.93884621  1
  O  O119  1  0.03518199  0.45951612  0.15538912  1
  O  O120  1  0.39813998  0.08607767  0.30413913  1
  O  O121  1  0.65008723  0.04048388  0.34461088  1
  F  F122  1  0.17046267  0.25514733  0.54144969  1
  F  F123  1  0.96705969  0.24485267  0.95855031  1
  F  F124  1  0.03294031  0.75514733  0.04144969  1
  F  F125  1  0.82953733  0.74485267  0.45855031  1
