# generated using pymatgen
data_Na2ZnSi3O8
_symmetry_space_group_name_H-M   'P 1'
_cell_length_a   6.48052783
_cell_length_b   6.76923561
_cell_length_c   8.74969689
_cell_angle_alpha   90.00000000
_cell_angle_beta   90.00000000
_cell_angle_gamma   103.57538209
_symmetry_Int_Tables_number   1
_chemical_formula_structural   Na2ZnSi3O8
_chemical_formula_sum   'Na4 Zn2 Si6 O16'
_cell_volume   373.11005980
_cell_formula_units_Z   2
loop_
 _symmetry_equiv_pos_site_id
 _symmetry_equiv_pos_as_xyz
  1  'x, y, z'
loop_
 _atom_site_type_symbol
 _atom_site_label
 _atom_site_symmetry_multiplicity
 _atom_site_fract_x
 _atom_site_fract_y
 _atom_site_fract_z
 _atom_site_occupancy
  O  O0  1  0.42053409  0.10905275  0.17115634  1
  O  O1  1  0.57946591  0.89094725  0.67115634  1
  O  O2  1  0.21745695  0.32633677  0.33757084  1
  O  O3  1  0.78254305  0.67366323  0.83757084  1
  O  O4  1  0.97559729  0.05736776  0.76900222  1
  O  O5  1  0.02440271  0.94263224  0.26900222  1
  O  O6  1  0.05908183  0.35536755  0.98541679  1
  O  O7  1  0.94091817  0.64463245  0.48541679  1
  O  O8  1  0.20811339  0.42554682  0.69079672  1
  O  O9  1  0.79188661  0.57445318  0.19079672  1
  O  O10  1  0.75057728  0.20813172  0.48013402  1
  O  O11  1  0.24942272  0.79186828  0.98013402  1
  O  O12  1  0.63832980  0.81386343  0.37750043  1
  O  O13  1  0.36167020  0.18613657  0.87750043  1
  O  O14  1  0.34694338  0.00483682  0.46458303  1
  O  O15  1  0.65305662  0.99516318  0.96458303  1
  Na  Na16  1  0.59180216  0.47085313  0.63346438  1
  Na  Na17  1  0.40819784  0.52914687  0.13346438  1
  Na  Na18  1  0.83114700  0.22061338  0.19058971  1
  Na  Na19  1  0.16885300  0.77938662  0.69058971  1
  Si  Si20  1  0.24976626  0.09998643  0.31414098  1
  Si  Si21  1  0.75023374  0.90001357  0.81414098  1
  Si  Si22  1  0.40572823  0.01143049  0.99652754  1
  Si  Si23  1  0.59427177  0.98856951  0.49652754  1
  Si  Si24  1  0.14438423  0.26768005  0.83229634  1
  Si  Si25  1  0.85561577  0.73231995  0.33229634  1
  Zn  Zn26  1  0.03688560  0.38899678  0.50211065  1
  Zn  Zn27  1  0.96311440  0.61100322  0.00211065  1
