# generated using pymatgen
data_Sr5Re3ClO15
_symmetry_space_group_name_H-M   'P 1'
_cell_length_a   7.52361341
_cell_length_b   10.69220441
_cell_length_c   18.68288893
_cell_angle_alpha   90.00000000
_cell_angle_beta   90.00000000
_cell_angle_gamma   90.00000000
_symmetry_Int_Tables_number   1
_chemical_formula_structural   Sr5Re3ClO15
_chemical_formula_sum   'Sr20 Re12 Cl4 O60'
_cell_volume   1502.92655028
_cell_formula_units_Z   4
loop_
 _symmetry_equiv_pos_site_id
 _symmetry_equiv_pos_as_xyz
  1  'x, y, z'
loop_
 _atom_site_type_symbol
 _atom_site_label
 _atom_site_symmetry_multiplicity
 _atom_site_fract_x
 _atom_site_fract_y
 _atom_site_fract_z
 _atom_site_occupancy
  Sr  Sr0  1  0.27827488  0.48958494  0.25000000  1
  Sr  Sr1  1  0.26036851  0.38601080  0.88985332  1
  Sr  Sr2  1  0.49966240  0.75349646  0.58514683  1
  Sr  Sr3  1  0.00033760  0.25349646  0.41485317  1
  Sr  Sr4  1  0.50033760  0.24650354  0.41485317  1
  Sr  Sr5  1  0.73963149  0.61398920  0.11014668  1
  Sr  Sr6  1  0.50033760  0.24650354  0.08514683  1
  Sr  Sr7  1  0.23963149  0.88601080  0.38985332  1
  Sr  Sr8  1  0.73963149  0.61398920  0.38985332  1
  Sr  Sr9  1  0.49966240  0.75349646  0.91485317  1
  Sr  Sr10  1  0.26036851  0.38601080  0.61014668  1
  Sr  Sr11  1  0.99966240  0.74650354  0.91485317  1
  Sr  Sr12  1  0.22172512  0.98958494  0.75000000  1
  Sr  Sr13  1  0.72172512  0.51041506  0.75000000  1
  Sr  Sr14  1  0.77827488  0.01041506  0.25000000  1
  Sr  Sr15  1  0.76036851  0.11398920  0.88985332  1
  Sr  Sr16  1  0.00033760  0.25349646  0.08514683  1
  Sr  Sr17  1  0.76036851  0.11398920  0.61014668  1
  Sr  Sr18  1  0.23963149  0.88601080  0.11014668  1
  Sr  Sr19  1  0.99966240  0.74650354  0.58514683  1
  Re  Re20  1  0.79229214  0.44089441  0.94269847  1
  Re  Re21  1  0.22060599  0.14639291  0.25000000  1
  Re  Re22  1  0.29229214  0.05910559  0.55730153  1
  Re  Re23  1  0.29229214  0.05910559  0.94269847  1
  Re  Re24  1  0.70770786  0.94089441  0.44269847  1
  Re  Re25  1  0.79229214  0.44089441  0.55730153  1
  Re  Re26  1  0.77939401  0.85360709  0.75000000  1
  Re  Re27  1  0.27939401  0.64639291  0.75000000  1
  Re  Re28  1  0.20770786  0.55910559  0.44269847  1
  Re  Re29  1  0.70770786  0.94089441  0.05730153  1
  Re  Re30  1  0.20770786  0.55910559  0.05730153  1
  Re  Re31  1  0.72060599  0.35360709  0.25000000  1
  Cl  Cl32  1  0.87721418  0.24350243  0.75000000  1
  Cl  Cl33  1  0.62278582  0.74350243  0.25000000  1
  Cl  Cl34  1  0.37721418  0.25649757  0.75000000  1
  Cl  Cl35  1  0.12278582  0.75649757  0.25000000  1
  O  O36  1  0.92287381  0.92925952  0.81790723  1
  O  O37  1  0.73576747  0.60415378  0.96885246  1
  O  O38  1  0.08175962  0.56014306  0.75000000  1
  O  O39  1  0.74936725  0.72611828  0.81744048  1
  O  O40  1  0.42287381  0.57074048  0.68209277  1
  O  O41  1  0.44591700  0.19436882  0.94848262  1
  O  O42  1  0.03852551  0.48879918  0.11630391  1
  O  O43  1  0.22573919  0.09980922  0.46429817  1
  O  O44  1  0.77426081  0.90019078  0.96429817  1
  O  O45  1  0.91824038  0.43985694  0.25000000  1
  O  O46  1  0.27426081  0.59980922  0.96429817  1
  O  O47  1  0.03852551  0.48879918  0.38369609  1
  O  O48  1  0.23576747  0.89584622  0.96885246  1
  O  O49  1  0.96147449  0.51120082  0.61630391  1
  O  O50  1  0.72573919  0.40019078  0.46429817  1
  O  O51  1  0.72573919  0.40019078  0.03570183  1
  O  O52  1  0.55408300  0.80563118  0.05151738  1
  O  O53  1  0.62534757  0.38906595  0.61676300  1
  O  O54  1  0.12534757  0.11093405  0.88323700  1
  O  O55  1  0.12534757  0.11093405  0.61676300  1
  O  O56  1  0.87465243  0.88906595  0.38323700  1
  O  O57  1  0.05408300  0.69436882  0.44848262  1
  O  O58  1  0.26423253  0.39584622  0.46885246  1
  O  O59  1  0.53852551  0.01120082  0.11630391  1
  O  O60  1  0.96147449  0.51120082  0.88369609  1
  O  O61  1  0.57712619  0.42925952  0.18209277  1
  O  O62  1  0.27426081  0.59980922  0.53570183  1
  O  O63  1  0.37465243  0.61093405  0.11676300  1
  O  O64  1  0.25063275  0.27388172  0.31744048  1
  O  O65  1  0.77426081  0.90019078  0.53570183  1
  O  O66  1  0.44591700  0.19436882  0.55151738  1
  O  O67  1  0.26423253  0.39584622  0.03114754  1
  O  O68  1  0.42287381  0.57074048  0.81790723  1
  O  O69  1  0.74936725  0.72611828  0.68255952  1
  O  O70  1  0.53852551  0.01120082  0.38369609  1
  O  O71  1  0.73576747  0.60415378  0.53114754  1
  O  O72  1  0.92287381  0.92925952  0.68209277  1
  O  O73  1  0.87465243  0.88906595  0.11676300  1
  O  O74  1  0.22573919  0.09980922  0.03570183  1
  O  O75  1  0.25063275  0.27388172  0.18255952  1
  O  O76  1  0.46147449  0.98879918  0.88369609  1
  O  O77  1  0.94591700  0.30563118  0.94848262  1
  O  O78  1  0.62534757  0.38906595  0.88323700  1
  O  O79  1  0.55408300  0.80563118  0.44848262  1
  O  O80  1  0.58175962  0.93985694  0.75000000  1
  O  O81  1  0.75063275  0.22611828  0.31744048  1
  O  O82  1  0.07712619  0.07074048  0.18209277  1
  O  O83  1  0.41824038  0.06014306  0.25000000  1
  O  O84  1  0.57712619  0.42925952  0.31790723  1
  O  O85  1  0.24936725  0.77388172  0.81744048  1
  O  O86  1  0.76423253  0.10415378  0.03114754  1
  O  O87  1  0.24936725  0.77388172  0.68255952  1
  O  O88  1  0.23576747  0.89584622  0.53114754  1
  O  O89  1  0.75063275  0.22611828  0.18255952  1
  O  O90  1  0.05408300  0.69436882  0.05151738  1
  O  O91  1  0.37465243  0.61093405  0.38323700  1
  O  O92  1  0.76423253  0.10415378  0.46885246  1
  O  O93  1  0.94591700  0.30563118  0.55151738  1
  O  O94  1  0.46147449  0.98879918  0.61630391  1
  O  O95  1  0.07712619  0.07074048  0.31790723  1
