# generated using pymatgen
data_Li3MnCoO5
_symmetry_space_group_name_H-M   'P 1'
_cell_length_a   2.92656647
_cell_length_b   12.20644572
_cell_length_c   5.19364139
_cell_angle_alpha   94.07470583
_cell_angle_beta   90.00000000
_cell_angle_gamma   83.11494335
_symmetry_Int_Tables_number   1
_chemical_formula_structural   Li3MnCoO5
_chemical_formula_sum   'Li6 Mn2 Co2 O10'
_cell_volume   183.72198556
_cell_formula_units_Z   2
loop_
 _symmetry_equiv_pos_site_id
 _symmetry_equiv_pos_as_xyz
  1  'x, y, z'
loop_
 _atom_site_type_symbol
 _atom_site_label
 _atom_site_symmetry_multiplicity
 _atom_site_fract_x
 _atom_site_fract_y
 _atom_site_fract_z
 _atom_site_occupancy
  Li  Li0  1  0.49749459  0.00501082  0.48804495  1
  Li  Li1  1  0.89111561  0.21776879  0.71230834  1
  Li  Li2  1  0.29763084  0.40473833  0.90912309  1
  Li  Li3  1  0.71083830  0.57832339  0.08380688  1
  Li  Li4  1  0.10814959  0.78370082  0.30640515  1
  Li  Li5  1  0.20059950  0.59880101  0.59258833  1
  Mn  Mn6  1  0.99964330  0.00071340  0.99692253  1
  Mn  Mn7  1  0.60247938  0.79504124  0.79206316  1
  Co  Co8  1  0.39427719  0.21144563  0.22080601  1
  Co  Co9  1  0.79116827  0.41766347  0.42322649  1
  O  O10  1  0.54556395  0.90887210  0.11772825  1
  O  O11  1  0.95400910  0.09198179  0.30814382  1
  O  O12  1  0.35316393  0.29367214  0.53050544  1
  O  O13  1  0.75385192  0.49229617  0.73368380  1
  O  O14  1  0.14153490  0.71693020  0.93639909  1
  O  O15  1  0.45722312  0.08555376  0.86239642  1
  O  O16  1  0.85482318  0.29035363  0.06271295  1
  O  O17  1  0.25236081  0.49527839  0.25350511  1
  O  O18  1  0.64237948  0.71524103  0.48665930  1
  O  O19  1  0.05169305  0.89661390  0.68297089  1
