# generated using pymatgen
data_K4(BSe)9
_symmetry_space_group_name_H-M   'P 1'
_cell_length_a   10.01924387
_cell_length_b   16.25828591
_cell_length_c   22.65691290
_cell_angle_alpha   107.27622703
_cell_angle_beta   97.07200228
_cell_angle_gamma   106.00675033
_symmetry_Int_Tables_number   1
_chemical_formula_structural   K4(BSe)9
_chemical_formula_sum   'K24 B54 Se54'
_cell_volume   3301.98923640
_cell_formula_units_Z   6
loop_
 _symmetry_equiv_pos_site_id
 _symmetry_equiv_pos_as_xyz
  1  'x, y, z'
loop_
 _atom_site_type_symbol
 _atom_site_label
 _atom_site_symmetry_multiplicity
 _atom_site_fract_x
 _atom_site_fract_y
 _atom_site_fract_z
 _atom_site_occupancy
  K  K0  1  0.30008035  0.40033776  0.14471060  1
  K  K1  1  0.85396758  0.85028455  0.71572143  1
  K  K2  1  0.81907285  0.91013224  0.36883569  1
  K  K3  1  0.34114988  0.82801570  0.62171869  1
  K  K4  1  0.44700206  0.83908319  0.00000581  1
  K  K5  1  0.21506704  0.74580147  0.80422693  1
  K  K6  1  0.79533580  0.75320547  0.14839280  1
  K  K7  1  0.82691332  0.60481659  0.51685903  1
  K  K8  1  0.58395829  0.09792938  0.83312682  1
  K  K9  1  0.75088380  0.26472668  0.16643831  1
  K  K10  1  0.80875358  0.39023243  0.99877593  1
  K  K11  1  0.64343586  0.60580067  0.85327233  1
  K  K12  1  0.48511929  0.50567307  0.99989878  1
  K  K13  1  0.71668715  0.20692605  0.37779545  1
  K  K14  1  0.15534750  0.25405674  0.85364868  1
  K  K15  1  0.30754812  0.08754630  0.48330712  1
  K  K16  1  0.13791319  0.59548664  0.00124319  1
  K  K17  1  0.17456984  0.37286088  0.44885980  1
  K  K18  1  0.41159049  0.94122821  0.19562001  1
  K  K19  1  0.45078466  0.54135437  0.63029705  1
  K  K20  1  0.57988580  0.48450533  0.31776895  1
  K  K21  1  0.13616978  0.13608327  0.28549463  1
  K  K22  1  0.72388462  0.92007578  0.55145217  1
  K  K23  1  0.26136493  0.16734494  0.68017423  1
  B  B24  1  0.10598900  0.58920938  0.26149997  1
  B  B25  1  0.02838997  0.39837527  0.31656026  1
  B  B26  1  0.16639356  0.01631922  0.83422643  1
  B  B27  1  0.14324372  0.77408787  0.33192526  1
  B  B28  1  0.11806494  0.86915907  0.49510793  1
  B  B29  1  0.80245007  0.25686952  0.60178174  1
  B  B30  1  0.98632557  0.02313257  0.93203831  1
  B  B31  1  0.45876224  0.67961559  0.49232547  1
  B  B32  1  0.01406189  0.66422033  0.29252344  1
  B  B33  1  0.90816022  0.44082660  0.73762294  1
  B  B34  1  0.83669240  0.98340724  0.16584453  1
  B  B35  1  0.05802236  0.91162071  0.00010053  1
  B  B36  1  0.09855433  0.27418319  0.99923093  1
  B  B37  1  0.80911513  0.51243372  0.17737841  1
  B  B38  1  0.99295202  0.62003473  0.66198446  1
  B  B39  1  0.05420119  0.09130845  0.06818786  1
  B  B40  1  0.71656297  0.25770348  0.66535537  1
  B  B41  1  0.98221328  0.32547152  0.63249630  1
  B  B42  1  0.72243417  0.37212409  0.70677137  1
  B  B43  1  0.63200236  0.33651039  0.82189080  1
  B  B44  1  0.81197800  0.44242030  0.66733713  1
  B  B45  1  0.67084297  0.81881384  0.83368276  1
  B  B46  1  0.84491620  0.32822499  0.73817465  1
  B  B47  1  0.94099041  0.08926973  0.99998439  1
  B  B48  1  0.87421525  0.01617249  0.04291348  1
  B  B49  1  0.94656195  0.91055624  0.93216598  1
  B  B50  1  0.25317694  0.76845386  0.39840844  1
  B  B51  1  0.34930015  0.69245931  0.36724391  1
  B  B52  1  0.19998139  0.65475395  0.39799005  1
  B  B53  1  0.01259719  0.36988396  0.71735434  1
  B  B54  1  0.98740256  0.43873493  0.67077705  1
  B  B55  1  0.83138890  0.97347135  0.95737990  1
  B  B56  1  0.96914001  0.18856146  0.50793185  1
  B  B57  1  0.21922310  0.58194602  0.32497115  1
  B  B58  1  0.85487325  0.36991902  0.60090770  1
  B  B59  1  0.32964142  0.95683271  0.33739642  1
  B  B60  1  0.06978609  0.70652643  0.37745078  1
  B  B61  1  0.01475537  0.97841512  0.06811003  1
  B  B62  1  0.62364711  0.37439419  0.50395426  1
  B  B63  1  0.69274846  0.32899005  0.62182053  1
  B  B64  1  0.31557038  0.76733337  0.32879326  1
  B  B65  1  0.12156455  0.09576926  0.00013647  1
  B  B66  1  0.18310710  0.52670772  0.83584925  1
  B  B67  1  0.87942618  0.90665917  0.00012180  1
  B  B68  1  0.16929077  0.70249598  0.26178395  1
  B  B69  1  0.29438369  0.65204143  0.28237601  1
  B  B70  1  0.89482625  0.25728120  0.67490526  1
  B  B71  1  0.89100726  0.72440260  0.00017199  1
  B  B72  1  0.16907130  0.02793294  0.04285544  1
  B  B73  1  0.05045171  0.59170780  0.33444765  1
  B  B74  1  0.12669248  0.98528568  0.95751317  1
  B  B75  1  0.33117450  0.18125238  0.16616244  1
  B  B76  1  0.34906313  0.69144035  0.16452454  1
  B  B77  1  0.71371073  0.08204571  0.68335362  1
  Se  Se78  1  0.99857529  0.54783559  0.81934764  1
  Se  Se79  1  0.08295594  0.96353121  0.55796670  1
  Se  Se80  1  0.86125361  0.80425016  0.85055215  1
  Se  Se81  1  0.95337470  0.27142136  0.30270568  1
  Se  Se82  1  0.36307956  0.07725856  0.10212124  1
  Se  Se83  1  0.91678942  0.14269507  0.68541093  1
  Se  Se84  1  0.77140627  0.15163980  0.52072466  1
  Se  Se85  1  0.13979046  0.19531177  0.15094777  1
  Se  Se86  1  0.99128074  0.48626280  0.18056094  1
  Se  Se87  1  0.20201470  0.41290074  0.77860189  1
  Se  Se88  1  0.45882387  0.88307614  0.33116492  1
  Se  Se89  1  0.81150572  0.62694170  0.24347432  1
  Se  Se90  1  0.14607079  0.39735786  0.99894118  1
  Se  Se91  1  0.83333523  0.39495624  0.51867794  1
  Se  Se92  1  0.95741325  0.75793315  0.43806592  1
  Se  Se93  1  0.22983971  0.45662710  0.31490337  1
  Se  Se94  1  0.53686922  0.70677790  0.42050447  1
  Se  Se95  1  0.12647855  0.89491035  0.33313030  1
  Se  Se96  1  0.34355124  0.61315743  0.90199992  1
  Se  Se97  1  0.56887853  0.38476701  0.75551125  1
  Se  Se98  1  0.08941215  0.79376259  0.00033376  1
  Se  Se99  1  0.90152579  0.20412184  0.99928182  1
  Se  Se100  1  0.47632475  0.26150083  0.23915961  1
  Se  Se101  1  0.12810191  0.55216993  0.66819867  1
  Se  Se102  1  0.23751493  0.02440002  0.76105836  1
  Se  Se103  1  0.75040811  0.78847759  0.00042170  1
  Se  Se104  1  0.58475644  0.70295597  0.57068459  1
  Se  Se105  1  0.01536071  0.13282392  0.42947596  1
  Se  Se106  1  0.26154313  0.97556900  0.89828297  1
  Se  Se107  1  0.44493420  0.71222462  0.09913166  1
  Se  Se108  1  0.11828531  0.28813843  0.57995421  1
  Se  Se109  1  0.17938797  0.72785113  0.18005121  1
  Se  Se110  1  0.05251452  0.73891553  0.65669477  1
  Se  Se111  1  0.63806496  0.92346491  0.89717656  1
  Se  Se112  1  0.65296298  0.96920161  0.69743782  1
  Se  Se113  1  0.31307582  0.87533368  0.48070184  1
  Se  Se114  1  0.52469795  0.40651508  0.44160542  1
  Se  Se115  1  0.79417575  0.56211798  0.66624612  1
  Se  Se116  1  0.63906203  0.42856988  0.11603733  1
  Se  Se117  1  0.91216808  0.47919811  0.33872067  1
  Se  Se118  1  0.39547461  0.08125893  0.34333891  1
  Se  Se119  1  0.24682887  0.21620436  0.99991084  1
  Se  Se120  1  0.98936838  0.04431366  0.84917731  1
  Se  Se121  1  0.74064589  0.02562683  0.10286855  1
  Se  Se122  1  0.52351996  0.31474909  0.88316078  1
  Se  Se123  1  0.24813112  0.63026715  0.47897479  1
  Se  Se124  1  0.81052628  0.30635015  0.81914764  1
  Se  Se125  1  0.76403773  0.97293419  0.23802618  1
  Se  Se126  1  0.01195318  0.95391237  0.14980027  1
  Se  Se127  1  0.52000584  0.31998409  0.56079632  1
  Se  Se128  1  0.52537774  0.73611921  0.76139760  1
  Se  Se129  1  0.42298200  0.63357192  0.22148108  1
  Se  Se130  1  0.82365803  0.60246836  0.00108919  1
  Se  Se131  1  0.57467416  0.14072297  0.66152787  1
