# generated using pymatgen
data_TmMoO4F
_symmetry_space_group_name_H-M   'P 1'
_cell_length_a   5.21483804
_cell_length_b   6.62755447
_cell_length_c   12.32380233
_cell_angle_alpha   90.00000000
_cell_angle_beta   90.00000000
_cell_angle_gamma   112.91739971
_symmetry_Int_Tables_number   1
_chemical_formula_structural   TmMoO4F
_chemical_formula_sum   'Tm4 Mo4 O16 F4'
_cell_volume   392.31071306
_cell_formula_units_Z   4
loop_
 _symmetry_equiv_pos_site_id
 _symmetry_equiv_pos_as_xyz
  1  'x, y, z'
loop_
 _atom_site_type_symbol
 _atom_site_label
 _atom_site_symmetry_multiplicity
 _atom_site_fract_x
 _atom_site_fract_y
 _atom_site_fract_z
 _atom_site_occupancy
  Tm  Tm0  1  0.83865864  0.19942350  0.94953349  1
  Tm  Tm1  1  0.16134136  0.80057650  0.05046651  1
  Tm  Tm2  1  0.66134136  0.30057650  0.44953349  1
  Tm  Tm3  1  0.33865864  0.69942350  0.55046651  1
  Mo  Mo4  1  0.44882999  0.36968621  0.14371851  1
  Mo  Mo5  1  0.94882999  0.86968621  0.35628149  1
  Mo  Mo6  1  0.05117001  0.13031379  0.64371851  1
  Mo  Mo7  1  0.55117001  0.63031379  0.85628149  1
  O  O8  1  0.83839418  0.83960258  0.93133229  1
  O  O9  1  0.27380904  0.96293618  0.43565536  1
  O  O10  1  0.14581036  0.90376251  0.65318336  1
  O  O11  1  0.51102933  0.70478542  0.72068429  1
  O  O12  1  0.85418964  0.09623749  0.34681664  1
  O  O13  1  0.98897067  0.79521458  0.22068429  1
  O  O14  1  0.66160582  0.66039742  0.43133229  1
  O  O15  1  0.72619096  0.03706382  0.56434464  1
  O  O16  1  0.16160582  0.16039742  0.06866771  1
  O  O17  1  0.48897067  0.29521458  0.27931571  1
  O  O18  1  0.22619096  0.53706382  0.93565536  1
  O  O19  1  0.01102933  0.20478542  0.77931571  1
  O  O20  1  0.64581036  0.40376251  0.84681664  1
  O  O21  1  0.77380904  0.46293618  0.06434464  1
  O  O22  1  0.33839418  0.33960258  0.56866771  1
  O  O23  1  0.35418964  0.59623749  0.15318336  1
  F  F24  1  0.42116375  0.96405067  0.90271772  1
  F  F25  1  0.92116375  0.46405067  0.59728228  1
  F  F26  1  0.07883625  0.53594933  0.40271772  1
  F  F27  1  0.57883625  0.03594933  0.09728228  1
