# generated using pymatgen
data_In2Br3
_symmetry_space_group_name_H-M   'P 1'
_cell_length_a   13.23698973
_cell_length_b   13.40572618
_cell_length_c   16.78481328
_cell_angle_alpha   90.00000000
_cell_angle_beta   90.00000000
_cell_angle_gamma   90.00000000
_symmetry_Int_Tables_number   1
_chemical_formula_structural   In2Br3
_chemical_formula_sum   'In32 Br48'
_cell_volume   2978.48961847
_cell_formula_units_Z   16
loop_
 _symmetry_equiv_pos_site_id
 _symmetry_equiv_pos_as_xyz
  1  'x, y, z'
loop_
 _atom_site_type_symbol
 _atom_site_label
 _atom_site_symmetry_multiplicity
 _atom_site_fract_x
 _atom_site_fract_y
 _atom_site_fract_z
 _atom_site_occupancy
  In  In0  1  0.02306223  0.82379189  0.74836455  1
  In  In1  1  0.03563053  0.51131538  0.24678285  1
  In  In2  1  0.11067898  0.19476320  0.66909643  1
  In  In3  1  0.11642843  0.19339259  0.83524942  1
  In  In4  1  0.14689479  0.52003222  0.94999001  1
  In  In5  1  0.18823357  0.89367863  0.05496407  1
  In  In6  1  0.17989166  0.88195961  0.44124841  1
  In  In7  1  0.18930189  0.65231970  0.24997128  1
  In  In8  1  0.31069811  0.15231970  0.25002872  1
  In  In9  1  0.32010834  0.38195961  0.05875159  1
  In  In10  1  0.31176643  0.39367863  0.44503593  1
  In  In11  1  0.35310521  0.02003222  0.55000999  1
  In  In12  1  0.38357157  0.69339259  0.66475058  1
  In  In13  1  0.38932102  0.69476320  0.83090357  1
  In  In14  1  0.46436947  0.01131538  0.25321715  1
  In  In15  1  0.47693777  0.32379189  0.75163545  1
  In  In16  1  0.52306223  0.67620811  0.25163545  1
  In  In17  1  0.53563053  0.98868462  0.75321715  1
  In  In18  1  0.61642843  0.30660741  0.16475058  1
  In  In19  1  0.61067898  0.30523680  0.33090357  1
  In  In20  1  0.64689479  0.97996778  0.05000999  1
  In  In21  1  0.68823357  0.60632137  0.94503593  1
  In  In22  1  0.67989166  0.61804039  0.55875159  1
  In  In23  1  0.68930189  0.84768030  0.75002872  1
  In  In24  1  0.81069811  0.34768030  0.74997128  1
  In  In25  1  0.82010834  0.11804039  0.94124841  1
  In  In26  1  0.81176643  0.10632137  0.55496407  1
  In  In27  1  0.85310521  0.47996778  0.44999001  1
  In  In28  1  0.88932102  0.80523680  0.16909643  1
  In  In29  1  0.88357157  0.80660741  0.33524942  1
  In  In30  1  0.96436947  0.48868462  0.74678285  1
  In  In31  1  0.97693777  0.17620811  0.24836455  1
  Br  Br32  1  0.01074252  0.69888276  0.08057344  1
  Br  Br33  1  0.00825384  0.69780455  0.41981427  1
  Br  Br34  1  0.05928301  0.38794760  0.12845733  1
  Br  Br35  1  0.05348356  0.39292351  0.37388021  1
  Br  Br36  1  0.07754724  0.01760009  0.60466922  1
  Br  Br37  1  0.07355987  0.01645939  0.89479505  1
  Br  Br38  1  0.15994734  0.84824311  0.24970091  1
  Br  Br39  1  0.15888661  0.46063670  0.75360240  1
  Br  Br40  1  0.18832333  0.13220743  0.12711353  1
  Br  Br41  1  0.18977741  0.13282540  0.37404458  1
  Br  Br42  1  0.20817841  0.74086312  0.60564321  1
  Br  Br43  1  0.20940571  0.73817408  0.89279103  1
  Br  Br44  1  0.29182159  0.24086312  0.89435679  1
  Br  Br45  1  0.29059429  0.23817408  0.60720897  1
  Br  Br46  1  0.31022259  0.63282540  0.12595542  1
  Br  Br47  1  0.31167667  0.63220743  0.37288647  1
  Br  Br48  1  0.34111339  0.96063670  0.74639760  1
  Br  Br49  1  0.34005266  0.34824311  0.25029909  1
  Br  Br50  1  0.42245276  0.51760009  0.89533078  1
  Br  Br51  1  0.42644013  0.51645939  0.60520495  1
  Br  Br52  1  0.44651644  0.89292351  0.12611979  1
  Br  Br53  1  0.44071699  0.88794760  0.37154267  1
  Br  Br54  1  0.49174616  0.19780455  0.08018573  1
  Br  Br55  1  0.48925748  0.19888276  0.41942656  1
  Br  Br56  1  0.50825384  0.80219545  0.58018573  1
  Br  Br57  1  0.51074252  0.80111724  0.91942656  1
  Br  Br58  1  0.55348356  0.10707649  0.62611979  1
  Br  Br59  1  0.55928301  0.11205240  0.87154267  1
  Br  Br60  1  0.57754724  0.48239991  0.39533078  1
  Br  Br61  1  0.57355987  0.48354061  0.10520495  1
  Br  Br62  1  0.65994734  0.65175689  0.75029909  1
  Br  Br63  1  0.65888661  0.03936330  0.24639760  1
  Br  Br64  1  0.68977741  0.36717460  0.62595542  1
  Br  Br65  1  0.68832333  0.36779257  0.87288647  1
  Br  Br66  1  0.70817841  0.75913688  0.39435679  1
  Br  Br67  1  0.70940571  0.76182592  0.10720897  1
  Br  Br68  1  0.79182159  0.25913688  0.10564321  1
  Br  Br69  1  0.79059429  0.26182592  0.39279103  1
  Br  Br70  1  0.81022259  0.86717460  0.87404458  1
  Br  Br71  1  0.81167667  0.86779257  0.62711353  1
  Br  Br72  1  0.84111339  0.53936330  0.25360240  1
  Br  Br73  1  0.84005266  0.15175689  0.74970091  1
  Br  Br74  1  0.92644013  0.98354061  0.39479505  1
  Br  Br75  1  0.92245276  0.98239991  0.10466922  1
  Br  Br76  1  0.94651644  0.60707649  0.87388021  1
  Br  Br77  1  0.94071699  0.61205240  0.62845733  1
  Br  Br78  1  0.98925748  0.30111724  0.58057344  1
  Br  Br79  1  0.99174616  0.30219545  0.91981427  1
