# generated using pymatgen
data_RbLiB4O7
_symmetry_space_group_name_H-M   'P 1'
_cell_length_a   8.81126991
_cell_length_b   11.45887555
_cell_length_c   13.07206186
_cell_angle_alpha   90.00000000
_cell_angle_beta   90.00000000
_cell_angle_gamma   90.00000000
_symmetry_Int_Tables_number   1
_chemical_formula_structural   RbLiB4O7
_chemical_formula_sum   'Rb8 Li8 B32 O56'
_cell_volume   1319.85007687
_cell_formula_units_Z   8
loop_
 _symmetry_equiv_pos_site_id
 _symmetry_equiv_pos_as_xyz
  1  'x, y, z'
loop_
 _atom_site_type_symbol
 _atom_site_label
 _atom_site_symmetry_multiplicity
 _atom_site_fract_x
 _atom_site_fract_y
 _atom_site_fract_z
 _atom_site_occupancy
  Li  Li0  1  0.75479976  0.67281685  0.80789577  1
  Li  Li1  1  0.25479976  0.82718315  0.19210423  1
  Li  Li2  1  0.24520024  0.17281685  0.69210423  1
  Li  Li3  1  0.74520024  0.32718315  0.30789577  1
  Li  Li4  1  0.08152453  0.64606642  0.88127471  1
  Li  Li5  1  0.58152453  0.85393358  0.11872529  1
  Li  Li6  1  0.91847547  0.14606642  0.61872529  1
  Li  Li7  1  0.41847547  0.35393358  0.38127471  1
  B  B8  1  0.36410304  0.72404851  0.98775795  1
  B  B9  1  0.86410304  0.77595149  0.01224205  1
  B  B10  1  0.63589696  0.22404851  0.51224205  1
  B  B11  1  0.13589696  0.27595149  0.48775795  1
  B  B12  1  0.43016605  0.59747869  0.83634276  1
  B  B13  1  0.93016605  0.90252131  0.16365724  1
  B  B14  1  0.56983395  0.09747869  0.66365724  1
  B  B15  1  0.06983395  0.40252131  0.33634276  1
  B  B16  1  0.23750574  0.42181735  0.84145400  1
  B  B17  1  0.73750574  0.07818265  0.15854600  1
  B  B18  1  0.76249426  0.92181735  0.65854600  1
  B  B19  1  0.26249426  0.57818265  0.34145400  1
  B  B20  1  0.06534020  0.25541908  0.80600943  1
  B  B21  1  0.56534020  0.24458092  0.19399057  1
  B  B22  1  0.93465980  0.75541908  0.69399057  1
  B  B23  1  0.43465980  0.74458092  0.30600943  1
  B  B24  1  0.00874818  0.39110288  0.95308585  1
  B  B25  1  0.50874818  0.10889712  0.04691415  1
  B  B26  1  0.99125182  0.89110288  0.54691415  1
  B  B27  1  0.49125182  0.60889712  0.45308585  1
  B  B28  1  0.99483313  0.37932325  0.14444999  1
  B  B29  1  0.49483313  0.12067675  0.85555001  1
  B  B30  1  0.00516687  0.87932325  0.35555001  1
  B  B31  1  0.50516687  0.62067675  0.64444999  1
  B  B32  1  0.79947383  0.48708139  0.05246730  1
  B  B33  1  0.29947383  0.01291861  0.94753270  1
  B  B34  1  0.20052617  0.98708139  0.44753270  1
  B  B35  1  0.70052617  0.51291861  0.55246730  1
  B  B36  1  0.62849675  0.64360820  0.97919081  1
  B  B37  1  0.12849675  0.85639180  0.02080919  1
  B  B38  1  0.37150325  0.14360820  0.52080919  1
  B  B39  1  0.87150325  0.35639180  0.47919081  1
  O  O40  1  0.32099394  0.66969199  0.89808635  1
  O  O41  1  0.82099394  0.83030801  0.10191365  1
  O  O42  1  0.67900606  0.16969199  0.60191365  1
  O  O43  1  0.17900606  0.33030801  0.39808635  1
  O  O44  1  0.43448544  0.65175461  0.73300721  1
  O  O45  1  0.93448544  0.84824539  0.26699279  1
  O  O46  1  0.56551456  0.15175461  0.76699279  1
  O  O47  1  0.06551456  0.34824539  0.23300721  1
  O  O48  1  0.37065916  0.47631269  0.82039336  1
  O  O49  1  0.87065916  0.02368731  0.17960664  1
  O  O50  1  0.62934084  0.97631269  0.67960664  1
  O  O51  1  0.12934084  0.52368731  0.32039336  1
  O  O52  1  0.20625807  0.31691808  0.79009147  1
  O  O53  1  0.70625807  0.18308192  0.20990853  1
  O  O54  1  0.79374193  0.81691808  0.70990853  1
  O  O55  1  0.29374193  0.68308192  0.29009147  1
  O  O56  1  0.03314010  0.16609837  0.74431500  1
  O  O57  1  0.53314010  0.33390163  0.25568500  1
  O  O58  1  0.96685990  0.66609837  0.75568500  1
  O  O59  1  0.46685990  0.83390163  0.24431500  1
  O  O60  1  0.97388366  0.29178062  0.88597247  1
  O  O61  1  0.47388366  0.20821938  0.11402753  1
  O  O62  1  0.02611634  0.79178062  0.61402753  1
  O  O63  1  0.52611634  0.70821938  0.38597247  1
  O  O64  1  0.13169655  0.46638823  0.90900152  1
  O  O65  1  0.63169655  0.03361177  0.09099848  1
  O  O66  1  0.86830345  0.96638823  0.59099848  1
  O  O67  1  0.36830345  0.53361177  0.40900152  1
  O  O68  1  0.87210564  0.46425091  0.96253987  1
  O  O69  1  0.37210564  0.03574909  0.03746013  1
  O  O70  1  0.12789436  0.96425091  0.53746013  1
  O  O71  1  0.62789436  0.53574909  0.46253987  1
  O  O72  1  0.06210304  0.34883840  0.05394593  1
  O  O73  1  0.56210304  0.15116160  0.94605407  1
  O  O74  1  0.93789696  0.84883840  0.44605407  1
  O  O75  1  0.43789696  0.65116160  0.55394593  1
  O  O76  1  0.85711260  0.44142366  0.14525171  1
  O  O77  1  0.35711260  0.05857634  0.85474829  1
  O  O78  1  0.14288740  0.94142366  0.35474829  1
  O  O79  1  0.64288740  0.55857634  0.64525171  1
  O  O80  1  0.67335888  0.55590144  0.05891336  1
  O  O81  1  0.17335888  0.94409856  0.94108664  1
  O  O82  1  0.32664112  0.05590144  0.44108664  1
  O  O83  1  0.82664112  0.44409856  0.55891336  1
  O  O84  1  0.57973212  0.59186124  0.88256699  1
  O  O85  1  0.07973212  0.90813876  0.11743301  1
  O  O86  1  0.42026788  0.09186124  0.61743301  1
  O  O87  1  0.92026788  0.40813876  0.38256699  1
  O  O88  1  0.76239746  0.71611813  0.95296619  1
  O  O89  1  0.26239746  0.78388187  0.04703381  1
  O  O90  1  0.23760254  0.21611813  0.54703381  1
  O  O91  1  0.73760254  0.28388187  0.45296619  1
  O  O92  1  0.50948381  0.71704612  0.02630623  1
  O  O93  1  0.00948381  0.78295388  0.97369377  1
  O  O94  1  0.49051619  0.21704612  0.47369377  1
  O  O95  1  0.99051619  0.28295388  0.52630623  1
  Rb  Rb96  1  0.36622810  0.45458063  0.09979002  1
  Rb  Rb97  1  0.86622810  0.04541937  0.90020998  1
  Rb  Rb98  1  0.63377190  0.95458063  0.40020998  1
  Rb  Rb99  1  0.13377190  0.54541937  0.59979002  1
  Rb  Rb100  1  0.69165587  0.37339569  0.79256666  1
  Rb  Rb101  1  0.19165587  0.12660431  0.20743334  1
  Rb  Rb102  1  0.30834413  0.87339569  0.70743334  1
  Rb  Rb103  1  0.80834413  0.62660431  0.29256666  1
