# generated using pymatgen
data_KCuF3
_symmetry_space_group_name_H-M   'P 1'
_cell_length_a   7.99888603
_cell_length_b   8.28811070
_cell_length_c   8.29637445
_cell_angle_alpha   89.99825584
_cell_angle_beta   89.99652437
_cell_angle_gamma   89.99732592
_symmetry_Int_Tables_number   1
_chemical_formula_structural   KCuF3
_chemical_formula_sum   'K8 Cu8 F24'
_cell_volume   550.01355919
_cell_formula_units_Z   8
loop_
 _symmetry_equiv_pos_site_id
 _symmetry_equiv_pos_as_xyz
  1  'x, y, z'
loop_
 _atom_site_type_symbol
 _atom_site_label
 _atom_site_symmetry_multiplicity
 _atom_site_fract_x
 _atom_site_fract_y
 _atom_site_fract_z
 _atom_site_occupancy
  K  K0  1  0.24970235  0.25062964  0.25042123  1
  K  K1  1  0.25038777  0.74941208  0.75061348  1
  K  K2  1  0.25032049  0.75051358  0.25041676  1
  K  K3  1  0.74960277  0.25059608  0.24938000  1
  K  K4  1  0.75024201  0.75040061  0.24938320  1
  K  K5  1  0.24976265  0.24960318  0.75061535  1
  K  K6  1  0.74967499  0.24948697  0.74957653  1
  K  K7  1  0.75029693  0.74936136  0.74959128  1
  Cu  Cu8  1  0.49999526  -0.00001393  0.50001165  1
  Cu  Cu9  1  0.99998665  0.00001674  0.49999132  1
  Cu  Cu10  1  0.49999000  0.50001532  0.49999336  1
  Cu  Cu11  1  0.99999322  0.00000865  0.00000914  1
  Cu  Cu12  1  0.50000744  0.50000521  0.00000521  1
  Cu  Cu13  1  0.50003058  0.99997109  0.00000748  1
  Cu  Cu14  1  0.00000153  0.49999136  0.00001158  1
  Cu  Cu15  1  0.00001991  0.50000227  0.50000609  1
  F  F16  1  0.49769176  0.49991670  0.26460495  1
  F  F17  1  0.24998417  0.00058294  0.00065183  1
  F  F18  1  0.00228087  0.76390072  0.00010074  1
  F  F19  1  0.74976252  0.50055930  0.49935498  1
  F  F20  1  0.49776596  0.00012142  0.76478232  1
  F  F21  1  0.49784452  0.26411534  0.00006062  1
  F  F22  1  0.75001155  0.99941951  0.99934415  1
  F  F23  1  0.99766519  0.26437439  0.49997130  1
  F  F24  1  0.75012606  0.00046319  0.49946498  1
  F  F25  1  0.25023585  0.49943923  0.50064525  1
  F  F26  1  0.49773744  0.23525431  0.50007162  1
  F  F27  1  0.24978425  0.50052666  0.00060829  1
  F  F28  1  0.00219196  0.50005994  0.76531367  1
  F  F29  1  0.50226231  0.76474611  0.49992294  1
  F  F30  1  0.99771975  0.23610247  0.99989724  1
  F  F31  1  0.00233304  0.73562639  0.50002852  1
  F  F32  1  0.24987558  0.99953797  0.50053020  1
  F  F33  1  0.99775867  0.00008734  0.73515124  1
  F  F34  1  0.50215591  0.73588096  0.99993603  1
  F  F35  1  0.50230216  0.50008406  0.73539378  1
  F  F36  1  0.75021577  0.49946996  0.99938864  1
  F  F37  1  0.00224107  0.99991193  0.26484548  1
  F  F38  1  0.50223289  0.99987853  0.23521433  1
  F  F39  1  0.99780617  0.49994040  0.23468323  1
