# generated using pymatgen
data_Sr5U5O18
_symmetry_space_group_name_H-M   'P 1'
_cell_length_a   33.47775167
_cell_length_b   19.27114359
_cell_length_c   12.78174555
_cell_angle_alpha   15.85128183
_cell_angle_beta   17.53816243
_cell_angle_gamma   11.46086894
_symmetry_Int_Tables_number   1
_chemical_formula_structural   Sr5U5O18
_chemical_formula_sum   'Sr5 U5 O18'
_cell_volume   438.72123200
_cell_formula_units_Z   1
loop_
 _symmetry_equiv_pos_site_id
 _symmetry_equiv_pos_as_xyz
  1  'x, y, z'
loop_
 _atom_site_type_symbol
 _atom_site_label
 _atom_site_symmetry_multiplicity
 _atom_site_fract_x
 _atom_site_fract_y
 _atom_site_fract_z
 _atom_site_occupancy
  Sr  Sr0  1  0.19873863  0.48905121  0.52856381  1
  Sr  Sr1  1  0.40328773  0.48456616  0.51541870  1
  Sr  Sr2  1  0.59671227  0.51543384  0.48458130  1
  Sr  Sr3  1  0.80126137  0.51094879  0.47143619  1
  Sr  Sr4  1  0.00000000  0.50000000  0.50000000  1
  U  U5  1  0.00000000  0.00000000  0.00000000  1
  U  U6  1  0.20660219  0.96187173  0.03696933  1
  U  U7  1  0.37822554  0.01518202  0.03220609  1
  U  U8  1  0.62177446  0.98481798  0.96779391  1
  U  U9  1  0.79339781  0.03812827  0.96303067  1
  O  O10  1  0.17332511  0.07675619  0.10823777  1
  O  O11  1  0.99012511  0.42079636  0.41636634  1
  O  O12  1  0.33458801  0.13386445  0.12459896  1
  O  O13  1  0.54975981  0.13386945  0.08290560  1
  O  O14  1  0.14177194  0.62638427  0.67447910  1
  O  O15  1  0.51003324  0.22142117  0.41141846  1
  O  O16  1  0.75644678  0.12955298  0.07736437  1
  O  O17  1  0.02610113  0.94262586  0.86022297  1
  O  O18  1  0.33470032  0.59963017  0.74251193  1
  O  O19  1  0.66529968  0.40036983  0.25748807  1
  O  O20  1  0.97389887  0.05737414  0.13977703  1
  O  O21  1  0.24355322  0.87044702  0.92263563  1
  O  O22  1  0.48996676  0.77857883  0.58858154  1
  O  O23  1  0.85822806  0.37361573  0.32552090  1
  O  O24  1  0.45024019  0.86613055  0.91709440  1
  O  O25  1  0.66541199  0.86613555  0.87540104  1
  O  O26  1  0.00987489  0.57920364  0.58363366  1
  O  O27  1  0.82667489  0.92324381  0.89176223  1
