# generated using pymatgen
data_Tm2Zr8O19
_symmetry_space_group_name_H-M   'P 1'
_cell_length_a   3.63333949
_cell_length_b   36.29708566
_cell_length_c   34.62178579
_cell_angle_alpha   5.21271673
_cell_angle_beta   58.35069196
_cell_angle_gamma   59.96690311
_symmetry_Int_Tables_number   1
_chemical_formula_structural   Tm2Zr8O19
_chemical_formula_sum   'Tm2 Zr8 O19'
_cell_volume   338.48044886
_cell_formula_units_Z   1
loop_
 _symmetry_equiv_pos_site_id
 _symmetry_equiv_pos_as_xyz
  1  'x, y, z'
loop_
 _atom_site_type_symbol
 _atom_site_label
 _atom_site_symmetry_multiplicity
 _atom_site_fract_x
 _atom_site_fract_y
 _atom_site_fract_z
 _atom_site_occupancy
  Tm  Tm0  1  0.02911192  0.82328953  0.97088808  1
  Tm  Tm1  1  0.97088808  0.87671047  0.02911192  1
  Zr  Zr2  1  0.99300885  0.99440708  0.00699115  1
  Zr  Zr3  1  0.99448986  0.09559189  0.00551014  1
  Zr  Zr4  1  0.99683511  0.19746809  0.00316489  1
  Zr  Zr5  1  0.99917361  0.29933889  0.00082639  1
  Zr  Zr6  1  0.00082639  0.40066111  0.99917361  1
  Zr  Zr7  1  0.00316489  0.50253191  0.99683511  1
  Zr  Zr8  1  0.00551014  0.60440811  0.99448986  1
  Zr  Zr9  1  0.00699115  0.70559292  0.99300885  1
  O  O10  1  0.25969180  0.00775344  0.24030820  1
  O  O11  1  0.25000000  0.10000000  0.25000000  1
  O  O12  1  0.24030820  0.19224656  0.25969180  1
  O  O13  1  0.27325699  0.31860559  0.22674301  1
  O  O14  1  0.22964500  0.38371600  0.27035500  1
  O  O15  1  0.28755293  0.53004234  0.21244707  1
  O  O16  1  0.72938428  0.98350743  0.77061572  1
  O  O17  1  0.75000000  0.10000000  0.75000000  1
  O  O18  1  0.21244707  0.66995766  0.28755293  1
  O  O19  1  0.27035500  0.81628400  0.22964500  1
  O  O20  1  0.77061572  0.21649257  0.72938428  1
  O  O21  1  0.22674301  0.88139441  0.27325699  1
  O  O22  1  0.71818636  0.27454909  0.78181364  1
  O  O23  1  0.76626410  0.41301128  0.73373590  1
  O  O24  1  0.73798496  0.49038797  0.76201504  1
  O  O25  1  0.75000000  0.60000000  0.75000000  1
  O  O26  1  0.76201504  0.70961203  0.73798496  1
  O  O27  1  0.73373590  0.78698872  0.76626410  1
  O  O28  1  0.78181364  0.92545091  0.71818636  1
