# generated using pymatgen
data_Ta2Br5
_symmetry_space_group_name_H-M   'P 1'
_cell_length_a   18.80991510
_cell_length_b   18.80991449
_cell_length_c   18.80991456
_cell_angle_alpha   109.47121957
_cell_angle_beta   109.47121889
_cell_angle_gamma   109.47122301
_symmetry_Int_Tables_number   1
_chemical_formula_structural   Ta2Br5
_chemical_formula_sum   'Ta48 Br120'
_cell_volume   5123.16792376
_cell_formula_units_Z   24
loop_
 _symmetry_equiv_pos_site_id
 _symmetry_equiv_pos_as_xyz
  1  'x, y, z'
loop_
 _atom_site_type_symbol
 _atom_site_label
 _atom_site_symmetry_multiplicity
 _atom_site_fract_x
 _atom_site_fract_y
 _atom_site_fract_z
 _atom_site_occupancy
  Ta  Ta0  1  0.39611318  0.98362292  0.52439956  1
  Ta  Ta1  1  0.41249026  0.01637708  0.04077664  1
  Ta  Ta2  1  0.02439956  0.48362292  0.89611318  1
  Ta  Ta3  1  0.95922336  0.87171362  0.97560044  1
  Ta  Ta4  1  0.37171362  0.41249026  0.89611318  1
  Ta  Ta5  1  0.48362292  0.08750974  0.45922336  1
  Ta  Ta6  1  0.47560044  0.60388682  0.01637708  1
  Ta  Ta7  1  0.89611318  0.37171362  0.41249026  1
  Ta  Ta8  1  0.52439956  0.62828638  0.54077664  1
  Ta  Ta9  1  0.54077664  0.52439956  0.62828638  1
  Ta  Ta10  1  0.08750974  0.12828638  0.60388682  1
  Ta  Ta11  1  0.89611318  0.02439956  0.48362292  1
  Ta  Ta12  1  0.87171362  0.39611318  0.91249026  1
  Ta  Ta13  1  0.91249026  0.54077664  0.51637708  1
  Ta  Ta14  1  0.39611318  0.91249026  0.87171362  1
  Ta  Ta15  1  0.95922336  0.58750974  0.98362292  1
  Ta  Ta16  1  0.37171362  0.45922336  0.47560044  1
  Ta  Ta17  1  0.52439956  0.39611318  0.98362292  1
  Ta  Ta18  1  0.04077664  0.41249026  0.01637708  1
  Ta  Ta19  1  0.98362292  0.95922336  0.58750974  1
  Ta  Ta20  1  0.48362292  0.89611318  0.02439956  1
  Ta  Ta21  1  0.98362292  0.52439956  0.39611318  1
  Ta  Ta22  1  0.62828638  0.58750974  0.10388682  1
  Ta  Ta23  1  0.08750974  0.45922336  0.48362292  1
  Ta  Ta24  1  0.62828638  0.54077664  0.52439956  1
  Ta  Ta25  1  0.10388682  0.62828638  0.58750974  1
  Ta  Ta26  1  0.51637708  0.10388682  0.97560044  1
  Ta  Ta27  1  0.87171362  0.97560044  0.95922336  1
  Ta  Ta28  1  0.02439956  0.04077664  0.12828638  1
  Ta  Ta29  1  0.60388682  0.08750974  0.12828638  1
  Ta  Ta30  1  0.12828638  0.60388682  0.08750974  1
  Ta  Ta31  1  0.04077664  0.12828638  0.02439956  1
  Ta  Ta32  1  0.60388682  0.01637708  0.47560044  1
  Ta  Ta33  1  0.97560044  0.51637708  0.10388682  1
  Ta  Ta34  1  0.51637708  0.91249026  0.54077664  1
  Ta  Ta35  1  0.97560044  0.95922336  0.87171362  1
  Ta  Ta36  1  0.12828638  0.02439956  0.04077664  1
  Ta  Ta37  1  0.45922336  0.48362292  0.08750974  1
  Ta  Ta38  1  0.10388682  0.97560044  0.51637708  1
  Ta  Ta39  1  0.91249026  0.87171362  0.39611318  1
  Ta  Ta40  1  0.58750974  0.98362292  0.95922336  1
  Ta  Ta41  1  0.45922336  0.47560044  0.37171362  1
  Ta  Ta42  1  0.01637708  0.04077664  0.41249026  1
  Ta  Ta43  1  0.47560044  0.37171362  0.45922336  1
  Ta  Ta44  1  0.54077664  0.51637708  0.91249026  1
  Ta  Ta45  1  0.58750974  0.10388682  0.62828638  1
  Ta  Ta46  1  0.41249026  0.89611318  0.37171362  1
  Ta  Ta47  1  0.01637708  0.47560044  0.60388682  1
  Br  Br48  1  0.29339676  0.37271782  0.97951550  1
  Br  Br49  1  0.60710434  0.55355217  0.80355217  1
  Br  Br50  1  0.62848330  0.39484885  0.48790445  1
  Br  Br51  1  0.37151670  0.60515115  0.51209555  1
  Br  Br52  1  0.94644783  0.89289566  0.69644783  1
  Br  Br53  1  0.10515115  0.87151670  0.01209555  1
  Br  Br54  1  0.39289566  0.44644783  0.19644783  1
  Br  Br55  1  0.47951550  0.10679768  0.68611874  1
  Br  Br56  1  0.12848330  0.98790445  0.89484885  1
  Br  Br57  1  0.68611874  0.70660324  0.57932106  1
  Br  Br58  1  0.39320232  0.87271782  0.57932106  1
  Br  Br59  1  0.51209555  0.37151670  0.60515115  1
  Br  Br60  1  0.52048450  0.12728218  0.20660324  1
  Br  Br61  1  0.89320232  0.31388126  0.52048450  1
  Br  Br62  1  0.60515115  0.51209555  0.37151670  1
  Br  Br63  1  0.19644783  0.30355217  0.75000000  1
  Br  Br64  1  0.69644783  0.94644783  0.89289566  1
  Br  Br65  1  0.98790445  0.59305560  0.85942115  1
  Br  Br66  1  0.02048450  0.81388126  0.39320232  1
  Br  Br67  1  0.79339676  0.47951550  0.87271782  1
  Br  Br68  1  0.40694440  0.76636554  0.39484885  1
  Br  Br69  1  0.73363446  0.09305560  0.10515115  1
  Br  Br70  1  0.87271782  0.57932106  0.39320232  1
  Br  Br71  1  0.60515115  0.59305560  0.23363446  1
  Br  Br72  1  0.87151670  0.35942115  0.76636554  1
  Br  Br73  1  0.05355217  0.10710434  0.30355217  1
  Br  Br74  1  0.26636554  0.90694440  0.89484885  1
  Br  Br75  1  0.30355217  0.05355217  0.10710434  1
  Br  Br76  1  0.44644783  0.75000000  0.05355217  1
  Br  Br77  1  0.89484885  0.26636554  0.90694440  1
  Br  Br78  1  0.55355217  0.25000000  0.94644783  1
  Br  Br79  1  0.37271782  0.89320232  0.07932106  1
  Br  Br80  1  0.75000000  0.19644783  0.30355217  1
  Br  Br81  1  0.75000000  0.05355217  0.44644783  1
  Br  Br82  1  0.10679768  0.68611874  0.47951550  1
  Br  Br83  1  0.05355217  0.44644783  0.75000000  1
  Br  Br84  1  0.87151670  0.01209555  0.10515115  1
  Br  Br85  1  0.18611874  0.60679768  0.97951550  1
  Br  Br86  1  0.70660324  0.57932106  0.68611874  1
  Br  Br87  1  0.59305560  0.85942115  0.98790445  1
  Br  Br88  1  0.10710434  0.30355217  0.05355217  1
  Br  Br89  1  0.09305560  0.10515115  0.73363446  1
  Br  Br90  1  0.80355217  0.69644783  0.25000000  1
  Br  Br91  1  0.81388126  0.92067894  0.79339676  1
  Br  Br92  1  0.01209555  0.10515115  0.87151670  1
  Br  Br93  1  0.62848330  0.73363446  0.14057885  1
  Br  Br94  1  0.62728218  0.10679768  0.92067894  1
  Br  Br95  1  0.37151670  0.26636554  0.85942115  1
  Br  Br96  1  0.60679768  0.12728218  0.42067894  1
  Br  Br97  1  0.20660324  0.52048450  0.12728218  1
  Br  Br98  1  0.59305560  0.23363446  0.60515115  1
  Br  Br99  1  0.51209555  0.64057885  0.90694440  1
  Br  Br100  1  0.35942115  0.09305560  0.48790445  1
  Br  Br101  1  0.42067894  0.60679768  0.12728218  1
  Br  Br102  1  0.39484885  0.48790445  0.62848330  1
  Br  Br103  1  0.10515115  0.73363446  0.09305560  1
  Br  Br104  1  0.55355217  0.80355217  0.60710434  1
  Br  Br105  1  0.48790445  0.62848330  0.39484885  1
  Br  Br106  1  0.40694440  0.14057885  0.01209555  1
  Br  Br107  1  0.48790445  0.35942115  0.09305560  1
  Br  Br108  1  0.92067894  0.79339676  0.81388126  1
  Br  Br109  1  0.30355217  0.75000000  0.19644783  1
  Br  Br110  1  0.79339676  0.81388126  0.92067894  1
  Br  Br111  1  0.44644783  0.19644783  0.39289566  1
  Br  Br112  1  0.68611874  0.47951550  0.10679768  1
  Br  Br113  1  0.10679768  0.92067894  0.62728218  1
  Br  Br114  1  0.89484885  0.12848330  0.98790445  1
  Br  Br115  1  0.97951550  0.29339676  0.37271782  1
  Br  Br116  1  0.23363446  0.60515115  0.59305560  1
  Br  Br117  1  0.25000000  0.80355217  0.69644783  1
  Br  Br118  1  0.62728218  0.02048450  0.70660324  1
  Br  Br119  1  0.14057885  0.01209555  0.40694440  1
  Br  Br120  1  0.14057885  0.62848330  0.73363446  1
  Br  Br121  1  0.64057885  0.90694440  0.51209555  1
  Br  Br122  1  0.02048450  0.70660324  0.62728218  1
  Br  Br123  1  0.90694440  0.89484885  0.26636554  1
  Br  Br124  1  0.09305560  0.48790445  0.35942115  1
  Br  Br125  1  0.87271782  0.79339676  0.47951550  1
  Br  Br126  1  0.94644783  0.55355217  0.25000000  1
  Br  Br127  1  0.85942115  0.37151670  0.26636554  1
  Br  Br128  1  0.12728218  0.20660324  0.52048450  1
  Br  Br129  1  0.35942115  0.76636554  0.87151670  1
  Br  Br130  1  0.57932106  0.39320232  0.87271782  1
  Br  Br131  1  0.25000000  0.94644783  0.55355217  1
  Br  Br132  1  0.39320232  0.02048450  0.81388126  1
  Br  Br133  1  0.42067894  0.31388126  0.29339676  1
  Br  Br134  1  0.76636554  0.87151670  0.35942115  1
  Br  Br135  1  0.89320232  0.07932106  0.37271782  1
  Br  Br136  1  0.90694440  0.51209555  0.64057885  1
  Br  Br137  1  0.01209555  0.40694440  0.14057885  1
  Br  Br138  1  0.37271782  0.97951550  0.29339676  1
  Br  Br139  1  0.81388126  0.39320232  0.02048450  1
  Br  Br140  1  0.12848330  0.64057885  0.23363446  1
  Br  Br141  1  0.80355217  0.60710434  0.55355217  1
  Br  Br142  1  0.20660324  0.18611874  0.07932106  1
  Br  Br143  1  0.39484885  0.40694440  0.76636554  1
  Br  Br144  1  0.07932106  0.20660324  0.18611874  1
  Br  Br145  1  0.29339676  0.42067894  0.31388126  1
  Br  Br146  1  0.97951550  0.18611874  0.60679768  1
  Br  Br147  1  0.31388126  0.52048450  0.89320232  1
  Br  Br148  1  0.92067894  0.62728218  0.10679768  1
  Br  Br149  1  0.89289566  0.69644783  0.94644783  1
  Br  Br150  1  0.07932106  0.37271782  0.89320232  1
  Br  Br151  1  0.19644783  0.39289566  0.44644783  1
  Br  Br152  1  0.47951550  0.87271782  0.79339676  1
  Br  Br153  1  0.85942115  0.98790445  0.59305560  1
  Br  Br154  1  0.57932106  0.68611874  0.70660324  1
  Br  Br155  1  0.64057885  0.23363446  0.12848330  1
  Br  Br156  1  0.52048450  0.89320232  0.31388126  1
  Br  Br157  1  0.12728218  0.42067894  0.60679768  1
  Br  Br158  1  0.76636554  0.39484885  0.40694440  1
  Br  Br159  1  0.98790445  0.89484885  0.12848330  1
  Br  Br160  1  0.70660324  0.62728218  0.02048450  1
  Br  Br161  1  0.69644783  0.25000000  0.80355217  1
  Br  Br162  1  0.26636554  0.85942115  0.37151670  1
  Br  Br163  1  0.60679768  0.97951550  0.18611874  1
  Br  Br164  1  0.73363446  0.14057885  0.62848330  1
  Br  Br165  1  0.23363446  0.12848330  0.64057885  1
  Br  Br166  1  0.18611874  0.07932106  0.20660324  1
  Br  Br167  1  0.31388126  0.29339676  0.42067894  1
