# generated using pymatgen
data_Rb5Te3H4NCl18
_symmetry_space_group_name_H-M   'P 1'
_cell_length_a   7.41573009
_cell_length_b   7.41572993
_cell_length_c   22.24831005
_cell_angle_alpha   60.00166303
_cell_angle_beta   60.00166374
_cell_angle_gamma   59.99999459
_symmetry_Int_Tables_number   1
_chemical_formula_structural   Rb5Te3H4NCl18
_chemical_formula_sum   'Rb5 Te3 H4 N1 Cl18'
_cell_volume   865.16860397
_cell_formula_units_Z   1
loop_
 _symmetry_equiv_pos_site_id
 _symmetry_equiv_pos_as_xyz
  1  'x, y, z'
loop_
 _atom_site_type_symbol
 _atom_site_label
 _atom_site_symmetry_multiplicity
 _atom_site_fract_x
 _atom_site_fract_y
 _atom_site_fract_z
 _atom_site_occupancy
  Rb  Rb0  1  0.25012621  0.25012621  0.08320679  1
  Rb  Rb1  1  0.24998714  0.24998714  0.41667986  1
  Rb  Rb2  1  0.74998733  0.74998733  0.25001267  1
  Rb  Rb3  1  0.24989290  0.24989290  0.75010710  1
  Rb  Rb4  1  0.74999577  0.74999577  0.58333723  1
  Te  Te5  1  0.00044542  0.00044542  0.99955458  1
  Te  Te6  1  0.99999092  0.99999092  0.33334208  1
  Te  Te7  1  0.99955536  0.99955536  0.66711164  1
  H  H8  1  0.69306229  0.69306229  0.89768566  1
  H  H9  1  0.69299771  0.69299771  0.97366929  1
  H  H10  1  0.69306229  0.92081945  0.89768566  1
  H  H11  1  0.92081945  0.69306229  0.89768566  1
  N  N12  1  0.75008292  0.75008292  0.91658408  1
  Cl  Cl13  1  0.24460322  0.24460322  0.25180342  1
  Cl  Cl14  1  0.24462661  0.75550800  0.08145213  1
  Cl  Cl15  1  0.75550800  0.24462661  0.08145213  1
  Cl  Cl16  1  0.24460322  0.75538330  0.25180342  1
  Cl  Cl17  1  0.24426247  0.24426247  0.58530166  1
  Cl  Cl18  1  0.24461429  0.75538192  0.41487429  1
  Cl  Cl19  1  0.75538330  0.24460322  0.25180342  1
  Cl  Cl20  1  0.75550800  0.75550800  0.08145213  1
  Cl  Cl21  1  0.24426247  0.75556909  0.58530166  1
  Cl  Cl22  1  0.75538192  0.24461429  0.41487429  1
  Cl  Cl23  1  0.24542078  0.24542078  0.91813484  1
  Cl  Cl24  1  0.24504695  0.75482318  0.74843556  1
  Cl  Cl25  1  0.75556909  0.24426247  0.58530166  1
  Cl  Cl26  1  0.75538192  0.75538192  0.41487429  1
  Cl  Cl27  1  0.24542078  0.75475493  0.91813484  1
  Cl  Cl28  1  0.75482318  0.24504695  0.74843556  1
  Cl  Cl29  1  0.75475493  0.24542078  0.91813484  1
  Cl  Cl30  1  0.75482318  0.75482318  0.74843556  1
