# generated using pymatgen
data_B5H12NO12
_symmetry_space_group_name_H-M   'P 1'
_cell_length_a   11.46068584
_cell_length_b   7.25637791
_cell_length_c   7.25637791
_cell_angle_alpha   99.95821743
_cell_angle_beta   90.00000000
_cell_angle_gamma   90.00000000
_symmetry_Int_Tables_number   1
_chemical_formula_structural   B5H12NO12
_chemical_formula_sum   'B10 H24 N2 O24'
_cell_volume   594.37095301
_cell_formula_units_Z   2
loop_
 _symmetry_equiv_pos_site_id
 _symmetry_equiv_pos_as_xyz
  1  'x, y, z'
loop_
 _atom_site_type_symbol
 _atom_site_label
 _atom_site_symmetry_multiplicity
 _atom_site_fract_x
 _atom_site_fract_y
 _atom_site_fract_z
 _atom_site_occupancy
  B  B0  1  0.50000000  0.10428559  0.10428559  1
  B  B1  1  0.00000000  0.60428559  0.60428559  1
  B  B2  1  0.31903292  0.29678420  0.10183771  1
  B  B3  1  0.68096708  0.10183771  0.29678420  1
  B  B4  1  0.18096708  0.79678420  0.60183771  1
  B  B5  1  0.81903292  0.60183771  0.79678420  1
  B  B6  1  0.30022038  0.96352436  0.07152144  1
  B  B7  1  0.69977962  0.07152144  0.96352436  1
  B  B8  1  0.19977962  0.46352436  0.57152144  1
  B  B9  1  0.80022038  0.57152144  0.46352436  1
  H  H10  1  0.17835100  0.45500255  0.10460221  1
  H  H11  1  0.82164900  0.10460221  0.45500255  1
  H  H12  1  0.32164900  0.95500255  0.60460221  1
  H  H13  1  0.67835100  0.60460221  0.95500255  1
  H  H14  1  0.25870673  0.69268168  0.05365072  1
  H  H15  1  0.74129327  0.05365072  0.69268168  1
  H  H16  1  0.24129327  0.19268168  0.55365072  1
  H  H17  1  0.75870673  0.55365072  0.19268168  1
  H  H18  1  0.50053056  0.99634289  0.48062988  1
  H  H19  1  0.49946944  0.48062988  0.99634289  1
  H  H20  1  0.99946944  0.49634289  0.98062988  1
  H  H21  1  0.00053056  0.98062988  0.49634289  1
  H  H22  1  0.50928220  0.99498128  0.69986082  1
  H  H23  1  0.49071780  0.69986082  0.99498128  1
  H  H24  1  0.99071780  0.49498128  0.19986082  1
  H  H25  1  0.00928220  0.19986082  0.49498128  1
  H  H26  1  0.04104637  0.14623707  0.02502271  1
  H  H27  1  0.95895363  0.02502271  0.14623707  1
  H  H28  1  0.45895363  0.64623707  0.52502271  1
  H  H29  1  0.54104637  0.52502271  0.64623707  1
  H  H30  1  0.93829160  0.00071610  0.91323169  1
  H  H31  1  0.06170840  0.91323169  0.00071610  1
  H  H32  1  0.56170840  0.50071610  0.41323169  1
  H  H33  1  0.43829160  0.41323169  0.50071610  1
  N  N34  1  0.00000000  0.01862458  0.01862458  1
  N  N35  1  0.50000000  0.51862458  0.51862458  1
  O  O36  1  0.43757833  0.28514686  0.11045407  1
  O  O37  1  0.56242167  0.11045407  0.28514686  1
  O  O38  1  0.06242167  0.78514686  0.61045407  1
  O  O39  1  0.93757833  0.61045407  0.78514686  1
  O  O40  1  0.41839620  0.94287387  0.08042786  1
  O  O41  1  0.58160380  0.08042786  0.94287387  1
  O  O42  1  0.08160380  0.44287387  0.58042786  1
  O  O43  1  0.91839620  0.58042786  0.44287387  1
  O  O44  1  0.24864700  0.13874701  0.08332306  1
  O  O45  1  0.75135300  0.08332306  0.13874701  1
  O  O46  1  0.25135300  0.63874701  0.58332306  1
  O  O47  1  0.74864700  0.58332306  0.63874701  1
  O  O48  1  0.26567176  0.46749750  0.10962400  1
  O  O49  1  0.73432824  0.10962400  0.46749750  1
  O  O50  1  0.23432824  0.96749750  0.60962400  1
  O  O51  1  0.76567176  0.60962400  0.96749750  1
  O  O52  1  0.22350146  0.81652997  0.04866945  1
  O  O53  1  0.77649854  0.04866945  0.81652997  1
  O  O54  1  0.27649854  0.31652997  0.54866945  1
  O  O55  1  0.72350146  0.54866945  0.31652997  1
  O  O56  1  0.46976892  0.93619369  0.58307520  1
  O  O57  1  0.53023108  0.58307520  0.93619369  1
  O  O58  1  0.03023108  0.43619369  0.08307520  1
  O  O59  1  0.96976892  0.08307520  0.43619369  1
