# generated using pymatgen
data_Be2As(HO)9
_symmetry_space_group_name_H-M   'P 1'
_cell_length_a   7.25482671
_cell_length_b   12.73365313
_cell_length_c   8.63665001
_cell_angle_alpha   90.00000000
_cell_angle_beta   97.32065970
_cell_angle_gamma   90.00000000
_symmetry_Int_Tables_number   1
_chemical_formula_structural   Be2As(HO)9
_chemical_formula_sum   'Be8 As4 H36 O36'
_cell_volume   791.35389943
_cell_formula_units_Z   4
loop_
 _symmetry_equiv_pos_site_id
 _symmetry_equiv_pos_as_xyz
  1  'x, y, z'
loop_
 _atom_site_type_symbol
 _atom_site_label
 _atom_site_symmetry_multiplicity
 _atom_site_fract_x
 _atom_site_fract_y
 _atom_site_fract_z
 _atom_site_occupancy
  Be  Be0  1  0.12263698  0.37787450  0.36180664  1
  Be  Be1  1  0.37736302  0.87787450  0.63819336  1
  Be  Be2  1  0.87736302  0.62212550  0.63819336  1
  Be  Be3  1  0.62263698  0.12212550  0.36180664  1
  Be  Be4  1  0.35155917  0.37335899  0.10737130  1
  Be  Be5  1  0.14844083  0.87335899  0.89262870  1
  Be  Be6  1  0.64844083  0.62664101  0.89262870  1
  Be  Be7  1  0.85155917  0.12664101  0.10737130  1
  As  As8  1  0.73737600  0.32710521  0.24194875  1
  As  As9  1  0.76262400  0.82710521  0.75805125  1
  As  As10  1  0.26262400  0.67289479  0.75805125  1
  As  As11  1  0.23737600  0.17289479  0.24194875  1
  H  H12  1  0.17553889  0.48726015  0.58555404  1
  H  H13  1  0.32446111  0.98726015  0.41444596  1
  H  H14  1  0.82446111  0.51273985  0.41444596  1
  H  H15  1  0.67553889  0.01273985  0.58555404  1
  H  H16  1  0.33134336  0.39070885  0.58357662  1
  H  H17  1  0.16865664  0.89070885  0.41642338  1
  H  H18  1  0.66865664  0.60929115  0.41642338  1
  H  H19  1  0.83134336  0.10929115  0.58357662  1
  H  H20  1  0.33708146  0.47702342  0.88742947  1
  H  H21  1  0.16291854  0.97702342  0.11257053  1
  H  H22  1  0.66291854  0.52297658  0.11257053  1
  H  H23  1  0.83708146  0.02297658  0.88742947  1
  H  H24  1  0.15801281  0.39643848  0.88217156  1
  H  H25  1  0.34198719  0.89643848  0.11782844  1
  H  H26  1  0.84198719  0.60356152  0.11782844  1
  H  H27  1  0.65801281  0.10356152  0.88217156  1
  H  H28  1  0.88640205  0.31610477  0.92801202  1
  H  H29  1  0.61359795  0.81610477  0.07198798  1
  H  H30  1  0.11359795  0.68389523  0.07198798  1
  H  H31  1  0.38640205  0.18389523  0.92801202  1
  H  H32  1  0.94466405  0.29413883  0.76039284  1
  H  H33  1  0.55533595  0.79413883  0.23960716  1
  H  H34  1  0.05533595  0.70586117  0.23960716  1
  H  H35  1  0.44466405  0.20586117  0.76039284  1
  H  H36  1  0.62452700  0.35338565  0.71789342  1
  H  H37  1  0.87547300  0.85338565  0.28210658  1
  H  H38  1  0.37547300  0.64661435  0.28210658  1
  H  H39  1  0.12452700  0.14661435  0.71789342  1
  H  H40  1  0.58471454  0.29739317  0.55428926  1
  H  H41  1  0.91528546  0.79739317  0.44571074  1
  H  H42  1  0.41528546  0.70260683  0.44571074  1
  H  H43  1  0.08471454  0.20260683  0.55428926  1
  H  H44  1  0.18132107  0.49951667  0.19918512  1
  H  H45  1  0.31867893  0.99951667  0.80081488  1
  H  H46  1  0.81867893  0.50048333  0.80081488  1
  H  H47  1  0.68132107  0.00048333  0.19918512  1
  O  O48  1  0.32836706  0.24560659  0.10256525  1
  O  O49  1  0.17163294  0.74560659  0.89743475  1
  O  O50  1  0.67163294  0.75439341  0.89743475  1
  O  O51  1  0.82836706  0.25439341  0.10256525  1
  O  O52  1  0.90153680  0.41022052  0.33610919  1
  O  O53  1  0.59846320  0.91022052  0.66389081  1
  O  O54  1  0.09846320  0.58977948  0.66389081  1
  O  O55  1  0.40153680  0.08977948  0.33610919  1
  O  O56  1  0.56957449  0.41063790  0.15392176  1
  O  O57  1  0.93042551  0.91063790  0.84607824  1
  O  O58  1  0.43042551  0.58936210  0.84607824  1
  O  O59  1  0.06957449  0.08936210  0.15392176  1
  O  O60  1  0.15345945  0.25115127  0.37850449  1
  O  O61  1  0.34654055  0.75115127  0.62149551  1
  O  O62  1  0.84654055  0.74884873  0.62149551  1
  O  O63  1  0.65345945  0.24884873  0.37850449  1
  O  O64  1  0.22123417  0.42730753  0.22138267  1
  O  O65  1  0.27876583  0.92730753  0.77861733  1
  O  O66  1  0.77876583  0.57269247  0.77861733  1
  O  O67  1  0.72123417  0.07269247  0.22138267  1
  O  O68  1  0.20929260  0.41978393  0.53545867  1
  O  O69  1  0.29070740  0.91978393  0.46454133  1
  O  O70  1  0.79070740  0.58021607  0.46454133  1
  O  O71  1  0.70929260  0.08021607  0.53545867  1
  O  O72  1  0.29220412  0.40677887  0.92130456  1
  O  O73  1  0.20779588  0.90677887  0.07869544  1
  O  O74  1  0.70779588  0.59322113  0.07869544  1
  O  O75  1  0.79220412  0.09322113  0.92130456  1
  O  O76  1  0.91747840  0.35181120  0.83182317  1
  O  O77  1  0.58252160  0.85181120  0.16817683  1
  O  O78  1  0.08252160  0.64818880  0.16817683  1
  O  O79  1  0.41747840  0.14818880  0.83182317  1
  O  O80  1  0.52568401  0.31891658  0.64771495  1
  O  O81  1  0.97431599  0.81891658  0.35228505  1
  O  O82  1  0.47431599  0.68108342  0.35228505  1
  O  O83  1  0.02568401  0.18108342  0.64771495  1
