# generated using pymatgen
data_BH4O2F3
_symmetry_space_group_name_H-M   'P 1'
_cell_length_a   5.64356321
_cell_length_b   7.43386962
_cell_length_c   8.77295029
_cell_angle_alpha   90.00000000
_cell_angle_beta   90.05071370
_cell_angle_gamma   90.00000000
_symmetry_Int_Tables_number   1
_chemical_formula_structural   BH4O2F3
_chemical_formula_sum   'B4 H16 O8 F12'
_cell_volume   368.05594076
_cell_formula_units_Z   4
loop_
 _symmetry_equiv_pos_site_id
 _symmetry_equiv_pos_as_xyz
  1  'x, y, z'
loop_
 _atom_site_type_symbol
 _atom_site_label
 _atom_site_symmetry_multiplicity
 _atom_site_fract_x
 _atom_site_fract_y
 _atom_site_fract_z
 _atom_site_occupancy
  B  B0  1  0.25363651  0.30812379  0.92016117  1
  B  B1  1  0.74636349  0.80812379  0.57983883  1
  B  B2  1  0.74636349  0.69187621  0.07983883  1
  B  B3  1  0.25363651  0.19187621  0.42016117  1
  H  H4  1  0.59735062  0.21316624  0.00638948  1
  H  H5  1  0.40264938  0.71316624  0.49361052  1
  H  H6  1  0.40264938  0.78683376  0.99361052  1
  H  H7  1  0.59735062  0.28683376  0.50638948  1
  H  H8  1  0.59940130  0.25521539  0.81647441  1
  H  H9  1  0.40059870  0.75521539  0.68352559  1
  H  H10  1  0.40059870  0.74478461  0.18352559  1
  H  H11  1  0.59940130  0.24478461  0.31647441  1
  H  H12  1  0.88408710  0.27491204  0.16252723  1
  H  H13  1  0.11591290  0.77491204  0.33747277  1
  H  H14  1  0.11591290  0.72508796  0.83747277  1
  H  H15  1  0.88408710  0.22508796  0.66252723  1
  H  H16  1  0.82210828  0.06893531  0.17082345  1
  H  H17  1  0.17789172  0.56893531  0.32917655  1
  H  H18  1  0.17789172  0.93106469  0.82917655  1
  H  H19  1  0.82210828  0.43106469  0.67082345  1
  O  O20  1  0.49977150  0.22318428  0.90906994  1
  O  O21  1  0.50022850  0.72318428  0.59093006  1
  O  O22  1  0.50022850  0.77681572  0.09093006  1
  O  O23  1  0.49977150  0.27681572  0.40906994  1
  O  O24  1  0.75034399  0.18967212  0.16563318  1
  O  O25  1  0.24965601  0.68967212  0.33436682  1
  O  O26  1  0.24965601  0.81032788  0.83436682  1
  O  O27  1  0.75034399  0.31032788  0.66563318  1
  F  F28  1  0.23215252  0.43630089  0.80465767  1
  F  F29  1  0.76784748  0.93630089  0.69534233  1
  F  F30  1  0.76784748  0.56369911  0.19534233  1
  F  F31  1  0.23215252  0.06369911  0.30465767  1
  F  F32  1  0.22829581  0.38380071  0.06512506  1
  F  F33  1  0.77170419  0.88380071  0.43487494  1
  F  F34  1  0.77170419  0.61619929  0.93487494  1
  F  F35  1  0.22829581  0.11619929  0.56512506  1
  F  F36  1  0.08642227  0.16808434  0.89924374  1
  F  F37  1  0.91357773  0.66808434  0.60075626  1
  F  F38  1  0.91357773  0.83191566  0.10075626  1
  F  F39  1  0.08642227  0.33191566  0.39924374  1
