# generated using pymatgen
data_FeH4S2NO8
_symmetry_space_group_name_H-M   'P 1'
_cell_length_a   8.71701396
_cell_length_b   8.71701384
_cell_length_c   8.71701435
_cell_angle_alpha   32.56955814
_cell_angle_beta   32.56955946
_cell_angle_gamma   32.56956060
_symmetry_Int_Tables_number   1
_chemical_formula_structural   FeH4S2NO8
_chemical_formula_sum   'Fe1 H4 S2 N1 O8'
_cell_volume   170.70109852
_cell_formula_units_Z   1
loop_
 _symmetry_equiv_pos_site_id
 _symmetry_equiv_pos_as_xyz
  1  'x, y, z'
loop_
 _atom_site_type_symbol
 _atom_site_label
 _atom_site_symmetry_multiplicity
 _atom_site_fract_x
 _atom_site_fract_y
 _atom_site_fract_z
 _atom_site_occupancy
  Fe  Fe0  1  0.99931137  0.99931137  0.99931137  1
  H  H1  1  0.25426469  0.60311528  0.60298370  1
  H  H2  1  0.60298370  0.25426469  0.60311528  1
  H  H3  1  0.60311528  0.60298370  0.25426469  1
  H  H4  1  0.54162196  0.54162196  0.54162196  1
  S  S5  1  0.26380000  0.26380000  0.26380000  1
  S  S6  1  0.73505132  0.73505132  0.73505132  1
  N  N7  1  0.50007080  0.50007080  0.50007080  1
  O  O8  1  0.20491025  0.20491025  0.20491025  1
  O  O9  1  0.01614023  0.24870294  0.58950063  1
  O  O10  1  0.24870294  0.58950063  0.01614023  1
  O  O11  1  0.58950063  0.01614023  0.24870294  1
  O  O12  1  0.40977905  0.98344541  0.75330497  1
  O  O13  1  0.75330497  0.40977905  0.98344541  1
  O  O14  1  0.98344541  0.75330497  0.40977905  1
  O  O15  1  0.79499742  0.79499742  0.79499742  1
