# generated using pymatgen
data_KNaMg5(Si2O5)6
_symmetry_space_group_name_H-M   'P 1'
_cell_length_a   10.35252097
_cell_length_b   10.35252106
_cell_length_c   14.17783869
_cell_angle_alpha   90.00000000
_cell_angle_beta   90.00000000
_cell_angle_gamma   119.99999973
_symmetry_Int_Tables_number   1
_chemical_formula_structural   KNaMg5(Si2O5)6
_chemical_formula_sum   'K2 Na2 Mg10 Si24 O60'
_cell_volume   1315.93035616
_cell_formula_units_Z   2
loop_
 _symmetry_equiv_pos_site_id
 _symmetry_equiv_pos_as_xyz
  1  'x, y, z'
loop_
 _atom_site_type_symbol
 _atom_site_label
 _atom_site_symmetry_multiplicity
 _atom_site_fract_x
 _atom_site_fract_y
 _atom_site_fract_z
 _atom_site_occupancy
  K  K0  1  0.00000000  0.00000000  0.75000000  1
  K  K1  1  0.00000000  0.00000000  0.25000000  1
  Na  Na2  1  0.33333300  0.66666700  0.50000000  1
  Na  Na3  1  0.66666700  0.33333300  0.00000000  1
  Mg  Mg4  1  1.00000000  0.50458231  0.75000000  1
  Mg  Mg5  1  0.33333300  0.66666700  0.24483301  1
  Mg  Mg6  1  0.50458231  0.00000000  0.75000000  1
  Mg  Mg7  1  0.33333300  0.66666700  0.75516699  1
  Mg  Mg8  1  0.49541769  0.49541769  0.25000000  1
  Mg  Mg9  1  0.49541769  0.49541769  0.75000000  1
  Mg  Mg10  1  0.66666700  0.33333300  0.25516699  1
  Mg  Mg11  1  0.50458231  0.00000000  0.25000000  1
  Mg  Mg12  1  0.66666700  0.33333300  0.74483301  1
  Mg  Mg13  1  1.00000000  0.50458231  0.25000000  1
  Si  Si14  1  0.11502930  0.76892233  0.38600357  1
  Si  Si15  1  0.11502930  0.76892233  0.61399643  1
  Si  Si16  1  0.23365255  0.88674515  0.88634219  1
  Si  Si17  1  0.23365255  0.88674515  0.11365781  1
  Si  Si18  1  0.11325485  0.34690740  0.11365781  1
  Si  Si19  1  0.11325485  0.34690740  0.88634219  1
  Si  Si20  1  0.23107767  0.34610697  0.38600357  1
  Si  Si21  1  0.23107767  0.34610697  0.61399643  1
  Si  Si22  1  0.65389303  0.88497070  0.61399643  1
  Si  Si23  1  0.65389303  0.88497070  0.38600357  1
  Si  Si24  1  0.34610697  0.23107767  0.11399643  1
  Si  Si25  1  0.34610697  0.23107767  0.88600357  1
  Si  Si26  1  0.65309260  0.76634745  0.11365781  1
  Si  Si27  1  0.65309260  0.76634745  0.88634219  1
  Si  Si28  1  0.34690740  0.11325485  0.61365781  1
  Si  Si29  1  0.34690740  0.11325485  0.38634219  1
  Si  Si30  1  0.76634745  0.65309260  0.38634219  1
  Si  Si31  1  0.76634745  0.65309260  0.61365781  1
  Si  Si32  1  0.88497070  0.65389303  0.11399643  1
  Si  Si33  1  0.88497070  0.65389303  0.88600357  1
  Si  Si34  1  0.76892233  0.11502930  0.88600357  1
  Si  Si35  1  0.76892233  0.11502930  0.11399643  1
  Si  Si36  1  0.88674515  0.23365255  0.38634219  1
  Si  Si37  1  0.88674515  0.23365255  0.61365781  1
  O  O38  1  0.05746041  0.77670575  0.85809478  1
  O  O39  1  0.05746041  0.77670575  0.14190522  1
  O  O40  1  0.21283995  0.94473678  0.35519022  1
  O  O41  1  0.21283995  0.94473678  0.64480978  1
  O  O42  1  0.13639350  0.75860911  0.50000000  1
  O  O43  1  0.15980905  0.66002577  0.33224792  1
  O  O44  1  0.15980905  0.66002577  0.66775208  1
  O  O45  1  0.24754157  0.88294050  0.00000000  1
  O  O46  1  0.15242245  0.49601631  0.17076379  1
  O  O47  1  0.15242245  0.49601631  0.82923621  1
  O  O48  1  0.34359386  0.84757755  0.17076379  1
  O  O49  1  0.34359386  0.84757755  0.82923621  1
  O  O50  1  0.05526322  0.26810317  0.35519022  1
  O  O51  1  0.05526322  0.26810317  0.64480978  1
  O  O52  1  0.11705950  0.36460107  0.00000000  1
  O  O53  1  0.24139089  0.37778439  0.50000000  1
  O  O54  1  0.22329425  0.28075465  0.14190522  1
  O  O55  1  0.22329425  0.28075465  0.85809478  1
  O  O56  1  0.50021672  0.84019095  0.66775208  1
  O  O57  1  0.50021672  0.84019095  0.33224792  1
  O  O58  1  0.33997423  0.49978328  0.33224792  1
  O  O59  1  0.33997423  0.49978328  0.66775208  1
  O  O60  1  0.28075465  0.22329425  0.64190522  1
  O  O61  1  0.28075465  0.22329425  0.35809478  1
  O  O62  1  0.62221561  0.86360650  0.50000000  1
  O  O63  1  0.50398369  0.65640614  0.17076379  1
  O  O64  1  0.50398369  0.65640614  0.82923621  1
  O  O65  1  0.63539893  0.75245843  0.00000000  1
  O  O66  1  0.26810317  0.05526322  0.14480978  1
  O  O67  1  0.26810317  0.05526322  0.85519022  1
  O  O68  1  0.71924535  0.94253959  0.14190522  1
  O  O69  1  0.71924535  0.94253959  0.85809478  1
  O  O70  1  0.37778439  0.24139089  0.00000000  1
  O  O71  1  0.49978328  0.33997423  0.16775208  1
  O  O72  1  0.49978328  0.33997423  0.83224792  1
  O  O73  1  0.36460107  0.11705950  0.50000000  1
  O  O74  1  0.73189683  0.78716005  0.64480978  1
  O  O75  1  0.73189683  0.78716005  0.35519022  1
  O  O76  1  0.65640614  0.50398369  0.32923621  1
  O  O77  1  0.65640614  0.50398369  0.67076379  1
  O  O78  1  0.49601631  0.15242245  0.67076379  1
  O  O79  1  0.49601631  0.15242245  0.32923621  1
  O  O80  1  0.78716005  0.73189683  0.14480978  1
  O  O81  1  0.78716005  0.73189683  0.85519022  1
  O  O82  1  0.75245843  0.63539893  0.50000000  1
  O  O83  1  0.86360650  0.62221561  0.00000000  1
  O  O84  1  0.94253959  0.71924535  0.35809478  1
  O  O85  1  0.94253959  0.71924535  0.64190522  1
  O  O86  1  0.66002577  0.15980905  0.16775208  1
  O  O87  1  0.66002577  0.15980905  0.83224792  1
  O  O88  1  0.84019095  0.50021672  0.16775208  1
  O  O89  1  0.84019095  0.50021672  0.83224792  1
  O  O90  1  0.75860911  0.13639350  0.00000000  1
  O  O91  1  0.84757755  0.34359386  0.32923621  1
  O  O92  1  0.84757755  0.34359386  0.67076379  1
  O  O93  1  0.88294050  0.24754157  0.50000000  1
  O  O94  1  0.77670575  0.05746041  0.35809478  1
  O  O95  1  0.77670575  0.05746041  0.64190522  1
  O  O96  1  0.94473678  0.21283995  0.85519022  1
  O  O97  1  0.94473678  0.21283995  0.14480978  1
