# generated using pymatgen
data_K3LiMg4(Si2O5)6
_symmetry_space_group_name_H-M   'P 1'
_cell_length_a   10.43622206
_cell_length_b   10.42400326
_cell_length_c   14.03219564
_cell_angle_alpha   90.00000000
_cell_angle_beta   90.00000000
_cell_angle_gamma   119.96144046
_symmetry_Int_Tables_number   1
_chemical_formula_structural   K3LiMg4(Si2O5)6
_chemical_formula_sum   'K6 Li2 Mg8 Si24 O60'
_cell_volume   1322.52145851
_cell_formula_units_Z   2
loop_
 _symmetry_equiv_pos_site_id
 _symmetry_equiv_pos_as_xyz
  1  'x, y, z'
loop_
 _atom_site_type_symbol
 _atom_site_label
 _atom_site_symmetry_multiplicity
 _atom_site_fract_x
 _atom_site_fract_y
 _atom_site_fract_z
 _atom_site_occupancy
  K  K0  1  0.33601035  0.66726258  0.50000323  1
  K  K1  1  0.00000000  0.00000000  0.25000489  1
  K  K2  1  0.33601059  0.66874940  0.00000352  1
  K  K3  1  0.66398941  0.33125060  0.00000352  1
  K  K4  1  0.66398965  0.33273742  0.50000323  1
  K  K5  1  0.00000000  0.00000000  0.75000577  1
  Li  Li6  1  0.50000000  0.50000000  0.25006342  1
  Li  Li7  1  0.50000000  0.00000000  0.75006329  1
  Mg  Mg8  1  0.33924674  0.66114834  0.24996628  1
  Mg  Mg9  1  0.33924646  0.67809652  0.74996623  1
  Mg  Mg10  1  0.50000000  0.50000000  0.74998956  1
  Mg  Mg11  1  0.66075326  0.33885166  0.24996628  1
  Mg  Mg12  1  0.50000000  0.00000000  0.24998883  1
  Mg  Mg13  1  0.66075354  0.32190348  0.74996623  1
  Mg  Mg14  1  0.00000000  0.50000000  0.24991345  1
  Mg  Mg15  1  0.00000000  0.50000000  0.74991063  1
  Si  Si16  1  0.11084035  0.76918171  0.61590856  1
  Si  Si17  1  0.10961288  0.76749214  0.38383174  1
  Si  Si18  1  0.23470790  0.88913059  0.88329291  1
  Si  Si19  1  0.23256456  0.89062326  0.11585850  1
  Si  Si20  1  0.11084078  0.34165934  0.11590870  1
  Si  Si21  1  0.10961354  0.34212203  0.88383185  1
  Si  Si22  1  0.23470760  0.34557645  0.38329328  1
  Si  Si23  1  0.23256503  0.34194171  0.61585836  1
  Si  Si24  1  0.65900920  0.88946591  0.38427451  1
  Si  Si25  1  0.65510872  0.88929005  0.61680435  1
  Si  Si26  1  0.34489134  0.23418221  0.11680479  1
  Si  Si27  1  0.34099058  0.23045694  0.88427501  1
  Si  Si28  1  0.65510866  0.76581779  0.11680479  1
  Si  Si29  1  0.65900942  0.76954306  0.88427501  1
  Si  Si30  1  0.34099080  0.11053409  0.38427451  1
  Si  Si31  1  0.34489128  0.11070995  0.61680435  1
  Si  Si32  1  0.76529240  0.65442355  0.38329328  1
  Si  Si33  1  0.76743497  0.65805829  0.61585836  1
  Si  Si34  1  0.88915922  0.65834066  0.11590870  1
  Si  Si35  1  0.89038646  0.65787797  0.88383185  1
  Si  Si36  1  0.76529210  0.11086941  0.88329291  1
  Si  Si37  1  0.76743544  0.10937674  0.11585850  1
  Si  Si38  1  0.88915965  0.23081829  0.61590856  1
  Si  Si39  1  0.89038712  0.23250786  0.38383174  1
  O  O40  1  0.05839695  0.78366690  0.14656801  1
  O  O41  1  0.05833446  0.78356939  0.85349948  1
  O  O42  1  0.21557606  0.94110235  0.35275583  1
  O  O43  1  0.21421030  0.94242729  0.64652974  1
  O  O44  1  0.12057176  0.76004018  0.49984021  1
  O  O45  1  0.23963998  0.88105609  0.00000084  1
  O  O46  1  0.15539378  0.65795605  0.33231546  1
  O  O47  1  0.15473007  0.65779301  0.66700068  1
  O  O48  1  0.15472979  0.49693757  0.16700155  1
  O  O49  1  0.15539435  0.49743951  0.83231430  1
  O  O50  1  0.34098649  0.83987065  0.83499257  1
  O  O51  1  0.34170670  0.84453386  0.16755786  1
  O  O52  1  0.05833557  0.27476544  0.35349976  1
  O  O53  1  0.05839711  0.27473021  0.64656757  1
  O  O54  1  0.12057265  0.36053221  0.99984003  1
  O  O55  1  0.23963979  0.35858355  0.50000084  1
  O  O56  1  0.21420976  0.27178281  0.14653013  1
  O  O57  1  0.21557609  0.27447419  0.85275548  1
  O  O58  1  0.49896714  0.84005327  0.66493135  1
  O  O59  1  0.50363958  0.84553066  0.33323417  1
  O  O60  1  0.34098792  0.50111819  0.33499457  1
  O  O61  1  0.34170778  0.49717370  0.66755755  1
  O  O62  1  0.27171721  0.21450764  0.35331708  1
  O  O63  1  0.27447969  0.21603209  0.64734259  1
  O  O64  1  0.49896952  0.65891525  0.16493345  1
  O  O65  1  0.50363960  0.65810878  0.83323488  1
  O  O66  1  0.64266436  0.88160050  0.50018608  1
  O  O67  1  0.27448028  0.05844749  0.14734366  1
  O  O68  1  0.27171718  0.05720975  0.85331649  1
  O  O69  1  0.35733492  0.23893647  0.00018602  1
  O  O70  1  0.64266508  0.76106353  0.00018602  1
  O  O71  1  0.72551972  0.94155251  0.14734366  1
  O  O72  1  0.72828282  0.94279025  0.85331649  1
  O  O73  1  0.35733564  0.11839950  0.50018608  1
  O  O74  1  0.50103048  0.34108475  0.16493345  1
  O  O75  1  0.49636040  0.34189122  0.83323488  1
  O  O76  1  0.72552031  0.78396791  0.64734259  1
  O  O77  1  0.72828279  0.78549236  0.35331708  1
  O  O78  1  0.65901208  0.49888181  0.33499457  1
  O  O79  1  0.65829222  0.50282630  0.66755755  1
  O  O80  1  0.50103286  0.15994673  0.66493135  1
  O  O81  1  0.49636042  0.15446934  0.33323417  1
  O  O82  1  0.78579024  0.72821719  0.14653013  1
  O  O83  1  0.78442391  0.72552581  0.85275548  1
  O  O84  1  0.76036021  0.64141645  0.50000084  1
  O  O85  1  0.87942735  0.63946779  0.99984003  1
  O  O86  1  0.94166443  0.72523456  0.35349976  1
  O  O87  1  0.94160289  0.72526979  0.64656757  1
  O  O88  1  0.65901351  0.16012935  0.83499257  1
  O  O89  1  0.65829330  0.15546614  0.16755786  1
  O  O90  1  0.84527021  0.50306243  0.16700155  1
  O  O91  1  0.84460565  0.50256049  0.83231430  1
  O  O92  1  0.84460622  0.34204395  0.33231546  1
  O  O93  1  0.84526993  0.34220699  0.66700068  1
  O  O94  1  0.76036002  0.11894391  0.00000084  1
  O  O95  1  0.87942824  0.23995982  0.49984021  1
  O  O96  1  0.78442394  0.05889765  0.35275583  1
  O  O97  1  0.78578970  0.05757271  0.64652974  1
  O  O98  1  0.94160305  0.21633310  0.14656801  1
  O  O99  1  0.94166554  0.21643061  0.85349948  1
