# generated using pymatgen
data_KCa2Be2Al(Si2O5)6
_symmetry_space_group_name_H-M   'P 1'
_cell_length_a   10.54458590
_cell_length_b   10.54496159
_cell_length_c   13.91437073
_cell_angle_alpha   90.00000000
_cell_angle_beta   90.00000000
_cell_angle_gamma   120.00117841
_symmetry_Int_Tables_number   1
_chemical_formula_structural   KCa2Be2Al(Si2O5)6
_chemical_formula_sum   'K2 Ca4 Be4 Al2 Si24 O60'
_cell_volume   1339.87281710
_cell_formula_units_Z   2
loop_
 _symmetry_equiv_pos_site_id
 _symmetry_equiv_pos_as_xyz
  1  'x, y, z'
loop_
 _atom_site_type_symbol
 _atom_site_label
 _atom_site_symmetry_multiplicity
 _atom_site_fract_x
 _atom_site_fract_y
 _atom_site_fract_z
 _atom_site_occupancy
  K  K0  1  0.00000000  0.00000000  0.75013932  1
  K  K1  1  0.00000000  0.00000000  0.25013932  1
  Ca  Ca2  1  0.32491810  0.67457466  0.24997944  1
  Ca  Ca3  1  0.32491810  0.65034443  0.74997944  1
  Ca  Ca4  1  0.67508190  0.32542534  0.24997944  1
  Ca  Ca5  1  0.67508190  0.34965557  0.74997944  1
  Be  Be6  1  0.50000000  0.50000000  0.74948652  1
  Be  Be7  1  0.50000000  0.00000000  0.24948652  1
  Be  Be8  1  0.00000000  0.50000000  0.25046349  1
  Be  Be9  1  0.00000000  0.50000000  0.75046349  1
  Al  Al10  1  0.50000000  0.50000000  0.24998265  1
  Al  Al11  1  0.50000000  0.00000000  0.74998265  1
  Si  Si12  1  0.08306262  0.74432445  0.61494477  1
  Si  Si13  1  0.08235575  0.74796382  0.38583341  1
  Si  Si14  1  0.24955906  0.91846632  0.88842571  1
  Si  Si15  1  0.25055367  0.91817875  0.11615183  1
  Si  Si16  1  0.08306262  0.33873816  0.11494477  1
  Si  Si17  1  0.08235575  0.33439194  0.88583341  1
  Si  Si18  1  0.24955906  0.33109274  0.38842571  1
  Si  Si19  1  0.25055367  0.33237492  0.61615183  1
  Si  Si20  1  0.33170663  0.25029454  0.11158831  1
  Si  Si21  1  0.33727872  0.25497809  0.88320214  1
  Si  Si22  1  0.66829337  0.91858792  0.61158831  1
  Si  Si23  1  0.66272128  0.91769937  0.38320214  1
  Si  Si24  1  0.33170663  0.08141208  0.61158831  1
  Si  Si25  1  0.33727872  0.08230063  0.38320214  1
  Si  Si26  1  0.66829337  0.74970546  0.11158831  1
  Si  Si27  1  0.66272128  0.74502191  0.88320214  1
  Si  Si28  1  0.75044094  0.66890726  0.38842571  1
  Si  Si29  1  0.74944633  0.66762508  0.61615183  1
  Si  Si30  1  0.91693738  0.66126184  0.11494477  1
  Si  Si31  1  0.91764425  0.66560806  0.88583341  1
  Si  Si32  1  0.74944633  0.08182125  0.11615183  1
  Si  Si33  1  0.75044094  0.08153368  0.88842571  1
  Si  Si34  1  0.91693738  0.25567555  0.61494477  1
  Si  Si35  1  0.91764425  0.25203618  0.38583341  1
  O  O36  1  0.07770708  0.80318410  0.14054022  1
  O  O37  1  0.07855600  0.80907519  0.86129245  1
  O  O38  1  0.09427958  0.72154680  0.50009990  1
  O  O39  1  0.20165683  0.91656854  0.64077646  1
  O  O40  1  0.19602877  0.92087708  0.35952513  1
  O  O41  1  0.11115630  0.63927213  0.32042529  1
  O  O42  1  0.11456728  0.63679228  0.68017555  1
  O  O43  1  0.27792430  0.90814195  0.00148184  1
  O  O44  1  0.11456728  0.47777500  0.18017555  1
  O  O45  1  0.11115630  0.47188417  0.82042529  1
  O  O46  1  0.09427958  0.37273277  0.00009990  1
  O  O47  1  0.35452331  0.87788382  0.82462702  1
  O  O48  1  0.36010141  0.88919653  0.18019830  1
  O  O49  1  0.07770708  0.27452298  0.64054022  1
  O  O50  1  0.07855600  0.26948080  0.36129245  1
  O  O51  1  0.20165683  0.28508829  0.14077646  1
  O  O52  1  0.19602877  0.27515169  0.85952513  1
  O  O53  1  0.52283762  0.88559445  0.31918166  1
  O  O54  1  0.27792430  0.36978235  0.50148184  1
  O  O55  1  0.52311974  0.87761888  0.67538447  1
  O  O56  1  0.35452331  0.47663950  0.32462702  1
  O  O57  1  0.36010141  0.47090488  0.68019830  1
  O  O58  1  0.28281185  0.20053810  0.35785301  1
  O  O59  1  0.26793223  0.18908701  0.63998099  1
  O  O60  1  0.62802207  0.90527769  0.49829610  1
  O  O61  1  0.52311974  0.64550086  0.17538447  1
  O  O62  1  0.52283762  0.63724317  0.81918166  1
  O  O63  1  0.37197793  0.27725562  0.99829610  1
  O  O64  1  0.26793223  0.07884522  0.13998099  1
  O  O65  1  0.28281185  0.08227375  0.85785301  1
  O  O66  1  0.71718815  0.91772625  0.85785301  1
  O  O67  1  0.73206777  0.92115478  0.13998099  1
  O  O68  1  0.62802207  0.72274438  0.99829610  1
  O  O69  1  0.47688026  0.35449914  0.17538447  1
  O  O70  1  0.47716238  0.36275683  0.81918166  1
  O  O71  1  0.37197793  0.09472231  0.49829610  1
  O  O72  1  0.71718815  0.79946190  0.35785301  1
  O  O73  1  0.73206777  0.81091299  0.63998099  1
  O  O74  1  0.64547669  0.52336050  0.32462702  1
  O  O75  1  0.63989859  0.52909512  0.68019830  1
  O  O76  1  0.47716238  0.11440555  0.31918166  1
  O  O77  1  0.72207570  0.63021765  0.50148184  1
  O  O78  1  0.47688026  0.12238112  0.67538447  1
  O  O79  1  0.79834317  0.71491171  0.14077646  1
  O  O80  1  0.80397123  0.72484831  0.85952513  1
  O  O81  1  0.92144400  0.73051920  0.36129245  1
  O  O82  1  0.92229292  0.72547702  0.64054022  1
  O  O83  1  0.63989859  0.11080347  0.18019830  1
  O  O84  1  0.64547669  0.12211618  0.82462702  1
  O  O85  1  0.90572042  0.62726723  0.00009990  1
  O  O86  1  0.88543272  0.52222500  0.18017555  1
  O  O87  1  0.88884370  0.52811583  0.82042529  1
  O  O88  1  0.72207570  0.09185805  0.00148184  1
  O  O89  1  0.88884370  0.36072787  0.32042529  1
  O  O90  1  0.88543272  0.36320772  0.68017555  1
  O  O91  1  0.79834317  0.08343146  0.64077646  1
  O  O92  1  0.80397123  0.07912292  0.35952513  1
  O  O93  1  0.90572042  0.27845320  0.50009990  1
  O  O94  1  0.92229292  0.19681590  0.14054022  1
  O  O95  1  0.92144400  0.19092481  0.86129245  1
