# generated using pymatgen
data_Li5Mn2CoO8
_symmetry_space_group_name_H-M   'P 1'
_cell_length_a   2.87633890
_cell_length_b   5.14565908
_cell_length_c   9.86638614
_cell_angle_alpha   99.81239351
_cell_angle_beta   90.00000000
_cell_angle_gamma   90.00000000
_symmetry_Int_Tables_number   1
_chemical_formula_structural   Li5Mn2CoO8
_chemical_formula_sum   'Li5 Mn2 Co1 O8'
_cell_volume   143.89277055
_cell_formula_units_Z   1
loop_
 _symmetry_equiv_pos_site_id
 _symmetry_equiv_pos_as_xyz
  1  'x, y, z'
loop_
 _atom_site_type_symbol
 _atom_site_label
 _atom_site_symmetry_multiplicity
 _atom_site_fract_x
 _atom_site_fract_y
 _atom_site_fract_z
 _atom_site_occupancy
  Li  Li0  1  0.50000000  0.24353507  0.23455804  1
  Li  Li1  1  0.50000000  0.75646493  0.76544196  1
  Li  Li2  1  0.00000000  0.70824571  0.21763123  1
  Li  Li3  1  -0.00000000  0.29175429  0.78236877  1
  Li  Li4  1  0.50000000  0.50000000  0.00000000  1
  Mn  Mn5  1  -0.00000000  0.00000000  0.00000000  1
  Mn  Mn6  1  0.00000000  0.50000000  0.50000000  1
  Co  Co7  1  0.50000000  0.00000000  0.50000000  1
  O  O8  1  0.50000000  0.88496855  0.11207036  1
  O  O9  1  0.50000000  0.40141376  0.61389103  1
  O  O10  1  -0.00000000  0.34000509  0.11505145  1
  O  O11  1  -0.00000000  0.85782296  0.60227340  1
  O  O12  1  0.50000000  0.59858624  0.38610897  1
  O  O13  1  0.50000000  0.11503145  0.88792964  1
  O  O14  1  -0.00000000  0.14217704  0.39772660  1
  O  O15  1  -0.00000000  0.65999491  0.88494855  1
