# generated using pymatgen
data_Rb6In2Co2Si9O26
_symmetry_space_group_name_H-M   'P 1'
_cell_length_a   8.22821052
_cell_length_b   8.22821005
_cell_length_c   21.15627344
_cell_angle_alpha   90.00000000
_cell_angle_beta   90.00000000
_cell_angle_gamma   96.31804178
_symmetry_Int_Tables_number   1
_chemical_formula_structural   Rb6In2Co2Si9O26
_chemical_formula_sum   'Rb12 In4 Co4 Si18 O52'
_cell_volume   1423.65297888
_cell_formula_units_Z   2
loop_
 _symmetry_equiv_pos_site_id
 _symmetry_equiv_pos_as_xyz
  1  'x, y, z'
loop_
 _atom_site_type_symbol
 _atom_site_label
 _atom_site_symmetry_multiplicity
 _atom_site_fract_x
 _atom_site_fract_y
 _atom_site_fract_z
 _atom_site_occupancy
  Rb  Rb0  1  0.98868189  0.98868189  0.00000000  1
  Rb  Rb1  1  0.78227045  0.09514888  0.63323916  1
  Rb  Rb2  1  0.29172245  0.21227307  0.33537756  1
  Rb  Rb3  1  0.48868189  0.48868189  0.50000000  1
  Rb  Rb4  1  0.28227045  0.59514888  0.86676084  1
  Rb  Rb5  1  0.79172245  0.71227307  0.16462244  1
  Rb  Rb6  1  0.59514888  0.28227045  0.13323916  1
  Rb  Rb7  1  0.09514888  0.78227045  0.36676084  1
  Rb  Rb8  1  0.21227307  0.29172245  0.66462244  1
  Rb  Rb9  1  0.32639420  0.32639420  0.00000000  1
  Rb  Rb10  1  0.71227307  0.79172245  0.83537756  1
  Rb  Rb11  1  0.82639420  0.82639420  0.50000000  1
  In  In12  1  0.72819988  0.31458256  0.91040041  1
  In  In13  1  0.81458256  0.22819988  0.41040041  1
  In  In14  1  0.22819988  0.81458256  0.58959959  1
  In  In15  1  0.31458256  0.72819988  0.08959959  1
  Co  Co16  1  0.05822886  0.83842056  0.72918149  1
  Co  Co17  1  0.33842056  0.55822886  0.22918149  1
  Co  Co18  1  0.55822886  0.33842056  0.77081851  1
  Co  Co19  1  0.83842056  0.05822886  0.27081851  1
  Si  Si20  1  0.64252970  0.50372445  0.32246888  1
  Si  Si21  1  0.50372445  0.64252970  0.67753112  1
  Si  Si22  1  0.86410330  0.56991723  0.64087704  1
  Si  Si23  1  0.02309216  0.48518531  0.51340535  1
  Si  Si24  1  0.48518531  0.02309216  0.48659465  1
  Si  Si25  1  0.06991723  0.36410330  0.14087704  1
  Si  Si26  1  0.56991723  0.86410330  0.35912296  1
  Si  Si27  1  0.52309216  0.98518531  0.98659465  1
  Si  Si28  1  0.93147993  0.47399106  0.77703845  1
  Si  Si29  1  0.47399106  0.93147993  0.22296155  1
  Si  Si30  1  0.36410330  0.06991723  0.85912296  1
  Si  Si31  1  0.14445838  0.14445838  0.50000000  1
  Si  Si32  1  0.98518531  0.52309216  0.01340535  1
  Si  Si33  1  0.64445838  0.64445838  0.00000000  1
  Si  Si34  1  0.97399106  0.43147993  0.27703845  1
  Si  Si35  1  0.00372445  0.14252970  0.82246888  1
  Si  Si36  1  0.43147993  0.97399106  0.72296155  1
  Si  Si37  1  0.14252970  0.00372445  0.17753112  1
  O  O38  1  0.96906177  0.02965135  0.76012892  1
  O  O39  1  0.15744199  0.51686441  0.28890403  1
  O  O40  1  0.17035462  0.09929746  0.86187312  1
  O  O41  1  0.11991262  0.85252710  0.12827084  1
  O  O42  1  0.44390159  0.89419752  0.30020564  1
  O  O43  1  0.43420491  0.75916577  0.18475999  1
  O  O44  1  0.91217557  0.45835747  0.45060813  1
  O  O45  1  0.55377790  0.83644735  0.70183050  1
  O  O46  1  0.45835747  0.91217557  0.54939187  1
  O  O47  1  0.89855842  0.46746980  0.57667936  1
  O  O48  1  0.62867218  0.16371847  0.98749442  1
  O  O49  1  0.95835747  0.41217557  0.95060813  1
  O  O50  1  0.96746980  0.39855842  0.07667936  1
  O  O51  1  0.89419752  0.44390159  0.69979436  1
  O  O52  1  0.83815326  0.64435155  0.02374364  1
  O  O53  1  0.59929746  0.67035462  0.36187312  1
  O  O54  1  0.94390159  0.39419752  0.19979436  1
  O  O55  1  0.66371847  0.12867218  0.48749442  1
  O  O56  1  0.33644735  0.05377790  0.20183050  1
  O  O57  1  0.98206616  0.74128522  0.64422832  1
  O  O58  1  0.48206616  0.24128522  0.85577168  1
  O  O59  1  0.60343962  0.52384158  0.94002444  1
  O  O60  1  0.46746980  0.89855842  0.42332064  1
  O  O61  1  0.24128522  0.48206616  0.14422832  1
  O  O62  1  0.74128522  0.98206616  0.35577168  1
  O  O63  1  0.39855842  0.96746980  0.92332064  1
  O  O64  1  0.83644735  0.55377790  0.29816950  1
  O  O65  1  0.51686441  0.15744199  0.71109597  1
  O  O66  1  0.16371847  0.62867218  0.01250558  1
  O  O67  1  0.67035462  0.59929746  0.63812688  1
  O  O68  1  0.33815326  0.14435155  0.47625636  1
  O  O69  1  0.25916577  0.93420491  0.68475999  1
  O  O70  1  0.93420491  0.25916577  0.31524001  1
  O  O71  1  0.75916577  0.43420491  0.81524001  1
  O  O72  1  0.39419752  0.94390159  0.80020564  1
  O  O73  1  0.65744199  0.01686441  0.21109597  1
  O  O74  1  0.52965135  0.46906177  0.26012892  1
  O  O75  1  0.09929746  0.17035462  0.13812688  1
  O  O76  1  0.02965135  0.96906177  0.23987108  1
  O  O77  1  0.61991262  0.35252710  0.37172916  1
  O  O78  1  0.85252710  0.11991262  0.87172916  1
  O  O79  1  0.46906177  0.52965135  0.73987108  1
  O  O80  1  0.14435155  0.33815326  0.52374364  1
  O  O81  1  0.64435155  0.83815326  0.97625636  1
  O  O82  1  0.05377790  0.33644735  0.79816950  1
  O  O83  1  0.12867218  0.66371847  0.51250558  1
  O  O84  1  0.41217557  0.95835747  0.04939187  1
  O  O85  1  0.10343962  0.02384158  0.55997556  1
  O  O86  1  0.35252710  0.61991262  0.62827084  1
  O  O87  1  0.52384158  0.60343962  0.05997556  1
  O  O88  1  0.01686441  0.65744199  0.78890403  1
  O  O89  1  0.02384158  0.10343962  0.44002444  1
