# generated using pymatgen
data_SiH10(O2F3)2
_symmetry_space_group_name_H-M   'P 1'
_cell_length_a   6.04522267
_cell_length_b   10.04661181
_cell_length_c   6.56503612
_cell_angle_alpha   90.00000000
_cell_angle_beta   105.15406948
_cell_angle_gamma   90.00000000
_symmetry_Int_Tables_number   1
_chemical_formula_structural   SiH10(O2F3)2
_chemical_formula_sum   'Si2 H20 O8 F12'
_cell_volume   384.85596330
_cell_formula_units_Z   2
loop_
 _symmetry_equiv_pos_site_id
 _symmetry_equiv_pos_as_xyz
  1  'x, y, z'
loop_
 _atom_site_type_symbol
 _atom_site_label
 _atom_site_symmetry_multiplicity
 _atom_site_fract_x
 _atom_site_fract_y
 _atom_site_fract_z
 _atom_site_occupancy
  Si  Si0  1  0.00000000  0.50000000  0.50000000  1
  Si  Si1  1  0.00000000  0.00000000  0.00000000  1
  H  H2  1  0.20701321  0.37814431  0.91969641  1
  H  H3  1  0.79298679  0.87814431  0.58030359  1
  H  H4  1  0.79298679  0.62185569  0.08030359  1
  H  H5  1  0.20701321  0.12185569  0.41969641  1
  H  H6  1  0.17068948  0.38141590  0.15660107  1
  H  H7  1  0.82931052  0.88141590  0.34339893  1
  H  H8  1  0.82931052  0.61858410  0.84339893  1
  H  H9  1  0.17068948  0.11858410  0.65660107  1
  H  H10  1  0.42608398  0.30879465  0.13450063  1
  H  H11  1  0.57391602  0.80879465  0.36549937  1
  H  H12  1  0.57391602  0.69120535  0.86549937  1
  H  H13  1  0.42608398  0.19120535  0.63450063  1
  H  H14  1  0.73444717  0.26323744  0.24010783  1
  H  H15  1  0.26555283  0.76323744  0.25989217  1
  H  H16  1  0.26555283  0.73676256  0.75989217  1
  H  H17  1  0.73444717  0.23676256  0.74010783  1
  H  H18  1  0.57608734  0.13981148  0.14088804  1
  H  H19  1  0.42391266  0.63981148  0.35911196  1
  H  H20  1  0.42391266  0.86018852  0.85911196  1
  H  H21  1  0.57608734  0.36018852  0.64088804  1
  O  O22  1  0.28702762  0.38608363  0.07356041  1
  O  O23  1  0.71297238  0.88608363  0.42643959  1
  O  O24  1  0.71297238  0.61391637  0.92643959  1
  O  O25  1  0.28702762  0.11391637  0.57356041  1
  O  O26  1  0.58188478  0.22329839  0.22130158  1
  O  O27  1  0.41811522  0.72329839  0.27869842  1
  O  O28  1  0.41811522  0.77670161  0.77869842  1
  O  O29  1  0.58188478  0.27670161  0.72130158  1
  F  F30  1  0.05071394  0.37134252  0.67980397  1
  F  F31  1  0.94928606  0.87134252  0.82019603  1
  F  F32  1  0.94928606  0.62865748  0.32019603  1
  F  F33  1  0.05071394  0.12865748  0.17980397  1
  F  F34  1  0.28472788  0.51175168  0.52109875  1
  F  F35  1  0.71527212  0.01175168  0.97890125  1
  F  F36  1  0.71527212  0.48824832  0.47890125  1
  F  F37  1  0.28472788  0.98824832  0.02109875  1
  F  F38  1  0.02774602  0.61369334  0.70557652  1
  F  F39  1  0.97225398  0.11369334  0.79442348  1
  F  F40  1  0.97225398  0.38630666  0.29442348  1
  F  F41  1  0.02774602  0.88630666  0.20557652  1
