# generated using pymatgen
data_RbInPHO5
_symmetry_space_group_name_H-M   'P 1'
_cell_length_a   9.54211040
_cell_length_b   9.54211040
_cell_length_c   11.37683688
_cell_angle_alpha   90.00000000
_cell_angle_beta   90.00000000
_cell_angle_gamma   90.00000000
_symmetry_Int_Tables_number   1
_chemical_formula_structural   RbInPHO5
_chemical_formula_sum   'Rb8 In8 P8 H8 O40'
_cell_volume   1035.88228269
_cell_formula_units_Z   8
loop_
 _symmetry_equiv_pos_site_id
 _symmetry_equiv_pos_as_xyz
  1  'x, y, z'
loop_
 _atom_site_type_symbol
 _atom_site_label
 _atom_site_symmetry_multiplicity
 _atom_site_fract_x
 _atom_site_fract_y
 _atom_site_fract_z
 _atom_site_occupancy
  Rb  Rb0  1  0.98429859  0.31612570  0.29630523  1
  Rb  Rb1  1  0.01570141  0.68387430  0.79630523  1
  Rb  Rb2  1  0.81612570  0.51570141  0.54630523  1
  Rb  Rb3  1  0.18387430  0.48429859  0.04630523  1
  Rb  Rb4  1  0.68387430  0.01570141  0.20369477  1
  Rb  Rb5  1  0.31612570  0.98429859  0.70369477  1
  Rb  Rb6  1  0.51570141  0.81612570  0.45369477  1
  Rb  Rb7  1  0.48429859  0.18387430  0.95369477  1
  In  In8  1  0.60020650  0.39979350  0.25000000  1
  In  In9  1  0.39979350  0.60020650  0.75000000  1
  In  In10  1  0.89979350  0.89979350  0.50000000  1
  In  In11  1  0.10020650  0.10020650  0.00000000  1
  In  In12  1  0.15333919  0.84666081  0.25000000  1
  In  In13  1  0.84666081  0.15333919  0.75000000  1
  In  In14  1  0.34666081  0.34666081  0.50000000  1
  In  In15  1  0.65333919  0.65333919  0.00000000  1
  P  P16  1  0.84012381  0.68450170  0.25341241  1
  P  P17  1  0.15987619  0.31549830  0.75341241  1
  P  P18  1  0.18450170  0.65987619  0.50341241  1
  P  P19  1  0.81549830  0.34012381  0.00341241  1
  P  P20  1  0.31549830  0.15987619  0.24658759  1
  P  P21  1  0.68450170  0.84012381  0.74658759  1
  P  P22  1  0.65987619  0.18450170  0.49658759  1
  P  P23  1  0.34012381  0.81549830  0.99658759  1
  H  H24  1  0.12191029  0.04081420  0.40669160  1
  H  H25  1  0.87808971  0.95918580  0.90669160  1
  H  H26  1  0.54081420  0.37808971  0.65669160  1
  H  H27  1  0.45918580  0.62191029  0.15669160  1
  H  H28  1  0.95918580  0.87808971  0.09330840  1
  H  H29  1  0.04081420  0.12191029  0.59330840  1
  H  H30  1  0.37808971  0.54081420  0.34330840  1
  H  H31  1  0.62191029  0.45918580  0.84330840  1
  O  O32  1  0.82806249  0.50128596  0.98956880  1
  O  O33  1  0.17193751  0.49871404  0.48956880  1
  O  O34  1  0.00128596  0.67193751  0.23956880  1
  O  O35  1  0.99871404  0.32806249  0.73956880  1
  O  O36  1  0.49871404  0.17193751  0.51043120  1
  O  O37  1  0.50128596  0.82806249  0.01043120  1
  O  O38  1  0.67193751  0.00128596  0.76043120  1
  O  O39  1  0.32806249  0.99871404  0.26043120  1
  O  O40  1  0.71559703  0.29864075  0.10701925  1
  O  O41  1  0.28440297  0.70135925  0.60701925  1
  O  O42  1  0.79864075  0.78440297  0.35701925  1
  O  O43  1  0.20135925  0.21559703  0.85701925  1
  O  O44  1  0.70135925  0.28440297  0.39298075  1
  O  O45  1  0.29864075  0.71559703  0.89298075  1
  O  O46  1  0.78440297  0.79864075  0.64298075  1
  O  O47  1  0.21559703  0.20135925  0.14298075  1
  O  O48  1  0.78044015  0.53721214  0.28234476  1
  O  O49  1  0.21955985  0.46278786  0.78234476  1
  O  O50  1  0.03721214  0.71955985  0.53234476  1
  O  O51  1  0.96278786  0.28044015  0.03234476  1
  O  O52  1  0.46278786  0.21955985  0.21765524  1
  O  O53  1  0.53721214  0.78044015  0.71765524  1
  O  O54  1  0.71955985  0.03721214  0.46765524  1
  O  O55  1  0.28044015  0.96278786  0.96765524  1
  O  O56  1  0.77574112  0.74874680  0.13923125  1
  O  O57  1  0.22425888  0.25125320  0.63923125  1
  O  O58  1  0.24874680  0.72425888  0.38923125  1
  O  O59  1  0.75125320  0.27574112  0.88923125  1
  O  O60  1  0.25125320  0.22425888  0.36076875  1
  O  O61  1  0.74874680  0.77574112  0.86076875  1
  O  O62  1  0.72425888  0.24874680  0.61076875  1
  O  O63  1  0.27574112  0.75125320  0.11076875  1
  O  O64  1  0.45512941  0.48543609  0.37627604  1
  O  O65  1  0.54487059  0.51456391  0.87627604  1
  O  O66  1  0.98543609  0.04487059  0.62627604  1
  O  O67  1  0.01456391  0.95512941  0.12627604  1
  O  O68  1  0.51456391  0.54487059  0.12372396  1
  O  O69  1  0.48543609  0.45512941  0.62372396  1
  O  O70  1  0.04487059  0.98543609  0.37372396  1
  O  O71  1  0.95512941  0.01456391  0.87372396  1
