# generated using pymatgen
data_Na3B3H2O7
_symmetry_space_group_name_H-M   'P 1'
_cell_length_a   8.94730196
_cell_length_b   7.25468932
_cell_length_c   9.70908489
_cell_angle_alpha   90.00000000
_cell_angle_beta   90.00000000
_cell_angle_gamma   90.00000000
_symmetry_Int_Tables_number   1
_chemical_formula_structural   Na3B3H2O7
_chemical_formula_sum   'Na12 B12 H8 O28'
_cell_volume   630.21569019
_cell_formula_units_Z   4
loop_
 _symmetry_equiv_pos_site_id
 _symmetry_equiv_pos_as_xyz
  1  'x, y, z'
loop_
 _atom_site_type_symbol
 _atom_site_label
 _atom_site_symmetry_multiplicity
 _atom_site_fract_x
 _atom_site_fract_y
 _atom_site_fract_z
 _atom_site_occupancy
  Na  Na0  1  0.77136126  0.50231399  0.19724941  1
  Na  Na1  1  0.27136126  0.99768601  0.30275059  1
  Na  Na2  1  0.22863874  0.00231399  0.80275059  1
  Na  Na3  1  0.72863874  0.49768601  0.69724941  1
  Na  Na4  1  0.22863874  0.49768601  0.80275059  1
  Na  Na5  1  0.72863874  0.00231399  0.69724941  1
  Na  Na6  1  0.77136126  0.99768601  0.19724941  1
  Na  Na7  1  0.27136126  0.50231399  0.30275059  1
  Na  Na8  1  0.03605281  0.75000000  0.17004717  1
  Na  Na9  1  0.53605281  0.75000000  0.32995283  1
  Na  Na10  1  0.96394719  0.25000000  0.82995283  1
  Na  Na11  1  0.46394719  0.25000000  0.67004717  1
  B  B12  1  0.01451372  0.25000000  0.28647829  1
  B  B13  1  0.51451372  0.25000000  0.21352171  1
  B  B14  1  0.98548628  0.75000000  0.71352171  1
  B  B15  1  0.48548628  0.75000000  0.78647829  1
  B  B16  1  0.09559580  0.25000000  0.54176746  1
  B  B17  1  0.59559580  0.25000000  0.95823254  1
  B  B18  1  0.90440420  0.75000000  0.45823254  1
  B  B19  1  0.40440420  0.75000000  0.04176746  1
  B  B20  1  0.82381967  0.25000000  0.48105983  1
  B  B21  1  0.32381967  0.25000000  0.01894017  1
  B  B22  1  0.17618033  0.75000000  0.51894017  1
  B  B23  1  0.67618033  0.75000000  0.98105983  1
  H  H24  1  0.08456678  0.37560069  0.11074102  1
  H  H25  1  0.58456678  0.12439931  0.38925898  1
  H  H26  1  0.91543322  0.87560069  0.88925898  1
  H  H27  1  0.41543322  0.62439931  0.61074102  1
  H  H28  1  0.91543322  0.62439931  0.88925898  1
  H  H29  1  0.41543322  0.87560069  0.61074102  1
  H  H30  1  0.08456678  0.12439931  0.11074102  1
  H  H31  1  0.58456678  0.37560069  0.38925898  1
  O  O32  1  0.03415671  0.41685180  0.19706628  1
  O  O33  1  0.53415671  0.08314820  0.30293372  1
  O  O34  1  0.96584329  0.91685180  0.80293372  1
  O  O35  1  0.46584329  0.58314820  0.69706628  1
  O  O36  1  0.96584329  0.58314820  0.80293372  1
  O  O37  1  0.46584329  0.91685180  0.69706628  1
  O  O38  1  0.03415671  0.08314820  0.19706628  1
  O  O39  1  0.53415671  0.41685180  0.30293372  1
  O  O40  1  0.86180601  0.25000000  0.34258977  1
  O  O41  1  0.36180601  0.25000000  0.15741023  1
  O  O42  1  0.13819399  0.75000000  0.65741023  1
  O  O43  1  0.63819399  0.75000000  0.84258977  1
  O  O44  1  0.12632121  0.25000000  0.39992860  1
  O  O45  1  0.62632121  0.25000000  0.10007140  1
  O  O46  1  0.87367879  0.75000000  0.60007140  1
  O  O47  1  0.37367879  0.75000000  0.89992860  1
  O  O48  1  0.19995619  0.25000000  0.63892564  1
  O  O49  1  0.69995619  0.25000000  0.86107436  1
  O  O50  1  0.80004381  0.75000000  0.36107436  1
  O  O51  1  0.30004381  0.75000000  0.13892564  1
  O  O52  1  0.93971084  0.25000000  0.57990869  1
  O  O53  1  0.43971084  0.25000000  0.92009131  1
  O  O54  1  0.06028916  0.75000000  0.42009131  1
  O  O55  1  0.56028916  0.75000000  0.07990869  1
  O  O56  1  0.67996013  0.25000000  0.52341020  1
  O  O57  1  0.17996013  0.25000000  0.97658980  1
  O  O58  1  0.32003987  0.75000000  0.47658980  1
  O  O59  1  0.82003987  0.75000000  0.02341020  1
