# generated using pymatgen
data_Li5Mn2CoO8
_symmetry_space_group_name_H-M   'P 1'
_cell_length_a   2.87550914
_cell_length_b   5.11600067
_cell_length_c   9.81994362
_cell_angle_alpha   101.19304690
_cell_angle_beta   90.00000000
_cell_angle_gamma   90.00000000
_symmetry_Int_Tables_number   1
_chemical_formula_structural   Li5Mn2CoO8
_chemical_formula_sum   'Li5 Mn2 Co1 O8'
_cell_volume   141.71438128
_cell_formula_units_Z   1
loop_
 _symmetry_equiv_pos_site_id
 _symmetry_equiv_pos_as_xyz
  1  'x, y, z'
loop_
 _atom_site_type_symbol
 _atom_site_label
 _atom_site_symmetry_multiplicity
 _atom_site_fract_x
 _atom_site_fract_y
 _atom_site_fract_z
 _atom_site_occupancy
  Li  Li0  1  0.50000000  0.27061727  0.27071648  1
  Li  Li1  1  0.50000000  0.72938273  0.72928352  1
  Li  Li2  1  0.00000000  0.75560098  0.26328740  1
  Li  Li3  1  0.00000000  0.24439902  0.73671260  1
  Li  Li4  1  0.00000000  0.50000000  0.50000000  1
  Mn  Mn5  1  -0.00000000  -0.00000000  -0.00000000  1
  Mn  Mn6  1  0.50000000  0.00000000  0.50000000  1
  Co  Co7  1  0.50000000  0.50000000  -0.00000000  1
  O  O8  1  0.50000000  0.90274314  0.11320779  1
  O  O9  1  0.50000000  0.34542017  0.61949259  1
  O  O10  1  0.00000000  0.36121457  0.10746876  1
  O  O11  1  -0.00000000  0.88634355  0.61052428  1
  O  O12  1  0.50000000  0.65457983  0.38050741  1
  O  O13  1  0.50000000  0.09725686  0.88679221  1
  O  O14  1  0.00000000  0.11365645  0.38947572  1
  O  O15  1  0.00000000  0.63878543  0.89253124  1
