# generated using pymatgen
data_LiAgF2
_symmetry_space_group_name_H-M   'P 1'
_cell_length_a   3.04887833
_cell_length_b   6.56253636
_cell_length_c   18.95666095
_cell_angle_alpha   15.55561379
_cell_angle_beta   90.19346188
_cell_angle_gamma   76.76105936
_symmetry_Int_Tables_number   1
_chemical_formula_structural   LiAgF2
_chemical_formula_sum   'Li1 Ag1 F2'
_cell_volume   50.84360083
_cell_formula_units_Z   1
loop_
 _symmetry_equiv_pos_site_id
 _symmetry_equiv_pos_as_xyz
  1  'x, y, z'
loop_
 _atom_site_type_symbol
 _atom_site_label
 _atom_site_symmetry_multiplicity
 _atom_site_fract_x
 _atom_site_fract_y
 _atom_site_fract_z
 _atom_site_occupancy
  Li  Li0  1  0.98943698  0.99503499  0.50083418  1
  Ag  Ag1  1  0.99551133  0.02102270  0.99217750  1
  F  F2  1  0.97402233  0.03878515  0.09600343  1
  F  F3  1  0.02430936  0.95590516  0.90411789  1
