# generated using pymatgen
data_K3Fe3P4H2O17
_symmetry_space_group_name_H-M   'P 1'
_cell_length_a   10.91409410
_cell_length_b   21.04297021
_cell_length_c   6.63132921
_cell_angle_alpha   90.00000000
_cell_angle_beta   90.00000000
_cell_angle_gamma   90.00000000
_symmetry_Int_Tables_number   1
_chemical_formula_structural   K3Fe3P4H2O17
_chemical_formula_sum   'K12 Fe12 P16 H8 O68'
_cell_volume   1522.98393797
_cell_formula_units_Z   4
loop_
 _symmetry_equiv_pos_site_id
 _symmetry_equiv_pos_as_xyz
  1  'x, y, z'
loop_
 _atom_site_type_symbol
 _atom_site_label
 _atom_site_symmetry_multiplicity
 _atom_site_fract_x
 _atom_site_fract_y
 _atom_site_fract_z
 _atom_site_occupancy
  K  K0  1  0.25000000  0.50000000  0.81367054  1
  K  K1  1  0.25000000  0.00000000  0.68632946  1
  K  K2  1  0.75000000  0.50000000  0.18632946  1
  K  K3  1  0.75000000  0.00000000  0.31367054  1
  K  K4  1  0.51147015  0.40444346  0.64179529  1
  K  K5  1  0.98852985  0.59555654  0.64179529  1
  K  K6  1  0.51147015  0.09555654  0.85820471  1
  K  K7  1  0.98852985  0.90444346  0.85820471  1
  K  K8  1  0.48852985  0.59555654  0.35820471  1
  K  K9  1  0.01147015  0.40444346  0.35820471  1
  K  K10  1  0.48852985  0.90444346  0.14179529  1
  K  K11  1  0.01147015  0.09555654  0.14179529  1
  Fe  Fe12  1  0.00200223  0.25000000  0.75000000  1
  Fe  Fe13  1  0.49799777  0.75000000  0.75000000  1
  Fe  Fe14  1  0.99799777  0.75000000  0.25000000  1
  Fe  Fe15  1  0.50200223  0.25000000  0.25000000  1
  Fe  Fe16  1  0.25154795  0.33750336  0.00062596  1
  Fe  Fe17  1  0.24845205  0.66249664  0.00062596  1
  Fe  Fe18  1  0.25154795  0.16249664  0.49937404  1
  Fe  Fe19  1  0.24845205  0.83750336  0.49937404  1
  Fe  Fe20  1  0.74845205  0.66249664  0.99937404  1
  Fe  Fe21  1  0.75154795  0.33750336  0.99937404  1
  Fe  Fe22  1  0.74845205  0.83750336  0.50062596  1
  Fe  Fe23  1  0.75154795  0.16249664  0.50062596  1
  P  P24  1  0.75260189  0.29501271  0.50023655  1
  P  P25  1  0.74739811  0.70498729  0.50023655  1
  P  P26  1  0.75260189  0.20498729  -0.00023655  1
  P  P27  1  0.74739811  0.79501271  -0.00023655  1
  P  P28  1  0.24739811  0.70498729  0.49976345  1
  P  P29  1  0.25260189  0.29501271  0.49976345  1
  P  P30  1  0.24739811  0.79501271  0.00023655  1
  P  P31  1  0.25260189  0.20498729  0.00023655  1
  P  P32  1  0.50063301  0.59750908  0.85154723  1
  P  P33  1  0.99936699  0.40249092  0.85154723  1
  P  P34  1  0.50063301  0.90249092  0.64845277  1
  P  P35  1  0.99936699  0.09750908  0.64845277  1
  P  P36  1  0.49936699  0.40249092  0.14845277  1
  P  P37  1  0.00063301  0.59750908  0.14845277  1
  P  P38  1  0.49936699  0.09750908  0.35154723  1
  P  P39  1  0.00063301  0.90249092  0.35154723  1
  H  H40  1  0.18063851  0.51329122  0.32225405  1
  H  H41  1  0.31936149  0.48670878  0.32225405  1
  H  H42  1  0.18063851  0.98670878  0.17774595  1
  H  H43  1  0.31936149  0.01329122  0.17774595  1
  H  H44  1  0.81936149  0.48670878  0.67774595  1
  H  H45  1  0.68063851  0.51329122  0.67774595  1
  H  H46  1  0.81936149  0.01329122  0.82225405  1
  H  H47  1  0.68063851  0.98670878  0.82225405  1
  O  O48  1  0.77762704  0.33716946  0.31621067  1
  O  O49  1  0.72237296  0.66283054  0.31621067  1
  O  O50  1  0.77762704  0.16283054  0.18378933  1
  O  O51  1  0.72237296  0.83716946  0.18378933  1
  O  O52  1  0.22237296  0.66283054  0.68378933  1
  O  O53  1  0.27762704  0.33716946  0.68378933  1
  O  O54  1  0.22237296  0.83716946  0.81621067  1
  O  O55  1  0.27762704  0.16283054  0.81621067  1
  O  O56  1  0.86086909  0.24554928  0.53543228  1
  O  O57  1  0.63913091  0.75445072  0.53543228  1
  O  O58  1  0.86086909  0.25445072  0.96456772  1
  O  O59  1  0.63913091  0.74554928  0.96456772  1
  O  O60  1  0.13913091  0.75445072  0.46456772  1
  O  O61  1  0.36086909  0.24554928  0.46456772  1
  O  O62  1  0.13913091  0.74554928  0.03543228  1
  O  O63  1  0.36086909  0.25445072  0.03543228  1
  O  O64  1  0.72570927  0.33457942  0.68957717  1
  O  O65  1  0.77429073  0.66542058  0.68957717  1
  O  O66  1  0.72570927  0.16542058  0.81042283  1
  O  O67  1  0.77429073  0.83457942  0.81042283  1
  O  O68  1  0.27429073  0.66542058  0.31042283  1
  O  O69  1  0.22570927  0.33457942  0.31042283  1
  O  O70  1  0.27429073  0.83457942  0.18957717  1
  O  O71  1  0.22570927  0.16542058  0.18957717  1
  O  O72  1  0.64447721  0.24558012  0.46098600  1
  O  O73  1  0.85552279  0.75441988  0.46098600  1
  O  O74  1  0.64447721  0.25441988  0.03901400  1
  O  O75  1  0.85552279  0.74558012  0.03901400  1
  O  O76  1  0.35552279  0.75441988  0.53901400  1
  O  O77  1  0.14447721  0.24558012  0.53901400  1
  O  O78  1  0.35552279  0.74558012  0.96098600  1
  O  O79  1  0.14447721  0.25441988  0.96098600  1
  O  O80  1  0.38245302  0.60057024  0.98584345  1
  O  O81  1  0.11754698  0.39942976  0.98584345  1
  O  O82  1  0.38245302  0.89942976  0.51415655  1
  O  O83  1  0.11754698  0.10057024  0.51415655  1
  O  O84  1  0.61754698  0.39942976  0.01415655  1
  O  O85  1  0.88245302  0.60057024  0.01415655  1
  O  O86  1  0.61754698  0.10057024  0.48584345  1
  O  O87  1  0.88245302  0.89942976  0.48584345  1
  O  O88  1  0.61391479  0.60105165  0.99624859  1
  O  O89  1  0.88608521  0.39894835  0.99624859  1
  O  O90  1  0.61391479  0.89894835  0.50375141  1
  O  O91  1  0.88608521  0.10105165  0.50375141  1
  O  O92  1  0.38608521  0.39894835  0.00375141  1
  O  O93  1  0.11391479  0.60105165  0.00375141  1
  O  O94  1  0.38608521  0.10105165  0.49624859  1
  O  O95  1  0.11391479  0.89894835  0.49624859  1
  O  O96  1  0.50335344  0.53648887  0.72850779  1
  O  O97  1  0.99664656  0.46351113  0.72850779  1
  O  O98  1  0.50335344  0.96351113  0.77149221  1
  O  O99  1  0.99664656  0.03648887  0.77149221  1
  O  O100  1  0.49664656  0.46351113  0.27149221  1
  O  O101  1  0.00335344  0.53648887  0.27149221  1
  O  O102  1  0.49664656  0.03648887  0.22850779  1
  O  O103  1  0.00335344  0.96351113  0.22850779  1
  O  O104  1  0.50100463  0.65766101  0.71470030  1
  O  O105  1  0.99899537  0.34233899  0.71470030  1
  O  O106  1  0.50100463  0.84233899  0.78529970  1
  O  O107  1  0.99899537  0.15766101  0.78529970  1
  O  O108  1  0.49899537  0.34233899  0.28529970  1
  O  O109  1  0.00100463  0.65766101  0.28529970  1
  O  O110  1  0.49899537  0.15766101  0.21470030  1
  O  O111  1  0.00100463  0.84233899  0.21470030  1
  O  O112  1  0.25000000  0.50000000  0.40690188  1
  O  O113  1  0.25000000  0.00000000  0.09309812  1
  O  O114  1  0.75000000  0.50000000  0.59309812  1
  O  O115  1  0.75000000  0.00000000  0.90690188  1
