# generated using pymatgen
data_CsFeBP2HO9
_symmetry_space_group_name_H-M   'P 1'
_cell_length_a   9.48155885
_cell_length_b   8.72368131
_cell_length_c   9.93675004
_cell_angle_alpha   90.00000000
_cell_angle_beta   102.84764577
_cell_angle_gamma   90.00000000
_symmetry_Int_Tables_number   1
_chemical_formula_structural   CsFeBP2HO9
_chemical_formula_sum   'Cs4 Fe4 B4 P8 H4 O36'
_cell_volume   801.33263539
_cell_formula_units_Z   4
loop_
 _symmetry_equiv_pos_site_id
 _symmetry_equiv_pos_as_xyz
  1  'x, y, z'
loop_
 _atom_site_type_symbol
 _atom_site_label
 _atom_site_symmetry_multiplicity
 _atom_site_fract_x
 _atom_site_fract_y
 _atom_site_fract_z
 _atom_site_occupancy
  Cs  Cs0  1  0.19379063  0.60895843  0.55453348  1
  Cs  Cs1  1  0.19379063  0.89104157  0.05453348  1
  Cs  Cs2  1  0.80620937  0.10895843  0.94546652  1
  Cs  Cs3  1  0.80620937  0.39104157  0.44546652  1
  Fe  Fe4  1  0.20580835  0.34638910  0.92901564  1
  Fe  Fe5  1  0.20580835  0.15361090  0.42901564  1
  Fe  Fe6  1  0.79419165  0.84638910  0.57098436  1
  Fe  Fe7  1  0.79419165  0.65361090  0.07098436  1
  B  B8  1  0.34100025  0.95634162  0.69738688  1
  B  B9  1  0.34100025  0.54365838  0.19738688  1
  B  B10  1  0.65899975  0.45634162  0.80261312  1
  B  B11  1  0.65899975  0.04365838  0.30261312  1
  P  P12  1  0.07493926  0.07213981  0.70213159  1
  P  P13  1  0.07493926  0.42786019  0.20213159  1
  P  P14  1  0.41842712  0.26685728  0.71380629  1
  P  P15  1  0.41842712  0.23314272  0.21380629  1
  P  P16  1  0.58157288  0.76685728  0.78619371  1
  P  P17  1  0.58157288  0.73314272  0.28619371  1
  P  P18  1  0.92506074  0.57213981  0.79786841  1
  P  P19  1  0.92506074  0.92786019  0.29786841  1
  H  H20  1  0.39850022  0.91404608  0.50973817  1
  H  H21  1  0.39850022  0.58595392  0.00973817  1
  H  H22  1  0.60149978  0.41404608  0.99026183  1
  H  H23  1  0.60149978  0.08595392  0.49026183  1
  O  O24  1  0.07317174  0.49569382  0.81302244  1
  O  O25  1  0.09960274  0.16887152  0.83547048  1
  O  O26  1  0.08781376  0.16566036  0.57441144  1
  O  O27  1  0.07317174  0.00430618  0.31302244  1
  O  O28  1  0.09960274  0.33112848  0.33547048  1
  O  O29  1  0.19622843  0.94270949  0.72824932  1
  O  O30  1  0.08781376  0.33433964  0.07441144  1
  O  O31  1  0.19622843  0.55729051  0.22824932  1
  O  O32  1  0.33990145  0.36843972  0.79971915  1
  O  O33  1  0.31824010  0.95893000  0.54360360  1
  O  O34  1  0.35937201  0.28127262  0.55811058  1
  O  O35  1  0.41730058  0.81499868  0.75355661  1
  O  O36  1  0.42113603  0.09467258  0.76150366  1
  O  O37  1  0.33990145  0.13156028  0.29971915  1
  O  O38  1  0.31824010  0.54107000  0.04360360  1
  O  O39  1  0.35937201  0.21872738  0.05811058  1
  O  O40  1  0.41730058  0.68500132  0.25355661  1
  O  O41  1  0.42113603  0.40532742  0.26150366  1
  O  O42  1  0.57886397  0.59467258  0.73849634  1
  O  O43  1  0.58269942  0.31499868  0.74644339  1
  O  O44  1  0.64062799  0.78127262  0.94188942  1
  O  O45  1  0.68175990  0.45893100  0.95639640  1
  O  O46  1  0.66009955  0.86843972  0.70028085  1
  O  O47  1  0.57886397  0.90532742  0.23849634  1
  O  O48  1  0.58269942  0.18500132  0.24644339  1
  O  O49  1  0.64062799  0.71872738  0.44188942  1
  O  O50  1  0.68175990  0.04106900  0.45639640  1
  O  O51  1  0.66009955  0.63156028  0.20028085  1
  O  O52  1  0.80377157  0.44270949  0.77175068  1
  O  O53  1  0.91218624  0.66566036  0.92558856  1
  O  O54  1  0.80377157  0.05729051  0.27175068  1
  O  O55  1  0.90039726  0.66887152  0.66452952  1
  O  O56  1  0.92682826  0.99569382  0.68697756  1
  O  O57  1  0.91218624  0.83433964  0.42558856  1
  O  O58  1  0.90039726  0.83112848  0.16452952  1
  O  O59  1  0.92682826  0.50430618  0.18697756  1
