# generated using pymatgen
data_Na9Fe3P8O29
_symmetry_space_group_name_H-M   'P 1'
_cell_length_a   10.18181246
_cell_length_b   10.18181729
_cell_length_c   14.71585097
_cell_angle_alpha   90.00037057
_cell_angle_beta   90.00048083
_cell_angle_gamma   120.00030559
_symmetry_Int_Tables_number   1
_chemical_formula_structural   Na9Fe3P8O29
_chemical_formula_sum   'Na18 Fe6 P16 O58'
_cell_volume   1321.18936196
_cell_formula_units_Z   2
loop_
 _symmetry_equiv_pos_site_id
 _symmetry_equiv_pos_as_xyz
  1  'x, y, z'
loop_
 _atom_site_type_symbol
 _atom_site_label
 _atom_site_symmetry_multiplicity
 _atom_site_fract_x
 _atom_site_fract_y
 _atom_site_fract_z
 _atom_site_occupancy
  Na  Na0  1  0.10390131  0.75234587  0.94195965  1
  Na  Na1  1  0.24766249  0.89610133  0.44195698  1
  Na  Na2  1  0.10389730  0.35155132  0.44195822  1
  Na  Na3  1  0.00000105  0.00000035  0.99999910  1
  Na  Na4  1  0.99999783  0.99999901  0.49999993  1
  Na  Na5  1  0.33333996  0.66666664  0.12488537  1
  Na  Na6  1  0.33334271  0.66667100  0.62488488  1
  Na  Na7  1  0.24766449  0.35155903  0.94195629  1
  Na  Na8  1  0.64844140  0.89609754  0.94196053  1
  Na  Na9  1  0.35155041  0.24765316  0.55804270  1
  Na  Na10  1  0.64844254  0.75234213  0.44196005  1
  Na  Na11  1  0.35156137  0.10390339  0.05804024  1
  Na  Na12  1  0.75233855  0.64844022  0.05804270  1
  Na  Na13  1  0.66666433  0.33333085  0.37511651  1
  Na  Na14  1  0.66667007  0.33333312  0.87511520  1
  Na  Na15  1  0.89610151  0.64844156  0.55804443  1
  Na  Na16  1  0.75233791  0.10390048  0.55803990  1
  Na  Na17  1  0.89610292  0.24765738  0.05804241  1
  Fe  Fe18  1  0.00001277  0.56282330  0.75000343  1
  Fe  Fe19  1  0.00000008  0.43718166  0.25000185  1
  Fe  Fe20  1  0.43719103  0.43718120  0.74999288  1
  Fe  Fe21  1  0.56281931  0.56281855  0.24999780  1
  Fe  Fe22  1  0.43718075  -0.00000001  0.24999757  1
  Fe  Fe23  1  0.56282607  -0.00000002  0.75000192  1
  P  P24  1  0.09043615  0.77323789  0.16272510  1
  P  P25  1  0.22676337  0.90956535  0.66272660  1
  P  P26  1  0.09043513  0.31719398  0.66272588  1
  P  P27  1  0.33335266  0.66667154  0.86383905  1
  P  P28  1  0.33335011  0.66667572  0.36383927  1
  P  P29  1  0.22675973  0.31719288  0.16272726  1
  P  P30  1  0.31719677  0.22675942  0.33727427  1
  P  P31  1  0.68280435  0.90956007  0.16272725  1
  P  P32  1  0.31719901  0.09043720  0.83727339  1
  P  P33  1  0.68280743  0.77324240  0.66272570  1
  P  P34  1  0.77324316  0.68280659  0.83727420  1
  P  P35  1  0.66665270  0.33332850  0.13616154  1
  P  P36  1  0.66667845  0.33332975  0.63616069  1
  P  P37  1  0.90956607  0.68280330  0.33727398  1
  P  P38  1  0.77324148  0.09043153  0.33727344  1
  P  P39  1  0.90956619  0.22676194  0.83727350  1
  O  O40  1  -0.00000034  0.78501329  0.24999928  1
  O  O41  1  0.99045527  0.77221564  0.42192060  1
  O  O42  1  0.08964718  0.74714578  0.66557712  1
  O  O43  1  0.22778589  0.00955240  0.92191999  1
  O  O44  1  0.25285381  0.91035480  0.16557567  1
  O  O45  1  0.09450523  0.62431453  0.16984936  1
  O  O46  1  0.18825951  0.66462434  0.82751505  1
  O  O47  1  0.09450914  0.47018680  0.66985311  1
  O  O48  1  0.99045484  0.21823656  0.92192098  1
  O  O49  1  0.99999735  0.21498006  0.74999890  1
  O  O50  1  0.08964376  0.34249875  0.16557636  1
  O  O51  1  0.33538145  0.81175100  0.32750190  1
  O  O52  1  0.37568195  0.90549739  0.66985298  1
  O  O53  1  0.18825716  0.52363114  0.32751043  1
  O  O54  1  0.33337714  0.66668987  0.46813956  1
  O  O55  1  0.33338237  0.66668390  0.96813943  1
  O  O56  1  0.33538339  0.52362791  0.82749904  1
  O  O57  1  0.52981849  0.90549504  0.16985032  1
  O  O58  1  0.47638544  0.81175133  0.82749649  1
  O  O59  1  0.25285352  0.34249402  0.66557497  1
  O  O60  1  0.21497765  0.21497775  0.25000111  1
  O  O61  1  0.22778310  0.21823337  0.42192227  1
  O  O62  1  0.21822889  0.22778020  0.07808015  1
  O  O63  1  0.37567989  0.47018186  0.16985256  1
  O  O64  1  0.47638356  0.66463091  0.32749687  1
  O  O65  1  0.34250398  0.25285724  0.83442308  1
  O  O66  1  0.52981746  0.62431734  0.66984824  1
  O  O67  1  0.65750266  0.91035466  0.66557385  1
  O  O68  1  0.21498255  0.00000277  0.74999889  1
  O  O69  1  0.21823340  0.99044791  0.57807922  1
  O  O70  1  0.78177158  0.00955346  0.42192051  1
  O  O71  1  0.34249690  0.08964308  0.33442613  1
  O  O72  1  0.47018466  0.37568063  0.33015082  1
  O  O73  1  0.65750320  0.74714437  0.16557263  1
  O  O74  1  0.52363348  0.33537678  0.67248490  1
  O  O75  1  0.62432262  0.52981375  0.83014460  1
  O  O76  1  0.78176676  0.77221305  0.92192178  1
  O  O77  1  0.77222169  0.78176838  0.57808024  1
  O  O78  1  0.78501904  0.78502265  0.75000211  1
  O  O79  1  0.74715031  0.65750074  0.33442612  1
  O  O80  1  0.52361896  0.18825040  0.17250414  1
  O  O81  1  0.47018657  0.09450452  0.83014801  1
  O  O82  1  0.66462042  0.47637170  0.17249796  1
  O  O83  1  0.66662386  0.33331658  0.03186117  1
  O  O84  1  0.66669448  0.33331873  0.53186088  1
  O  O85  1  0.81175374  0.47637421  0.67250068  1
  O  O86  1  0.62432366  0.09450339  0.33014567  1
  O  O87  1  0.66463366  0.18825106  0.67250328  1
  O  O88  1  0.91035947  0.65750432  0.83442559  1
  O  O89  1  0.00955084  0.78176324  0.07807874  1
  O  O90  1  0.90549684  0.52981051  0.33014762  1
  O  O91  1  0.81174497  0.33537700  0.17248879  1
  O  O92  1  0.90549986  0.37568394  0.83015031  1
  O  O93  1  0.74714946  0.08964650  0.83442700  1
  O  O94  1  0.77222060  0.99045111  0.07808045  1
  O  O95  1  0.78502130  0.99999184  0.25000212  1
  O  O96  1  0.91035990  0.25285454  0.33442141  1
  O  O97  1  0.00954854  0.22778288  0.57807989  1
