# generated using pymatgen
data_ZnP2H7NO8
_symmetry_space_group_name_H-M   'P 1'
_cell_length_a   7.75205489
_cell_length_b   13.35839652
_cell_length_c   8.21034240
_cell_angle_alpha   90.00000000
_cell_angle_beta   107.25337134
_cell_angle_gamma   90.00000000
_symmetry_Int_Tables_number   1
_chemical_formula_structural   ZnP2H7NO8
_chemical_formula_sum   'Zn4 P8 H28 N4 O32'
_cell_volume   811.96431797
_cell_formula_units_Z   4
loop_
 _symmetry_equiv_pos_site_id
 _symmetry_equiv_pos_as_xyz
  1  'x, y, z'
loop_
 _atom_site_type_symbol
 _atom_site_label
 _atom_site_symmetry_multiplicity
 _atom_site_fract_x
 _atom_site_fract_y
 _atom_site_fract_z
 _atom_site_occupancy
  Zn  Zn0  1  0.10588114  0.00853206  0.25744524  1
  Zn  Zn1  1  0.39411886  0.50853206  0.24255476  1
  Zn  Zn2  1  0.60588114  0.49146794  0.75744524  1
  Zn  Zn3  1  0.89411886  0.99146794  0.74255476  1
  P  P4  1  0.23736187  0.53395773  0.84759404  1
  P  P5  1  0.26263813  0.03395773  0.65240596  1
  P  P6  1  0.14102392  0.83805600  0.01051682  1
  P  P7  1  0.35897608  0.33805600  0.48948318  1
  P  P8  1  0.64102392  0.66194400  0.51051682  1
  P  P9  1  0.85897608  0.16194400  0.98948318  1
  P  P10  1  0.73736187  0.96604227  0.34759404  1
  P  P11  1  0.76263813  0.46604227  0.15240596  1
  H  H12  1  0.04200413  0.76516594  0.38669580  1
  H  H13  1  0.04846805  0.41312615  0.29546614  1
  H  H14  1  0.13064002  0.69432243  0.56073958  1
  H  H15  1  0.27420915  0.30621233  0.96348347  1
  H  H16  1  0.21699276  0.37675881  0.70716117  1
  H  H17  1  0.28300724  0.87675881  0.79283883  1
  H  H18  1  0.22579085  0.80621233  0.53651653  1
  H  H19  1  0.36935998  0.19432243  0.93926042  1
  H  H20  1  0.24271025  0.70666269  0.41396260  1
  H  H21  1  0.13646265  0.67205338  0.04810769  1
  H  H22  1  0.36353735  0.17205338  0.45189231  1
  H  H23  1  0.25728975  0.20666269  0.08603740  1
  H  H24  1  0.54200413  0.73483406  0.88669580  1
  H  H25  1  0.54846805  0.08687385  0.79546614  1
  H  H26  1  0.45153195  0.91312615  0.20453386  1
  H  H27  1  0.45799587  0.26516594  0.11330420  1
  H  H28  1  0.74271025  0.79333731  0.91396260  1
  H  H29  1  0.63646265  0.82794662  0.54810769  1
  H  H30  1  0.86353735  0.32794662  0.95189231  1
  H  H31  1  0.75728975  0.29333731  0.58603740  1
  H  H32  1  0.63064002  0.80567757  0.06073958  1
  H  H33  1  0.77420915  0.19378767  0.46348347  1
  H  H34  1  0.71699276  0.12324119  0.20716117  1
  H  H35  1  0.78300724  0.62324119  0.29283883  1
  H  H36  1  0.72579085  0.69378767  0.03651653  1
  H  H37  1  0.86935998  0.30567757  0.43926042  1
  H  H38  1  0.95153195  0.58687385  0.70453386  1
  H  H39  1  0.95799587  0.23483406  0.61330420  1
  N  N40  1  0.16057539  0.74284065  0.47410123  1
  N  N41  1  0.33942461  0.24284065  0.02589877  1
  N  N42  1  0.66057539  0.75715935  0.97410123  1
  N  N43  1  0.83942461  0.25715935  0.52589877  1
  O  O44  1  0.08416665  0.59316445  0.70968562  1
  O  O45  1  0.08798613  0.06578627  0.68909001  1
  O  O46  1  0.20167114  0.41946211  0.82652490  1
  O  O47  1  0.26975975  0.81646124  0.90409454  1
  O  O48  1  0.04240494  0.11752450  0.09298756  1
  O  O49  1  0.23024025  0.31646124  0.59590546  1
  O  O50  1  0.09275703  0.73639314  0.08708341  1
  O  O51  1  0.29832886  0.91946211  0.67347510  1
  O  O52  1  0.26872242  0.06474850  0.47296485  1
  O  O53  1  0.41201387  0.56578627  0.81090999  1
  O  O54  1  0.26355389  0.40612824  0.33491942  1
  O  O55  1  0.41583335  0.09316445  0.79031438  1
  O  O56  1  0.23644611  0.90612824  0.16508058  1
  O  O57  1  0.23127758  0.56474850  0.02703515  1
  O  O58  1  0.40724297  0.23639314  0.41291659  1
  O  O59  1  0.45759506  0.61752450  0.40701244  1
  O  O60  1  0.54240494  0.38247550  0.59298756  1
  O  O61  1  0.59275703  0.76360686  0.58708341  1
  O  O62  1  0.76872242  0.43525150  0.97296485  1
  O  O63  1  0.76355389  0.09387176  0.83491942  1
  O  O64  1  0.58416665  0.90683555  0.20968562  1
  O  O65  1  0.73644611  0.59387176  0.66508058  1
  O  O66  1  0.58798613  0.43421373  0.18909001  1
  O  O67  1  0.73127758  0.93525150  0.52703515  1
  O  O68  1  0.70167114  0.08053789  0.32652490  1
  O  O69  1  0.90724297  0.26360686  0.91291659  1
  O  O70  1  0.76975975  0.68353876  0.40409454  1
  O  O71  1  0.95759506  0.88247550  0.90701244  1
  O  O72  1  0.73024025  0.18353876  0.09590546  1
  O  O73  1  0.79832886  0.58053789  0.17347510  1
  O  O74  1  0.91201387  0.93421373  0.31090999  1
  O  O75  1  0.91583335  0.40683555  0.29031438  1
