# generated using pymatgen
data_LaTa3O9
_symmetry_space_group_name_H-M   'P 1'
_cell_length_a   8.84288319
_cell_length_b   5.59569866
_cell_length_c   8.91021210
_cell_angle_alpha   108.30073971
_cell_angle_beta   78.55892946
_cell_angle_gamma   71.55491948
_symmetry_Int_Tables_number   1
_chemical_formula_structural   LaTa3O9
_chemical_formula_sum   'La2 Ta6 O18'
_cell_volume   374.77055873
_cell_formula_units_Z   2
loop_
 _symmetry_equiv_pos_site_id
 _symmetry_equiv_pos_as_xyz
  1  'x, y, z'
loop_
 _atom_site_type_symbol
 _atom_site_label
 _atom_site_symmetry_multiplicity
 _atom_site_fract_x
 _atom_site_fract_y
 _atom_site_fract_z
 _atom_site_occupancy
  La  La0  1  0.33341759  0.33360607  0.00062873  1
  La  La1  1  0.66658241  0.66639393  0.99937127  1
  Ta  Ta2  1  0.08416809  0.33141024  0.74698956  1
  Ta  Ta3  1  0.23955613  0.01164269  0.26284151  1
  Ta  Ta4  1  0.41253025  0.66425702  0.74104329  1
  Ta  Ta5  1  0.58746975  0.33574298  0.25895671  1
  Ta  Ta6  1  0.76044387  0.98835731  0.73715849  1
  Ta  Ta7  1  0.91583191  0.66858976  0.25301044  1
  O  O8  1  0.09656609  0.32838781  0.23393560  1
  O  O9  1  0.16784403  0.16709233  0.50202969  1
  O  O10  1  -0.00000000  0.50000000  0.00000000  1
  O  O11  1  0.42433527  0.15111042  0.22654002  1
  O  O12  1  0.09656609  0.80898270  0.23393560  1
  O  O13  1  0.25199746  0.49761296  0.76697512  1
  O  O14  1  0.74800254  0.98263529  0.23302588  1
  O  O15  1  0.42433527  0.65109433  0.22654002  1
  O  O16  1  0.25199746  0.01736471  0.76697512  1
  O  O17  1  0.50000000  0.50000000  0.50000000  1
  O  O18  1  0.57566473  0.34890567  0.77345998  1
  O  O19  1  0.65218748  0.17378801  0.99976450  1
  O  O20  1  0.34781252  0.82621199  0.00023550  1
  O  O21  1  0.74800254  0.50238704  0.23302588  1
  O  O22  1  0.90343391  0.19101730  0.76606440  1
  O  O23  1  0.57566473  0.84888958  0.77345998  1
  O  O24  1  0.90343391  0.67161219  0.76606440  1
  O  O25  1  0.83215597  0.83290767  0.49797031  1
