# generated using pymatgen
data_ZnFe2As2(HO5)2
_symmetry_space_group_name_H-M   'P 1'
_cell_length_a   6.75200069
_cell_length_b   7.81126935
_cell_length_c   7.47832207
_cell_angle_alpha   90.00000000
_cell_angle_beta   91.37544225
_cell_angle_gamma   90.00000000
_symmetry_Int_Tables_number   1
_chemical_formula_structural   ZnFe2As2(HO5)2
_chemical_formula_sum   'Zn2 Fe4 As4 H4 O20'
_cell_volume   394.30574504
_cell_formula_units_Z   2
loop_
 _symmetry_equiv_pos_site_id
 _symmetry_equiv_pos_as_xyz
  1  'x, y, z'
loop_
 _atom_site_type_symbol
 _atom_site_label
 _atom_site_symmetry_multiplicity
 _atom_site_fract_x
 _atom_site_fract_y
 _atom_site_fract_z
 _atom_site_occupancy
  Zn  Zn0  1  0.00000000  0.00000000  0.50000000  1
  Zn  Zn1  1  0.50000000  0.50000000  0.00000000  1
  Fe  Fe2  1  0.22983000  0.36278139  0.26361971  1
  Fe  Fe3  1  0.27017000  0.86278139  0.23638029  1
  Fe  Fe4  1  0.72983000  0.13721861  0.76361971  1
  Fe  Fe5  1  0.77017000  0.63721861  0.73638029  1
  As  As6  1  0.24181833  0.62570950  0.63268792  1
  As  As7  1  0.25818167  0.12570950  0.86731208  1
  As  As8  1  0.74181833  0.87429050  0.13268792  1
  As  As9  1  0.75818167  0.37429050  0.36731208  1
  H  H10  1  0.15455442  0.61874448  0.04753707  1
  H  H11  1  0.34544558  0.11874448  0.45246293  1
  H  H12  1  0.65455442  0.88125552  0.54753707  1
  H  H13  1  0.84544558  0.38125552  0.95246293  1
  O  O14  1  0.03867986  0.11859288  0.74502612  1
  O  O15  1  0.05801853  0.63413200  0.78736157  1
  O  O16  1  0.22322929  0.44532589  0.50574384  1
  O  O17  1  0.23235912  0.80962905  0.50468497  1
  O  O18  1  0.26764088  0.30962905  0.99531503  1
  O  O19  1  0.24284996  0.11516131  0.35682228  1
  O  O20  1  0.27677071  0.94532589  0.99425616  1
  O  O21  1  0.25715004  0.61516131  0.14317772  1
  O  O22  1  0.44198147  0.13413200  0.71263843  1
  O  O23  1  0.46132014  0.61859288  0.75497388  1
  O  O24  1  0.53867986  0.38140712  0.24502612  1
  O  O25  1  0.55801853  0.86586800  0.28736157  1
  O  O26  1  0.74284996  0.38483869  0.85682228  1
  O  O27  1  0.72322929  0.05467411  0.00574384  1
  O  O28  1  0.75715004  0.88483869  0.64317772  1
  O  O29  1  0.73235912  0.69037095  0.00468497  1
  O  O30  1  0.76764088  0.19037095  0.49531503  1
  O  O31  1  0.77677071  0.55467411  0.49425616  1
  O  O32  1  0.94198147  0.36586800  0.21263843  1
  O  O33  1  0.96132014  0.88140712  0.25497388  1
