# generated using pymatgen
data_Mg2Te3O8
_symmetry_space_group_name_H-M   'P 1'
_cell_length_a   5.32081383
_cell_length_b   6.94193905
_cell_length_c   11.79229863
_cell_angle_alpha   97.77233084
_cell_angle_beta   90.00000000
_cell_angle_gamma   112.53432588
_symmetry_Int_Tables_number   1
_chemical_formula_structural   Mg2Te3O8
_chemical_formula_sum   'Mg4 Te6 O16'
_cell_volume   397.97800094
_cell_formula_units_Z   2
loop_
 _symmetry_equiv_pos_site_id
 _symmetry_equiv_pos_as_xyz
  1  'x, y, z'
loop_
 _atom_site_type_symbol
 _atom_site_label
 _atom_site_symmetry_multiplicity
 _atom_site_fract_x
 _atom_site_fract_y
 _atom_site_fract_z
 _atom_site_occupancy
  Mg  Mg0  1  0.57701191  0.53611943  0.64800091  1
  Mg  Mg1  1  0.04089248  0.46388057  0.85199909  1
  Mg  Mg2  1  0.42298809  0.46388057  0.35199909  1
  Mg  Mg3  1  0.95910752  0.53611943  0.14800091  1
  Te  Te4  1  0.15393361  -0.00000000  0.75000000  1
  Te  Te5  1  0.84606639  -0.00000000  0.25000000  1
  Te  Te6  1  0.95209836  0.27555895  0.55717086  1
  Te  Te7  1  0.67653941  0.72444105  0.94282914  1
  Te  Te8  1  0.04790164  0.72444105  0.44282914  1
  Te  Te9  1  0.32346059  0.27555895  0.05717086  1
  O  O10  1  0.25675087  0.52680400  0.52708078  1
  O  O11  1  0.72994686  0.47319600  0.97291922  1
  O  O12  1  0.74324913  0.47319600  0.47291922  1
  O  O13  1  0.27005314  0.52680400  0.02708078  1
  O  O14  1  0.24758164  0.22961108  0.63690228  1
  O  O15  1  0.01797055  0.77038892  0.86309772  1
  O  O16  1  0.75241836  0.77038892  0.36309772  1
  O  O17  1  0.98202945  0.22961108  0.13690228  1
  O  O18  1  0.01292718  0.16082173  0.85347253  1
  O  O19  1  0.85210546  0.83917827  0.64652747  1
  O  O20  1  0.98707282  0.83917827  0.14652747  1
  O  O21  1  0.14789454  0.16082173  0.35347253  1
  O  O22  1  0.84514832  0.40037362  0.69221161  1
  O  O23  1  0.44477471  0.59962638  0.80778839  1
  O  O24  1  0.15485168  0.59962638  0.30778839  1
  O  O25  1  0.55522529  0.40037362  0.19221161  1
