# generated using pymatgen
data_Li4Co3O7
_symmetry_space_group_name_H-M   'P 1'
_cell_length_a   2.94807671
_cell_length_b   9.83854194
_cell_length_c   9.73993415
_cell_angle_alpha   116.04561826
_cell_angle_beta   90.00000049
_cell_angle_gamma   98.61665679
_symmetry_Int_Tables_number   1
_chemical_formula_structural   Li4Co3O7
_chemical_formula_sum   'Li8 Co6 O14'
_cell_volume   250.26083259
_cell_formula_units_Z   2
loop_
 _symmetry_equiv_pos_site_id
 _symmetry_equiv_pos_as_xyz
  1  'x, y, z'
loop_
 _atom_site_type_symbol
 _atom_site_label
 _atom_site_symmetry_multiplicity
 _atom_site_fract_x
 _atom_site_fract_y
 _atom_site_fract_z
 _atom_site_occupancy
  Li  Li0  1  0.64080461  0.28160921  0.06588544  1
  Li  Li1  1  0.93091976  0.86184052  0.21392703  1
  Li  Li2  1  0.21193724  0.42387348  0.35750197  1
  Li  Li3  1  0.50205239  0.00410479  0.50554356  1
  Li  Li4  1  0.78156878  0.56313856  0.63751088  1
  Li  Li5  1  0.07142900  0.14285700  0.78571400  1
  Li  Li6  1  0.36128822  0.72257644  0.93391712  1
  Li  Li7  1  0.57142900  0.14285700  0.28571400  1
  Co  Co8  1  0.00296945  0.00593890  0.01171891  1
  Co  Co9  1  0.13988755  0.27977510  0.55971009  1
  Co  Co10  1  0.28428940  0.56857980  0.14112530  1
  Co  Co11  1  0.85856760  0.71713520  0.43030270  1
  Co  Co12  1  0.43112052  0.86224203  0.71790808  1
  Co  Co13  1  0.71173648  0.42347197  0.85352092  1
  O  O14  1  0.53038363  0.06076827  0.89303848  1
  O  O15  1  0.81527728  0.63055355  0.02993706  1
  O  O16  1  0.09580812  0.19161623  0.15698491  1
  O  O17  1  0.38978790  0.77957581  0.32445542  1
  O  O18  1  0.67497261  0.34994623  0.46973121  1
  O  O19  1  0.96149607  0.92299114  0.61407535  1
  O  O20  1  0.23888882  0.47777765  0.73663339  1
  O  O21  1  0.75306910  0.50613819  0.24697358  1
  O  O22  1  0.04704888  0.09409877  0.41444309  1
  O  O23  1  0.32758072  0.65516045  0.54149094  1
  O  O24  1  0.61247337  0.22494673  0.67838952  1
  O  O25  1  0.90396818  0.80793635  0.83479561  1
  O  O26  1  0.18136093  0.36272286  0.95735365  1
  O  O27  1  0.46788439  0.93576777  0.10169779  1
