# generated using pymatgen
data_K2LiVS4
_symmetry_space_group_name_H-M   'P 1'
_cell_length_a   6.83928023
_cell_length_b   6.83928023
_cell_length_c   18.22339569
_cell_angle_alpha   86.21885491
_cell_angle_beta   93.78114509
_cell_angle_gamma   102.93551855
_symmetry_Int_Tables_number   1
_chemical_formula_structural   K2LiVS4
_chemical_formula_sum   'K8 Li4 V4 S16'
_cell_volume   827.82371654
_cell_formula_units_Z   4
loop_
 _symmetry_equiv_pos_site_id
 _symmetry_equiv_pos_as_xyz
  1  'x, y, z'
loop_
 _atom_site_type_symbol
 _atom_site_label
 _atom_site_symmetry_multiplicity
 _atom_site_fract_x
 _atom_site_fract_y
 _atom_site_fract_z
 _atom_site_occupancy
  K  K0  1  0.15739628  0.89392067  0.92751039  1
  K  K1  1  0.10607933  0.84260372  0.42751039  1
  K  K2  1  0.68112015  0.68119897  0.75004989  1
  K  K3  1  0.50084350  0.46890308  0.50219553  1
  K  K4  1  0.31880103  0.31887985  0.25004989  1
  K  K5  1  0.53109692  0.49915650  0.00219553  1
  K  K6  1  0.89614330  0.15321237  0.57297072  1
  K  K7  1  0.84678763  0.10385670  0.07297072  1
  Li  Li8  1  0.11307190  0.40383645  0.78417048  1
  Li  Li9  1  0.59616355  0.88692810  0.28417048  1
  Li  Li10  1  0.40365221  0.11247178  0.71607412  1
  Li  Li11  1  0.88752822  0.59634779  0.21607412  1
  V  V12  1  0.19018825  0.69980047  0.64495474  1
  V  V13  1  0.30019953  0.80981175  0.14495474  1
  V  V14  1  0.69943596  0.19057349  0.85488889  1
  V  V15  1  0.80942651  0.30056404  0.35488789  1
  S  S16  1  0.17463224  0.78414661  0.75654910  1
  S  S17  1  0.40277636  0.93148012  0.59005954  1
  S  S18  1  0.21585339  0.82536776  0.25654910  1
  S  S19  1  0.06851988  0.59722364  0.09005954  1
  S  S20  1  0.66428518  0.90152751  0.91306607  1
  S  S21  1  0.09847249  0.33571482  0.41306607  1
  S  S22  1  0.28758675  0.41636921  0.65395739  1
  S  S23  1  0.58363079  0.71241325  0.15395739  1
  S  S24  1  0.41704982  0.28961531  0.84742858  1
  S  S25  1  0.71038469  0.58295018  0.34742858  1
  S  S26  1  0.90107201  0.66438398  0.58692388  1
  S  S27  1  0.33561602  0.09892799  0.08692388  1
  S  S28  1  0.93081045  0.40275892  0.90992434  1
  S  S29  1  0.78324928  0.17521171  0.74311734  1
  S  S30  1  0.59724108  0.06918955  0.40992434  1
  S  S31  1  0.82478829  0.21675072  0.24311734  1
