# generated using pymatgen
data_LiSO3F
_symmetry_space_group_name_H-M   'P 1'
_cell_length_a   5.30769569
_cell_length_b   5.77250687
_cell_length_c   5.77250687
_cell_angle_alpha   96.48849177
_cell_angle_beta   88.77908358
_cell_angle_gamma   91.22091646
_symmetry_Int_Tables_number   1
_chemical_formula_structural   LiSO3F
_chemical_formula_sum   'Li2 S2 O6 F2'
_cell_volume   175.65758923
_cell_formula_units_Z   2
loop_
 _symmetry_equiv_pos_site_id
 _symmetry_equiv_pos_as_xyz
  1  'x, y, z'
loop_
 _atom_site_type_symbol
 _atom_site_label
 _atom_site_symmetry_multiplicity
 _atom_site_fract_x
 _atom_site_fract_y
 _atom_site_fract_z
 _atom_site_occupancy
  Li  Li0  1  0.00000000  0.80711628  0.80711628  1
  Li  Li1  1  0.00000000  0.19288372  0.19288372  1
  O  O2  1  0.21068388  0.21431958  0.46556447  1
  O  O3  1  0.78931612  0.46556447  0.21431958  1
  O  O4  1  0.15837266  0.13062387  0.86937613  1
  O  O5  1  0.84162734  0.86937613  0.13062387  1
  O  O6  1  0.21068388  0.53443553  0.78568042  1
  O  O7  1  0.78931612  0.78568042  0.53443553  1
  F  F8  1  0.44576685  0.72845400  0.27154600  1
  F  F9  1  0.55423315  0.27154600  0.72845400  1
  S  S10  1  0.74442782  0.70806249  0.29193751  1
  S  S11  1  0.25557218  0.29193751  0.70806249  1
