# generated using pymatgen
data_Li4Co3O7
_symmetry_space_group_name_H-M   'P 1'
_cell_length_a   2.94066966
_cell_length_b   10.71209111
_cell_length_c   8.15329967
_cell_angle_alpha   78.27040802
_cell_angle_beta   90.00000007
_cell_angle_gamma   82.11071542
_symmetry_Int_Tables_number   1
_chemical_formula_structural   Li4Co3O7
_chemical_formula_sum   'Li8 Co6 O14'
_cell_volume   248.98832254
_cell_formula_units_Z   2
loop_
 _symmetry_equiv_pos_site_id
 _symmetry_equiv_pos_as_xyz
  1  'x, y, z'
loop_
 _atom_site_type_symbol
 _atom_site_label
 _atom_site_symmetry_multiplicity
 _atom_site_fract_x
 _atom_site_fract_y
 _atom_site_fract_z
 _atom_site_occupancy
  Li  Li0  1  0.42857100  0.14285700  0.21428600  1
  Li  Li1  1  0.28630911  0.42738078  0.63929220  1
  Li  Li2  1  0.14249045  0.71501909  0.06758249  1
  Li  Li3  1  0.99783261  0.00433479  0.51121984  1
  Li  Li4  1  0.85931039  0.28137921  0.91735116  1
  Li  Li5  1  0.71465255  0.57069591  0.36098951  1
  Li  Li6  1  0.57083389  0.85833322  0.78927880  1
  Li  Li7  1  0.42857100  0.14285700  0.71428600  1
  Co  Co8  1  0.99819894  0.00360213  0.98745224  1
  Co  Co9  1  0.85894406  0.28211187  0.44111876  1
  Co  Co10  1  0.71732319  0.56535463  0.85300627  1
  Co  Co11  1  0.57116079  0.85767942  0.28635112  1
  Co  Co12  1  0.28598221  0.42803458  0.14221988  1
  Co  Co13  1  0.13981981  0.72036037  0.57556573  1
  O  O14  1  0.43455853  0.13088295  0.96840293  1
  O  O15  1  0.29060263  0.41879475  0.39080612  1
  O  O16  1  0.14641002  0.70718096  0.81458632  1
  O  O17  1  0.00328462  0.99343177  0.22893968  1
  O  O18  1  0.85672584  0.28654732  0.65289199  1
  O  O19  1  0.71776180  0.56447539  0.09671627  1
  O  O20  1  0.57152081  0.85695838  0.53398845  1
  O  O21  1  0.42258447  0.15483105  0.46016807  1
  O  O22  1  0.28562219  0.42875662  0.89458355  1
  O  O23  1  0.13938120  0.72123861  0.33185473  1
  O  O24  1  0.00041616  0.99916668  0.77568001  1
  O  O25  1  0.85385838  0.29228223  0.19963132  1
  O  O26  1  0.71073298  0.57853404  0.61398568  1
  O  O27  1  0.56654037  0.86691925  0.03776488  1
