# generated using pymatgen
data_Co2(SO4)3
_symmetry_space_group_name_H-M   'P 1'
_cell_length_a   8.57653947
_cell_length_b   8.57653947
_cell_length_c   8.57653962
_cell_angle_alpha   60.15935855
_cell_angle_beta   60.15935855
_cell_angle_gamma   60.15935580
_symmetry_Int_Tables_number   1
_chemical_formula_structural   Co2(SO4)3
_chemical_formula_sum   'Co4 S6 O24'
_cell_volume   447.69886953
_cell_formula_units_Z   2
loop_
 _symmetry_equiv_pos_site_id
 _symmetry_equiv_pos_as_xyz
  1  'x, y, z'
loop_
 _atom_site_type_symbol
 _atom_site_label
 _atom_site_symmetry_multiplicity
 _atom_site_fract_x
 _atom_site_fract_y
 _atom_site_fract_z
 _atom_site_occupancy
  Co  Co0  1  0.36015472  0.36015472  0.36015472  1
  Co  Co1  1  0.13984528  0.13984528  0.13984528  1
  Co  Co2  1  0.63984528  0.63984528  0.63984528  1
  Co  Co3  1  0.86015472  0.86015472  0.86015472  1
  S  S4  1  0.04076385  0.75000000  0.45923615  1
  S  S5  1  0.54076385  0.95923615  0.25000000  1
  S  S6  1  0.25000000  0.54076385  0.95923615  1
  S  S7  1  0.75000000  0.45923615  0.04076385  1
  S  S8  1  0.45923615  0.04076385  0.75000000  1
  S  S9  1  0.95923615  0.25000000  0.54076385  1
  O  O10  1  0.05832785  0.91089704  0.27648118  1
  O  O11  1  0.08910296  0.72351882  0.94167215  1
  O  O12  1  0.49414679  0.88499923  0.69548237  1
  O  O13  1  0.61500077  0.00585321  0.80451763  1
  O  O14  1  0.22351882  0.58910296  0.44167215  1
  O  O15  1  0.55832785  0.77648118  0.41089704  1
  O  O16  1  0.72351882  0.94167215  0.08910296  1
  O  O17  1  0.99414679  0.19548237  0.38499923  1
  O  O18  1  0.30451763  0.50585321  0.11500077  1
  O  O19  1  0.11500077  0.30451763  0.50585321  1
  O  O20  1  0.19548237  0.38499923  0.99414679  1
  O  O21  1  0.41089704  0.55832785  0.77648118  1
  O  O22  1  0.58910296  0.44167215  0.22351882  1
  O  O23  1  0.88499923  0.69548237  0.49414679  1
  O  O24  1  0.80451763  0.61500077  0.00585321  1
  O  O25  1  0.00585321  0.80451763  0.61500077  1
  O  O26  1  0.69548237  0.49414679  0.88499923  1
  O  O27  1  0.27648118  0.05832785  0.91089704  1
  O  O28  1  0.44167215  0.22351882  0.58910296  1
  O  O29  1  0.77648118  0.41089704  0.55832785  1
  O  O30  1  0.50585321  0.11500077  0.30451763  1
  O  O31  1  0.38499923  0.99414679  0.19548237  1
  O  O32  1  0.91089704  0.27648118  0.05832785  1
  O  O33  1  0.94167215  0.08910296  0.72351882  1
