# generated using pymatgen
data_Mg(NiO2)2
_symmetry_space_group_name_H-M   'P 1'
_cell_length_a   5.67862133
_cell_length_b   5.67862198
_cell_length_c   6.00168873
_cell_angle_alpha   118.23475659
_cell_angle_beta   118.23475964
_cell_angle_gamma   89.99999549
_symmetry_Int_Tables_number   1
_chemical_formula_structural   Mg(NiO2)2
_chemical_formula_sum   'Mg2 Ni4 O8'
_cell_volume   143.83962664
_cell_formula_units_Z   2
loop_
 _symmetry_equiv_pos_site_id
 _symmetry_equiv_pos_as_xyz
  1  'x, y, z'
loop_
 _atom_site_type_symbol
 _atom_site_label
 _atom_site_symmetry_multiplicity
 _atom_site_fract_x
 _atom_site_fract_y
 _atom_site_fract_z
 _atom_site_occupancy
  Mg  Mg0  1  0.37500000  0.62500000  0.75000000  1
  Mg  Mg1  1  0.62500000  0.37500000  0.25000000  1
  Ni  Ni2  1  0.00000000  0.00000000  0.50000000  1
  Ni  Ni3  1  0.00000000  0.50000000  0.00000000  1
  Ni  Ni4  1  0.50000000  0.00000000  0.50000000  1
  Ni  Ni5  1  0.00000000  0.00000000  0.00000000  1
  O  O6  1  0.76074881  0.78643815  0.52149761  1
  O  O7  1  0.76494154  0.23925119  0.97850239  1
  O  O8  1  0.21356185  0.23925119  0.97850239  1
  O  O9  1  0.23925119  0.21356185  0.47850239  1
  O  O10  1  0.23925119  0.76494154  0.47850239  1
  O  O11  1  0.23505846  0.76074881  0.02149761  1
  O  O12  1  0.76074881  0.23505846  0.52149761  1
  O  O13  1  0.78643815  0.76074881  0.02149761  1
