# generated using pymatgen
data_CdP4O11
_symmetry_space_group_name_H-M   'P 1'
_cell_length_a   9.55315057
_cell_length_b   9.57595047
_cell_length_c   11.04132974
_cell_angle_alpha   71.14970279
_cell_angle_beta   108.76675156
_cell_angle_gamma   89.88743341
_symmetry_Int_Tables_number   1
_chemical_formula_structural   CdP4O11
_chemical_formula_sum   'Cd4 P16 O44'
_cell_volume   898.72913931
_cell_formula_units_Z   4
loop_
 _symmetry_equiv_pos_site_id
 _symmetry_equiv_pos_as_xyz
  1  'x, y, z'
loop_
 _atom_site_type_symbol
 _atom_site_label
 _atom_site_symmetry_multiplicity
 _atom_site_fract_x
 _atom_site_fract_y
 _atom_site_fract_z
 _atom_site_occupancy
  Cd  Cd0  1  0.26089724  0.74140981  0.02064217  1
  Cd  Cd1  1  0.77352958  0.76423489  0.51229614  1
  Cd  Cd2  1  0.22647042  0.23576511  0.48770386  1
  Cd  Cd3  1  0.73910276  0.25859019  0.97935783  1
  P  P4  1  0.10827103  0.58661732  0.77058231  1
  P  P5  1  0.23132518  0.91525481  0.39326448  1
  P  P6  1  0.57320438  0.74354344  0.92119551  1
  P  P7  1  0.10249721  0.26791314  0.91177416  1
  P  P8  1  0.25589254  0.58617901  0.56166239  1
  P  P9  1  0.44094794  0.93379240  0.23730465  1
  P  P10  1  0.57926125  0.59078359  0.72256081  1
  P  P11  1  0.08416528  0.06342694  0.74724880  1
  P  P12  1  0.91583472  0.93657306  0.25275120  1
  P  P13  1  0.42073875  0.40921641  0.27743919  1
  P  P14  1  0.55905206  0.06620760  0.76269535  1
  P  P15  1  0.74410746  0.41382099  0.43833761  1
  P  P16  1  0.89750279  0.73208686  0.08822584  1
  P  P17  1  0.42679562  0.25645656  0.07880449  1
  P  P18  1  0.76867482  0.08474519  0.60673552  1
  P  P19  1  0.89172897  0.41338268  0.22941769  1
  O  O20  1  0.17324493  0.91525488  0.80539378  1
  O  O21  1  0.22349921  0.98180753  0.49520894  1
  O  O22  1  0.08999776  0.95677189  0.25844056  1
  O  O23  1  0.22256732  0.58579404  0.89967830  1
  O  O24  1  0.50606626  0.90109794  0.80988195  1
  O  O25  1  0.17908200  0.63759795  0.64834377  1
  O  O26  1  0.09745686  0.40953588  0.78643423  1
  O  O27  1  0.36445329  0.96291608  0.34209048  1
  O  O28  1  0.25814371  0.73744864  0.44613630  1
  O  O29  1  0.02548991  0.74077135  0.04119794  1
  O  O30  1  0.53379012  0.63283276  0.83978603  1
  O  O31  1  0.74997540  0.74196108  0.96247983  1
  O  O32  1  0.32195398  0.91392688  0.12018364  1
  O  O33  1  0.18679654  0.47506402  0.50211232  1
  O  O34  1  0.13828798  0.13610514  0.86764911  1
  O  O35  1  0.42342215  0.53117263  0.65342893  1
  O  O36  1  0.60103398  0.72972262  0.62241993  1
  O  O37  1  0.07484376  0.17576767  0.61393147  1
  O  O38  1  0.48295184  0.29175423  0.96353515  1
  O  O39  1  0.04262099  0.32957109  0.28340019  1
  O  O40  1  0.57715229  0.82565649  0.31597425  1
  O  O41  1  0.30705841  0.54146354  0.21194658  1
  O  O42  1  0.69294159  0.45853646  0.78805342  1
  O  O43  1  0.42284771  0.17434351  0.68402575  1
  O  O44  1  0.95737901  0.67042891  0.71659981  1
  O  O45  1  0.51704816  0.70824577  0.03646485  1
  O  O46  1  0.92515624  0.82423233  0.38606853  1
  O  O47  1  0.39896602  0.27027738  0.37758007  1
  O  O48  1  0.57657785  0.46882737  0.34657107  1
  O  O49  1  0.86171202  0.86389486  0.13235089  1
  O  O50  1  0.81320346  0.52493598  0.49788768  1
  O  O51  1  0.67804602  0.08607312  0.87981636  1
  O  O52  1  0.25002460  0.25803892  0.03752017  1
  O  O53  1  0.46620988  0.36716724  0.16021397  1
  O  O54  1  0.97451009  0.25922865  0.95880206  1
  O  O55  1  0.74185629  0.26255136  0.55386370  1
  O  O56  1  0.63554671  0.03708392  0.65790952  1
  O  O57  1  0.90254314  0.59046412  0.21356577  1
  O  O58  1  0.82091800  0.36240205  0.35165623  1
  O  O59  1  0.49393374  0.09890206  0.19011805  1
  O  O60  1  0.77743268  0.41420596  0.10032170  1
  O  O61  1  0.91000224  0.04322811  0.74155944  1
  O  O62  1  0.77650079  0.01819247  0.50479106  1
  O  O63  1  0.82675507  0.08474512  0.19460622  1
