# generated using pymatgen
data_Mg2Mn3O8
_symmetry_space_group_name_H-M   'P 1'
_cell_length_a   5.87326740
_cell_length_b   4.98360608
_cell_length_c   9.49624009
_cell_angle_alpha   90.00037621
_cell_angle_beta   90.00011753
_cell_angle_gamma   89.99999720
_symmetry_Int_Tables_number   1
_chemical_formula_structural   Mg2Mn3O8
_chemical_formula_sum   'Mg4 Mn6 O16'
_cell_volume   277.95543292
_cell_formula_units_Z   2
loop_
 _symmetry_equiv_pos_site_id
 _symmetry_equiv_pos_as_xyz
  1  'x, y, z'
loop_
 _atom_site_type_symbol
 _atom_site_label
 _atom_site_symmetry_multiplicity
 _atom_site_fract_x
 _atom_site_fract_y
 _atom_site_fract_z
 _atom_site_occupancy
  Mg  Mg0  1  0.99999773  0.32363546  0.21879781  1
  Mg  Mg1  1  -0.00000084  0.33694401  0.81844669  1
  Mg  Mg2  1  0.49999813  0.66306156  0.31844547  1
  Mg  Mg3  1  0.50000076  0.67636204  0.71879886  1
  Mn  Mn4  1  0.00000782  0.67208462  0.49720462  1
  Mn  Mn5  1  0.24117030  0.83601784  0.00048102  1
  Mn  Mn6  1  0.25882728  0.16397270  0.50049040  1
  Mn  Mn7  1  0.49999869  0.32791493  0.99721134  1
  Mn  Mn8  1  0.74117987  0.16397654  0.50048762  1
  Mn  Mn9  1  0.75883208  0.83602915  0.00048549  1
  O  O10  1  0.99999817  0.68867752  0.10745510  1
  O  O11  1  0.00000038  0.33959201  0.60653006  1
  O  O12  1  0.00000070  0.00494482  0.39164694  1
  O  O13  1  0.00000023  0.96203023  0.88719942  1
  O  O14  1  0.22006896  0.48000078  0.37994819  1
  O  O15  1  0.23693824  0.84027753  0.60302238  1
  O  O16  1  0.26305844  0.15971869  0.10302474  1
  O  O17  1  0.27993000  0.51999776  0.87994836  1
  O  O18  1  0.49999961  0.66040945  0.10653367  1
  O  O19  1  0.49999820  0.99505774  0.89164613  1
  O  O20  1  0.50000041  0.31132370  0.60745436  1
  O  O21  1  0.50000084  0.03796904  0.38720202  1
  O  O22  1  0.72006486  0.51999894  0.87994776  1
  O  O23  1  0.73693713  0.15972141  0.10302454  1
  O  O24  1  0.76306133  0.84027926  0.60302079  1
  O  O25  1  0.77993068  0.48000228  0.37994823  1
