# generated using pymatgen
data_KLaSiS4
_symmetry_space_group_name_H-M   'P 1'
_cell_length_a   6.64313459
_cell_length_b   6.73294330
_cell_length_c   8.79158658
_cell_angle_alpha   90.00000000
_cell_angle_beta   107.31316327
_cell_angle_gamma   90.00000000
_symmetry_Int_Tables_number   1
_chemical_formula_structural   KLaSiS4
_chemical_formula_sum   'K2 La2 Si2 S8'
_cell_volume   375.41252341
_cell_formula_units_Z   2
loop_
 _symmetry_equiv_pos_site_id
 _symmetry_equiv_pos_as_xyz
  1  'x, y, z'
loop_
 _atom_site_type_symbol
 _atom_site_label
 _atom_site_symmetry_multiplicity
 _atom_site_fract_x
 _atom_site_fract_y
 _atom_site_fract_z
 _atom_site_occupancy
  K  K0  1  0.27142815  0.02474484  0.06606313  1
  K  K1  1  0.72857085  0.52474584  0.93393587  1
  La  La2  1  0.76727406  0.50890858  0.44731837  1
  La  La3  1  0.23272594  0.00890758  0.55268263  1
  Si  Si4  1  0.21416032  0.53780756  0.31605113  1
  Si  Si5  1  0.78583868  0.03780856  0.68394787  1
  S  S6  1  0.40648130  0.53881986  0.16433325  1
  S  S7  1  0.98860370  0.77227228  0.27032071  1
  S  S8  1  0.02437503  0.27653765  0.28462060  1
  S  S9  1  0.60187161  0.07390924  0.44038492  1
  S  S10  1  0.39812739  0.57390824  0.55961408  1
  S  S11  1  0.97562597  0.77653765  0.71538040  1
  S  S12  1  0.01139530  0.27227128  0.72967929  1
  S  S13  1  0.59351870  0.03881986  0.83566575  1
