# generated using pymatgen
data_Al2H16S3O20
_symmetry_space_group_name_H-M   'P 1'
_cell_length_a   7.40073682
_cell_length_b   22.16769941
_cell_length_c   9.66053045
_cell_angle_alpha   90.00000000
_cell_angle_beta   91.45360586
_cell_angle_gamma   90.00000000
_symmetry_Int_Tables_number   1
_chemical_formula_structural   Al2H16S3O20
_chemical_formula_sum   'Al8 H64 S12 O80'
_cell_volume   1584.37060667
_cell_formula_units_Z   4
loop_
 _symmetry_equiv_pos_site_id
 _symmetry_equiv_pos_as_xyz
  1  'x, y, z'
loop_
 _atom_site_type_symbol
 _atom_site_label
 _atom_site_symmetry_multiplicity
 _atom_site_fract_x
 _atom_site_fract_y
 _atom_site_fract_z
 _atom_site_occupancy
  Al  Al0  1  0.19408453  0.14849574  0.95170487  1
  Al  Al1  1  0.19408453  0.35150426  0.45170487  1
  Al  Al2  1  0.22502303  0.60334568  0.99781276  1
  Al  Al3  1  0.22502303  0.89665432  0.49781276  1
  Al  Al4  1  0.77497697  0.10334568  0.50218724  1
  Al  Al5  1  0.77497697  0.39665432  0.00218724  1
  Al  Al6  1  0.80591547  0.64849574  0.54829513  1
  Al  Al7  1  0.80591547  0.85150426  0.04829513  1
  H  H8  1  0.01529171  0.73863580  0.60793835  1
  H  H9  1  0.99818115  0.95584391  0.64606990  1
  H  H10  1  0.01529171  0.76136420  0.10793835  1
  H  H11  1  0.99818115  0.54415609  0.14606990  1
  H  H12  1  0.08948705  0.57871334  0.54033910  1
  H  H13  1  0.12168345  0.86029295  0.95169031  1
  H  H14  1  0.08948705  0.92128666  0.04033910  1
  H  H15  1  0.12168345  0.63970705  0.45169031  1
  H  H16  1  0.14965319  0.26168755  0.99688268  1
  H  H17  1  0.14965319  0.23831245  0.49688268  1
  H  H18  1  0.15598779  0.00274777  0.59950721  1
  H  H19  1  0.15598779  0.49725223  0.09950721  1
  H  H20  1  0.22883630  0.38582994  0.69950920  1
  H  H21  1  0.26274576  0.03346832  0.99041557  1
  H  H22  1  0.22883630  0.11417006  0.19950920  1
  H  H23  1  0.26274576  0.46653168  0.49041557  1
  H  H24  1  0.27891932  0.69344237  0.83018151  1
  H  H25  1  0.27891932  0.80655763  0.33018151  1
  H  H26  1  0.35062323  0.32446699  0.69521405  1
  H  H27  1  0.35062323  0.17553301  0.19521405  1
  H  H28  1  0.37660749  0.05515140  0.85847390  1
  H  H29  1  0.37660749  0.44484860  0.35847390  1
  H  H30  1  0.44436384  0.22241605  0.86168244  1
  H  H31  1  0.47216722  0.67471237  0.90743581  1
  H  H32  1  0.44436384  0.27758395  0.36168244  1
  H  H33  1  0.47216722  0.82528763  0.40743581  1
  H  H34  1  0.43923050  0.06952463  0.51793680  1
  H  H35  1  0.47597265  0.95617376  0.62564469  1
  H  H36  1  0.43923050  0.43047537  0.01793680  1
  H  H37  1  0.47597265  0.54382624  0.12564469  1
  H  H38  1  0.52786521  0.17960768  0.98135414  1
  H  H39  1  0.47213479  0.67960768  0.51864586  1
  H  H40  1  0.52786521  0.32039232  0.48135414  1
  H  H41  1  0.47213479  0.82039232  0.01864586  1
  H  H42  1  0.52402735  0.45617376  0.87435531  1
  H  H43  1  0.56076950  0.56952463  0.98206320  1
  H  H44  1  0.52402735  0.04382624  0.37435531  1
  H  H45  1  0.56076950  0.93047537  0.48206320  1
  H  H46  1  0.52783278  0.17471237  0.59256419  1
  H  H47  1  0.55563616  0.72241605  0.63831756  1
  H  H48  1  0.52783278  0.32528763  0.09256419  1
  H  H49  1  0.55563616  0.77758395  0.13831756  1
  H  H50  1  0.62339251  0.55515140  0.64152610  1
  H  H51  1  0.62339251  0.94484860  0.14152610  1
  H  H52  1  0.64937677  0.82446699  0.80478595  1
  H  H53  1  0.64937677  0.67553301  0.30478595  1
  H  H54  1  0.72108068  0.19344237  0.66981849  1
  H  H55  1  0.72108068  0.30655763  0.16981849  1
  H  H56  1  0.73725424  0.53346832  0.50958443  1
  H  H57  1  0.77116370  0.88582994  0.80049080  1
  H  H58  1  0.73725424  0.96653168  0.00958443  1
  H  H59  1  0.77116370  0.61417006  0.30049080  1
  H  H60  1  0.84401221  0.50274777  0.90049279  1
  H  H61  1  0.84401221  0.99725223  0.40049279  1
  H  H62  1  0.85034681  0.76168755  0.50311732  1
  H  H63  1  0.85034681  0.73831245  0.00311732  1
  H  H64  1  0.87831655  0.36029295  0.54830969  1
  H  H65  1  0.91051295  0.07871334  0.95966090  1
  H  H66  1  0.87831655  0.13970705  0.04830969  1
  H  H67  1  0.91051295  0.42128666  0.45966090  1
  H  H68  1  0.00181885  0.45584391  0.85393010  1
  H  H69  1  0.98470829  0.23863580  0.89206165  1
  H  H70  1  0.00181885  0.04415609  0.35393010  1
  H  H71  1  0.98470829  0.26136420  0.39206165  1
  S  S72  1  0.16822941  0.13570190  0.61981864  1
  S  S73  1  0.16822941  0.36429810  0.11981864  1
  S  S74  1  0.26876832  0.51051630  0.73784113  1
  S  S75  1  0.26876832  0.98948370  0.23784113  1
  S  S76  1  0.30699593  0.80223601  0.75194968  1
  S  S77  1  0.30699593  0.69776399  0.25194968  1
  S  S78  1  0.69300407  0.30223601  0.74805032  1
  S  S79  1  0.69300407  0.19776399  0.24805032  1
  S  S80  1  0.73123168  0.01051630  0.76215887  1
  S  S81  1  0.73123168  0.48948370  0.26215887  1
  S  S82  1  0.83177059  0.63570190  0.88018136  1
  S  S83  1  0.83177059  0.86429810  0.38018136  1
  O  O84  1  0.00027809  0.64076677  0.96782032  1
  O  O85  1  0.00027809  0.85923323  0.46782032  1
  O  O86  1  0.02677647  0.88627576  0.99394612  1
  O  O87  1  0.02677647  0.61372424  0.49394612  1
  O  O88  1  0.08360940  0.22622734  0.95827976  1
  O  O89  1  0.08360940  0.27377266  0.45827976  1
  O  O90  1  0.11545968  0.14682820  0.76497820  1
  O  O91  1  0.11819812  0.95990983  0.59927825  1
  O  O92  1  0.11545968  0.35317180  0.26497820  1
  O  O93  1  0.11819812  0.54009017  0.09927825  1
  O  O94  1  0.19333167  0.55995376  0.82460719  1
  O  O95  1  0.19388495  0.74773850  0.72504127  1
  O  O96  1  0.19528448  0.45162362  0.78681993  1
  O  O97  1  0.19333167  0.94004624  0.32460719  1
  O  O98  1  0.19388495  0.75226150  0.22504127  1
  O  O99  1  0.20744939  0.52146605  0.59194534  1
  O  O100  1  0.19528448  0.04837638  0.28681993  1
  O  O101  1  0.20744939  0.97853395  0.09194534  1
  O  O102  1  0.23583553  0.85354471  0.66810990  1
  O  O103  1  0.25084161  0.07509480  0.60715814  1
  O  O104  1  0.23583553  0.64645529  0.16810990  1
  O  O105  1  0.25361167  0.34866599  0.64474264  1
  O  O106  1  0.25084161  0.42490520  0.10715814  1
  O  O107  1  0.25361167  0.15133401  0.14474264  1
  O  O108  1  0.29830291  0.06945527  0.93333652  1
  O  O109  1  0.30025590  0.82067987  0.90015902  1
  O  O110  1  0.29255026  0.18318713  0.57251749  1
  O  O111  1  0.29830291  0.43054473  0.43333652  1
  O  O112  1  0.30025590  0.67932013  0.40015902  1
  O  O113  1  0.29255026  0.31681287  0.07251749  1
  O  O114  1  0.34062861  0.66597211  0.89943772  1
  O  O115  1  0.34062861  0.83402789  0.39943772  1
  O  O116  1  0.42569646  0.18329183  0.91166007  1
  O  O117  1  0.42569646  0.31670817  0.41166007  1
  O  O118  1  0.45029703  0.93239833  0.53940745  1
  O  O119  1  0.46894774  0.50856136  0.74825774  1
  O  O120  1  0.45029703  0.56760167  0.03940745  1
  O  O121  1  0.46894774  0.99143864  0.24825774  1
  O  O122  1  0.49837684  0.78816968  0.71749959  1
  O  O123  1  0.50162316  0.28816968  0.78250041  1
  O  O124  1  0.49837684  0.71183032  0.21749959  1
  O  O125  1  0.50162316  0.21183032  0.28250041  1
  O  O126  1  0.53105226  0.00856136  0.75174226  1
  O  O127  1  0.54970297  0.43239833  0.96059255  1
  O  O128  1  0.53105226  0.49143864  0.25174226  1
  O  O129  1  0.54970297  0.06760167  0.46059255  1
  O  O130  1  0.57430354  0.68329183  0.58833993  1
  O  O131  1  0.57430354  0.81670817  0.08833993  1
  O  O132  1  0.65937139  0.16597211  0.60056228  1
  O  O133  1  0.65937139  0.33402789  0.10056228  1
  O  O134  1  0.70744974  0.68318713  0.92748251  1
  O  O135  1  0.69974410  0.32067987  0.59984098  1
  O  O136  1  0.70169709  0.56945527  0.56666348  1
  O  O137  1  0.70744974  0.81681287  0.42748251  1
  O  O138  1  0.69974410  0.17932013  0.09984098  1
  O  O139  1  0.70169709  0.93054473  0.06666348  1
  O  O140  1  0.74638833  0.84866599  0.85525736  1
  O  O141  1  0.74915839  0.57509480  0.89284186  1
  O  O142  1  0.74638833  0.65133401  0.35525736  1
  O  O143  1  0.76416447  0.35354471  0.83189010  1
  O  O144  1  0.74915839  0.92490520  0.39284186  1
  O  O145  1  0.76416447  0.14645529  0.33189010  1
  O  O146  1  0.79255061  0.02146605  0.90805466  1
  O  O147  1  0.80471552  0.95162362  0.71318007  1
  O  O148  1  0.79255061  0.47853395  0.40805466  1
  O  O149  1  0.80611505  0.24773850  0.77495873  1
  O  O150  1  0.80666833  0.05995376  0.67539281  1
  O  O151  1  0.80471552  0.54837638  0.21318007  1
  O  O152  1  0.80611505  0.25226150  0.27495873  1
  O  O153  1  0.80666833  0.44004624  0.17539281  1
  O  O154  1  0.88180188  0.45990983  0.90072175  1
  O  O155  1  0.88454032  0.64682820  0.73502180  1
  O  O156  1  0.88180188  0.04009017  0.40072175  1
  O  O157  1  0.88454032  0.85317180  0.23502180  1
  O  O158  1  0.91639060  0.72622734  0.54172024  1
  O  O159  1  0.91639060  0.77377266  0.04172024  1
  O  O160  1  0.97322353  0.38627576  0.50605388  1
  O  O161  1  0.97322353  0.11372424  0.00605388  1
  O  O162  1  0.99972191  0.14076677  0.53217968  1
  O  O163  1  0.99972191  0.35923323  0.03217968  1
