# generated using pymatgen
data_PuCo2
_symmetry_space_group_name_H-M   'P 1'
_cell_length_a   5.00886391
_cell_length_b   5.00886390
_cell_length_c   5.00886391
_cell_angle_alpha   60.00000001
_cell_angle_beta   60.00000005
_cell_angle_gamma   60.00000003
_symmetry_Int_Tables_number   1
_chemical_formula_structural   PuCo2
_chemical_formula_sum   'Pu2 Co4'
_cell_volume   88.85926115
_cell_formula_units_Z   2
loop_
 _symmetry_equiv_pos_site_id
 _symmetry_equiv_pos_as_xyz
  1  'x, y, z'
loop_
 _atom_site_type_symbol
 _atom_site_label
 _atom_site_symmetry_multiplicity
 _atom_site_fract_x
 _atom_site_fract_y
 _atom_site_fract_z
 _atom_site_occupancy
  Co  Co0  1  0.50000000  0.50000000  0.50000000  1
  Co  Co1  1  0.50000000  0.50000000  0.00000000  1
  Co  Co2  1  0.00000000  0.50000000  0.50000000  1
  Co  Co3  1  0.50000000  0.00000000  0.50000000  1
  Pu  Pu4  1  0.87500000  0.87500000  0.87500000  1
  Pu  Pu5  1  0.12500000  0.12500000  0.12500000  1
