# generated using pymatgen
data_Pm2CdIn
_symmetry_space_group_name_H-M   'P 1'
_cell_length_a   5.45063535
_cell_length_b   5.45064132
_cell_length_c   5.45063682
_cell_angle_alpha   59.99993237
_cell_angle_beta   60.00006128
_cell_angle_gamma   59.99992310
_symmetry_Int_Tables_number   1
_chemical_formula_structural   Pm2CdIn
_chemical_formula_sum   'Pm2 Cd1 In1'
_cell_volume   114.50559502
_cell_formula_units_Z   1
loop_
 _symmetry_equiv_pos_site_id
 _symmetry_equiv_pos_as_xyz
  1  'x, y, z'
loop_
 _atom_site_type_symbol
 _atom_site_label
 _atom_site_symmetry_multiplicity
 _atom_site_fract_x
 _atom_site_fract_y
 _atom_site_fract_z
 _atom_site_occupancy
  Pm  Pm0  1  0.49999990  0.50000020  0.50000010  1
  Pm  Pm1  1  0.00000040  0.00000009  0.00000019  1
  Cd  Cd2  1  0.25000014  0.25000003  0.25000018  1
  In  In3  1  0.74999956  0.74999968  0.74999953  1
