# generated using pymatgen
data_Li5Mn2CoO8
_symmetry_space_group_name_H-M   'P 1'
_cell_length_a   2.87283627
_cell_length_b   9.82181756
_cell_length_c   5.13306938
_cell_angle_alpha   85.44870903
_cell_angle_beta   90.00000043
_cell_angle_gamma   81.59045975
_symmetry_Int_Tables_number   1
_chemical_formula_structural   Li5Mn2CoO8
_chemical_formula_sum   'Li5 Mn2 Co1 O8'
_cell_volume   142.81813257
_cell_formula_units_Z   1
loop_
 _symmetry_equiv_pos_site_id
 _symmetry_equiv_pos_as_xyz
  1  'x, y, z'
loop_
 _atom_site_type_symbol
 _atom_site_label
 _atom_site_symmetry_multiplicity
 _atom_site_fract_x
 _atom_site_fract_y
 _atom_site_fract_z
 _atom_site_occupancy
  Li  Li0  1  0.38051042  0.23897916  0.12333997  1
  Li  Li1  1  0.11448006  0.77103988  0.38949096  1
  Li  Li2  1  0.88834628  0.22330744  0.60416189  1
  Li  Li3  1  0.61812012  0.76375977  0.87655669  1
  Li  Li4  1  0.50081727  0.99836545  0.49945668  1
  Mn  Mn5  1  0.99984174  0.00031651  0.99827287  1
  Mn  Mn6  1  0.74987362  0.50025275  0.25310084  1
  Co  Co7  1  0.24952348  0.50095303  0.75111726  1
  O  O8  1  0.44396643  0.11206714  0.82812400  1
  O  O9  1  0.19367344  0.61265311  0.09908246  1
  O  O10  1  0.94170806  0.11658389  0.28257309  1
  O  O11  1  0.69638671  0.60722658  0.55706496  1
  O  O12  1  0.30678281  0.38643439  0.40918916  1
  O  O13  1  0.05930937  0.88138126  0.71549932  1
  O  O14  1  0.80162743  0.39674515  0.94560994  1
  O  O15  1  0.55503276  0.88993449  0.16735992  1
