# generated using pymatgen
data_LiSc2Pt
_symmetry_space_group_name_H-M   'P 1'
_cell_length_a   4.67706036
_cell_length_b   4.67707860
_cell_length_c   4.67706163
_cell_angle_alpha   60.00010152
_cell_angle_beta   60.00017859
_cell_angle_gamma   59.99995894
_symmetry_Int_Tables_number   1
_chemical_formula_structural   LiSc2Pt
_chemical_formula_sum   'Li1 Sc2 Pt1'
_cell_volume   72.34466722
_cell_formula_units_Z   1
loop_
 _symmetry_equiv_pos_site_id
 _symmetry_equiv_pos_as_xyz
  1  'x, y, z'
loop_
 _atom_site_type_symbol
 _atom_site_label
 _atom_site_symmetry_multiplicity
 _atom_site_fract_x
 _atom_site_fract_y
 _atom_site_fract_z
 _atom_site_occupancy
  Li  Li0  1  0.24999925  0.25000104  0.24999964  1
  Sc  Sc1  1  0.00000014  0.99999838  0.00000050  1
  Sc  Sc2  1  0.50000185  0.49999911  0.50000005  1
  Pt  Pt3  1  0.74999777  0.75000048  0.74999881  1
