# generated using pymatgen
data_Li4MnCo2O7
_symmetry_space_group_name_H-M   'P 1'
_cell_length_a   5.07683482
_cell_length_b   5.12577324
_cell_length_c   10.14858025
_cell_angle_alpha   80.27592987
_cell_angle_beta   78.79795733
_cell_angle_gamma   97.93254247
_symmetry_Int_Tables_number   1
_chemical_formula_structural   Li4MnCo2O7
_chemical_formula_sum   'Li8 Mn2 Co4 O14'
_cell_volume   251.32327230
_cell_formula_units_Z   2
loop_
 _symmetry_equiv_pos_site_id
 _symmetry_equiv_pos_as_xyz
  1  'x, y, z'
loop_
 _atom_site_type_symbol
 _atom_site_label
 _atom_site_symmetry_multiplicity
 _atom_site_fract_x
 _atom_site_fract_y
 _atom_site_fract_z
 _atom_site_occupancy
  Li  Li0  1  0.56873919  0.28316663  0.91944988  1
  Li  Li1  1  0.42857100  0.71428600  0.07142900  1
  Li  Li2  1  0.71045998  0.85549143  0.77782931  1
  Li  Li3  1  0.86165977  0.44169073  0.63626501  1
  Li  Li4  1  0.99548323  0.98688027  0.50659199  1
  Li  Li5  1  0.14668302  0.57308057  0.36502769  1
  Li  Li6  1  0.28840381  0.14540437  0.22340712  1
  Li  Li7  1  0.42857100  0.71428600  0.57142900  1
  Mn  Mn8  1  0.00438147  0.00105333  0.99738694  1
  Mn  Mn9  1  0.85276153  0.42751767  0.14547006  1
  Co  Co10  1  0.71164359  0.85574151  0.29164709  1
  Co  Co11  1  0.56159948  0.29370404  0.43332767  1
  Co  Co12  1  0.29554352  0.13486696  0.70952933  1
  Co  Co13  1  0.14549941  0.57283049  0.85120991  1
  O  O14  1  0.33818693  0.93369487  0.90325517  1
  O  O15  1  0.18042154  0.34018601  0.03328502  1
  O  O16  1  0.46438276  0.49634999  0.75873634  1
  O  O17  1  0.63023173  0.09217794  0.61147186  1
  O  O18  1  0.78011485  0.64944893  0.44931671  1
  O  O19  1  0.91561310  0.23854794  0.30972036  1
  O  O20  1  0.03920194  0.77529661  0.17088491  1
  O  O21  1  0.81794006  0.65327539  0.97197309  1
  O  O22  1  0.67672146  0.08838499  0.10957198  1
  O  O23  1  0.94152990  0.19002306  0.83313664  1
  O  O24  1  0.07702815  0.77912307  0.69354029  1
  O  O25  1  0.22691127  0.33639306  0.53138514  1
  O  O26  1  0.39276024  0.93222101  0.38412066  1
  O  O27  1  0.51895607  0.49487713  0.23960183  1
