# generated using pymatgen
data_YbMgSi
_symmetry_space_group_name_H-M   'P 1'
_cell_length_a   7.44867565
_cell_length_b   4.41597646
_cell_length_c   8.25450019
_cell_angle_alpha   90.00000000
_cell_angle_beta   90.00000000
_cell_angle_gamma   90.00000000
_symmetry_Int_Tables_number   1
_chemical_formula_structural   YbMgSi
_chemical_formula_sum   'Yb4 Mg4 Si4'
_cell_volume   271.51673025
_cell_formula_units_Z   4
loop_
 _symmetry_equiv_pos_site_id
 _symmetry_equiv_pos_as_xyz
  1  'x, y, z'
loop_
 _atom_site_type_symbol
 _atom_site_label
 _atom_site_symmetry_multiplicity
 _atom_site_fract_x
 _atom_site_fract_y
 _atom_site_fract_z
 _atom_site_occupancy
  Yb  Yb0  1  0.48135256  0.74999900  0.18087774  1
  Yb  Yb1  1  0.98135256  0.74999900  0.31912326  1
  Yb  Yb2  1  0.01864844  0.25000000  0.68087774  1
  Yb  Yb3  1  0.51864844  0.25000000  0.81912226  1
  Mg  Mg4  1  0.14479895  0.25000000  0.06445408  1
  Mg  Mg5  1  0.64479895  0.25000000  0.43554692  1
  Mg  Mg6  1  0.35520205  0.74999900  0.56445308  1
  Mg  Mg7  1  0.85520005  0.74999900  0.93554692  1
  Si  Si8  1  0.77014421  0.25000000  0.11469607  1
  Si  Si9  1  0.27014421  0.25000000  0.38530293  1
  Si  Si10  1  0.72985679  0.74999900  0.61469607  1
  Si  Si11  1  0.22985679  0.74999900  0.88530393  1
