# generated using pymatgen
data_Gd2ReC2
_symmetry_space_group_name_H-M   'P 1'
_cell_length_a   6.60652814
_cell_length_b   5.19350019
_cell_length_c   9.95022528
_cell_angle_alpha   90.00000000
_cell_angle_beta   90.00000000
_cell_angle_gamma   90.00000000
_symmetry_Int_Tables_number   1
_chemical_formula_structural   Gd2ReC2
_chemical_formula_sum   'Gd8 Re4 C8'
_cell_volume   341.40223083
_cell_formula_units_Z   4
loop_
 _symmetry_equiv_pos_site_id
 _symmetry_equiv_pos_as_xyz
  1  'x, y, z'
loop_
 _atom_site_type_symbol
 _atom_site_label
 _atom_site_symmetry_multiplicity
 _atom_site_fract_x
 _atom_site_fract_y
 _atom_site_fract_z
 _atom_site_occupancy
  Gd  Gd0  1  0.47051385  0.25000100  0.78422838  1
  Gd  Gd1  1  0.02948615  0.75000100  0.28422838  1
  Gd  Gd2  1  0.97051485  0.25000100  0.71577062  1
  Gd  Gd3  1  0.52948715  0.75000100  0.21577162  1
  Gd  Gd4  1  0.81642789  0.25000100  0.05359683  1
  Gd  Gd5  1  0.68357211  0.75000100  0.55359583  1
  Gd  Gd6  1  0.31642689  0.25000100  0.44640317  1
  Gd  Gd7  1  0.18357211  0.75000100  0.94640317  1
  Re  Re8  1  0.27606239  0.25000100  0.13633648  1
  Re  Re9  1  0.22393861  0.75000100  0.63633748  1
  Re  Re10  1  0.77606239  0.25000100  0.36366252  1
  Re  Re11  1  0.72393761  0.75000100  0.86366152  1
  C  C12  1  0.04150724  0.25000100  0.25870283  1
  C  C13  1  0.45849176  0.75000100  0.75870283  1
  C  C14  1  0.54150824  0.25000100  0.24129717  1
  C  C15  1  0.95849276  0.75000100  0.74129817  1
  C  C16  1  0.67951255  0.25000100  0.54702432  1
  C  C17  1  0.82048745  0.75000100  0.04702432  1
  C  C18  1  0.17951255  0.25000100  0.95297568  1
  C  C19  1  0.32048845  0.75000100  0.45297568  1
