# generated using pymatgen
data_Li4MnCo2O7
_symmetry_space_group_name_H-M   'P 1'
_cell_length_a   2.92485852
_cell_length_b   17.39651527
_cell_length_c   5.13530933
_cell_angle_alpha   103.99883418
_cell_angle_beta   90.00000000
_cell_angle_gamma   85.17776819
_symmetry_Int_Tables_number   1
_chemical_formula_structural   Li4MnCo2O7
_chemical_formula_sum   'Li8 Mn2 Co4 O14'
_cell_volume   252.58292411
_cell_formula_units_Z   2
loop_
 _symmetry_equiv_pos_site_id
 _symmetry_equiv_pos_as_xyz
  1  'x, y, z'
loop_
 _atom_site_type_symbol
 _atom_site_label
 _atom_site_symmetry_multiplicity
 _atom_site_fract_x
 _atom_site_fract_y
 _atom_site_fract_z
 _atom_site_occupancy
  Li  Li0  1  0.50213518  0.99572964  0.50114372  1
  Li  Li1  1  0.92846098  0.14307704  0.78187236  1
  Li  Li2  1  0.35720739  0.28558522  0.07152781  1
  Li  Li3  1  0.78564961  0.42869978  0.35704419  1
  Li  Li4  1  0.21439602  0.57120896  0.64669864  1
  Li  Li5  1  0.07142900  0.85714300  0.21428600  1
  Li  Li6  1  0.64072182  0.71855636  0.92742728  1
  Li  Li7  1  0.57142900  0.85714300  0.71428600  1
  Mn  Mn8  1  0.00223820  0.99552361  0.98460557  1
  Mn  Mn9  1  0.14061880  0.71876239  0.44396543  1
  Co  Co10  1  0.42887742  0.14224416  0.28302533  1
  Co  Co11  1  0.85732023  0.28535954  0.57020854  1
  Co  Co12  1  0.28553677  0.42892546  0.85836346  1
  Co  Co13  1  0.71397958  0.57204184  0.14554567  1
  O  O14  1  0.53133436  0.93733228  0.09951005  1
  O  O15  1  0.96325157  0.07349686  0.36060980  1
  O  O16  1  0.39171990  0.21655921  0.66349307  1
  O  O17  1  0.81958882  0.36082235  0.95058804  1
  O  O18  1  0.24845541  0.50308818  0.23963783  1
  O  O19  1  0.11082777  0.77834446  0.78749532  1
  O  O20  1  0.67546177  0.64907746  0.52119578  1
  O  O21  1  0.46739523  0.06520854  0.90737522  1
  O  O22  1  0.89440159  0.21119682  0.18893417  1
  O  O23  1  0.32326818  0.35346265  0.47798396  1
  O  O24  1  0.75113710  0.49772679  0.76507793  1
  O  O25  1  0.17960543  0.64078914  0.06796120  1
  O  O26  1  0.03202923  0.93594154  0.64107568  1
  O  O27  1  0.61152364  0.77695372  0.32906195  1
