# generated using pymatgen
data_CaB2(H7N)2
_symmetry_space_group_name_H-M   'P 1'
_cell_length_a   6.55368759
_cell_length_b   8.35647829
_cell_length_c   12.66722646
_cell_angle_alpha   90.00000000
_cell_angle_beta   90.00000000
_cell_angle_gamma   90.00000000
_symmetry_Int_Tables_number   1
_chemical_formula_structural   CaB2(H7N)2
_chemical_formula_sum   'Ca4 B8 H56 N8'
_cell_volume   693.73013299
_cell_formula_units_Z   4
loop_
 _symmetry_equiv_pos_site_id
 _symmetry_equiv_pos_as_xyz
  1  'x, y, z'
loop_
 _atom_site_type_symbol
 _atom_site_label
 _atom_site_symmetry_multiplicity
 _atom_site_fract_x
 _atom_site_fract_y
 _atom_site_fract_z
 _atom_site_occupancy
  Ca  Ca0  1  -0.00000000  0.76244054  0.75000000  1
  Ca  Ca1  1  0.50000000  0.73755946  0.25000000  1
  Ca  Ca2  1  0.00000000  0.23755946  0.25000000  1
  Ca  Ca3  1  0.50000000  0.26244054  0.75000000  1
  B  B4  1  0.26718284  0.98233887  0.84000362  1
  B  B5  1  0.23281716  0.51766113  0.34000362  1
  B  B6  1  0.76718284  0.51766113  0.15999638  1
  B  B7  1  0.73281716  0.98233887  0.65999638  1
  B  B8  1  0.73281716  0.01766113  0.15999638  1
  B  B9  1  0.76718284  0.48233887  0.65999638  1
  B  B10  1  0.23281716  0.48233887  0.84000362  1
  B  B11  1  0.26718284  0.01766113  0.34000362  1
  H  H12  1  0.20471769  0.83954607  0.52988929  1
  H  H13  1  0.29528231  0.66045393  0.02988929  1
  H  H14  1  0.70471769  0.66045393  0.47011071  1
  H  H15  1  0.79528231  0.83954607  0.97011071  1
  H  H16  1  0.79528231  0.16045393  0.47011071  1
  H  H17  1  0.70471769  0.33954607  0.97011071  1
  H  H18  1  0.29528231  0.33954607  0.52988929  1
  H  H19  1  0.20471769  0.16045393  0.02988929  1
  H  H20  1  0.27058820  0.65810757  0.55915272  1
  H  H21  1  0.22941180  0.84189243  0.05915272  1
  H  H22  1  0.77058820  0.84189243  0.44084728  1
  H  H23  1  0.72941180  0.65810757  0.94084728  1
  H  H24  1  0.72941180  0.34189243  0.44084728  1
  H  H25  1  0.77058820  0.15810757  0.94084728  1
  H  H26  1  0.22941180  0.15810757  0.55915272  1
  H  H27  1  0.27058820  0.34189243  0.05915272  1
  H  H28  1  0.38235025  0.80812242  0.61788198  1
  H  H29  1  0.11764975  0.69187758  0.11788198  1
  H  H30  1  0.88235025  0.69187758  0.38211802  1
  H  H31  1  0.61764975  0.80812242  0.88211802  1
  H  H32  1  0.61764975  0.19187758  0.38211802  1
  H  H33  1  0.88235025  0.30812242  0.88211802  1
  H  H34  1  0.11764975  0.30812242  0.61788198  1
  H  H35  1  0.38235025  0.19187758  0.11788198  1
  H  H36  1  0.09684311  0.55669897  0.88417845  1
  H  H37  1  0.40315689  0.94330103  0.38417845  1
  H  H38  1  0.59684311  0.94330103  0.11582155  1
  H  H39  1  0.90315689  0.55669897  0.61582155  1
  H  H40  1  0.90315689  0.44330103  0.11582155  1
  H  H41  1  0.59684311  0.05669897  0.61582155  1
  H  H42  1  0.40315689  0.05669897  0.88417845  1
  H  H43  1  0.09684311  0.44330103  0.38417845  1
  H  H44  1  0.26857964  0.53695016  0.75195619  1
  H  H45  1  0.23142036  0.96304984  0.25195619  1
  H  H46  1  0.76857964  0.96304984  0.24804381  1
  H  H47  1  0.73142036  0.53695016  0.74804381  1
  H  H48  1  0.73142036  0.46304984  0.24804381  1
  H  H49  1  0.76857964  0.03695016  0.74804381  1
  H  H50  1  0.23142036  0.03695016  0.75195619  1
  H  H51  1  0.26857964  0.46304984  0.25195619  1
  H  H52  1  0.32222209  0.84253681  0.83080331  1
  H  H53  1  0.17777791  0.65746319  0.33080331  1
  H  H54  1  0.82222209  0.65746319  0.16919669  1
  H  H55  1  0.67777791  0.84253681  0.66919669  1
  H  H56  1  0.67777791  0.15746319  0.16919669  1
  H  H57  1  0.82222209  0.34253681  0.66919669  1
  H  H58  1  0.17777791  0.34253681  0.83080331  1
  H  H59  1  0.32222209  0.15746319  0.33080331  1
  H  H60  1  0.11081913  0.98900828  0.89293326  1
  H  H61  1  0.38918087  0.51099172  0.39293326  1
  H  H62  1  0.61081913  0.51099172  0.10706674  1
  H  H63  1  0.88918087  0.98900828  0.60706674  1
  H  H64  1  0.88918087  0.01099172  0.10706674  1
  H  H65  1  0.61081913  0.48900828  0.60706674  1
  H  H66  1  0.38918087  0.48900828  0.89293326  1
  H  H67  1  0.11081913  0.01099172  0.39293326  1
  N  N68  1  0.24275349  0.76722746  0.59222659  1
  N  N69  1  0.25724651  0.73277254  0.09222659  1
  N  N70  1  0.74275349  0.73277254  0.40777341  1
  N  N71  1  0.75724651  0.76722746  0.90777341  1
  N  N72  1  0.75724651  0.23277254  0.40777341  1
  N  N73  1  0.74275349  0.26722746  0.90777341  1
  N  N74  1  0.25724651  0.26722746  0.59222659  1
  N  N75  1  0.24275349  0.23277254  0.09222659  1
