# generated using pymatgen
data_LaAgHg2
_symmetry_space_group_name_H-M   'P 1'
_cell_length_a   5.21011391
_cell_length_b   5.21009754
_cell_length_c   5.21009723
_cell_angle_alpha   59.99989876
_cell_angle_beta   59.99979918
_cell_angle_gamma   59.99962396
_symmetry_Int_Tables_number   1
_chemical_formula_structural   LaAgHg2
_chemical_formula_sum   'La1 Ag1 Hg2'
_cell_volume   100.00499160
_cell_formula_units_Z   1
loop_
 _symmetry_equiv_pos_site_id
 _symmetry_equiv_pos_as_xyz
  1  'x, y, z'
loop_
 _atom_site_type_symbol
 _atom_site_label
 _atom_site_symmetry_multiplicity
 _atom_site_fract_x
 _atom_site_fract_y
 _atom_site_fract_z
 _atom_site_occupancy
  La  La0  1  0.75000028  0.75000076  0.75000022  1
  Ag  Ag1  1  0.25000007  0.25000001  0.25000030  1
  Hg  Hg2  1  0.49999940  0.49999912  0.49999927  1
  Hg  Hg3  1  0.00000025  0.00000010  0.00000021  1
