# generated using pymatgen
data_Sr17(Li2Hg3)3
_symmetry_space_group_name_H-M   'P 1'
_cell_length_a   14.43448626
_cell_length_b   14.43448626
_cell_length_c   14.43448626
_cell_angle_alpha   109.47122063
_cell_angle_beta   109.47122063
_cell_angle_gamma   109.47122063
_symmetry_Int_Tables_number   1
_chemical_formula_structural   Sr17(Li2Hg3)3
_chemical_formula_sum   'Sr34 Li12 Hg18'
_cell_volume   2315.16582978
_cell_formula_units_Z   2
loop_
 _symmetry_equiv_pos_site_id
 _symmetry_equiv_pos_as_xyz
  1  'x, y, z'
loop_
 _atom_site_type_symbol
 _atom_site_label
 _atom_site_symmetry_multiplicity
 _atom_site_fract_x
 _atom_site_fract_y
 _atom_site_fract_z
 _atom_site_occupancy
  Sr  Sr0  1  0.00000000  0.00000000  0.00000000  1
  Sr  Sr1  1  0.44886098  0.18778794  0.00000000  1
  Sr  Sr2  1  0.18778794  0.44886098  0.00000000  1
  Sr  Sr3  1  0.50000000  0.50000000  0.00000000  1
  Sr  Sr4  1  0.81221206  0.55113902  0.00000000  1
  Sr  Sr5  1  0.55113902  0.81221206  0.00000000  1
  Sr  Sr6  1  0.44886098  0.00000000  0.18778794  1
  Sr  Sr7  1  0.73892696  0.18778794  0.18778794  1
  Sr  Sr8  1  0.00000000  0.44886098  0.18778794  1
  Sr  Sr9  1  0.18778794  0.73892696  0.18778794  1
  Sr  Sr10  1  0.75000000  0.50000000  0.25000000  1
  Sr  Sr11  1  0.50000000  0.75000000  0.25000000  1
  Sr  Sr12  1  0.44886098  0.44886098  0.26107404  1
  Sr  Sr13  1  0.81221206  0.81221206  0.26107404  1
  Sr  Sr14  1  0.18778794  0.00000000  0.44886098  1
  Sr  Sr15  1  0.00000000  0.18778794  0.44886098  1
  Sr  Sr16  1  0.44886098  0.26107404  0.44886098  1
  Sr  Sr17  1  0.26107404  0.44886098  0.44886098  1
  Sr  Sr18  1  0.50000000  0.00000000  0.50000000  1
  Sr  Sr19  1  0.75000000  0.25000000  0.50000000  1
  Sr  Sr20  1  0.00000000  0.50000000  0.50000000  1
  Sr  Sr21  1  0.25000000  0.75000000  0.50000000  1
  Sr  Sr22  1  0.81221206  0.00000000  0.55113902  1
  Sr  Sr23  1  0.00000000  0.81221206  0.55113902  1
  Sr  Sr24  1  0.73892696  0.55113902  0.55113902  1
  Sr  Sr25  1  0.55113902  0.73892696  0.55113902  1
  Sr  Sr26  1  0.18778794  0.18778794  0.73892696  1
  Sr  Sr27  1  0.55113902  0.55113902  0.73892696  1
  Sr  Sr28  1  0.50000000  0.25000000  0.75000000  1
  Sr  Sr29  1  0.25000000  0.50000000  0.75000000  1
  Sr  Sr30  1  0.55113902  0.00000000  0.81221206  1
  Sr  Sr31  1  0.81221206  0.26107404  0.81221206  1
  Sr  Sr32  1  0.00000000  0.55113902  0.81221206  1
  Sr  Sr33  1  0.26107404  0.81221206  0.81221206  1
  Li  Li34  1  0.85203807  0.14796293  0.00000000  1
  Li  Li35  1  0.14796293  0.85203807  0.00000000  1
  Li  Li36  1  0.85203807  0.00000000  0.14796293  1
  Li  Li37  1  0.00000000  0.85203807  0.14796293  1
  Li  Li38  1  0.29592586  0.14796293  0.14796293  1
  Li  Li39  1  0.14796293  0.29592586  0.14796293  1
  Li  Li40  1  0.14796293  0.14796293  0.29592586  1
  Li  Li41  1  0.85203807  0.85203807  0.70407514  1
  Li  Li42  1  0.14796293  0.00000000  0.85203807  1
  Li  Li43  1  0.00000000  0.14796293  0.85203807  1
  Li  Li44  1  0.85203807  0.70407514  0.85203807  1
  Li  Li45  1  0.70407514  0.85203807  0.85203807  1
  Hg  Hg46  1  0.23116552  0.23116552  0.00000000  1
  Hg  Hg47  1  0.70467896  0.29532204  0.00000000  1
  Hg  Hg48  1  0.29532204  0.70467896  0.00000000  1
  Hg  Hg49  1  0.76883448  0.76883448  0.00000000  1
  Hg  Hg50  1  0.23116552  0.00000000  0.23116552  1
  Hg  Hg51  1  0.00000000  0.23116552  0.23116552  1
  Hg  Hg52  1  0.70467896  0.00000000  0.29532204  1
  Hg  Hg53  1  0.59064408  0.29532204  0.29532204  1
  Hg  Hg54  1  0.29532204  0.59064408  0.29532204  1
  Hg  Hg55  1  0.00000000  0.70467896  0.29532204  1
  Hg  Hg56  1  0.70467896  0.70467896  0.40935692  1
  Hg  Hg57  1  0.29532204  0.29532204  0.59064408  1
  Hg  Hg58  1  0.29532204  0.00000000  0.70467896  1
  Hg  Hg59  1  0.00000000  0.29532204  0.70467896  1
  Hg  Hg60  1  0.70467896  0.40935692  0.70467896  1
  Hg  Hg61  1  0.40935692  0.70467896  0.70467896  1
  Hg  Hg62  1  0.76883448  0.00000000  0.76883448  1
  Hg  Hg63  1  0.00000000  0.76883448  0.76883448  1
