# generated using pymatgen
data_Li5Mn3O8
_symmetry_space_group_name_H-M   'P 1'
_cell_length_a   2.87977261
_cell_length_b   9.82920466
_cell_length_c   5.24270918
_cell_angle_alpha   84.76043936
_cell_angle_beta   90.00000000
_cell_angle_gamma   81.57639268
_symmetry_Int_Tables_number   1
_chemical_formula_structural   Li5Mn3O8
_chemical_formula_sum   'Li5 Mn3 O8'
_cell_volume   146.17167657
_cell_formula_units_Z   1
loop_
 _symmetry_equiv_pos_site_id
 _symmetry_equiv_pos_as_xyz
  1  'x, y, z'
loop_
 _atom_site_type_symbol
 _atom_site_label
 _atom_site_symmetry_multiplicity
 _atom_site_fract_x
 _atom_site_fract_y
 _atom_site_fract_z
 _atom_site_occupancy
  Li  Li0  1  0.38194933  0.23610133  0.11904825  1
  Li  Li1  1  0.11376951  0.77246099  0.39201989  1
  Li  Li2  1  0.88623049  0.22753901  0.60798011  1
  Li  Li3  1  0.61805067  0.76389867  0.88095175  1
  Li  Li4  1  0.50000000  -0.00000000  0.50000000  1
  Mn  Mn5  1  0.00000000  -0.00000000  -0.00000000  1
  Mn  Mn6  1  0.75083737  0.49832525  0.25126084  1
  Mn  Mn7  1  0.24916263  0.50167475  0.74873916  1
  O  O8  1  0.44399427  0.11201146  0.82928349  1
  O  O9  1  0.19470679  0.61058642  0.08919670  1
  O  O10  1  0.94179030  0.11641939  0.28069137  1
  O  O11  1  0.69273363  0.61453274  0.58426011  1
  O  O12  1  0.30726637  0.38546726  0.41573989  1
  O  O13  1  0.05820970  0.88358061  0.71930863  1
  O  O14  1  0.80529321  0.38941358  0.91080330  1
  O  O15  1  0.55600573  0.88798854  0.17071651  1
