# generated using pymatgen
data_RePO5
_symmetry_space_group_name_H-M   'P 1'
_cell_length_a   8.81536486
_cell_length_b   8.81461618
_cell_length_c   5.25805238
_cell_angle_alpha   90.43676290
_cell_angle_beta   89.56593166
_cell_angle_gamma   90.31963354
_symmetry_Int_Tables_number   1
_chemical_formula_structural   RePO5
_chemical_formula_sum   'Re4 P4 O20'
_cell_volume   408.54218333
_cell_formula_units_Z   4
loop_
 _symmetry_equiv_pos_site_id
 _symmetry_equiv_pos_as_xyz
  1  'x, y, z'
loop_
 _atom_site_type_symbol
 _atom_site_label
 _atom_site_symmetry_multiplicity
 _atom_site_fract_x
 _atom_site_fract_y
 _atom_site_fract_z
 _atom_site_occupancy
  Re  Re0  1  0.04606807  0.75220260  0.23811746  1
  Re  Re1  1  0.75225096  0.04600038  0.26179891  1
  Re  Re2  1  0.95387897  0.24771108  0.76184500  1
  Re  Re3  1  0.24778265  0.95388432  0.73812210  1
  P  P4  1  0.16393995  0.39625868  0.27995989  1
  P  P5  1  0.39607464  0.16384297  0.22009817  1
  P  P6  1  0.83613409  0.60387804  0.72009238  1
  P  P7  1  0.60360004  0.83601773  0.78013801  1
  O  O8  1  0.30752523  0.06675322  0.40750285  1
  O  O9  1  0.06666542  0.30751948  0.09234931  1
  O  O10  1  0.69262573  0.93343570  0.59244521  1
  O  O11  1  0.93337922  0.69256760  0.90736690  1
  O  O12  1  0.66280123  0.66282510  0.74997345  1
  O  O13  1  0.33722508  0.33728137  0.24999538  1
  O  O14  1  0.56498069  0.17753232  0.28790976  1
  O  O15  1  0.17745098  0.56490537  0.21223059  1
  O  O16  1  0.43521395  0.82252100  0.71208519  1
  O  O17  1  0.82253976  0.43514688  0.78787338  1
  O  O18  1  0.88635787  0.62614214  0.44135725  1
  O  O19  1  0.62602031  0.88631450  0.05870592  1
  O  O20  1  0.11366172  0.37396416  0.55862627  1
  O  O21  1  0.37388043  0.11364514  0.94153251  1
  O  O22  1  0.91542601  0.91543918  0.25000347  1
  O  O23  1  0.08440030  0.08444191  0.74997066  1
  O  O24  1  0.18251365  0.85318716  0.02435461  1
  O  O25  1  0.85331466  0.18247561  0.47566185  1
  O  O26  1  0.81758458  0.14664350  0.97567816  1
  O  O27  1  0.14670380  0.81747286  0.52420634  1
