# generated using pymatgen
data_Li4MnCo2O7
_symmetry_space_group_name_H-M   'P 1'
_cell_length_a   2.92433264
_cell_length_b   5.88276496
_cell_length_c   14.73592554
_cell_angle_alpha   83.74538551
_cell_angle_beta   84.30548100
_cell_angle_gamma   89.99999493
_symmetry_Int_Tables_number   1
_chemical_formula_structural   Li4MnCo2O7
_chemical_formula_sum   'Li8 Mn2 Co4 O14'
_cell_volume   250.73698322
_cell_formula_units_Z   2
loop_
 _symmetry_equiv_pos_site_id
 _symmetry_equiv_pos_as_xyz
  1  'x, y, z'
loop_
 _atom_site_type_symbol
 _atom_site_label
 _atom_site_symmetry_multiplicity
 _atom_site_fract_x
 _atom_site_fract_y
 _atom_site_fract_z
 _atom_site_occupancy
  Li  Li0  1  0.42857100  0.21428600  0.14285700  1
  Li  Li1  1  0.28603782  0.64176537  0.42792335  1
  Li  Li2  1  0.14322317  0.07197237  0.71355366  1
  Li  Li3  1  0.86158572  0.92462429  0.27682855  1
  Li  Li4  1  0.71391983  0.35659963  0.57216134  1
  Li  Li5  1  0.57110518  0.78680563  0.85779065  1
  Li  Li6  1  0.99555728  0.50394671  0.00888545  1
  Li  Li7  1  0.42857100  0.71428600  0.14285700  1
  Mn  Mn8  1  0.99649398  0.99388139  0.00701203  1
  Mn  Mn9  1  0.86064902  0.43468961  0.27870197  1
  Co  Co10  1  0.71461357  0.85680307  0.57077386  1
  Co  Co11  1  0.57128108  0.28633664  0.85743885  1
  Co  Co12  1  0.28586192  0.14223436  0.42827515  1
  Co  Co13  1  0.14252943  0.57176893  0.71494114  1
  O  O14  1  0.50126661  0.22539912  -0.00253321  1
  O  O15  1  0.35667218  0.65150642  0.28665564  1
  O  O16  1  0.21614662  0.09373068  0.56770676  1
  O  O17  1  0.93429618  0.96796189  0.13140865  1
  O  O18  1  0.78934017  0.37698136  0.42131866  1
  O  O19  1  0.64406973  0.80539230  0.71185954  1
  O  O20  1  0.07212798  0.51837715  0.85574504  1
  O  O21  1  0.35587639  0.20317288  0.28824821  1
  O  O22  1  0.21307327  0.62317870  0.57385446  1
  O  O23  1  0.06780183  0.05159064  0.86439534  1
  O  O24  1  0.78501502  0.91019485  0.42996996  1
  O  O25  1  0.64099638  0.33484032  0.71800724  1
  O  O26  1  0.50047082  0.77706458  0.99905836  1
  O  O27  1  0.92284682  0.46060911  0.15430535  1
