# generated using pymatgen
data_NaGeAu
_symmetry_space_group_name_H-M   'P 1'
_cell_length_a   4.51251141
_cell_length_b   5.75975868
_cell_length_c   5.75975868
_cell_angle_alpha   79.55912795
_cell_angle_beta   66.93796952
_cell_angle_gamma   66.93796953
_symmetry_Int_Tables_number   1
_chemical_formula_structural   NaGeAu
_chemical_formula_sum   'Na2 Ge2 Au2'
_cell_volume   126.66175201
_cell_formula_units_Z   2
loop_
 _symmetry_equiv_pos_site_id
 _symmetry_equiv_pos_as_xyz
  1  'x, y, z'
loop_
 _atom_site_type_symbol
 _atom_site_label
 _atom_site_symmetry_multiplicity
 _atom_site_fract_x
 _atom_site_fract_y
 _atom_site_fract_z
 _atom_site_occupancy
  Na  Na0  1  0.28095532  0.21904468  0.21904468  1
  Na  Na1  1  0.40715617  0.59284383  0.59284383  1
  Ge  Ge2  1  0.67653333  0.99896044  0.64797291  1
  Ge  Ge3  1  0.67653333  0.64797291  0.99896044  1
  Au  Au4  1  0.00048093  0.20209102  0.79694713  1
  Au  Au5  1  0.00048093  0.79694713  0.20209102  1
