# generated using pymatgen
data_Sr3MnN3
_symmetry_space_group_name_H-M   'P 1'
_cell_length_a   7.73377271
_cell_length_b   7.73377271
_cell_length_c   5.26876160
_cell_angle_alpha   90.00000000
_cell_angle_beta   90.00000000
_cell_angle_gamma   119.99999999
_symmetry_Int_Tables_number   1
_chemical_formula_structural   Sr3MnN3
_chemical_formula_sum   'Sr6 Mn2 N6'
_cell_volume   272.91159558
_cell_formula_units_Z   2
loop_
 _symmetry_equiv_pos_site_id
 _symmetry_equiv_pos_as_xyz
  1  'x, y, z'
loop_
 _atom_site_type_symbol
 _atom_site_label
 _atom_site_symmetry_multiplicity
 _atom_site_fract_x
 _atom_site_fract_y
 _atom_site_fract_z
 _atom_site_occupancy
  N  N0  1  0.87920330  0.56869275  0.75000000  1
  N  N1  1  0.31051056  0.87920330  0.25000000  1
  N  N2  1  0.56869275  0.68948944  0.25000000  1
  N  N3  1  0.43130725  0.31051056  0.75000000  1
  N  N4  1  0.68948944  0.12079670  0.75000000  1
  N  N5  1  0.12079670  0.43130725  0.25000000  1
  Mn  Mn6  1  0.33333333  0.66666667  0.25000000  1
  Mn  Mn7  1  0.66666667  0.33333333  0.75000000  1
  Sr  Sr8  1  0.63916671  0.72454168  0.75000000  1
  Sr  Sr9  1  0.91462502  0.63916671  0.25000000  1
  Sr  Sr10  1  0.72454168  0.08537498  0.25000000  1
  Sr  Sr11  1  0.27545832  0.91462502  0.75000000  1
  Sr  Sr12  1  0.08537498  0.36083329  0.75000000  1
  Sr  Sr13  1  0.36083329  0.27545832  0.25000000  1
