# generated using pymatgen
data_CsTa(BO3)2
_symmetry_space_group_name_H-M   'P 1'
_cell_length_a   3.96778723
_cell_length_b   7.65830245
_cell_length_c   9.91713348
_cell_angle_alpha   90.00000000
_cell_angle_beta   90.00000000
_cell_angle_gamma   90.00000000
_symmetry_Int_Tables_number   1
_chemical_formula_structural   CsTa(BO3)2
_chemical_formula_sum   'Cs2 Ta2 B4 O12'
_cell_volume   301.34712192
_cell_formula_units_Z   2
loop_
 _symmetry_equiv_pos_site_id
 _symmetry_equiv_pos_as_xyz
  1  'x, y, z'
loop_
 _atom_site_type_symbol
 _atom_site_label
 _atom_site_symmetry_multiplicity
 _atom_site_fract_x
 _atom_site_fract_y
 _atom_site_fract_z
 _atom_site_occupancy
  B  B0  1  0.00646788  0.33712723  0.43768893  1
  B  B1  1  0.99353212  0.16287277  0.93768893  1
  B  B2  1  0.99353212  0.83712723  0.93768893  1
  B  B3  1  0.00646788  0.66287277  0.43768893  1
  O  O4  1  0.03891807  0.19151387  0.35980837  1
  O  O5  1  0.96108193  0.30848613  0.85980837  1
  O  O6  1  0.96108193  0.69151387  0.85980837  1
  O  O7  1  0.03891807  0.80848613  0.35980837  1
  O  O8  1  0.03585028  0.82396359  0.07367192  1
  O  O9  1  0.96414972  0.67603641  0.57367192  1
  O  O10  1  0.96414972  0.32396359  0.57367192  1
  O  O11  1  0.03585028  0.17603641  0.07367192  1
  O  O12  1  0.54003744  0.00000000  0.22840581  1
  O  O13  1  0.45996256  0.50000000  0.72840581  1
  O  O14  1  0.97906274  0.00000000  0.87177426  1
  O  O15  1  0.02093726  0.50000000  0.37177426  1
  Cs  Cs16  1  0.48002906  0.00000000  0.61424247  1
  Cs  Cs17  1  0.51997094  0.50000000  0.11424247  1
  Ta  Ta18  1  0.06625639  0.00000000  0.22643903  1
  Ta  Ta19  1  0.93374361  0.50000000  0.72643903  1
