# generated using pymatgen
data_NdZnPO
_symmetry_space_group_name_H-M   'P 1'
_cell_length_a   10.66105943
_cell_length_b   10.66105943
_cell_length_c   10.66105943
_cell_angle_alpha   21.63784306
_cell_angle_beta   21.63784310
_cell_angle_gamma   21.63784308
_symmetry_Int_Tables_number   1
_chemical_formula_structural   NdZnPO
_chemical_formula_sum   'Nd2 Zn2 P2 O2'
_cell_volume   144.37703330
_cell_formula_units_Z   2
loop_
 _symmetry_equiv_pos_site_id
 _symmetry_equiv_pos_as_xyz
  1  'x, y, z'
loop_
 _atom_site_type_symbol
 _atom_site_label
 _atom_site_symmetry_multiplicity
 _atom_site_fract_x
 _atom_site_fract_y
 _atom_site_fract_z
 _atom_site_occupancy
  O  O0  1  0.69493314  0.69493314  0.69493314  1
  O  O1  1  0.30506686  0.30506686  0.30506686  1
  P  P2  1  0.11417976  0.11417976  0.11417976  1
  P  P3  1  0.88582024  0.88582024  0.88582024  1
  Zn  Zn4  1  0.19612336  0.19612336  0.19612336  1
  Zn  Zn5  1  0.80387664  0.80387664  0.80387664  1
  Nd  Nd6  1  0.61869507  0.61869507  0.61869507  1
  Nd  Nd7  1  0.38130493  0.38130493  0.38130493  1
