# generated using pymatgen
data_Li4MnCo2O7
_symmetry_space_group_name_H-M   'P 1'
_cell_length_a   2.92340606
_cell_length_b   10.74062842
_cell_length_c   8.33923644
_cell_angle_alpha   78.13666121
_cell_angle_beta   90.00000000
_cell_angle_gamma   82.17828724
_symmetry_Int_Tables_number   1
_chemical_formula_structural   Li4MnCo2O7
_chemical_formula_sum   'Li8 Mn2 Co4 O14'
_cell_volume   253.76286745
_cell_formula_units_Z   2
loop_
 _symmetry_equiv_pos_site_id
 _symmetry_equiv_pos_as_xyz
  1  'x, y, z'
loop_
 _atom_site_type_symbol
 _atom_site_label
 _atom_site_symmetry_multiplicity
 _atom_site_fract_x
 _atom_site_fract_y
 _atom_site_fract_z
 _atom_site_occupancy
  Li  Li0  1  0.42484153  0.15031593  0.22675582  1
  Li  Li1  1  0.28944347  0.42111207  0.63038718  1
  Li  Li2  1  0.14643206  0.70713587  0.07675898  1
  Li  Li3  1  0.99740290  0.00519420  0.49880069  1
  Li  Li4  1  0.85714300  0.28571400  0.92857100  1
  Li  Li5  1  0.71688310  0.56623480  0.35834231  1
  Li  Li6  1  0.56785394  0.86429313  0.78038402  1
  Li  Li7  1  0.85714300  0.28571400  0.42857100  1
  Mn  Mn8  1  0.99922082  0.00155837  0.99885253  1
  Mn  Mn9  1  0.71506518  0.56987063  0.85829047  1
  Co  Co10  1  0.57206826  0.85586448  0.29211125  1
  Co  Co11  1  0.42456258  0.15087383  0.68843750  1
  Co  Co12  1  0.28972242  0.42055417  0.16870550  1
  Co  Co13  1  0.14221774  0.71556452  0.56503175  1
  O  O14  1  0.43793969  0.12412062  0.97078030  1
  O  O15  1  0.28310727  0.43378546  0.37939230  1
  O  O16  1  0.15126484  0.69747131  0.82523955  1
  O  O17  1  0.00554919  0.98890261  0.23858147  1
  O  O18  1  0.86260656  0.27478589  0.68832312  1
  O  O19  1  0.71799210  0.56401480  0.08869361  1
  O  O20  1  0.57607552  0.84784897  0.53732923  1
  O  O21  1  0.43117873  0.13764254  0.47774970  1
  O  O22  1  0.27634631  0.44730838  0.88636270  1
  O  O23  1  0.13821048  0.72358003  0.31981377  1
  O  O24  1  0.99629290  0.00741320  0.76844939  1
  O  O25  1  0.85167844  0.29664211  0.16881988  1
  O  O26  1  0.70873681  0.58252639  0.61856153  1
  O  O27  1  0.56302116  0.87395769  0.03190345  1
