# generated using pymatgen
data_RbGaH2
_symmetry_space_group_name_H-M   'P 1'
_cell_length_a   7.48167334
_cell_length_b   4.54261952
_cell_length_c   9.52956178
_cell_angle_alpha   90.00000000
_cell_angle_beta   90.00000000
_cell_angle_gamma   90.00000000
_symmetry_Int_Tables_number   1
_chemical_formula_structural   RbGaH2
_chemical_formula_sum   'Rb4 Ga4 H8'
_cell_volume   323.87545423
_cell_formula_units_Z   4
loop_
 _symmetry_equiv_pos_site_id
 _symmetry_equiv_pos_as_xyz
  1  'x, y, z'
loop_
 _atom_site_type_symbol
 _atom_site_label
 _atom_site_symmetry_multiplicity
 _atom_site_fract_x
 _atom_site_fract_y
 _atom_site_fract_z
 _atom_site_occupancy
  Rb  Rb0  1  0.38119212  0.24999900  0.17341226  1
  Rb  Rb1  1  0.88119212  0.24999900  0.32658674  1
  Rb  Rb2  1  0.11880788  0.74999900  0.67341326  1
  Rb  Rb3  1  0.61880788  0.74999900  0.82658674  1
  Ga  Ga4  1  0.06435747  0.74999900  0.03445578  1
  Ga  Ga5  1  0.56435747  0.74999900  0.46554322  1
  Ga  Ga6  1  0.43564253  0.24999900  0.53445678  1
  Ga  Ga7  1  0.93564253  0.24999900  0.96554322  1
  H  H8  1  0.72043499  0.24999900  0.01846627  1
  H  H9  1  0.10374192  0.74999900  0.20685155  1
  H  H10  1  0.60374192  0.74999900  0.29314845  1
  H  H11  1  0.22043499  0.24999900  0.48153373  1
  H  H12  1  0.77956601  0.74999900  0.51846627  1
  H  H13  1  0.39625808  0.24999900  0.70685155  1
  H  H14  1  0.89625908  0.24999900  0.79314845  1
  H  H15  1  0.27956601  0.74999900  0.98153473  1
