# generated using pymatgen
data_V2Se2O11
_symmetry_space_group_name_H-M   'P 1'
_cell_length_a   8.35097671
_cell_length_b   8.35097671
_cell_length_c   9.75653555
_cell_angle_alpha   68.73235406
_cell_angle_beta   111.26764594
_cell_angle_gamma   140.16015794
_symmetry_Int_Tables_number   1
_chemical_formula_structural   V2Se2O11
_chemical_formula_sum   'V4 Se4 O22'
_cell_volume   402.15214931
_cell_formula_units_Z   2
loop_
 _symmetry_equiv_pos_site_id
 _symmetry_equiv_pos_as_xyz
  1  'x, y, z'
loop_
 _atom_site_type_symbol
 _atom_site_label
 _atom_site_symmetry_multiplicity
 _atom_site_fract_x
 _atom_site_fract_y
 _atom_site_fract_z
 _atom_site_occupancy
  V  V0  1  0.80190398  0.04521913  0.71048034  1
  V  V1  1  0.04522013  0.80190398  0.78951966  1
  V  V2  1  0.19809602  0.95477987  0.28951966  1
  V  V3  1  0.95477987  0.19809602  0.21048034  1
  Se  Se4  1  0.23588303  0.52861476  0.90628540  1
  Se  Se5  1  0.52861476  0.23588303  0.59371460  1
  Se  Se6  1  0.76411897  0.47138624  0.09371360  1
  Se  Se7  1  0.47138624  0.76411897  0.40628540  1
  O  O8  1  0.09642447  0.09642547  0.25000000  1
  O  O9  1  0.90357353  0.90357353  0.75000000  1
  O  O10  1  0.95397690  0.27010887  0.57864354  1
  O  O11  1  0.27010887  0.95397590  0.92135646  1
  O  O12  1  0.04602310  0.72989013  0.42135646  1
  O  O13  1  0.72989013  0.04602410  0.07864354  1
  O  O14  1  0.22123040  0.51422451  0.07959851  1
  O  O15  1  0.51422451  0.22123140  0.42040049  1
  O  O16  1  0.77876960  0.48577449  0.92040049  1
  O  O17  1  0.48577449  0.77876960  0.57959951  1
  O  O18  1  0.04350098  0.22799984  0.88386960  1
  O  O19  1  0.22799984  0.04350098  0.61613240  1
  O  O20  1  0.95649902  0.77199916  0.11613040  1
  O  O21  1  0.77200016  0.95649902  0.38386860  1
  O  O22  1  0.11054073  0.62082346  0.77641303  1
  O  O23  1  0.62082346  0.11053973  0.72358797  1
  O  O24  1  0.88946127  0.37917854  0.22358697  1
  O  O25  1  0.37917854  0.88946127  0.27641203  1
  O  O26  1  0.52711648  0.70887913  0.88956105  1
  O  O27  1  0.70887813  0.52711648  0.61043795  1
  O  O28  1  0.47288552  0.29112187  0.11043795  1
  O  O29  1  0.29112287  0.47288552  0.38956205  1
