# generated using pymatgen
data_LiSiB6
_symmetry_space_group_name_H-M   'P 1'
_cell_length_a   6.11110482
_cell_length_b   6.29309638
_cell_length_c   8.43052469
_cell_angle_alpha   90.00000000
_cell_angle_beta   90.00000000
_cell_angle_gamma   60.95212247
_symmetry_Int_Tables_number   1
_chemical_formula_structural   LiSiB6
_chemical_formula_sum   'Li4 Si4 B24'
_cell_volume   283.43705002
_cell_formula_units_Z   4
loop_
 _symmetry_equiv_pos_site_id
 _symmetry_equiv_pos_as_xyz
  1  'x, y, z'
loop_
 _atom_site_type_symbol
 _atom_site_label
 _atom_site_symmetry_multiplicity
 _atom_site_fract_x
 _atom_site_fract_y
 _atom_site_fract_z
 _atom_site_occupancy
  Li  Li0  1  0.32444116  0.35111868  0.16014825  1
  Li  Li1  1  0.82444016  0.35111868  0.33985175  1
  Li  Li2  1  0.17555984  0.64888132  0.66014825  1
  Li  Li3  1  0.67555884  0.64888132  0.83985075  1
  Si  Si4  1  0.66566112  0.66867677  0.12040347  1
  Si  Si5  1  0.16566212  0.66867677  0.37959553  1
  Si  Si6  1  0.83433688  0.33132423  0.62040347  1
  Si  Si7  1  0.33433788  0.33132423  0.87959653  1
  B  B8  1  0.31344445  0.84173466  0.03144980  1
  B  B9  1  0.84481889  0.84173466  0.03144980  1
  B  B10  1  0.84812706  0.30374488  0.05609397  1
  B  B11  1  0.10040581  0.79918838  0.15040505  1
  B  B12  1  0.11967809  0.07873239  0.16570733  1
  B  B13  1  0.80158852  0.07873239  0.16570733  1
  B  B14  1  0.30158952  0.07873239  0.33429367  1
  B  B15  1  0.61967809  0.07873239  0.33429367  1
  B  B16  1  0.60040481  0.79918838  0.34959495  1
  B  B17  1  0.34812806  0.30374488  0.44390603  1
  B  B18  1  0.34482089  0.84173466  0.46855020  1
  B  B19  1  0.81344445  0.84173466  0.46855020  1
  B  B20  1  0.18655555  0.15826434  0.53144980  1
  B  B21  1  0.65517911  0.15826434  0.53144980  1
  B  B22  1  0.65187194  0.69625412  0.55609397  1
  B  B23  1  0.39959419  0.20081262  0.65040405  1
  B  B24  1  0.38032091  0.92126761  0.66570633  1
  B  B25  1  0.69841148  0.92126761  0.66570633  1
  B  B26  1  0.19841148  0.92126761  0.83429367  1
  B  B27  1  0.88032191  0.92126761  0.83429367  1
  B  B28  1  0.89959319  0.20081262  0.84959495  1
  B  B29  1  0.15187294  0.69625412  0.94390703  1
  B  B30  1  0.15518011  0.15826434  0.96855020  1
  B  B31  1  0.68655555  0.15826434  0.96855020  1
