# generated using pymatgen
data_Li7Mn2(CoO4)3
_symmetry_space_group_name_H-M   'P 1'
_cell_length_a   2.94226750
_cell_length_b   6.54048021
_cell_length_c   12.05990262
_cell_angle_alpha   76.17449980
_cell_angle_beta   90.00000005
_cell_angle_gamma   102.99860843
_symmetry_Int_Tables_number   1
_chemical_formula_structural   Li7Mn2(CoO4)3
_chemical_formula_sum   'Li7 Mn2 Co3 O12'
_cell_volume   219.22586355
_cell_formula_units_Z   1
loop_
 _symmetry_equiv_pos_site_id
 _symmetry_equiv_pos_as_xyz
  1  'x, y, z'
loop_
 _atom_site_type_symbol
 _atom_site_label
 _atom_site_symmetry_multiplicity
 _atom_site_fract_x
 _atom_site_fract_y
 _atom_site_fract_z
 _atom_site_occupancy
  Li  Li0  1  0.33290535  0.66581170  0.42535600  1
  Li  Li1  1  0.66936610  0.33873120  0.59821277  1
  Li  Li2  1  0.99730090  0.99460180  0.73512023  1
  Li  Li3  1  0.33376065  0.66752230  0.90797800  1
  Li  Li4  1  0.67047932  0.34095765  0.07158633  1
  Li  Li5  1  0.99618768  0.99237535  0.26174667  1
  Li  Li6  1  0.33333300  0.66666700  0.66666700  1
  Mn  Mn7  1  0.00228664  0.00457329  0.99954466  1
  Mn  Mn8  1  0.66438036  0.32875971  0.33378834  1
  Co  Co9  1  0.33333300  0.66666700  0.16666700  1
  Co  Co10  1  0.98527951  0.97055901  0.51124340  1
  Co  Co11  1  0.68138749  0.36277399  0.82208960  1
  O  O12  1  0.50502977  0.01005854  0.61253970  1
  O  O13  1  0.82577978  0.65155956  0.79809146  1
  O  O14  1  0.15484359  0.30968818  0.95832859  1
  O  O15  1  0.49983827  0.99967555  0.11104043  1
  O  O16  1  0.82555650  0.65111300  0.28260122  1
  O  O17  1  0.16579435  0.33158970  0.43754760  1
  O  O18  1  0.16682873  0.33365745  0.22229257  1
  O  O19  1  0.51182241  0.02364582  0.37500541  1
  O  O20  1  0.84088722  0.68177344  0.53524154  1
  O  O21  1  0.16163723  0.32327446  0.72079330  1
  O  O22  1  0.50087165  0.00174430  0.89578640  1
  O  O23  1  0.84111050  0.68222000  0.05073178  1
