# generated using pymatgen
data_Ca2CdIn
_symmetry_space_group_name_H-M   'P 1'
_cell_length_a   5.45894758
_cell_length_b   5.45893083
_cell_length_c   5.45892434
_cell_angle_alpha   60.00014864
_cell_angle_beta   60.00026691
_cell_angle_gamma   60.00005270
_symmetry_Int_Tables_number   1
_chemical_formula_structural   Ca2CdIn
_chemical_formula_sum   'Ca2 Cd1 In1'
_cell_volume   115.02973775
_cell_formula_units_Z   1
loop_
 _symmetry_equiv_pos_site_id
 _symmetry_equiv_pos_as_xyz
  1  'x, y, z'
loop_
 _atom_site_type_symbol
 _atom_site_label
 _atom_site_symmetry_multiplicity
 _atom_site_fract_x
 _atom_site_fract_y
 _atom_site_fract_z
 _atom_site_occupancy
  Ca  Ca0  1  0.50000024  0.49999994  0.49999919  1
  Ca  Ca1  1  0.99999990  -0.00000020  0.00000010  1
  Cd  Cd2  1  0.24999899  0.24999983  0.24999849  1
  In  In3  1  0.74999987  0.74999943  0.75000122  1
