# generated using pymatgen
data_Li4MnCo2O7
_symmetry_space_group_name_H-M   'P 1'
_cell_length_a   2.91103847
_cell_length_b   7.77857879
_cell_length_c   11.53044985
_cell_angle_alpha   84.20422147
_cell_angle_beta   97.25194444
_cell_angle_gamma   79.21530757
_symmetry_Int_Tables_number   1
_chemical_formula_structural   Li4MnCo2O7
_chemical_formula_sum   'Li8 Mn2 Co4 O14'
_cell_volume   252.34073180
_cell_formula_units_Z   2
loop_
 _symmetry_equiv_pos_site_id
 _symmetry_equiv_pos_as_xyz
  1  'x, y, z'
loop_
 _atom_site_type_symbol
 _atom_site_label
 _atom_site_symmetry_multiplicity
 _atom_site_fract_x
 _atom_site_fract_y
 _atom_site_fract_z
 _atom_site_occupancy
  Li  Li0  1  0.57142900  0.07142900  0.21428600  1
  Li  Li1  1  0.71478681  0.21462332  0.64419594  1
  Li  Li2  1  0.84618452  0.36970000  0.06206905  1
  Li  Li3  1  0.29667248  0.77315700  0.36650295  1
  Li  Li4  1  0.42807019  0.92823368  0.78437506  1
  Li  Li5  1  0.00433713  0.51053542  0.51920969  1
  Li  Li6  1  0.13851987  0.63232158  0.90936131  1
  Li  Li7  1  0.57142900  0.57142900  0.71428600  1
  Mn  Mn8  1  0.99576230  0.00633686  0.99786147  1
  Mn  Mn9  1  0.14709470  0.13652014  0.43070953  1
  Co  Co10  1  0.26610072  0.30776284  0.83996529  1
  Co  Co11  1  0.42761543  0.43129394  0.28652581  1
  Co  Co12  1  0.71524157  0.71156306  0.14204519  1
  Co  Co13  1  0.87675628  0.83509416  0.58860671  1
  O  O14  1  0.43828659  0.15904306  0.03561524  1
  O  O15  1  0.57984423  0.29866967  0.45835813  1
  O  O16  1  0.71944611  0.45522894  0.89412117  1
  O  O17  1  0.13949332  0.88689072  0.16587835  1
  O  O18  1  0.27756123  0.03345489  0.58857634  1
  O  O19  1  0.85835045  0.59783205  0.31453295  1
  O  O20  1  0.98988598  0.76336405  0.74313701  1
  O  O21  1  0.70457041  0.98381394  0.39295576  1
  O  O22  1  0.86529677  0.10940311  0.83999566  1
  O  O23  1  0.00336368  0.25596628  0.26269265  1
  O  O24  1  0.42341089  0.68762806  0.53444983  1
  O  O25  1  0.56301277  0.84418733  0.97021387  1
  O  O26  1  0.15297102  0.37949295  0.68543499  1
  O  O27  1  0.28450655  0.54502495  0.11403805  1
