# generated using pymatgen
data_NdErIn2
_symmetry_space_group_name_H-M   'P 1'
_cell_length_a   5.40041726
_cell_length_b   5.40040374
_cell_length_c   5.40034005
_cell_angle_alpha   60.00166969
_cell_angle_beta   59.99985754
_cell_angle_gamma   59.99979366
_symmetry_Int_Tables_number   1
_chemical_formula_structural   NdErIn2
_chemical_formula_sum   'Nd1 Er1 In2'
_cell_volume   111.36891552
_cell_formula_units_Z   1
loop_
 _symmetry_equiv_pos_site_id
 _symmetry_equiv_pos_as_xyz
  1  'x, y, z'
loop_
 _atom_site_type_symbol
 _atom_site_label
 _atom_site_symmetry_multiplicity
 _atom_site_fract_x
 _atom_site_fract_y
 _atom_site_fract_z
 _atom_site_occupancy
  Nd  Nd0  1  0.75000811  0.74999926  0.75001015  1
  Er  Er1  1  0.24998638  0.24999524  0.24998317  1
  In  In2  1  0.50000440  0.50000482  0.50000518  1
  In  In3  1  0.00000311  0.00000267  0.00000351  1
