# generated using pymatgen
data_Rb(SbSe2)2
_symmetry_space_group_name_H-M   'P 1'
_cell_length_a   6.89393037
_cell_length_b   7.10480029
_cell_length_c   9.70780843
_cell_angle_alpha   80.00891659
_cell_angle_beta   84.96405135
_cell_angle_gamma   75.35602803
_symmetry_Int_Tables_number   1
_chemical_formula_structural   Rb(SbSe2)2
_chemical_formula_sum   'Rb2 Sb4 Se8'
_cell_volume   452.58421986
_cell_formula_units_Z   2
loop_
 _symmetry_equiv_pos_site_id
 _symmetry_equiv_pos_as_xyz
  1  'x, y, z'
loop_
 _atom_site_type_symbol
 _atom_site_label
 _atom_site_symmetry_multiplicity
 _atom_site_fract_x
 _atom_site_fract_y
 _atom_site_fract_z
 _atom_site_occupancy
  Se  Se0  1  0.21288917  0.84904143  0.88674017  1
  Se  Se1  1  0.78711083  0.15095857  0.11325983  1
  Se  Se2  1  0.30935038  0.93394222  0.26813060  1
  Se  Se3  1  0.69064962  0.06605778  0.73186940  1
  Se  Se4  1  0.40407778  0.58648715  0.59066969  1
  Se  Se5  1  0.59592222  0.41351285  0.40933031  1
  Se  Se6  1  0.08591386  0.48194819  0.21728810  1
  Se  Se7  1  0.91408614  0.51805181  0.78271190  1
  Rb  Rb8  1  0.19216311  0.18127376  0.56729752  1
  Rb  Rb9  1  0.80783689  0.81872624  0.43270248  1
  Sb  Sb10  1  0.85112758  0.81194935  0.95780020  1
  Sb  Sb11  1  0.14887242  0.18805065  0.04219980  1
  Sb  Sb12  1  0.41797604  0.60375332  0.16437247  1
  Sb  Sb13  1  0.58202396  0.39624668  0.83562753  1
