# generated using pymatgen
data_Li4MnCo2O7
_symmetry_space_group_name_H-M   'P 1'
_cell_length_a   2.95586540
_cell_length_b   9.75385803
_cell_length_c   9.72754130
_cell_angle_alpha   64.21979917
_cell_angle_beta   83.16165135
_cell_angle_gamma   92.87749511
_symmetry_Int_Tables_number   1
_chemical_formula_structural   Li4MnCo2O7
_chemical_formula_sum   'Li8 Mn2 Co4 O14'
_cell_volume   249.10837440
_cell_formula_units_Z   2
loop_
 _symmetry_equiv_pos_site_id
 _symmetry_equiv_pos_as_xyz
  1  'x, y, z'
loop_
 _atom_site_type_symbol
 _atom_site_label
 _atom_site_symmetry_multiplicity
 _atom_site_fract_x
 _atom_site_fract_y
 _atom_site_fract_z
 _atom_site_occupancy
  Li  Li0  1  0.92709928  0.20865971  0.15075812  1
  Li  Li1  1  0.21905080  0.34884212  0.57075723  1
  Li  Li2  1  0.50473127  0.50307075  0.99654419  1
  Li  Li3  1  0.77555709  0.64554405  0.43201053  1
  Li  Li4  1  0.07277268  0.78822860  0.85569580  1
  Li  Li5  1  0.33517001  0.92662947  0.29272382  1
  Li  Li6  1  0.65446114  0.07789123  0.69919867  1
  Li  Li7  1  0.26510655  0.14580815  0.43584822  1
  Mn  Mn8  1  0.00336626  0.99569650  0.00185609  1
  Mn  Mn9  1  0.85035278  0.42196992  0.29067853  1
  Co  Co10  1  0.56942190  0.29030994  0.85412165  1
  Co  Co11  1  0.15394095  0.57507111  0.71188424  1
  Co  Co12  1  0.44443856  0.71069544  0.14190907  1
  Co  Co13  1  0.70502990  0.86751343  0.56683752  1
  O  O14  1  0.42954396  0.11067041  0.06560531  1
  O  O15  1  0.74948143  0.26471295  0.48558718  1
  O  O16  1  0.05400966  0.40292304  0.91248413  1
  O  O17  1  0.34517188  0.53142866  0.33989763  1
  O  O18  1  0.57976800  0.68783626  0.76562073  1
  O  O19  1  0.93376130  0.80794494  0.20199167  1
  O  O20  1  0.13993421  0.95474430  0.63794150  1
  O  O21  1  0.36938047  0.33679701  0.22044808  1
  O  O22  1  0.73282763  0.46523647  0.65280265  1
  O  O23  1  0.95439685  0.61158414  0.08613143  1
  O  O24  1  0.26149494  0.74511087  0.51346903  1
  O  O25  1  0.56952631  0.88564403  0.94194039  1
  O  O26  1  0.80619745  0.01220521  0.37672808  1
  O  O27  1  0.09400675  0.17723128  0.79852850  1
