# generated using pymatgen
data_Ca3Fe2O7
_symmetry_space_group_name_H-M   'P 1'
_cell_length_a   5.42617897
_cell_length_b   5.40861764
_cell_length_c   10.10412183
_cell_angle_alpha   105.52412091
_cell_angle_beta   90.00000000
_cell_angle_gamma   90.00000000
_symmetry_Int_Tables_number   1
_chemical_formula_structural   Ca3Fe2O7
_chemical_formula_sum   'Ca6 Fe4 O14'
_cell_volume   285.71874822
_cell_formula_units_Z   2
loop_
 _symmetry_equiv_pos_site_id
 _symmetry_equiv_pos_as_xyz
  1  'x, y, z'
loop_
 _atom_site_type_symbol
 _atom_site_label
 _atom_site_symmetry_multiplicity
 _atom_site_fract_x
 _atom_site_fract_y
 _atom_site_fract_z
 _atom_site_occupancy
  Ca  Ca0  1  0.71075859  0.75642384  0.00000000  1
  Ca  Ca1  1  0.21075859  0.24357616  1.00000000  1
  Ca  Ca2  1  0.78489790  0.57414747  0.62730012  1
  Ca  Ca3  1  0.28489790  0.42585253  0.37269988  1
  Ca  Ca4  1  0.78489790  0.94684636  0.37269988  1
  Ca  Ca5  1  0.28489790  0.05315364  0.62730012  1
  Fe  Fe6  1  0.75082125  0.34985731  0.19783440  1
  Fe  Fe7  1  0.25082125  0.65014269  0.80216560  1
  Fe  Fe8  1  0.25082125  0.84797709  0.19783440  1
  Fe  Fe9  1  0.75082125  0.15202291  0.80216560  1
  O  O10  1  0.73739449  0.99811488  0.60432640  1
  O  O11  1  0.23739449  0.00188512  0.39567360  1
  O  O12  1  0.23739449  0.60621052  0.60432640  1
  O  O13  1  0.73739449  0.39378948  0.39567360  1
  O  O14  1  0.03468680  0.35460770  0.77871079  1
  O  O15  1  0.53468680  0.64539230  0.22128921  1
  O  O16  1  0.53468680  0.42410309  0.77871079  1
  O  O17  1  0.03468680  0.57589691  0.22128921  1
  O  O18  1  0.96486228  0.88110618  0.83168061  1
  O  O19  1  0.46486228  0.11889382  0.16831939  1
  O  O20  1  0.76391796  0.31854301  1.00000000  1
  O  O21  1  0.26391796  0.68145699  0.00000000  1
  O  O22  1  0.96486228  0.04942558  0.16831939  1
  O  O23  1  0.46486228  0.95057442  0.83168061  1
