# generated using pymatgen
data_CaFe2F10
_symmetry_space_group_name_H-M   'P 1'
_cell_length_a   5.51980516
_cell_length_b   7.76230081
_cell_length_c   9.99670396
_cell_angle_alpha   90.00000000
_cell_angle_beta   90.00000000
_cell_angle_gamma   110.28130874
_symmetry_Int_Tables_number   1
_chemical_formula_structural   CaFe2F10
_chemical_formula_sum   'Ca2 Fe4 F20'
_cell_volume   401.76753620
_cell_formula_units_Z   2
loop_
 _symmetry_equiv_pos_site_id
 _symmetry_equiv_pos_as_xyz
  1  'x, y, z'
loop_
 _atom_site_type_symbol
 _atom_site_label
 _atom_site_symmetry_multiplicity
 _atom_site_fract_x
 _atom_site_fract_y
 _atom_site_fract_z
 _atom_site_occupancy
  Ca  Ca0  1  0.52914863  0.75417596  0.51660335  1
  Ca  Ca1  1  0.52914863  0.25417596  0.98339665  1
  Fe  Fe2  1  0.88623229  0.59978860  0.75613444  1
  Fe  Fe3  1  0.11735882  0.90179754  0.25119747  1
  Fe  Fe4  1  0.11735882  0.40179754  0.24880253  1
  Fe  Fe5  1  0.88623229  0.09978860  0.74386556  1
  F  F6  1  0.61784687  0.54794181  0.87556055  1
  F  F7  1  0.38062071  0.92949321  0.37013669  1
  F  F8  1  0.38062071  0.42949321  0.12986331  1
  F  F9  1  0.61784687  0.04794181  0.62443945  1
  F  F10  1  0.65590361  0.51531893  0.62058674  1
  F  F11  1  0.35217296  0.00403176  0.11622145  1
  F  F12  1  0.35217296  0.50403176  0.38377855  1
  F  F13  1  0.65590361  0.01531893  0.87941326  1
  F  F14  1  0.88917560  0.81287812  0.39209930  1
  F  F15  1  0.10777727  0.69068280  0.88612557  1
  F  F16  1  0.10777727  0.19068280  0.61387443  1
  F  F17  1  0.88917560  0.31287812  0.10790070  1
  F  F18  1  0.85661423  0.86843052  0.14122373  1
  F  F19  1  0.15572235  0.63489740  0.63930998  1
  F  F20  1  0.15572235  0.13489740  0.86069002  1
  F  F21  1  0.85661423  0.36843052  0.35877627  1
  F  F22  1  0.85377248  0.83909758  0.69844460  1
  F  F23  1  0.12680018  0.65600376  0.20823185  1
  F  F24  1  0.12680018  0.15600376  0.29176815  1
  F  F25  1  0.85377248  0.33909758  0.80155540  1
