# generated using pymatgen
data_SmP5
_symmetry_space_group_name_H-M   'P 1'
_cell_length_a   5.01287410
_cell_length_b   5.42726390
_cell_length_c   9.53905417
_cell_angle_alpha   90.00000000
_cell_angle_beta   90.00000000
_cell_angle_gamma   102.09736059
_symmetry_Int_Tables_number   1
_chemical_formula_structural   SmP5
_chemical_formula_sum   'Sm2 P10'
_cell_volume   253.75810798
_cell_formula_units_Z   2
loop_
 _symmetry_equiv_pos_site_id
 _symmetry_equiv_pos_as_xyz
  1  'x, y, z'
loop_
 _atom_site_type_symbol
 _atom_site_label
 _atom_site_symmetry_multiplicity
 _atom_site_fract_x
 _atom_site_fract_y
 _atom_site_fract_z
 _atom_site_occupancy
  P  P0  1  0.28420924  0.89735938  0.25000000  1
  P  P1  1  0.71579076  0.10264062  0.75000000  1
  P  P2  1  0.61567236  0.95358012  0.40868807  1
  P  P3  1  0.38432764  0.04641988  0.90868807  1
  P  P4  1  0.38432764  0.04641988  0.59131193  1
  P  P5  1  0.61567236  0.95358012  0.09131193  1
  P  P6  1  0.71000382  0.59621910  0.47060386  1
  P  P7  1  0.28999618  0.40378090  0.97060386  1
  P  P8  1  0.28999618  0.40378090  0.52939614  1
  P  P9  1  0.71000382  0.59621910  0.02939614  1
  Sm  Sm10  1  0.00694398  0.34760308  0.25000000  1
  Sm  Sm11  1  0.99305602  0.65239692  0.75000000  1
