# generated using pymatgen
data_CaNiF5
_symmetry_space_group_name_H-M   'P 1'
_cell_length_a   5.50263477
_cell_length_b   7.69841591
_cell_length_c   10.06572244
_cell_angle_alpha   90.00000000
_cell_angle_beta   90.00000000
_cell_angle_gamma   110.24605105
_symmetry_Int_Tables_number   1
_chemical_formula_structural   CaNiF5
_chemical_formula_sum   'Ca4 Ni4 F20'
_cell_volume   400.05478474
_cell_formula_units_Z   4
loop_
 _symmetry_equiv_pos_site_id
 _symmetry_equiv_pos_as_xyz
  1  'x, y, z'
loop_
 _atom_site_type_symbol
 _atom_site_label
 _atom_site_symmetry_multiplicity
 _atom_site_fract_x
 _atom_site_fract_y
 _atom_site_fract_z
 _atom_site_occupancy
  Ca  Ca0  1  0.46712908  0.74339249  0.02159308  1
  Ca  Ca1  1  0.53287092  0.75660751  0.52159308  1
  Ca  Ca2  1  0.53287092  0.25660751  0.97840692  1
  Ca  Ca3  1  0.46712908  0.24339249  0.47840692  1
  Ni  Ni4  1  0.89029526  0.59880948  0.75300700  1
  Ni  Ni5  1  0.10970474  0.90119052  0.25300700  1
  Ni  Ni6  1  0.10970474  0.40119052  0.24699300  1
  Ni  Ni7  1  0.89029526  0.09880948  0.74699300  1
  F  F8  1  0.61322946  0.55635591  0.87992965  1
  F  F9  1  0.38677054  0.94364409  0.37992965  1
  F  F10  1  0.38677054  0.44364409  0.12007035  1
  F  F11  1  0.61322946  0.05635591  0.62007035  1
  F  F12  1  0.64457235  0.50580992  0.61410954  1
  F  F13  1  0.35542765  0.99419008  0.11410954  1
  F  F14  1  0.35542765  0.49419008  0.38589046  1
  F  F15  1  0.64457235  0.00580992  0.88589046  1
  F  F16  1  0.88322861  0.81140954  0.39349509  1
  F  F17  1  0.11677139  0.68859046  0.89349509  1
  F  F18  1  0.11677139  0.18859046  0.60650491  1
  F  F19  1  0.88322861  0.31140954  0.10650491  1
  F  F20  1  0.83537572  0.86138104  0.13728236  1
  F  F21  1  0.16462428  0.63861896  0.63728236  1
  F  F22  1  0.16462428  0.13861896  0.86271764  1
  F  F23  1  0.83537572  0.36138104  0.36271764  1
  F  F24  1  0.85001386  0.83791936  0.70127514  1
  F  F25  1  0.14998614  0.66208064  0.20127514  1
  F  F26  1  0.14998614  0.16208064  0.29872486  1
  F  F27  1  0.85001386  0.33791936  0.79872486  1
