# generated using pymatgen
data_Ca(CoO2)4
_symmetry_space_group_name_H-M   'P 1'
_cell_length_a   6.38433234
_cell_length_b   6.38433217
_cell_length_c   6.38433294
_cell_angle_alpha   52.42655857
_cell_angle_beta   52.42655491
_cell_angle_gamma   52.42655923
_symmetry_Int_Tables_number   1
_chemical_formula_structural   Ca(CoO2)4
_chemical_formula_sum   'Ca1 Co4 O8'
_cell_volume   151.28345070
_cell_formula_units_Z   1
loop_
 _symmetry_equiv_pos_site_id
 _symmetry_equiv_pos_as_xyz
  1  'x, y, z'
loop_
 _atom_site_type_symbol
 _atom_site_label
 _atom_site_symmetry_multiplicity
 _atom_site_fract_x
 _atom_site_fract_y
 _atom_site_fract_z
 _atom_site_occupancy
  Ca  Ca0  1  0.50000000  0.50000100  0.49999900  1
  Co  Co1  1  0.50000100  0.99999900  0.50000100  1
  Co  Co2  1  0.99999900  0.50000000  0.50000100  1
  Co  Co3  1  0.50000000  0.50000000  0.00000000  1
  Co  Co4  1  0.00000000  0.00000000  0.00000000  1
  O  O5  1  0.77276259  0.27561330  0.77276259  1
  O  O6  1  0.22723641  0.22723741  0.72438670  1
  O  O7  1  0.22723641  0.72438770  0.22723641  1
  O  O8  1  0.72438570  0.22723741  0.22723741  1
  O  O9  1  0.27721250  0.27721350  0.27721250  1
  O  O10  1  0.72278750  0.72278750  0.72278750  1
  O  O11  1  0.27561430  0.77276359  0.77276259  1
  O  O12  1  0.77276359  0.77276359  0.27561330  1
