# generated using pymatgen
data_Rb2MgSi5O12
_symmetry_space_group_name_H-M   'P 1'
_cell_length_a   13.72487303
_cell_length_b   13.92872161
_cell_length_c   13.64715308
_cell_angle_alpha   90.00000000
_cell_angle_beta   90.00000000
_cell_angle_gamma   90.00000000
_symmetry_Int_Tables_number   1
_chemical_formula_structural   Rb2MgSi5O12
_chemical_formula_sum   'Rb16 Mg8 Si40 O96'
_cell_volume   2608.92537498
_cell_formula_units_Z   8
loop_
 _symmetry_equiv_pos_site_id
 _symmetry_equiv_pos_as_xyz
  1  'x, y, z'
loop_
 _atom_site_type_symbol
 _atom_site_label
 _atom_site_symmetry_multiplicity
 _atom_site_fract_x
 _atom_site_fract_y
 _atom_site_fract_z
 _atom_site_occupancy
  Rb  Rb0  1  0.63852928  0.14432510  0.34673202  1
  Rb  Rb1  1  0.13852928  0.35567490  0.65326798  1
  Rb  Rb2  1  0.36147072  0.64432510  0.15326798  1
  Rb  Rb3  1  0.86147072  0.85567490  0.84673202  1
  Rb  Rb4  1  0.36147072  0.85567490  0.65326798  1
  Rb  Rb5  1  0.86147072  0.64432510  0.34673202  1
  Rb  Rb6  1  0.63852928  0.35567490  0.84673202  1
  Rb  Rb7  1  0.13852928  0.14432510  0.15326798  1
  Rb  Rb8  1  0.89639326  0.40976594  0.10794895  1
  Rb  Rb9  1  0.39639326  0.09023406  0.89205105  1
  Rb  Rb10  1  0.10360674  0.90976594  0.39205105  1
  Rb  Rb11  1  0.60360674  0.59023406  0.60794895  1
  Rb  Rb12  1  0.10360674  0.59023406  0.89205105  1
  Rb  Rb13  1  0.60360674  0.90976594  0.10794895  1
  Rb  Rb14  1  0.89639326  0.09023406  0.60794895  1
  Rb  Rb15  1  0.39639326  0.40976594  0.39205105  1
  Mg  Mg16  1  0.87405192  0.83428467  0.56025343  1
  Mg  Mg17  1  0.37405192  0.66571533  0.43974657  1
  Mg  Mg18  1  0.12594808  0.33428467  0.93974657  1
  Mg  Mg19  1  0.62594808  0.16571533  0.06025343  1
  Mg  Mg20  1  0.12594808  0.16571533  0.43974657  1
  Mg  Mg21  1  0.62594808  0.33428467  0.56025343  1
  Mg  Mg22  1  0.87405192  0.66571533  0.06025343  1
  Mg  Mg23  1  0.37405192  0.83428467  0.93974657  1
  Si  Si24  1  0.62208391  0.66288131  0.89288755  1
  Si  Si25  1  0.12208391  0.83711869  0.10711245  1
  Si  Si26  1  0.37791609  0.16288131  0.60711245  1
  Si  Si27  1  0.87791609  0.33711869  0.39288755  1
  Si  Si28  1  0.37791609  0.33711869  0.10711245  1
  Si  Si29  1  0.87791609  0.16288131  0.89288755  1
  Si  Si30  1  0.62208391  0.83711869  0.39288755  1
  Si  Si31  1  0.12208391  0.66288131  0.60711245  1
  Si  Si32  1  0.09653475  0.11340556  0.87374867  1
  Si  Si33  1  0.59653475  0.38659444  0.12625133  1
  Si  Si34  1  0.90346525  0.61340556  0.62625133  1
  Si  Si35  1  0.40346525  0.88659444  0.37374867  1
  Si  Si36  1  0.90346525  0.88659444  0.12625133  1
  Si  Si37  1  0.40346525  0.61340556  0.87374867  1
  Si  Si38  1  0.09653475  0.38659444  0.37374867  1
  Si  Si39  1  0.59653475  0.11340556  0.62625133  1
  Si  Si40  1  0.15150556  0.59959526  0.39614427  1
  Si  Si41  1  0.65150556  0.90040474  0.60385573  1
  Si  Si42  1  0.84849444  0.09959526  0.10385573  1
  Si  Si43  1  0.34849444  0.40040474  0.89614427  1
  Si  Si44  1  0.84849444  0.40040474  0.60385573  1
  Si  Si45  1  0.34849444  0.09959526  0.39614427  1
  Si  Si46  1  0.15150556  0.90040474  0.89614427  1
  Si  Si47  1  0.65150556  0.59959526  0.10385573  1
  Si  Si48  1  0.41189503  0.36795333  0.68511050  1
  Si  Si49  1  0.91189503  0.13204667  0.31488950  1
  Si  Si50  1  0.58810497  0.86795333  0.81488950  1
  Si  Si51  1  0.08810497  0.63204667  0.18511050  1
  Si  Si52  1  0.58810497  0.63204667  0.31488950  1
  Si  Si53  1  0.08810497  0.86795333  0.68511050  1
  Si  Si54  1  0.41189503  0.13204667  0.18511050  1
  Si  Si55  1  0.91189503  0.36795333  0.81488950  1
  Si  Si56  1  0.32444671  0.92747945  0.15724496  1
  Si  Si57  1  0.82444671  0.57252055  0.84275504  1
  Si  Si58  1  0.67555329  0.42747945  0.34275504  1
  Si  Si59  1  0.17555329  0.07252055  0.65724496  1
  Si  Si60  1  0.67555329  0.07252055  0.84275504  1
  Si  Si61  1  0.17555329  0.42747945  0.15724496  1
  Si  Si62  1  0.32444671  0.57252055  0.65724496  1
  Si  Si63  1  0.82444671  0.92747945  0.34275504  1
  O  O64  1  0.97884802  0.37756673  0.34511704  1
  O  O65  1  0.47884802  0.12243327  0.65488296  1
  O  O66  1  0.02115198  0.87756673  0.15488296  1
  O  O67  1  0.52115198  0.62243327  0.84511704  1
  O  O68  1  0.02115198  0.62243327  0.65488296  1
  O  O69  1  0.52115198  0.87756673  0.34511704  1
  O  O70  1  0.97884802  0.12243327  0.84511704  1
  O  O71  1  0.47884802  0.37756673  0.15488296  1
  O  O72  1  0.61195849  0.49186980  0.07400579  1
  O  O73  1  0.11195849  0.00813020  0.92599421  1
  O  O74  1  0.38804151  0.99186980  0.42599421  1
  O  O75  1  0.88804151  0.50813020  0.57400579  1
  O  O76  1  0.38804151  0.50813020  0.92599421  1
  O  O77  1  0.88804151  0.99186980  0.07400579  1
  O  O78  1  0.61195849  0.00813020  0.57400579  1
  O  O79  1  0.11195849  0.49186980  0.42599421  1
  O  O80  1  0.88169755  0.17097941  0.01205917  1
  O  O81  1  0.38169755  0.32902059  0.98794083  1
  O  O82  1  0.11830245  0.67097941  0.48794083  1
  O  O83  1  0.61830245  0.82902059  0.51205917  1
  O  O84  1  0.11830245  0.82902059  0.98794083  1
  O  O85  1  0.61830245  0.67097941  0.01205917  1
  O  O86  1  0.88169755  0.32902059  0.51205917  1
  O  O87  1  0.38169755  0.17097941  0.48794083  1
  O  O88  1  0.23463696  0.39798302  0.87399800  1
  O  O89  1  0.73463696  0.10201698  0.12600200  1
  O  O90  1  0.76536304  0.89798302  0.62600200  1
  O  O91  1  0.26536304  0.60201698  0.37399800  1
  O  O92  1  0.76536304  0.60201698  0.12600200  1
  O  O93  1  0.26536304  0.89798302  0.87399800  1
  O  O94  1  0.23463696  0.10201698  0.37399800  1
  O  O95  1  0.73463696  0.39798302  0.62600200  1
  O  O96  1  0.14720113  0.72994527  0.14901965  1
  O  O97  1  0.64720113  0.77005473  0.85098035  1
  O  O98  1  0.85279887  0.22994527  0.35098035  1
  O  O99  1  0.35279887  0.27005473  0.64901965  1
  O  O100  1  0.85279887  0.27005473  0.85098035  1
  O  O101  1  0.35279887  0.22994527  0.14901965  1
  O  O102  1  0.14720113  0.77005473  0.64901965  1
  O  O103  1  0.64720113  0.72994527  0.35098035  1
  O  O104  1  0.84715570  0.61423401  0.73260896  1
  O  O105  1  0.34715570  0.88576599  0.26739104  1
  O  O106  1  0.15284430  0.11423401  0.76739104  1
  O  O107  1  0.65284430  0.38576599  0.23260896  1
  O  O108  1  0.15284430  0.38576599  0.26739104  1
  O  O109  1  0.65284430  0.11423401  0.73260896  1
  O  O110  1  0.84715570  0.88576599  0.23260896  1
  O  O111  1  0.34715570  0.61423401  0.76739104  1
  O  O112  1  0.48353784  0.88222349  0.86253543  1
  O  O113  1  0.98353784  0.61777651  0.13746457  1
  O  O114  1  0.51646216  0.38222349  0.63746457  1
  O  O115  1  0.01646216  0.11777651  0.36253543  1
  O  O116  1  0.51646216  0.11777651  0.13746457  1
  O  O117  1  0.01646216  0.38222349  0.86253543  1
  O  O118  1  0.48353784  0.61777651  0.36253543  1
  O  O119  1  0.98353784  0.88222349  0.63746457  1
  O  O120  1  0.16537187  0.95427610  0.65639885  1
  O  O121  1  0.66537187  0.54572390  0.34360115  1
  O  O122  1  0.83462813  0.45427610  0.84360115  1
  O  O123  1  0.33462813  0.04572390  0.15639885  1
  O  O124  1  0.83462813  0.04572390  0.34360115  1
  O  O125  1  0.33462813  0.45427610  0.65639885  1
  O  O126  1  0.16537187  0.54572390  0.15639885  1
  O  O127  1  0.66537187  0.95427610  0.84360115  1
  O  O128  1  0.38979792  0.62332246  0.57587567  1
  O  O129  1  0.88979792  0.87667754  0.42412433  1
  O  O130  1  0.61020208  0.12332246  0.92412433  1
  O  O131  1  0.11020208  0.37667754  0.07587567  1
  O  O132  1  0.61020208  0.37667754  0.42412433  1
  O  O133  1  0.11020208  0.12332246  0.57587567  1
  O  O134  1  0.38979792  0.87667754  0.07587567  1
  O  O135  1  0.88979792  0.62332246  0.92412433  1
  O  O136  1  0.70545519  0.91262718  0.35689584  1
  O  O137  1  0.20545519  0.58737282  0.64310416  1
  O  O138  1  0.29454481  0.41262718  0.14310416  1
  O  O139  1  0.79454481  0.08737282  0.85689584  1
  O  O140  1  0.29454481  0.08737282  0.64310416  1
  O  O141  1  0.79454481  0.41262718  0.35689584  1
  O  O142  1  0.70545519  0.58737282  0.85689584  1
  O  O143  1  0.20545519  0.91262718  0.14310416  1
  O  O144  1  0.63404654  0.19578831  0.55523142  1
  O  O145  1  0.13404654  0.30421169  0.44476858  1
  O  O146  1  0.36595346  0.69578831  0.94476858  1
  O  O147  1  0.86595346  0.80421169  0.05523142  1
  O  O148  1  0.36595346  0.80421169  0.44476858  1
  O  O149  1  0.86595346  0.69578831  0.55523142  1
  O  O150  1  0.63404654  0.30421169  0.05523142  1
  O  O151  1  0.13404654  0.19578831  0.94476858  1
  O  O152  1  0.41877372  0.13912325  0.30573301  1
  O  O153  1  0.91877372  0.36087675  0.69426699  1
  O  O154  1  0.58122628  0.63912325  0.19426699  1
  O  O155  1  0.08122628  0.86087675  0.80573301  1
  O  O156  1  0.58122628  0.86087675  0.69426699  1
  O  O157  1  0.08122628  0.63912325  0.30573301  1
  O  O158  1  0.41877372  0.36087675  0.80573301  1
  O  O159  1  0.91877372  0.13912325  0.19426699  1
