# generated using pymatgen
data_Li4MnCo2O7
_symmetry_space_group_name_H-M   'P 1'
_cell_length_a   2.90958287
_cell_length_b   10.66501952
_cell_length_c   8.41677149
_cell_angle_alpha   78.26577383
_cell_angle_beta   90.00000000
_cell_angle_gamma   82.15996820
_symmetry_Int_Tables_number   1
_chemical_formula_structural   Li4MnCo2O7
_chemical_formula_sum   'Li8 Mn2 Co4 O14'
_cell_volume   253.22664161
_cell_formula_units_Z   2
loop_
 _symmetry_equiv_pos_site_id
 _symmetry_equiv_pos_as_xyz
  1  'x, y, z'
loop_
 _atom_site_type_symbol
 _atom_site_label
 _atom_site_symmetry_multiplicity
 _atom_site_fract_x
 _atom_site_fract_y
 _atom_site_fract_z
 _atom_site_occupancy
  Li  Li0  1  0.42850672  0.14298556  0.21917392  1
  Li  Li1  1  0.28960765  0.42078371  0.63616913  1
  Li  Li2  1  0.14441889  0.71116221  0.07581710  1
  Li  Li3  1  0.99569427  0.00861145  0.51445399  1
  Li  Li4  1  0.86058966  0.27882068  0.91452814  1
  Li  Li5  1  0.71453191  0.57093719  0.35790734  1
  Li  Li6  1  0.56489746  0.87020608  0.78184109  1
  Li  Li7  1  0.43008610  0.13982681  0.71227957  1
  Mn  Mn8  1  0.99854486  0.00291028  0.98743690  1
  Mn  Mn9  1  0.71464472  0.57071156  0.85921963  1
  Co  Co10  1  0.86098746  0.27802508  0.45568392  1
  Co  Co11  1  0.57055736  0.85888628  0.28365112  1
  Co  Co12  1  0.28989382  0.42021135  0.15533865  1
  Co  Co13  1  0.14111298  0.71777404  0.56952099  1
  O  O14  1  0.43644295  0.12711410  0.96848562  1
  O  O15  1  0.28822408  0.42355184  0.38742910  1
  O  O16  1  0.15203182  0.69593736  0.83227400  1
  O  O17  1  0.00510476  0.98979148  0.23499075  1
  O  O18  1  0.85515630  0.28968640  0.66637135  1
  O  O19  1  0.71926166  0.56147568  0.09226908  1
  O  O20  1  0.57676684  0.84646631  0.53198277  1
  O  O21  1  0.42488089  0.15023821  0.45972953  1
  O  O22  1  0.27775280  0.44449540  0.88708469  1
  O  O23  1  0.13760204  0.72479692  0.31604784  1
  O  O24  1  0.00137375  0.99725149  0.77054782  1
  O  O25  1  0.85145274  0.29709352  0.17574893  1
  O  O26  1  0.70623022  0.58753955  0.62173283  1
  O  O27  1  0.56364529  0.87270943  0.03228419  1
