# generated using pymatgen
data_Ba2NaO
_symmetry_space_group_name_H-M   'P 1'
_cell_length_a   6.67237964
_cell_length_b   6.97787722
_cell_length_c   8.46858219
_cell_angle_alpha   90.00000000
_cell_angle_beta   113.20044444
_cell_angle_gamma   90.00000000
_symmetry_Int_Tables_number   1
_chemical_formula_structural   Ba2NaO
_chemical_formula_sum   'Ba4 Na2 O2'
_cell_volume   362.40384730
_cell_formula_units_Z   2
loop_
 _symmetry_equiv_pos_site_id
 _symmetry_equiv_pos_as_xyz
  1  'x, y, z'
loop_
 _atom_site_type_symbol
 _atom_site_label
 _atom_site_symmetry_multiplicity
 _atom_site_fract_x
 _atom_site_fract_y
 _atom_site_fract_z
 _atom_site_occupancy
  Ba  Ba0  1  0.41350625  0.19367461  0.82701250  1
  Ba  Ba1  1  0.58649375  0.80632539  0.17298750  1
  Ba  Ba2  1  0.91350625  0.80632539  0.82701250  1
  Ba  Ba3  1  0.08649375  0.19367461  0.17298750  1
  Na  Na4  1  0.25000000  0.68793321  0.50000000  1
  Na  Na5  1  0.75000000  0.31206679  0.50000000  1
  O  O6  1  0.25000000  -0.00000000  -0.00000000  1
  O  O7  1  0.75000000  -0.00000000  0.00000000  1
