# generated using pymatgen
data_CeGa2Ni
_symmetry_space_group_name_H-M   'P 1'
_cell_length_a   4.12758033
_cell_length_b   4.17279369
_cell_length_c   8.92672468
_cell_angle_alpha   103.51646280
_cell_angle_beta   90.00000000
_cell_angle_gamma   90.00000000
_symmetry_Int_Tables_number   1
_chemical_formula_structural   CeGa2Ni
_chemical_formula_sum   'Ce2 Ga4 Ni2'
_cell_volume   149.49137135
_cell_formula_units_Z   2
loop_
 _symmetry_equiv_pos_site_id
 _symmetry_equiv_pos_as_xyz
  1  'x, y, z'
loop_
 _atom_site_type_symbol
 _atom_site_label
 _atom_site_symmetry_multiplicity
 _atom_site_fract_x
 _atom_site_fract_y
 _atom_site_fract_z
 _atom_site_occupancy
  Ce  Ce0  1  0.50000000  0.64122907  0.28245814  1
  Ce  Ce1  1  0.50000000  0.35877093  0.71754186  1
  Ga  Ga2  1  0.00000000  0.79042736  0.58085472  1
  Ga  Ga3  1  0.00000000  0.20957264  0.41914528  1
  Ga  Ga4  1  0.50000000  -0.00000000  -0.00000000  1
  Ga  Ga5  1  -0.00000000  0.50000000  -0.00000000  1
  Ni  Ni6  1  -0.00000000  0.92674951  0.85349902  1
  Ni  Ni7  1  0.00000000  0.07325049  0.14650098  1
