# generated using pymatgen
data_HoGa2Ni
_symmetry_space_group_name_H-M   'P 1'
_cell_length_a   4.11548278
_cell_length_b   5.45900616
_cell_length_c   6.64266271
_cell_angle_alpha   90.00000000
_cell_angle_beta   90.00000000
_cell_angle_gamma   112.14453035
_symmetry_Int_Tables_number   1
_chemical_formula_structural   HoGa2Ni
_chemical_formula_sum   'Ho2 Ga4 Ni2'
_cell_volume   138.22869472
_cell_formula_units_Z   2
loop_
 _symmetry_equiv_pos_site_id
 _symmetry_equiv_pos_as_xyz
  1  'x, y, z'
loop_
 _atom_site_type_symbol
 _atom_site_label
 _atom_site_symmetry_multiplicity
 _atom_site_fract_x
 _atom_site_fract_y
 _atom_site_fract_z
 _atom_site_occupancy
  Ho  Ho0  1  0.42803272  0.85606544  0.25000000  1
  Ho  Ho1  1  0.57196728  0.14393456  0.75000000  1
  Ga  Ga2  1  0.14421973  0.28843946  0.44572479  1
  Ga  Ga3  1  0.85578027  0.71156054  0.55427521  1
  Ga  Ga4  1  0.14421973  0.28843946  0.05427521  1
  Ga  Ga5  1  0.85578027  0.71156054  0.94572479  1
  Ni  Ni6  1  0.70939001  0.41878002  0.25000000  1
  Ni  Ni7  1  0.29060999  0.58121998  0.75000000  1
