# generated using pymatgen
data_Li4MnCo2O7
_symmetry_space_group_name_H-M   'P 1'
_cell_length_a   2.93144248
_cell_length_b   9.87671759
_cell_length_c   9.78277296
_cell_angle_alpha   114.47053806
_cell_angle_beta   90.00000000
_cell_angle_gamma   98.53431150
_symmetry_Int_Tables_number   1
_chemical_formula_structural   Li4MnCo2O7
_chemical_formula_sum   'Li8 Mn2 Co4 O14'
_cell_volume   254.34882188
_cell_formula_units_Z   2
loop_
 _symmetry_equiv_pos_site_id
 _symmetry_equiv_pos_as_xyz
  1  'x, y, z'
loop_
 _atom_site_type_symbol
 _atom_site_label
 _atom_site_symmetry_multiplicity
 _atom_site_fract_x
 _atom_site_fract_y
 _atom_site_fract_z
 _atom_site_occupancy
  Li  Li0  1  0.63986210  0.27972420  0.07433589  1
  Li  Li1  1  0.93965628  0.87931355  0.23102309  1
  Li  Li2  1  0.20220459  0.40440818  0.35645566  1
  Li  Li3  1  0.50626899  0.01253799  0.50479508  1
  Li  Li4  1  0.77844415  0.55688931  0.63628978  1
  Li  Li5  1  0.07225591  0.14451081  0.77866046  1
  Li  Li6  1  0.35748871  0.71497741  0.92127532  1
  Li  Li7  1  0.57347489  0.14694878  0.28664569  1
  Mn  Mn8  1  0.00407424  0.00814849  0.01087687  1
  Mn  Mn9  1  0.28521922  0.57043944  0.13933009  1
  Co  Co10  1  0.85788992  0.71577985  0.43218135  1
  Co  Co11  1  0.13578680  0.27157360  0.54749451  1
  Co  Co12  1  0.42824649  0.85649399  0.71649300  1
  Co  Co13  1  0.71007800  0.42015501  0.84125547  1
  O  O14  1  0.52972475  0.05945050  0.90264098  1
  O  O15  1  0.81662411  0.63324721  0.04661212  1
  O  O16  1  0.09860747  0.19721493  0.16249473  1
  O  O17  1  0.38378927  0.76757854  0.31700756  1
  O  O18  1  0.67705981  0.35412063  0.46797186  1
  O  O19  1  0.95913546  0.91826992  0.61309485  1
  O  O20  1  0.24864198  0.49728396  0.75571036  1
  O  O21  1  0.75622999  0.51245997  0.23857973  1
  O  O22  1  0.03927649  0.07855398  0.40752447  1
  O  O23  1  0.32726271  0.65452441  0.53098499  1
  O  O24  1  0.61322943  0.22645887  0.68852199  1
  O  O25  1  0.90159515  0.80319030  0.82536209  1
  O  O26  1  0.19013623  0.38027346  0.97230496  1
  O  O27  1  0.46773685  0.93547269  0.09407706  1
