# generated using pymatgen
data_Sc3NiC4
_symmetry_space_group_name_H-M   'P 1'
_cell_length_a   3.45198187
_cell_length_b   4.37252301
_cell_length_c   6.56902300
_cell_angle_alpha   109.43965089
_cell_angle_beta   105.23312063
_cell_angle_gamma   90.00000000
_symmetry_Int_Tables_number   1
_chemical_formula_structural   Sc3NiC4
_chemical_formula_sum   'Sc3 Ni1 C4'
_cell_volume   89.79683104
_cell_formula_units_Z   1
loop_
 _symmetry_equiv_pos_site_id
 _symmetry_equiv_pos_as_xyz
  1  'x, y, z'
loop_
 _atom_site_type_symbol
 _atom_site_label
 _atom_site_symmetry_multiplicity
 _atom_site_fract_x
 _atom_site_fract_y
 _atom_site_fract_z
 _atom_site_occupancy
  Sc  Sc0  1  0.68710929  0.18710929  0.37421859  1
  Sc  Sc1  1  0.31289071  0.81289071  0.62578141  1
  Sc  Sc2  1  0.50000000  0.50000000  0.00000000  1
  Ni  Ni3  1  0.00000000  0.00000000  0.00000000  1
  C  C4  1  0.12416383  0.45780737  0.24832765  1
  C  C5  1  0.87583617  0.54219263  0.75167235  1
  C  C6  1  0.12416383  0.79052028  0.24832765  1
  C  C7  1  0.87583617  0.20947972  0.75167235  1
