# generated using pymatgen
data_TmGa2Ni
_symmetry_space_group_name_H-M   'P 1'
_cell_length_a   4.10606394
_cell_length_b   5.38252048
_cell_length_c   6.65175288
_cell_angle_alpha   90.00000000
_cell_angle_beta   90.00000000
_cell_angle_gamma   112.42202559
_symmetry_Int_Tables_number   1
_chemical_formula_structural   TmGa2Ni
_chemical_formula_sum   'Tm2 Ga4 Ni2'
_cell_volume   135.89616306
_cell_formula_units_Z   2
loop_
 _symmetry_equiv_pos_site_id
 _symmetry_equiv_pos_as_xyz
  1  'x, y, z'
loop_
 _atom_site_type_symbol
 _atom_site_label
 _atom_site_symmetry_multiplicity
 _atom_site_fract_x
 _atom_site_fract_y
 _atom_site_fract_z
 _atom_site_occupancy
  Tm  Tm0  1  0.42793685  0.85587370  0.25000000  1
  Tm  Tm1  1  0.57206315  0.14412630  0.75000000  1
  Ga  Ga2  1  0.14191938  0.28383877  0.05342755  1
  Ga  Ga3  1  0.85808062  0.71616123  0.94657245  1
  Ga  Ga4  1  0.85808062  0.71616123  0.55342755  1
  Ga  Ga5  1  0.14191938  0.28383877  0.44657245  1
  Ni  Ni6  1  0.71142330  0.42284660  0.25000000  1
  Ni  Ni7  1  0.28857670  0.57715340  0.75000000  1
