# generated using pymatgen
data_SrCu
_symmetry_space_group_name_H-M   'P 1'
_cell_length_a   4.34380999
_cell_length_b   4.34380999
_cell_length_c   15.35803211
_cell_angle_alpha   90.00000000
_cell_angle_beta   90.00000000
_cell_angle_gamma   120.00129417
_symmetry_Int_Tables_number   1
_chemical_formula_structural   SrCu
_chemical_formula_sum   'Sr4 Cu4'
_cell_volume   250.95865549
_cell_formula_units_Z   4
loop_
 _symmetry_equiv_pos_site_id
 _symmetry_equiv_pos_as_xyz
  1  'x, y, z'
loop_
 _atom_site_type_symbol
 _atom_site_label
 _atom_site_symmetry_multiplicity
 _atom_site_fract_x
 _atom_site_fract_y
 _atom_site_fract_z
 _atom_site_occupancy
  Sr  Sr0  1  0.66667728  0.33332272  0.61974910  1
  Sr  Sr1  1  0.33332272  0.66667728  0.38025090  1
  Sr  Sr2  1  0.33332272  0.66667728  0.11974910  1
  Sr  Sr3  1  0.66667728  0.33332272  0.88025090  1
  Cu  Cu4  1  0.99999971  0.00000029  0.75000000  1
  Cu  Cu5  1  0.00000029  0.99999971  0.25000000  1
  Cu  Cu6  1  0.66666512  0.33333488  0.25000000  1
  Cu  Cu7  1  0.33333488  0.66666512  0.75000000  1
