# generated using pymatgen
data_HoB2Ir3
_symmetry_space_group_name_H-M   'P 1'
_cell_length_a   3.14618882
_cell_length_b   5.46874990
_cell_length_c   5.46810552
_cell_angle_alpha   59.99609676
_cell_angle_beta   89.99463156
_cell_angle_gamma   89.98927277
_symmetry_Int_Tables_number   1
_chemical_formula_structural   HoB2Ir3
_chemical_formula_sum   'Ho1 B2 Ir3'
_cell_volume   81.47479441
_cell_formula_units_Z   1
loop_
 _symmetry_equiv_pos_site_id
 _symmetry_equiv_pos_as_xyz
  1  'x, y, z'
loop_
 _atom_site_type_symbol
 _atom_site_label
 _atom_site_symmetry_multiplicity
 _atom_site_fract_x
 _atom_site_fract_y
 _atom_site_fract_z
 _atom_site_occupancy
  Ho  Ho0  1  0.50000000  0.50000000  0.00000000  1
  B  B1  1  0.50000000  0.16675528  0.66648944  1
  B  B2  1  0.50000000  0.83324472  0.33351056  1
  Ir  Ir3  1  -0.00000000  -0.00000000  0.00000000  1
  Ir  Ir4  1  -0.00000000  0.50000000  0.50000000  1
  Ir  Ir5  1  -0.00000000  -0.00000000  0.50000000  1
