# generated using pymatgen
data_SmCu2
_symmetry_space_group_name_H-M   'P 1'
_cell_length_a   4.36472563
_cell_length_b   5.55031082
_cell_length_c   5.55031082
_cell_angle_alpha   79.03461605
_cell_angle_beta   66.84646296
_cell_angle_gamma   66.84646296
_symmetry_Int_Tables_number   1
_chemical_formula_structural   SmCu2
_chemical_formula_sum   'Sm2 Cu4'
_cell_volume   113.57071594
_cell_formula_units_Z   2
loop_
 _symmetry_equiv_pos_site_id
 _symmetry_equiv_pos_as_xyz
  1  'x, y, z'
loop_
 _atom_site_type_symbol
 _atom_site_label
 _atom_site_symmetry_multiplicity
 _atom_site_fract_x
 _atom_site_fract_y
 _atom_site_fract_z
 _atom_site_occupancy
  Sm  Sm0  1  0.53794315  0.71205685  0.21205685  1
  Sm  Sm1  1  0.46205685  0.28794315  0.78794315  1
  Cu  Cu2  1  0.16536317  0.28447201  0.38480165  1
  Cu  Cu3  1  0.83463683  0.71552799  0.61519835  1
  Cu  Cu4  1  0.83463683  0.11519835  0.21552799  1
  Cu  Cu5  1  0.16536317  0.88480165  0.78447201  1
