# generated using pymatgen
data_PrGa2Ni
_symmetry_space_group_name_H-M   'P 1'
_cell_length_a   4.22126767
_cell_length_b   4.21910064
_cell_length_c   9.01288027
_cell_angle_alpha   103.53619047
_cell_angle_beta   90.00000000
_cell_angle_gamma   90.00000000
_symmetry_Int_Tables_number   1
_chemical_formula_structural   PrGa2Ni
_chemical_formula_sum   'Pr2 Ga4 Ni2'
_cell_volume   156.06012285
_cell_formula_units_Z   2
loop_
 _symmetry_equiv_pos_site_id
 _symmetry_equiv_pos_as_xyz
  1  'x, y, z'
loop_
 _atom_site_type_symbol
 _atom_site_label
 _atom_site_symmetry_multiplicity
 _atom_site_fract_x
 _atom_site_fract_y
 _atom_site_fract_z
 _atom_site_occupancy
  Pr  Pr0  1  0.50000000  0.35777298  0.71554595  1
  Pr  Pr1  1  0.50000000  0.64222702  0.28445405  1
  Ga  Ga2  1  0.00000000  0.20942172  0.41884344  1
  Ga  Ga3  1  0.00000000  0.79057828  0.58115656  1
  Ga  Ga4  1  0.50000000  0.00000000  0.00000000  1
  Ga  Ga5  1  0.00000000  0.50000000  0.00000000  1
  Ni  Ni6  1  0.00000000  0.07208842  0.14417684  1
  Ni  Ni7  1  0.00000000  0.92791158  0.85582316  1
