# generated using pymatgen
data_ThTe3
_symmetry_space_group_name_H-M   'P 1'
_cell_length_a   4.43831469
_cell_length_b   6.26531241
_cell_length_c   10.82628772
_cell_angle_alpha   97.69336462
_cell_angle_beta   90.00000000
_cell_angle_gamma   90.00000000
_symmetry_Int_Tables_number   1
_chemical_formula_structural   ThTe3
_chemical_formula_sum   'Th2 Te6'
_cell_volume   298.34136818
_cell_formula_units_Z   2
loop_
 _symmetry_equiv_pos_site_id
 _symmetry_equiv_pos_as_xyz
  1  'x, y, z'
loop_
 _atom_site_type_symbol
 _atom_site_label
 _atom_site_symmetry_multiplicity
 _atom_site_fract_x
 _atom_site_fract_y
 _atom_site_fract_z
 _atom_site_occupancy
  Th  Th0  1  0.75000000  0.71517577  0.84578957  1
  Th  Th1  1  0.25000000  0.28482423  0.15421043  1
  Te  Te2  1  0.75000000  0.55034016  0.32417932  1
  Te  Te3  1  0.25000000  0.44965984  0.67582068  1
  Te  Te4  1  0.75000000  0.23589109  0.93837958  1
  Te  Te5  1  0.25000000  0.76410891  0.06162042  1
  Te  Te6  1  0.75000000  0.10598657  0.32972928  1
  Te  Te7  1  0.25000000  0.89401343  0.67027072  1
