# generated using pymatgen
data_Li4MnCo2O7
_symmetry_space_group_name_H-M   'P 1'
_cell_length_a   2.91451643
_cell_length_b   10.70364308
_cell_length_c   8.36953218
_cell_angle_alpha   78.41276798
_cell_angle_beta   90.00000000
_cell_angle_gamma   82.17510711
_symmetry_Int_Tables_number   1
_chemical_formula_structural   Li4MnCo2O7
_chemical_formula_sum   'Li8 Mn2 Co4 O14'
_cell_volume   253.29215399
_cell_formula_units_Z   2
loop_
 _symmetry_equiv_pos_site_id
 _symmetry_equiv_pos_as_xyz
  1  'x, y, z'
loop_
 _atom_site_type_symbol
 _atom_site_label
 _atom_site_symmetry_multiplicity
 _atom_site_fract_x
 _atom_site_fract_y
 _atom_site_fract_z
 _atom_site_occupancy
  Li  Li0  1  0.42695148  0.14609604  0.21451726  1
  Li  Li1  1  0.28053591  0.43892718  0.65366252  1
  Li  Li2  1  0.14887729  0.70224543  0.05846231  1
  Li  Li3  1  0.00376880  0.99246239  0.50306501  1
  Li  Li4  1  0.85365969  0.29268062  0.92801562  1
  Li  Li5  1  0.71128102  0.57743897  0.35628899  1
  Li  Li6  1  0.57595972  0.84808156  0.78069314  1
  Li  Li7  1  0.71397667  0.57204765  0.85374562  1
  Mn  Mn8  1  0.00059659  0.99880681  0.00175331  1
  Mn  Mn9  1  0.85610257  0.28779486  0.42385501  1
  Co  Co10  1  0.57452768  0.85094564  0.29772002  1
  Co  Co11  1  0.42824395  0.14351111  0.71402299  1
  Co  Co12  1  0.28134561  0.43730778  0.11555639  1
  Co  Co13  1  0.14621922  0.70756156  0.59529116  1
  O  O14  1  0.43752335  0.12495330  0.97497793  1
  O  O15  1  0.29490259  0.41019482  0.39804119  1
  O  O16  1  0.14152036  0.71696029  0.80795971  1
  O  O17  1  0.00479677  0.99040746  0.23611173  1
  O  O18  1  0.86276265  0.27447370  0.66381747  1
  O  O19  1  0.71906367  0.56187166  0.11441429  1
  O  O20  1  0.57231413  0.85537174  0.53011402  1
  O  O21  1  0.42034379  0.15931242  0.45516668  1
  O  O22  1  0.28979514  0.42041073  0.90671908  1
  O  O23  1  0.13627563  0.72744974  0.32409051  1
  O  O24  1  0.99396668  0.01206564  0.76598931  1
  O  O25  1  0.85212182  0.29575537  0.19468055  1
  O  O26  1  0.70967485  0.58065030  0.60012782  1
  O  O27  1  0.56289238  0.87421524  0.03114038  1
