# generated using pymatgen
data_Pr2BC
_symmetry_space_group_name_H-M   'P 1'
_cell_length_a   3.71053375
_cell_length_b   6.96873144
_cell_length_c   7.47722064
_cell_angle_alpha   83.91455791
_cell_angle_beta   75.63355923
_cell_angle_gamma   74.56010530
_symmetry_Int_Tables_number   1
_chemical_formula_structural   Pr2BC
_chemical_formula_sum   'Pr4 B2 C2'
_cell_volume   180.37283663
_cell_formula_units_Z   2
loop_
 _symmetry_equiv_pos_site_id
 _symmetry_equiv_pos_as_xyz
  1  'x, y, z'
loop_
 _atom_site_type_symbol
 _atom_site_label
 _atom_site_symmetry_multiplicity
 _atom_site_fract_x
 _atom_site_fract_y
 _atom_site_fract_z
 _atom_site_occupancy
  Pr  Pr0  1  0.79297698  0.79641095  0.61763509  1
  Pr  Pr1  1  0.20702302  0.20358905  0.38236491  1
  Pr  Pr2  1  0.44072298  0.25903288  0.85952116  1
  Pr  Pr3  1  0.55927702  0.74096712  0.14047884  1
  B  B4  1  0.07364560  0.96032609  0.89238271  1
  B  B5  1  0.92635440  0.03967391  0.10761729  1
  C  C6  1  0.87370057  0.95171091  0.30088796  1
  C  C7  1  0.12629943  0.04828909  0.69911204  1
