# generated using pymatgen
data_LaCo2AsN
_symmetry_space_group_name_H-M   'P 1'
_cell_length_a   3.77028519
_cell_length_b   5.84373081
_cell_length_c   6.95749573
_cell_angle_alpha   90.00000000
_cell_angle_beta   90.00000000
_cell_angle_gamma   108.81976915
_symmetry_Int_Tables_number   1
_chemical_formula_structural   LaCo2AsN
_chemical_formula_sum   'La2 Co4 As2 N2'
_cell_volume   145.09599034
_cell_formula_units_Z   2
loop_
 _symmetry_equiv_pos_site_id
 _symmetry_equiv_pos_as_xyz
  1  'x, y, z'
loop_
 _atom_site_type_symbol
 _atom_site_label
 _atom_site_symmetry_multiplicity
 _atom_site_fract_x
 _atom_site_fract_y
 _atom_site_fract_z
 _atom_site_occupancy
  La  La0  1  0.45669486  0.91338971  0.25000000  1
  La  La1  1  0.54330514  0.08661029  0.75000000  1
  Co  Co2  1  0.16368013  0.32736027  0.44733146  1
  Co  Co3  1  0.83631987  0.67263973  0.55266854  1
  Co  Co4  1  0.16368013  0.32736027  0.05266854  1
  Co  Co5  1  0.83631987  0.67263973  0.94733146  1
  As  As6  1  0.73016549  0.46033099  0.25000000  1
  As  As7  1  0.26983451  0.53966901  0.75000000  1
  N  N8  1  -0.00000000  0.00000000  0.50000000  1
  N  N9  1  -0.00000000  -0.00000000  0.00000000  1
