# generated using pymatgen
data_Sr2UCu2S5
_symmetry_space_group_name_H-M   'P 1'
_cell_length_a   4.00024635
_cell_length_b   6.87533319
_cell_length_c   8.95357785
_cell_angle_alpha   71.21140424
_cell_angle_beta   77.09189021
_cell_angle_gamma   73.08738659
_symmetry_Int_Tables_number   1
_chemical_formula_structural   Sr2UCu2S5
_chemical_formula_sum   'Sr2 U1 Cu2 S5'
_cell_volume   220.74746639
_cell_formula_units_Z   1
loop_
 _symmetry_equiv_pos_site_id
 _symmetry_equiv_pos_as_xyz
  1  'x, y, z'
loop_
 _atom_site_type_symbol
 _atom_site_label
 _atom_site_symmetry_multiplicity
 _atom_site_fract_x
 _atom_site_fract_y
 _atom_site_fract_z
 _atom_site_occupancy
  Sr  Sr0  1  0.17168932  0.35958225  0.29703910  1
  Sr  Sr1  1  0.82831068  0.64041775  0.70296090  1
  U  U2  1  -0.00000000  0.00000000  0.00000000  1
  Cu  Cu3  1  0.56010582  0.18088255  0.69890582  1
  Cu  Cu4  1  0.43989418  0.81911745  0.30109418  1
  S  S5  1  0.15690939  0.99364420  0.69253701  1
  S  S6  1  0.84309061  0.00635580  0.30746299  1
  S  S7  1  0.38376207  0.30113417  0.93134169  1
  S  S8  1  0.61623793  0.69886583  0.06865831  1
  S  S9  1  0.50000000  0.50000000  0.50000000  1
