# generated using pymatgen
data_CrB4
_symmetry_space_group_name_H-M   'P 1'
_cell_length_a   2.85370675
_cell_length_b   4.72674259
_cell_length_c   5.47987617
_cell_angle_alpha   90.00000000
_cell_angle_beta   90.00000000
_cell_angle_gamma   90.00000000
_symmetry_Int_Tables_number   1
_chemical_formula_structural   CrB4
_chemical_formula_sum   'Cr2 B8'
_cell_volume   73.91660974
_cell_formula_units_Z   2
loop_
 _symmetry_equiv_pos_site_id
 _symmetry_equiv_pos_as_xyz
  1  'x, y, z'
loop_
 _atom_site_type_symbol
 _atom_site_label
 _atom_site_symmetry_multiplicity
 _atom_site_fract_x
 _atom_site_fract_y
 _atom_site_fract_z
 _atom_site_occupancy
  Cr  Cr0  1  0.50000000  0.50000000  0.50000000  1
  Cr  Cr1  1  -0.00000000  -0.00000000  -0.00000000  1
  B  B2  1  0.50000000  0.66504302  0.86647487  1
  B  B3  1  0.50000000  0.33495698  0.13352513  1
  B  B4  1  0.00000000  0.16504302  0.63352513  1
  B  B5  1  -0.00000000  0.83495698  0.36647487  1
  B  B6  1  0.50000000  0.72335843  0.17834758  1
  B  B7  1  0.50000000  0.27664157  0.82165242  1
  B  B8  1  0.00000000  0.22335843  0.32165242  1
  B  B9  1  -0.00000000  0.77664157  0.67834758  1
