# generated using pymatgen
data_Ca2GaPd2
_symmetry_space_group_name_H-M   'P 1'
_cell_length_a   5.74936203
_cell_length_b   5.74027831
_cell_length_c   7.87958121
_cell_angle_alpha   101.35776283
_cell_angle_beta   90.00000000
_cell_angle_gamma   120.05236674
_symmetry_Int_Tables_number   1
_chemical_formula_structural   Ca2GaPd2
_chemical_formula_sum   'Ca4 Ga2 Pd4'
_cell_volume   219.18700357
_cell_formula_units_Z   2
loop_
 _symmetry_equiv_pos_site_id
 _symmetry_equiv_pos_as_xyz
  1  'x, y, z'
loop_
 _atom_site_type_symbol
 _atom_site_label
 _atom_site_symmetry_multiplicity
 _atom_site_fract_x
 _atom_site_fract_y
 _atom_site_fract_z
 _atom_site_occupancy
  Ca  Ca0  1  0.78400529  0.30046671  0.14992355  1
  Ca  Ca1  1  0.48353858  0.69953329  0.35007645  1
  Ca  Ca2  1  0.21599471  0.69953329  0.85007645  1
  Ca  Ca3  1  0.51646142  0.30046671  0.64992355  1
  Ga  Ga4  1  0.13395027  1.00000000  0.25000000  1
  Ga  Ga5  1  0.86604973  0.00000000  0.75000000  1
  Pd  Pd6  1  0.00370388  0.74397964  0.49737416  1
  Pd  Pd7  1  0.25972424  0.25602036  0.00262584  1
  Pd  Pd8  1  0.99629612  0.25602036  0.50262584  1
  Pd  Pd9  1  0.74027576  0.74397964  0.99737416  1
