# generated using pymatgen
data_Li4MnCo2O7
_symmetry_space_group_name_H-M   'P 1'
_cell_length_a   2.87648014
_cell_length_b   9.84222006
_cell_length_c   9.75860651
_cell_angle_alpha   112.60859898
_cell_angle_beta   90.00000000
_cell_angle_gamma   98.40269958
_symmetry_Int_Tables_number   1
_chemical_formula_structural   Li4MnCo2O7
_chemical_formula_sum   'Li8 Mn2 Co4 O14'
_cell_volume   251.82876015
_cell_formula_units_Z   2
loop_
 _symmetry_equiv_pos_site_id
 _symmetry_equiv_pos_as_xyz
  1  'x, y, z'
loop_
 _atom_site_type_symbol
 _atom_site_label
 _atom_site_symmetry_multiplicity
 _atom_site_fract_x
 _atom_site_fract_y
 _atom_site_fract_z
 _atom_site_occupancy
  Li  Li0  1  0.65425495  0.30850989  0.08502365  1
  Li  Li1  1  0.91904228  0.83808556  0.20007666  1
  Li  Li2  1  0.21693006  0.43385913  0.34963443  1
  Li  Li3  1  0.49985312  -0.00029375  0.49638709  1
  Li  Li4  1  0.77973630  0.55947359  0.64058543  1
  Li  Li5  1  0.07822031  0.15643963  0.79422195  1
  Li  Li6  1  0.35798156  0.71596311  0.92938167  1
  Li  Li7  1  0.28533590  0.57067279  0.14367702  1
  Mn  Mn8  1  0.00239040  0.00478081  0.99987407  1
  Mn  Mn9  1  0.85130541  0.70261081  0.41645139  1
  Co  Co10  1  0.57678563  0.15357025  0.29432549  1
  Co  Co11  1  0.14020028  0.28040055  0.57762060  1
  Co  Co12  1  0.42473550  0.84947200  0.70690631  1
  Co  Co13  1  0.72383870  0.44767640  0.87801775  1
  O  O14  1  0.53232972  0.06466044  0.89780439  1
  O  O15  1  0.81771353  0.63542605  0.01733542  1
  O  O16  1  0.10979548  0.21959096  0.19634473  1
  O  O17  1  0.39040082  0.78080165  0.33327240  1
  O  O18  1  0.67153689  0.34307479  0.48240395  1
  O  O19  1  0.95133418  0.90266737  0.60323691  1
  O  O20  1  0.23430965  0.46861929  0.74160938  1
  O  O21  1  0.75960450  0.51920900  0.26385328  1
  O  O22  1  0.04610267  0.09220633  0.40255546  1
  O  O23  1  0.32197552  0.64395004  0.51961197  1
  O  O24  1  0.60808014  0.21616029  0.66781614  1
  O  O25  1  0.89289573  0.78579147  0.80209425  1
  O  O26  1  0.18210054  0.36420209  0.95620983  1
  O  O27  1  0.47121023  0.94241947  0.10366837  1
