# generated using pymatgen
data_Ta2O5
_symmetry_space_group_name_H-M   'P 1'
_cell_length_a   3.40078059
_cell_length_b   3.86025713
_cell_length_c   8.21230439
_cell_angle_alpha   90.74534005
_cell_angle_beta   94.88873944
_cell_angle_gamma   90.11964536
_symmetry_Int_Tables_number   1
_chemical_formula_structural   Ta2O5
_chemical_formula_sum   'Ta2 O5'
_cell_volume   107.40835976
_cell_formula_units_Z   1
loop_
 _symmetry_equiv_pos_site_id
 _symmetry_equiv_pos_as_xyz
  1  'x, y, z'
loop_
 _atom_site_type_symbol
 _atom_site_label
 _atom_site_symmetry_multiplicity
 _atom_site_fract_x
 _atom_site_fract_y
 _atom_site_fract_z
 _atom_site_occupancy
  Ta  Ta0  1  0.90726209  0.00856197  0.98015097  1
  Ta  Ta1  1  0.51128693  0.99623061  0.53826140  1
  O  O2  1  0.99212190  0.50661435  0.95813195  1
  O  O3  1  0.49367728  0.49348184  0.54790996  1
  O  O4  1  0.47247384  0.00857960  0.10143131  1
  O  O5  1  0.98288893  0.98618750  0.43012057  1
  O  O6  1  0.58028904  0.00034413  0.77399384  1
