# generated using pymatgen
data_Li4MnCo2O7
_symmetry_space_group_name_H-M   'P 1'
_cell_length_a   2.86540152
_cell_length_b   5.12811727
_cell_length_c   18.09941543
_cell_angle_alpha   100.01019445
_cell_angle_beta   94.54013788
_cell_angle_gamma   73.77670798
_symmetry_Int_Tables_number   1
_chemical_formula_structural   Li4MnCo2O7
_chemical_formula_sum   'Li8 Mn2 Co4 O14'
_cell_volume   251.34549272
_cell_formula_units_Z   2
loop_
 _symmetry_equiv_pos_site_id
 _symmetry_equiv_pos_as_xyz
  1  'x, y, z'
loop_
 _atom_site_type_symbol
 _atom_site_label
 _atom_site_symmetry_multiplicity
 _atom_site_fract_x
 _atom_site_fract_y
 _atom_site_fract_z
 _atom_site_occupancy
  Li  Li0  1  0.28512367  0.50895255  0.07920089  1
  Li  Li1  1  0.86663683  0.47388431  0.20715797  1
  Li  Li2  1  0.42796103  0.49382928  0.34975234  1
  Li  Li3  1  0.00300547  0.49710005  0.50311098  1
  Li  Li4  1  0.56961615  0.50692817  0.64615948  1
  Li  Li5  1  0.14064436  0.50183241  0.78312113  1
  Li  Li6  1  0.71287566  0.50685298  0.93260329  1
  Li  Li7  1  0.56903208  0.00408581  0.14214897  1
  Mn  Mn8  1  0.99296675  0.01988991  0.00582341  1
  Mn  Mn9  1  0.71387172  0.99950585  0.42724829  1
  Co  Co10  1  0.14534889  0.98361003  0.27430781  1
  Co  Co11  1  0.28671895  -0.00006613  0.57337278  1
  Co  Co12  1  0.86036809  0.99392882  0.71466500  1
  Co  Co13  1  0.42707573  0.00401394  0.85816640  1
  O  O14  1  0.36567282  0.23711555  0.96846119  1
  O  O15  1  0.93196135  0.23426284  0.09818455  1
  O  O16  1  0.51077138  0.23154907  0.25309283  1
  O  O17  1  0.08790373  0.22129615  0.39710360  1
  O  O18  1  0.65318818  0.22191019  0.52828756  1
  O  O19  1  0.22345625  0.23160785  0.67852035  1
  O  O20  1  0.80072551  0.22288690  0.82433693  1
  O  O21  1  0.21912960  0.74533816  0.18359836  1
  O  O22  1  0.77401857  0.78009702  0.32813416  1
  O  O23  1  0.34248551  0.77548419  0.46045420  1
  O  O24  1  0.92283372  0.76132781  0.60699524  1
  O  O25  1  0.49536175  0.75966689  0.75038938  1
  O  O26  1  0.04968006  0.79668730  0.89604841  1
  O  O27  1  0.62156620  0.78642208  0.02955447  1
