# generated using pymatgen
data_Ce2AlRu2
_symmetry_space_group_name_H-M   'P 1'
_cell_length_a   5.83630795
_cell_length_b   5.83630795
_cell_length_c   6.92884050
_cell_angle_alpha   90.00000000
_cell_angle_beta   90.00000000
_cell_angle_gamma   118.49660875
_symmetry_Int_Tables_number   1
_chemical_formula_structural   Ce2AlRu2
_chemical_formula_sum   'Ce4 Al2 Ru4'
_cell_volume   207.41942384
_cell_formula_units_Z   2
loop_
 _symmetry_equiv_pos_site_id
 _symmetry_equiv_pos_as_xyz
  1  'x, y, z'
loop_
 _atom_site_type_symbol
 _atom_site_label
 _atom_site_symmetry_multiplicity
 _atom_site_fract_x
 _atom_site_fract_y
 _atom_site_fract_z
 _atom_site_occupancy
  Ce  Ce0  1  0.83939568  0.16060432  0.41942836  1
  Ce  Ce1  1  0.16060432  0.83939568  0.58057164  1
  Ce  Ce2  1  0.66060432  0.33939568  0.91942836  1
  Ce  Ce3  1  0.33939568  0.66060432  0.08057164  1
  Al  Al4  1  0.50000000  0.50000000  0.50000000  1
  Al  Al5  1  -0.00000000  -0.00000000  -0.00000000  1
  Ru  Ru6  1  0.86826101  0.63173899  0.25000000  1
  Ru  Ru7  1  0.63173899  0.86826101  0.75000000  1
  Ru  Ru8  1  0.13173899  0.36826101  0.75000000  1
  Ru  Ru9  1  0.36826101  0.13173899  0.25000000  1
