# generated using pymatgen
data_Fe(BMo)2
_symmetry_space_group_name_H-M   'P 1'
_cell_length_a   3.16644338
_cell_length_b   5.77591868
_cell_length_c   5.77591868
_cell_angle_alpha   90.00000000
_cell_angle_beta   90.00000000
_cell_angle_gamma   90.00000000
_symmetry_Int_Tables_number   1
_chemical_formula_structural   Fe(BMo)2
_chemical_formula_sum   'Fe2 B4 Mo4'
_cell_volume   105.63646677
_cell_formula_units_Z   2
loop_
 _symmetry_equiv_pos_site_id
 _symmetry_equiv_pos_as_xyz
  1  'x, y, z'
loop_
 _atom_site_type_symbol
 _atom_site_label
 _atom_site_symmetry_multiplicity
 _atom_site_fract_x
 _atom_site_fract_y
 _atom_site_fract_z
 _atom_site_occupancy
  Fe  Fe0  1  0.00000000  0.50000000  0.50000000  1
  Fe  Fe1  1  0.00000000  0.00000000  -0.00000000  1
  B  B2  1  0.00000000  0.61307752  0.11307752  1
  B  B3  1  -0.00000000  0.38692248  0.88692248  1
  B  B4  1  -0.00000000  0.88692248  0.61307752  1
  B  B5  1  0.00000000  0.11307752  0.38692248  1
  Mo  Mo6  1  0.50000000  0.17760544  0.67760544  1
  Mo  Mo7  1  0.50000000  0.82239456  0.32239456  1
  Mo  Mo8  1  0.50000000  0.32239456  0.17760544  1
  Mo  Mo9  1  0.50000000  0.67760544  0.82239456  1
