# generated using pymatgen
data_Ca2AlPd2
_symmetry_space_group_name_H-M   'P 1'
_cell_length_a   5.78174496
_cell_length_b   5.78790601
_cell_length_c   7.80425790
_cell_angle_alpha   101.00671509
_cell_angle_beta   90.00000000
_cell_angle_gamma   119.96478783
_symmetry_Int_Tables_number   1
_chemical_formula_structural   Ca2AlPd2
_chemical_formula_sum   'Ca4 Al2 Pd4'
_cell_volume   220.69142766
_cell_formula_units_Z   2
loop_
 _symmetry_equiv_pos_site_id
 _symmetry_equiv_pos_as_xyz
  1  'x, y, z'
loop_
 _atom_site_type_symbol
 _atom_site_label
 _atom_site_symmetry_multiplicity
 _atom_site_fract_x
 _atom_site_fract_y
 _atom_site_fract_z
 _atom_site_occupancy
  Ca  Ca0  1  0.78000882  0.30004939  0.14918402  1
  Ca  Ca1  1  0.47995942  0.69995061  0.35081598  1
  Ca  Ca2  1  0.21999118  0.69995061  0.85081598  1
  Ca  Ca3  1  0.52004058  0.30004939  0.64918402  1
  Al  Al4  1  0.12061360  0.00000000  0.25000000  1
  Al  Al5  1  0.87938640  1.00000000  0.75000000  1
  Pd  Pd6  1  0.00441612  0.74524510  0.49655818  1
  Pd  Pd7  1  0.25917101  0.25475490  0.00344182  1
  Pd  Pd8  1  0.99558388  0.25475490  0.50344182  1
  Pd  Pd9  1  0.74082899  0.74524510  0.99655818  1
