# generated using pymatgen
data_YbInPt
_symmetry_space_group_name_H-M   'P 1'
_cell_length_a   4.01830743
_cell_length_b   7.59418378
_cell_length_c   7.58491383
_cell_angle_alpha   120.04044223
_cell_angle_beta   90.00000000
_cell_angle_gamma   90.00000000
_symmetry_Int_Tables_number   1
_chemical_formula_structural   YbInPt
_chemical_formula_sum   'Yb3 In3 Pt3'
_cell_volume   200.36802466
_cell_formula_units_Z   3
loop_
 _symmetry_equiv_pos_site_id
 _symmetry_equiv_pos_as_xyz
  1  'x, y, z'
loop_
 _atom_site_type_symbol
 _atom_site_label
 _atom_site_symmetry_multiplicity
 _atom_site_fract_x
 _atom_site_fract_y
 _atom_site_fract_z
 _atom_site_occupancy
  Yb  Yb0  1  0.00000000  0.59658924  1.00000000  1
  Yb  Yb1  1  0.00000000  0.40346721  0.40342651  1
  Yb  Yb2  1  0.00000000  0.00004070  0.59657349  1
  In  In3  1  0.50000000  0.26038392  0.00000000  1
  In  In4  1  0.50000000  0.73951847  0.73965713  1
  In  In5  1  0.50000000  -0.00013865  0.26034287  1
  Pt  Pt6  1  0.50000000  0.33327904  0.66659009  1
  Pt  Pt7  1  0.50000000  0.66668895  0.33340991  1
  Pt  Pt8  1  0.00000000  0.00007112  0.00000000  1
