# generated using pymatgen
data_Ca2AlPt2
_symmetry_space_group_name_H-M   'P 1'
_cell_length_a   5.72562042
_cell_length_b   5.72562042
_cell_length_c   7.76671609
_cell_angle_alpha   79.70150209
_cell_angle_beta   79.70150209
_cell_angle_gamma   60.34839955
_symmetry_Int_Tables_number   1
_chemical_formula_structural   Ca2AlPt2
_chemical_formula_sum   'Ca4 Al2 Pt4'
_cell_volume   216.48929959
_cell_formula_units_Z   2
loop_
 _symmetry_equiv_pos_site_id
 _symmetry_equiv_pos_as_xyz
  1  'x, y, z'
loop_
 _atom_site_type_symbol
 _atom_site_label
 _atom_site_symmetry_multiplicity
 _atom_site_fract_x
 _atom_site_fract_y
 _atom_site_fract_z
 _atom_site_occupancy
  Ca  Ca0  1  0.21905511  0.48170359  0.14848351  1
  Ca  Ca1  1  0.51829641  0.78094489  0.35151649  1
  Ca  Ca2  1  0.78094489  0.51829641  0.85151649  1
  Ca  Ca3  1  0.48170359  0.21905511  0.64848351  1
  Al  Al4  1  0.88858945  0.11141055  0.25000000  1
  Al  Al5  1  0.11141055  0.88858945  0.75000000  1
  Pt  Pt6  1  0.99568304  0.26324979  0.49601798  1
  Pt  Pt7  1  0.73675021  0.00431696  0.00398202  1
  Pt  Pt8  1  0.00431696  0.73675021  0.50398202  1
  Pt  Pt9  1  0.26324979  0.99568304  0.99601798  1
