# generated using pymatgen
data_InNi2SbO6
_symmetry_space_group_name_H-M   'P 1'
_cell_length_a   5.28650676
_cell_length_b   5.28650676
_cell_length_c   5.62859509
_cell_angle_alpha   61.99091617
_cell_angle_beta   61.99091613
_cell_angle_gamma   60.00000598
_symmetry_Int_Tables_number   1
_chemical_formula_structural   InNi2SbO6
_chemical_formula_sum   'In1 Ni2 Sb1 O6'
_cell_volume   114.46065863
_cell_formula_units_Z   1
loop_
 _symmetry_equiv_pos_site_id
 _symmetry_equiv_pos_as_xyz
  1  'x, y, z'
loop_
 _atom_site_type_symbol
 _atom_site_label
 _atom_site_symmetry_multiplicity
 _atom_site_fract_x
 _atom_site_fract_y
 _atom_site_fract_z
 _atom_site_occupancy
  In  In0  1  0.79473728  0.79473728  0.61578817  1
  Ni  Ni1  1  0.50774715  0.50774715  0.47675856  1
  Ni  Ni2  1  0.00265582  0.00265582  0.99203253  1
  Sb  Sb3  1  0.30402353  0.30402353  0.08792941  1
  O  O4  1  0.21226892  0.91678786  0.28442826  1
  O  O5  1  0.91678786  0.58651496  0.28442826  1
  O  O6  1  0.58651496  0.21226892  0.28442826  1
  O  O7  1  0.69684226  0.11567656  0.80116552  1
  O  O8  1  0.11567656  0.38631566  0.80116552  1
  O  O9  1  0.38631566  0.69684226  0.80116552  1
