# generated using pymatgen
data_Li4MnCo2O7
_symmetry_space_group_name_H-M   'P 1'
_cell_length_a   2.96462994
_cell_length_b   13.74697402
_cell_length_c   6.45062620
_cell_angle_alpha   85.69698295
_cell_angle_beta   76.71505237
_cell_angle_gamma   96.19015137
_symmetry_Int_Tables_number   1
_chemical_formula_structural   Li4MnCo2O7
_chemical_formula_sum   'Li8 Mn2 Co4 O14'
_cell_volume   253.00930394
_cell_formula_units_Z   2
loop_
 _symmetry_equiv_pos_site_id
 _symmetry_equiv_pos_as_xyz
  1  'x, y, z'
loop_
 _atom_site_type_symbol
 _atom_site_label
 _atom_site_symmetry_multiplicity
 _atom_site_fract_x
 _atom_site_fract_y
 _atom_site_fract_z
 _atom_site_occupancy
  Li  Li0  1  0.35919490  0.07641049  0.35802068  1
  Li  Li1  1  0.06846051  0.22719836  0.09027835  1
  Li  Li2  1  0.79009181  0.36488108  0.78469646  1
  Li  Li3  1  0.64107278  0.91807597  0.63593041  1
  Li  Li4  1  0.91972539  0.77201045  0.93255867  1
  Li  Li5  1  0.50589926  0.50198170  0.49018319  1
  Li  Li6  1  0.21155526  0.63974624  0.21663672  1
  Li  Li7  1  0.43127732  0.28459361  0.42203797  1
  Mn  Mn8  1  -0.00161949  0.00031001  0.00354899  1
  Mn  Mn9  1  0.72241774  0.14758968  0.70275521  1
  Co  Co10  1  0.13596885  0.42352708  0.15158938  1
  Co  Co11  1  0.85863094  0.57232363  0.85506176  1
  Co  Co12  1  0.57571250  0.71861852  0.56719452  1
  Co  Co13  1  0.28096785  0.85283642  0.29089972  1
  O  O14  1  0.53640188  0.09538206  0.02257831  1
  O  O15  1  0.24227907  0.23427868  0.74972154  1
  O  O16  1  0.98472162  0.39959377  0.43014953  1
  O  O17  1  0.83166442  0.96275945  0.29943061  1
  O  O18  1  0.10083646  0.81729420  0.61562029  1
  O  O19  1  0.68548447  0.53081148  0.15984254  1
  O  O20  1  0.39526121  0.67356557  0.88304415  1
  O  O21  1  0.17653234  0.04825256  0.69518787  1
  O  O22  1  0.88013499  0.17471850  0.41444953  1
  O  O23  1  0.61214538  0.32947419  0.10518244  1
  O  O24  1  0.47529909  0.91157805  0.96097987  1
  O  O25  1  0.74336749  0.74884880  0.26211281  1
  O  O26  1  0.30881763  0.46460070  0.84696544  1
  O  O27  1  0.02769836  0.60873876  0.55334305  1
