# generated using pymatgen
data_Gd2Al4CoGe2
_symmetry_space_group_name_H-M   'P 1'
_cell_length_a   4.14750943
_cell_length_b   4.14750943
_cell_length_c   10.24272139
_cell_angle_alpha   101.68092376
_cell_angle_beta   101.68092376
_cell_angle_gamma   90.00000000
_symmetry_Int_Tables_number   1
_chemical_formula_structural   Gd2Al4CoGe2
_chemical_formula_sum   'Gd2 Al4 Co1 Ge2'
_cell_volume   168.81690339
_cell_formula_units_Z   1
loop_
 _symmetry_equiv_pos_site_id
 _symmetry_equiv_pos_as_xyz
  1  'x, y, z'
loop_
 _atom_site_type_symbol
 _atom_site_label
 _atom_site_symmetry_multiplicity
 _atom_site_fract_x
 _atom_site_fract_y
 _atom_site_fract_z
 _atom_site_occupancy
  Gd  Gd0  1  0.81625324  0.81625324  0.63250648  1
  Gd  Gd1  1  0.18374676  0.18374676  0.36749352  1
  Al  Al2  1  0.93458545  0.43458545  0.86917089  1
  Al  Al3  1  0.43458545  0.93458545  0.86917089  1
  Al  Al4  1  0.06541455  0.56541455  0.13082911  1
  Al  Al5  1  0.56541455  0.06541455  0.13082911  1
  Co  Co6  1  0.00000000  0.00000000  0.00000000  1
  Ge  Ge7  1  0.66150055  0.66150055  0.32300110  1
  Ge  Ge8  1  0.33849945  0.33849945  0.67699890  1
