# generated using pymatgen
data_Sr2CrOsO6
_symmetry_space_group_name_H-M   'P 1'
_cell_length_a   5.60970944
_cell_length_b   5.60970944
_cell_length_c   5.60970957
_cell_angle_alpha   59.93025189
_cell_angle_beta   59.93025189
_cell_angle_gamma   59.93024821
_symmetry_Int_Tables_number   1
_chemical_formula_structural   Sr2CrOsO6
_chemical_formula_sum   'Sr2 Cr1 Os1 O6'
_cell_volume   124.62881899
_cell_formula_units_Z   1
loop_
 _symmetry_equiv_pos_site_id
 _symmetry_equiv_pos_as_xyz
  1  'x, y, z'
loop_
 _atom_site_type_symbol
 _atom_site_label
 _atom_site_symmetry_multiplicity
 _atom_site_fract_x
 _atom_site_fract_y
 _atom_site_fract_z
 _atom_site_occupancy
  Sr  Sr0  1  0.74976680  0.74976680  0.74976680  1
  Sr  Sr1  1  0.25023320  0.25023320  0.25023320  1
  Cr  Cr2  1  0.50000000  0.50000000  0.50000000  1
  Os  Os3  1  0.00000000  0.00000000  0.00000000  1
  O  O4  1  0.73803997  0.76481652  0.24875003  1
  O  O5  1  0.76481652  0.24875003  0.73803997  1
  O  O6  1  0.24875003  0.73803997  0.76481652  1
  O  O7  1  0.26196003  0.23518348  0.75124997  1
  O  O8  1  0.23518348  0.75124997  0.26196003  1
  O  O9  1  0.75124997  0.26196003  0.23518348  1
