# generated using pymatgen
data_ScGePd
_symmetry_space_group_name_H-M   'P 1'
_cell_length_a   3.96880759
_cell_length_b   6.75645276
_cell_length_c   6.75644666
_cell_angle_alpha   120.00002167
_cell_angle_beta   90.00000000
_cell_angle_gamma   90.00000000
_symmetry_Int_Tables_number   1
_chemical_formula_structural   ScGePd
_chemical_formula_sum   'Sc3 Ge3 Pd3'
_cell_volume   156.90171078
_cell_formula_units_Z   3
loop_
 _symmetry_equiv_pos_site_id
 _symmetry_equiv_pos_as_xyz
  1  'x, y, z'
loop_
 _atom_site_type_symbol
 _atom_site_label
 _atom_site_symmetry_multiplicity
 _atom_site_fract_x
 _atom_site_fract_y
 _atom_site_fract_z
 _atom_site_occupancy
  Sc  Sc0  1  -0.00000000  0.42311407  1.00000000  1
  Sc  Sc1  1  -0.00000000  0.57687986  0.57688870  1
  Sc  Sc2  1  -0.00000000  0.99999116  0.42311130  1
  Ge  Ge3  1  0.50000000  0.33330602  0.66668844  1
  Ge  Ge4  1  0.50000000  0.66661758  0.33331156  1
  Ge  Ge5  1  0.00000000  0.00000276  0.00000000  1
  Pd  Pd6  1  0.50000000  0.75114080  1.00000000  1
  Pd  Pd7  1  0.50000000  0.24885999  0.24887222  1
  Pd  Pd8  1  0.50000000  0.99998777  0.75112778  1
