# generated using pymatgen
data_LiOsO3
_symmetry_space_group_name_H-M   'P 1'
_cell_length_a   5.10635146
_cell_length_b   5.10635146
_cell_length_c   5.34346091
_cell_angle_alpha   61.45733123
_cell_angle_beta   61.45733123
_cell_angle_gamma   59.99999683
_symmetry_Int_Tables_number   1
_chemical_formula_structural   LiOsO3
_chemical_formula_sum   'Li2 Os2 O6'
_cell_volume   100.63573526
_cell_formula_units_Z   2
loop_
 _symmetry_equiv_pos_site_id
 _symmetry_equiv_pos_as_xyz
  1  'x, y, z'
loop_
 _atom_site_type_symbol
 _atom_site_label
 _atom_site_symmetry_multiplicity
 _atom_site_fract_x
 _atom_site_fract_y
 _atom_site_fract_z
 _atom_site_occupancy
  Li  Li0  1  0.28505018  0.28505018  0.14484947  1
  Li  Li1  1  0.78505018  0.78505018  0.64484947  1
  Os  Os2  1  0.49991942  0.49991942  0.50024173  1
  Os  Os3  1  0.99991942  0.99991942  0.00024173  1
  O  O4  1  0.87751720  0.62059621  0.25716960  1
  O  O5  1  0.62059621  0.24471699  0.25716960  1
  O  O6  1  0.24471699  0.87751720  0.25716960  1
  O  O7  1  0.37751720  0.74471699  0.75716960  1
  O  O8  1  0.74471699  0.12059621  0.75716960  1
  O  O9  1  0.12059621  0.37751720  0.75716960  1
