# generated using pymatgen
data_Ba2ThCu2Se5
_symmetry_space_group_name_H-M   'P 1'
_cell_length_a   4.30277756
_cell_length_b   7.45914878
_cell_length_c   9.56842889
_cell_angle_alpha   69.49277708
_cell_angle_beta   77.00638749
_cell_angle_gamma   73.23644346
_symmetry_Int_Tables_number   1
_chemical_formula_structural   Ba2ThCu2Se5
_chemical_formula_sum   'Ba2 Th1 Cu2 Se5'
_cell_volume   272.77733282
_cell_formula_units_Z   1
loop_
 _symmetry_equiv_pos_site_id
 _symmetry_equiv_pos_as_xyz
  1  'x, y, z'
loop_
 _atom_site_type_symbol
 _atom_site_label
 _atom_site_symmetry_multiplicity
 _atom_site_fract_x
 _atom_site_fract_y
 _atom_site_fract_z
 _atom_site_occupancy
  Ba  Ba0  1  0.17443107  0.34470544  0.30643242  1
  Ba  Ba1  1  0.82556893  0.65529456  0.69356758  1
  Th  Th2  1  0.00000000  -0.00000000  -0.00000000  1
  Cu  Cu3  1  0.55309947  0.18504320  0.70875786  1
  Cu  Cu4  1  0.44690053  0.81495680  0.29124214  1
  Se  Se5  1  0.14922371  0.01582824  0.68572434  1
  Se  Se6  1  0.85077629  0.98417176  0.31427566  1
  Se  Se7  1  0.38290627  0.29845398  0.93573347  1
  Se  Se8  1  0.61709373  0.70154602  0.06426653  1
  Se  Se9  1  0.50000000  0.50000000  0.50000000  1
