# generated using pymatgen
data_CeIn7Pt2
_symmetry_space_group_name_H-M   'P 1'
_cell_length_a   4.67378999
_cell_length_b   4.67378999
_cell_length_c   11.32388856
_cell_angle_alpha   101.90962713
_cell_angle_beta   101.90962713
_cell_angle_gamma   90.00000000
_symmetry_Int_Tables_number   1
_chemical_formula_structural   CeIn7Pt2
_chemical_formula_sum   'Ce1 In7 Pt2'
_cell_volume   236.59346844
_cell_formula_units_Z   1
loop_
 _symmetry_equiv_pos_site_id
 _symmetry_equiv_pos_as_xyz
  1  'x, y, z'
loop_
 _atom_site_type_symbol
 _atom_site_label
 _atom_site_symmetry_multiplicity
 _atom_site_fract_x
 _atom_site_fract_y
 _atom_site_fract_z
 _atom_site_occupancy
  Ce  Ce0  1  0.50000000  0.50000000  0.00000000  1
  In  In1  1  0.00000000  0.00000000  0.00000000  1
  In  In2  1  0.25000000  0.75000000  0.50000000  1
  In  In3  1  0.75000000  0.25000000  0.50000000  1
  In  In4  1  0.39422718  0.89422718  0.78845436  1
  In  In5  1  0.89422718  0.39422718  0.78845436  1
  In  In6  1  0.60577282  0.10577282  0.21154564  1
  In  In7  1  0.10577282  0.60577282  0.21154564  1
  Pt  Pt8  1  0.67458328  0.67458328  0.34916656  1
  Pt  Pt9  1  0.32541672  0.32541672  0.65083344  1
