# generated using pymatgen
data_Li7Mn2(CoO4)3
_symmetry_space_group_name_H-M   'P 1'
_cell_length_a   5.00950052
_cell_length_b   5.00950008
_cell_length_c   9.71649222
_cell_angle_alpha   94.28186006
_cell_angle_beta   94.28186031
_cell_angle_gamma   118.21634046
_symmetry_Int_Tables_number   1
_chemical_formula_structural   Li7Mn2(CoO4)3
_chemical_formula_sum   'Li7 Mn2 Co3 O12'
_cell_volume   212.57681452
_cell_formula_units_Z   1
loop_
 _symmetry_equiv_pos_site_id
 _symmetry_equiv_pos_as_xyz
  1  'x, y, z'
loop_
 _atom_site_type_symbol
 _atom_site_label
 _atom_site_symmetry_multiplicity
 _atom_site_fract_x
 _atom_site_fract_y
 _atom_site_fract_z
 _atom_site_occupancy
  Li  Li0  1  0.43657955  0.09860854  0.26033675  1
  Li  Li1  1  0.90139146  0.56342045  0.73966325  1
  Li  Li2  1  0.07710929  0.41253850  0.26195663  1
  Li  Li3  1  0.58746150  0.92289071  0.73804337  1
  Li  Li4  1  0.75446786  0.75746715  0.25934805  1
  Li  Li5  1  0.24253285  0.24553214  0.74065195  1
  Li  Li6  1  0.83503071  0.16496929  0.50000000  1
  Mn  Mn7  1  0.99770732  0.00229268  1.00000000  1
  Mn  Mn8  1  0.33560628  0.66439372  0.00000000  1
  Co  Co9  1  0.50028544  0.49971456  0.50000000  1
  Co  Co10  1  0.66674463  0.33325537  0.00000000  1
  Co  Co11  1  0.16102899  0.83897101  0.50000000  1
  O  O12  1  0.02398766  0.69057060  0.10512401  1
  O  O13  1  0.50628575  0.19678295  0.60753324  1
  O  O14  1  0.72312725  0.06040502  0.11788523  1
  O  O15  1  0.23187028  0.57147715  0.61266748  1
  O  O16  1  0.39041291  0.38591531  0.11517209  1
  O  O17  1  0.89454051  0.86101921  0.61651752  1
  O  O18  1  0.80321705  0.49371425  0.39246676  1
  O  O19  1  0.30942940  0.97601234  0.89487599  1
  O  O20  1  0.42852285  0.76812972  0.38733252  1
  O  O21  1  0.93959498  0.27687275  0.88211477  1
  O  O22  1  0.13898079  0.10545949  0.38348248  1
  O  O23  1  0.61408469  0.60958709  0.88482791  1
