# generated using pymatgen
data_BaCd2Pt
_symmetry_space_group_name_H-M   'P 1'
_cell_length_a   4.52505569
_cell_length_b   6.10755347
_cell_length_c   8.47452808
_cell_angle_alpha   90.00000000
_cell_angle_beta   90.00000000
_cell_angle_gamma   111.74321776
_symmetry_Int_Tables_number   1
_chemical_formula_structural   BaCd2Pt
_chemical_formula_sum   'Ba2 Cd4 Pt2'
_cell_volume   217.54740605
_cell_formula_units_Z   2
loop_
 _symmetry_equiv_pos_site_id
 _symmetry_equiv_pos_as_xyz
  1  'x, y, z'
loop_
 _atom_site_type_symbol
 _atom_site_label
 _atom_site_symmetry_multiplicity
 _atom_site_fract_x
 _atom_site_fract_y
 _atom_site_fract_z
 _atom_site_occupancy
  Ba  Ba0  1  0.55901553  0.11803105  0.75000000  1
  Ba  Ba1  1  0.44098447  0.88196895  0.25000000  1
  Cd  Cd2  1  0.16076477  0.32152954  0.05573917  1
  Cd  Cd3  1  0.83923523  0.67847046  0.94426083  1
  Cd  Cd4  1  0.16076477  0.32152954  0.44426083  1
  Cd  Cd5  1  0.83923523  0.67847046  0.55573917  1
  Pt  Pt6  1  0.27710805  0.55421609  0.75000000  1
  Pt  Pt7  1  0.72289195  0.44578391  0.25000000  1
