# generated using pymatgen
data_Ba2UCu2Se5
_symmetry_space_group_name_H-M   'P 1'
_cell_length_a   4.24369904
_cell_length_b   7.39118908
_cell_length_c   9.46207995
_cell_angle_alpha   69.60985608
_cell_angle_beta   77.04135674
_cell_angle_gamma   73.31688516
_symmetry_Int_Tables_number   1
_chemical_formula_structural   Ba2UCu2Se5
_chemical_formula_sum   'Ba2 U1 Cu2 Se5'
_cell_volume   263.91862812
_cell_formula_units_Z   1
loop_
 _symmetry_equiv_pos_site_id
 _symmetry_equiv_pos_as_xyz
  1  'x, y, z'
loop_
 _atom_site_type_symbol
 _atom_site_label
 _atom_site_symmetry_multiplicity
 _atom_site_fract_x
 _atom_site_fract_y
 _atom_site_fract_z
 _atom_site_occupancy
  Ba  Ba0  1  0.17449866  0.35153009  0.29947260  1
  Ba  Ba1  1  0.82550134  0.64846991  0.70052740  1
  U  U2  1  -0.00000000  0.00000000  0.00000000  1
  Cu  Cu3  1  0.55288428  0.18538171  0.70884974  1
  Cu  Cu4  1  0.44711572  0.81461829  0.29115026  1
  Se  Se5  1  0.14763222  0.01311667  0.69161888  1
  Se  Se6  1  0.85236778  0.98688333  0.30838112  1
  Se  Se7  1  0.38469271  0.29201437  0.93860021  1
  Se  Se8  1  0.61530729  0.70798563  0.06139979  1
  Se  Se9  1  0.50000000  0.50000000  0.50000000  1
