# generated using pymatgen
data_Ca2GaPt2
_symmetry_space_group_name_H-M   'P 1'
_cell_length_a   5.70280640
_cell_length_b   5.70280640
_cell_length_c   7.87923848
_cell_angle_alpha   79.03743781
_cell_angle_beta   79.03743781
_cell_angle_gamma   59.86498154
_symmetry_Int_Tables_number   1
_chemical_formula_structural   Ca2GaPt2
_chemical_formula_sum   'Ca4 Ga2 Pt4'
_cell_volume   216.21373137
_cell_formula_units_Z   2
loop_
 _symmetry_equiv_pos_site_id
 _symmetry_equiv_pos_as_xyz
  1  'x, y, z'
loop_
 _atom_site_type_symbol
 _atom_site_label
 _atom_site_symmetry_multiplicity
 _atom_site_fract_x
 _atom_site_fract_y
 _atom_site_fract_z
 _atom_site_occupancy
  Ca  Ca0  1  0.21538868  0.48452160  0.14988239  1
  Ca  Ca1  1  0.51547840  0.78461132  0.35011761  1
  Ca  Ca2  1  0.78461132  0.51547840  0.85011761  1
  Ca  Ca3  1  0.48452160  0.21538868  0.64988239  1
  Ga  Ga4  1  0.87358552  0.12641448  0.25000000  1
  Ga  Ga5  1  0.12641448  0.87358552  0.75000000  1
  Pt  Pt6  1  0.99577609  0.26442624  0.49662053  1
  Pt  Pt7  1  0.73557376  0.00422391  0.00337947  1
  Pt  Pt8  1  0.00422391  0.73557376  0.50337947  1
  Pt  Pt9  1  0.26442624  0.99577609  0.99662053  1
