# generated using pymatgen
data_LaNi2AsN
_symmetry_space_group_name_H-M   'P 1'
_cell_length_a   3.70447834
_cell_length_b   5.99625889
_cell_length_c   6.99315886
_cell_angle_alpha   90.00000000
_cell_angle_beta   90.00000000
_cell_angle_gamma   107.99289965
_symmetry_Int_Tables_number   1
_chemical_formula_structural   LaNi2AsN
_chemical_formula_sum   'La2 Ni4 As2 N2'
_cell_volume   147.74222593
_cell_formula_units_Z   2
loop_
 _symmetry_equiv_pos_site_id
 _symmetry_equiv_pos_as_xyz
  1  'x, y, z'
loop_
 _atom_site_type_symbol
 _atom_site_label
 _atom_site_symmetry_multiplicity
 _atom_site_fract_x
 _atom_site_fract_y
 _atom_site_fract_z
 _atom_site_occupancy
  La  La0  1  0.46211723  0.92423445  0.25000000  1
  La  La1  1  0.53788277  0.07576555  0.75000000  1
  Ni  Ni2  1  0.16811957  0.33623914  0.44663614  1
  Ni  Ni3  1  0.83188043  0.66376086  0.55336386  1
  Ni  Ni4  1  0.16811957  0.33623914  0.05336386  1
  Ni  Ni5  1  0.83188043  0.66376086  0.94663614  1
  As  As6  1  0.73237708  0.46475416  0.25000000  1
  As  As7  1  0.26762292  0.53524584  0.75000000  1
  N  N8  1  0.00000000  0.00000000  0.50000000  1
  N  N9  1  0.00000000  0.00000000  -0.00000000  1
