# generated using pymatgen
data_EuGa3Pd
_symmetry_space_group_name_H-M   'P 1'
_cell_length_a   5.93199695
_cell_length_b   6.14688753
_cell_length_c   6.14688753
_cell_angle_alpha   116.90559460
_cell_angle_beta   90.00000000
_cell_angle_gamma   90.00000000
_symmetry_Int_Tables_number   1
_chemical_formula_structural   EuGa3Pd
_chemical_formula_sum   'Eu2 Ga6 Pd2'
_cell_volume   199.87395291
_cell_formula_units_Z   2
loop_
 _symmetry_equiv_pos_site_id
 _symmetry_equiv_pos_as_xyz
  1  'x, y, z'
loop_
 _atom_site_type_symbol
 _atom_site_label
 _atom_site_symmetry_multiplicity
 _atom_site_fract_x
 _atom_site_fract_y
 _atom_site_fract_z
 _atom_site_occupancy
  Eu  Eu0  1  0.75000000  0.23380587  0.76619413  1
  Eu  Eu1  1  0.25000000  0.76619413  0.23380587  1
  Ga  Ga2  1  0.75000000  0.66413798  0.33586202  1
  Ga  Ga3  1  0.25000000  0.33586202  0.66413798  1
  Ga  Ga4  1  0.50000000  0.28469621  0.28469621  1
  Ga  Ga5  1  0.00000000  0.28469621  0.28469621  1
  Ga  Ga6  1  0.50000000  0.71530379  0.71530379  1
  Ga  Ga7  1  -0.00000000  0.71530379  0.71530379  1
  Pd  Pd8  1  0.75000000  0.90261789  0.09738211  1
  Pd  Pd9  1  0.25000000  0.09738211  0.90261789  1
