# generated using pymatgen
data_As2Se3
_symmetry_space_group_name_H-M   'P 1'
_cell_length_a   3.77920030
_cell_length_b   7.33039540
_cell_length_c   9.62513772
_cell_angle_alpha   94.51826165
_cell_angle_beta   90.00000000
_cell_angle_gamma   104.93814587
_symmetry_Int_Tables_number   1
_chemical_formula_structural   As2Se3
_chemical_formula_sum   'As4 Se6'
_cell_volume   256.77639100
_cell_formula_units_Z   2
loop_
 _symmetry_equiv_pos_site_id
 _symmetry_equiv_pos_as_xyz
  1  'x, y, z'
loop_
 _atom_site_type_symbol
 _atom_site_label
 _atom_site_symmetry_multiplicity
 _atom_site_fract_x
 _atom_site_fract_y
 _atom_site_fract_z
 _atom_site_occupancy
  As  As0  1  0.20493728  0.40987455  0.13880426  1
  As  As1  1  0.79506272  0.59012545  0.86119574  1
  As  As2  1  0.62025836  0.24051672  0.43473905  1
  As  As3  1  0.37974164  0.75948328  0.56526095  1
  Se  Se4  1  0.04025498  0.08050995  0.29057873  1
  Se  Se5  1  0.95974502  0.91949005  0.70942127  1
  Se  Se6  1  0.77372344  0.54744689  0.33492116  1
  Se  Se7  1  0.22627656  0.45255311  0.66507884  1
  Se  Se8  1  0.36560012  0.73120025  0.03066670  1
  Se  Se9  1  0.63439988  0.26879975  0.96933330  1
