# generated using pymatgen
data_LaFe2AsN
_symmetry_space_group_name_H-M   'P 1'
_cell_length_a   3.78900520
_cell_length_b   5.86269668
_cell_length_c   7.11287712
_cell_angle_alpha   90.00000000
_cell_angle_beta   90.00000000
_cell_angle_gamma   108.85324348
_symmetry_Int_Tables_number   1
_chemical_formula_structural   LaFe2AsN
_chemical_formula_sum   'La2 Fe4 As2 N2'
_cell_volume   149.52693600
_cell_formula_units_Z   2
loop_
 _symmetry_equiv_pos_site_id
 _symmetry_equiv_pos_as_xyz
  1  'x, y, z'
loop_
 _atom_site_type_symbol
 _atom_site_label
 _atom_site_symmetry_multiplicity
 _atom_site_fract_x
 _atom_site_fract_y
 _atom_site_fract_z
 _atom_site_occupancy
  La  La0  1  0.45955723  0.91911446  0.25000000  1
  La  La1  1  0.54044277  0.08088554  0.75000000  1
  Fe  Fe2  1  0.16882564  0.33765128  0.44451288  1
  Fe  Fe3  1  0.83117436  0.66234872  0.55548712  1
  Fe  Fe4  1  0.16882564  0.33765128  0.05548712  1
  Fe  Fe5  1  0.83117436  0.66234872  0.94451288  1
  As  As6  1  0.73261852  0.46523705  0.25000000  1
  As  As7  1  0.26738148  0.53476295  0.75000000  1
  N  N8  1  -0.00000000  -0.00000000  0.50000000  1
  N  N9  1  -0.00000000  -0.00000000  0.00000000  1
