# generated using pymatgen
data_Li7Mn2(CoO4)3
_symmetry_space_group_name_H-M   'P 1'
_cell_length_a   2.89919224
_cell_length_b   5.17705194
_cell_length_c   14.50653030
_cell_angle_alpha   90.65939241
_cell_angle_beta   90.00000000
_cell_angle_gamma   90.00000000
_symmetry_Int_Tables_number   1
_chemical_formula_structural   Li7Mn2(CoO4)3
_chemical_formula_sum   'Li7 Mn2 Co3 O12'
_cell_volume   217.71799407
_cell_formula_units_Z   1
loop_
 _symmetry_equiv_pos_site_id
 _symmetry_equiv_pos_as_xyz
  1  'x, y, z'
loop_
 _atom_site_type_symbol
 _atom_site_label
 _atom_site_symmetry_multiplicity
 _atom_site_fract_x
 _atom_site_fract_y
 _atom_site_fract_z
 _atom_site_occupancy
  Li  Li0  1  -0.00000000  0.33333300  0.16666700  1
  Li  Li1  1  0.50000000  0.16642122  0.33756583  1
  Li  Li2  1  -0.00000000  -0.00108009  0.51084944  1
  Li  Li3  1  0.50000000  0.83333300  0.66666700  1
  Li  Li4  1  0.00000000  0.66774709  0.82248356  1
  Li  Li5  1  0.50000000  0.50024578  0.99576717  1
  Li  Li6  1  0.00000000  0.33333300  0.66666700  1
  Mn  Mn7  1  -0.00000000  0.00479353  0.99889288  1
  Mn  Mn8  1  0.00000000  0.66187347  0.33444012  1
  Co  Co9  1  0.50000000  0.83333300  0.16666700  1
  Co  Co10  1  0.50000000  0.47807301  0.51272787  1
  Co  Co11  1  0.50000000  0.18859399  0.82060513  1
  O  O12  1  0.00000000  0.96414468  0.25032950  1
  O  O13  1  0.50000000  0.81187900  0.40404299  1
  O  O14  1  0.00000000  0.66303067  0.57462006  1
  O  O15  1  0.50000000  0.48215507  0.75853207  1
  O  O16  1  -0.00000000  0.29488436  0.91986450  1
  O  O17  1  0.50000000  0.15692259  0.07522912  1
  O  O18  1  -0.00000000  0.70252232  0.08300350  1
  O  O19  1  0.50000000  0.50974341  0.25810488  1
  O  O20  1  0.00000000  0.37178264  0.41346850  1
  O  O21  1  0.50000000  0.18451193  0.57480093  1
  O  O22  1  -0.00000000  0.00363533  0.75871394  1
  O  O23  1  0.50000000  0.85478800  0.92929001  1
