# generated using pymatgen
data_YbGa2Ni
_symmetry_space_group_name_H-M   'P 1'
_cell_length_a   4.09418138
_cell_length_b   5.19582873
_cell_length_c   6.95542781
_cell_angle_alpha   90.00000000
_cell_angle_beta   90.00000000
_cell_angle_gamma   113.20282681
_symmetry_Int_Tables_number   1
_chemical_formula_structural   YbGa2Ni
_chemical_formula_sum   'Yb2 Ga4 Ni2'
_cell_volume   135.99283685
_cell_formula_units_Z   2
loop_
 _symmetry_equiv_pos_site_id
 _symmetry_equiv_pos_as_xyz
  1  'x, y, z'
loop_
 _atom_site_type_symbol
 _atom_site_label
 _atom_site_symmetry_multiplicity
 _atom_site_fract_x
 _atom_site_fract_y
 _atom_site_fract_z
 _atom_site_occupancy
  Yb  Yb0  1  0.43296957  0.86593914  0.25000000  1
  Yb  Yb1  1  0.56703043  0.13406086  0.75000000  1
  Ga  Ga2  1  0.14731962  0.29463923  0.44594571  1
  Ga  Ga3  1  0.85268038  0.70536077  0.55405429  1
  Ga  Ga4  1  0.14731962  0.29463923  0.05405429  1
  Ga  Ga5  1  0.85268038  0.70536077  0.94594571  1
  Ni  Ni6  1  0.71197075  0.42394149  0.25000000  1
  Ni  Ni7  1  0.28802925  0.57605851  0.75000000  1
