# generated using pymatgen
data_Ca2GePt2
_symmetry_space_group_name_H-M   'P 1'
_cell_length_a   5.63016262
_cell_length_b   5.63016262
_cell_length_c   8.00292870
_cell_angle_alpha   79.51842016
_cell_angle_beta   79.51842016
_cell_angle_gamma   60.51861243
_symmetry_Int_Tables_number   1
_chemical_formula_structural   Ca2GePt2
_chemical_formula_sum   'Ca4 Ge2 Pt4'
_cell_volume   215.88121720
_cell_formula_units_Z   2
loop_
 _symmetry_equiv_pos_site_id
 _symmetry_equiv_pos_as_xyz
  1  'x, y, z'
loop_
 _atom_site_type_symbol
 _atom_site_label
 _atom_site_symmetry_multiplicity
 _atom_site_fract_x
 _atom_site_fract_y
 _atom_site_fract_z
 _atom_site_occupancy
  Ca  Ca0  1  0.21802338  0.47791344  0.15349999  1
  Ca  Ca1  1  0.52208656  0.78197662  0.34650001  1
  Ca  Ca2  1  0.78197662  0.52208656  0.84650001  1
  Ca  Ca3  1  0.47791344  0.21802338  0.65349999  1
  Ge  Ge4  1  0.87448179  0.12551821  0.25000000  1
  Ge  Ge5  1  0.12551821  0.87448179  0.75000000  1
  Pt  Pt6  1  0.99534958  0.26089574  0.49949634  1
  Pt  Pt7  1  0.73910426  0.00465042  0.00050366  1
  Pt  Pt8  1  0.00465042  0.73910426  0.50050366  1
  Pt  Pt9  1  0.26089574  0.99534958  0.99949634  1
