# generated using pymatgen
data_Li2CuSn2
_symmetry_space_group_name_H-M   'P 1'
_cell_length_a   4.42025419
_cell_length_b   4.42025419
_cell_length_c   10.24443770
_cell_angle_alpha   102.45890276
_cell_angle_beta   102.45890276
_cell_angle_gamma   90.00000000
_symmetry_Int_Tables_number   1
_chemical_formula_structural   Li2CuSn2
_chemical_formula_sum   'Li4 Cu2 Sn4'
_cell_volume   190.61868047
_cell_formula_units_Z   2
loop_
 _symmetry_equiv_pos_site_id
 _symmetry_equiv_pos_as_xyz
  1  'x, y, z'
loop_
 _atom_site_type_symbol
 _atom_site_label
 _atom_site_symmetry_multiplicity
 _atom_site_fract_x
 _atom_site_fract_y
 _atom_site_fract_z
 _atom_site_occupancy
  Li  Li0  1  0.20110897  0.45110897  0.40221793  1
  Li  Li1  1  0.45110897  0.20110897  0.90221793  1
  Li  Li2  1  0.79889103  0.54889103  0.59778207  1
  Li  Li3  1  0.54889103  0.79889103  0.09778207  1
  Cu  Cu4  1  0.62500000  0.37500000  0.25000000  1
  Cu  Cu5  1  0.37500000  0.62500000  0.75000000  1
  Sn  Sn6  1  0.69835968  0.94835968  0.39671936  1
  Sn  Sn7  1  0.94835968  0.69835968  0.89671936  1
  Sn  Sn8  1  0.30164032  0.05164032  0.60328064  1
  Sn  Sn9  1  0.05164032  0.30164032  0.10328064  1
