# generated using pymatgen
data_ZnCu2SiTe4
_symmetry_space_group_name_H-M   'P 1'
_cell_length_a   6.02942213
_cell_length_b   6.02942213
_cell_length_c   7.36762143
_cell_angle_alpha   114.15357412
_cell_angle_beta   114.15357412
_cell_angle_gamma   90.00000000
_symmetry_Int_Tables_number   1
_chemical_formula_structural   ZnCu2SiTe4
_chemical_formula_sum   'Zn1 Cu2 Si1 Te4'
_cell_volume   218.44107348
_cell_formula_units_Z   1
loop_
 _symmetry_equiv_pos_site_id
 _symmetry_equiv_pos_as_xyz
  1  'x, y, z'
loop_
 _atom_site_type_symbol
 _atom_site_label
 _atom_site_symmetry_multiplicity
 _atom_site_fract_x
 _atom_site_fract_y
 _atom_site_fract_z
 _atom_site_occupancy
  Zn  Zn0  1  0.00000000  0.00000000  0.00000000  1
  Cu  Cu1  1  0.75000000  0.25000000  0.50000000  1
  Cu  Cu2  1  0.25000000  0.75000000  0.50000000  1
  Si  Si3  1  0.50000000  0.50000000  0.00000000  1
  Te  Te4  1  0.87170162  0.87170162  0.25973066  1
  Te  Te5  1  0.38802904  0.38802904  0.25973066  1
  Te  Te6  1  0.12829838  0.61197096  0.74026934  1
  Te  Te7  1  0.61197096  0.12829838  0.74026934  1
