# generated using pymatgen
data_HoAlCu
_symmetry_space_group_name_H-M   'P 1'
_cell_length_a   4.03715254
_cell_length_b   6.95630717
_cell_length_c   6.95665617
_cell_angle_alpha   119.99834398
_cell_angle_beta   90.00000000
_cell_angle_gamma   90.00000000
_symmetry_Int_Tables_number   1
_chemical_formula_structural   HoAlCu
_chemical_formula_sum   'Ho3 Al3 Cu3'
_cell_volume   169.19687123
_cell_formula_units_Z   3
loop_
 _symmetry_equiv_pos_site_id
 _symmetry_equiv_pos_as_xyz
  1  'x, y, z'
loop_
 _atom_site_type_symbol
 _atom_site_label
 _atom_site_symmetry_multiplicity
 _atom_site_fract_x
 _atom_site_fract_y
 _atom_site_fract_z
 _atom_site_occupancy
  Ho  Ho0  1  0.50000000  0.58595795  0.00000000  1
  Ho  Ho1  1  0.50000000  0.41407887  0.41404945  1
  Ho  Ho2  1  0.50000000  0.00002942  0.58595055  1
  Al  Al3  1  0.00000000  0.23550135  1.00000000  1
  Al  Al4  1  0.00000000  0.76455202  0.76453584  1
  Al  Al5  1  0.00000000  0.00001618  0.23546416  1
  Cu  Cu6  1  0.50000000  -0.00013451  0.00000000  1
  Cu  Cu7  1  0.00000000  0.33332251  0.66674628  1
  Cu  Cu8  1  0.00000000  0.66657623  0.33325372  1
