# generated using pymatgen
data_Sr2MgMoO6
_symmetry_space_group_name_H-M   'P 1'
_cell_length_a   5.64154105
_cell_length_b   5.63735581
_cell_length_c   5.66258133
_cell_angle_alpha   60.19859846
_cell_angle_beta   60.03122816
_cell_angle_gamma   89.94394241
_symmetry_Int_Tables_number   1
_chemical_formula_structural   Sr2MgMoO6
_chemical_formula_sum   'Sr2 Mg1 Mo1 O6'
_cell_volume   127.84461759
_cell_formula_units_Z   1
loop_
 _symmetry_equiv_pos_site_id
 _symmetry_equiv_pos_as_xyz
  1  'x, y, z'
loop_
 _atom_site_type_symbol
 _atom_site_label
 _atom_site_symmetry_multiplicity
 _atom_site_fract_x
 _atom_site_fract_y
 _atom_site_fract_z
 _atom_site_occupancy
  Sr  Sr0  1  0.75012067  0.25024212  0.50032412  1
  Sr  Sr1  1  0.24987933  0.74975788  0.49967588  1
  Mg  Mg2  1  0.50000000  0.50000000  0.00000000  1
  Mo  Mo3  1  0.00000000  0.00000000  0.00000000  1
  O  O4  1  0.75623658  0.75914131  0.48364569  1
  O  O5  1  0.24376342  0.24085869  0.51635431  1
  O  O6  1  0.79188295  0.72688281  0.99858124  1
  O  O7  1  0.20811705  0.27311719  0.00141876  1
  O  O8  1  0.72679506  0.20990226  0.99901485  1
  O  O9  1  0.27320494  0.79009774  0.00098515  1
