# generated using pymatgen
data_Sr2NiIrO6
_symmetry_space_group_name_H-M   'P 1'
_cell_length_a   5.60808194
_cell_length_b   5.60808194
_cell_length_c   5.64343213
_cell_angle_alpha   119.79299954
_cell_angle_beta   119.79299942
_cell_angle_gamma   90.00000000
_symmetry_Int_Tables_number   1
_chemical_formula_structural   Sr2NiIrO6
_chemical_formula_sum   'Sr2 Ni1 Ir1 O6'
_cell_volume   126.28511782
_cell_formula_units_Z   1
loop_
 _symmetry_equiv_pos_site_id
 _symmetry_equiv_pos_as_xyz
  1  'x, y, z'
loop_
 _atom_site_type_symbol
 _atom_site_label
 _atom_site_symmetry_multiplicity
 _atom_site_fract_x
 _atom_site_fract_y
 _atom_site_fract_z
 _atom_site_occupancy
  Sr  Sr0  1  0.75000000  0.25000000  0.50000000  1
  Sr  Sr1  1  0.25000000  0.75000000  0.50000000  1
  Ni  Ni2  1  0.00000000  -0.00000000  -0.00000000  1
  Ir  Ir3  1  0.50000000  0.50000000  -0.00000000  1
  O  O4  1  0.25646559  0.25646559  0.51293119  1
  O  O5  1  0.74353441  0.74353441  0.48706881  1
  O  O6  1  0.28961145  0.22278026  1.00000000  1
  O  O7  1  0.71038855  0.77721974  0.00000000  1
  O  O8  1  0.77721974  0.28961145  0.00000000  1
  O  O9  1  0.22278026  0.71038855  1.00000000  1
