# generated using pymatgen
data_Ni6Ge2B
_symmetry_space_group_name_H-M   'P 1'
_cell_length_a   2.95628587
_cell_length_b   6.20135152
_cell_length_c   6.20211081
_cell_angle_alpha   119.99594524
_cell_angle_beta   90.00000000
_cell_angle_gamma   90.00000000
_symmetry_Int_Tables_number   1
_chemical_formula_structural   Ni6Ge2B
_chemical_formula_sum   'Ni6 Ge2 B1'
_cell_volume   98.47379462
_cell_formula_units_Z   1
loop_
 _symmetry_equiv_pos_site_id
 _symmetry_equiv_pos_as_xyz
  1  'x, y, z'
loop_
 _atom_site_type_symbol
 _atom_site_label
 _atom_site_symmetry_multiplicity
 _atom_site_fract_x
 _atom_site_fract_y
 _atom_site_fract_z
 _atom_site_occupancy
  Ni  Ni0  1  -0.00000000  0.23522166  0.00000000  1
  Ni  Ni1  1  0.00000000  0.76466105  0.76473709  1
  Ni  Ni2  1  0.00000000  -0.00007604  0.23526291  1
  Ni  Ni3  1  0.50000000  0.61955700  1.00000000  1
  Ni  Ni4  1  0.50000000  0.38053089  0.38051996  1
  Ni  Ni5  1  0.50000000  0.00001093  0.61948004  1
  Ge  Ge6  1  -0.00000000  0.33331709  0.66668903  1
  Ge  Ge7  1  -0.00000000  0.66662806  0.33331097  1
  B  B8  1  0.50000000  0.00004935  0.00000000  1
