# generated using pymatgen
data_ErZnNi
_symmetry_space_group_name_H-M   'P 1'
_cell_length_a   3.72166536
_cell_length_b   6.98950073
_cell_length_c   6.98932013
_cell_angle_alpha   120.00085121
_cell_angle_beta   90.00000000
_cell_angle_gamma   90.00000000
_symmetry_Int_Tables_number   1
_chemical_formula_structural   ErZnNi
_chemical_formula_sum   'Er3 Zn3 Ni3'
_cell_volume   157.45096023
_cell_formula_units_Z   3
loop_
 _symmetry_equiv_pos_site_id
 _symmetry_equiv_pos_as_xyz
  1  'x, y, z'
loop_
 _atom_site_type_symbol
 _atom_site_label
 _atom_site_symmetry_multiplicity
 _atom_site_fract_x
 _atom_site_fract_y
 _atom_site_fract_z
 _atom_site_occupancy
  Er  Er0  1  0.50000000  0.58664578  1.00000000  1
  Er  Er1  1  0.50000000  0.41316301  0.41315982  1
  Er  Er2  1  0.50000000  0.00000319  0.58684018  1
  Zn  Zn3  1  -0.00000000  0.24194066  1.00000000  1
  Zn  Zn4  1  0.00000000  0.75805711  0.75812609  1
  Zn  Zn5  1  0.00000000  0.99993101  0.24187391  1
  Ni  Ni6  1  0.00000000  0.33336355  0.66665781  1
  Ni  Ni7  1  0.00000000  0.66670574  0.33334219  1
  Ni  Ni8  1  0.50000000  0.00008994  0.00000000  1
