# generated using pymatgen
data_GaPd
_symmetry_space_group_name_H-M   'P 1'
_cell_length_a   4.96338559
_cell_length_b   4.96338559
_cell_length_c   4.96338559
_cell_angle_alpha   90.00000000
_cell_angle_beta   90.00000000
_cell_angle_gamma   90.00000000
_symmetry_Int_Tables_number   1
_chemical_formula_structural   GaPd
_chemical_formula_sum   'Ga4 Pd4'
_cell_volume   122.27397939
_cell_formula_units_Z   4
loop_
 _symmetry_equiv_pos_site_id
 _symmetry_equiv_pos_as_xyz
  1  'x, y, z'
loop_
 _atom_site_type_symbol
 _atom_site_label
 _atom_site_symmetry_multiplicity
 _atom_site_fract_x
 _atom_site_fract_y
 _atom_site_fract_z
 _atom_site_occupancy
  Ga  Ga0  1  0.40734949  0.90734949  0.59265051  1
  Ga  Ga1  1  0.90734949  0.59265051  0.40734949  1
  Ga  Ga2  1  0.59265051  0.40734949  0.90734949  1
  Ga  Ga3  1  0.09265051  0.09265051  0.09265051  1
  Pd  Pd4  1  0.10838478  0.60838478  0.89161522  1
  Pd  Pd5  1  0.60838478  0.89161522  0.10838478  1
  Pd  Pd6  1  0.89161522  0.10838478  0.60838478  1
  Pd  Pd7  1  0.39161522  0.39161522  0.39161522  1
