# generated using pymatgen
data_Li7Mn2(CoO4)3
_symmetry_space_group_name_H-M   'P 1'
_cell_length_a   2.90471258
_cell_length_b   15.39829972
_cell_length_c   5.14988679
_cell_angle_alpha   99.36096342
_cell_angle_beta   73.61938041
_cell_angle_gamma   89.99999789
_symmetry_Int_Tables_number   1
_chemical_formula_structural   Li7Mn2(CoO4)3
_chemical_formula_sum   'Li7 Mn2 Co3 O12'
_cell_volume   217.79346878
_cell_formula_units_Z   1
loop_
 _symmetry_equiv_pos_site_id
 _symmetry_equiv_pos_as_xyz
  1  'x, y, z'
loop_
 _atom_site_type_symbol
 _atom_site_label
 _atom_site_symmetry_multiplicity
 _atom_site_fract_x
 _atom_site_fract_y
 _atom_site_fract_z
 _atom_site_occupancy
  Li  Li0  1  0.24703321  0.09482395  0.50593358  1
  Li  Li1  1  0.75670247  0.24632563  0.48659507  1
  Li  Li2  1  0.25725417  0.41154659  0.48549165  1
  Li  Li3  1  0.74383161  0.57691814  0.51233679  1
  Li  Li4  1  0.25314253  0.75471666  0.49371495  1
  Li  Li5  1  0.74464307  0.92054033  0.51071386  1
  Li  Li6  1  0.49735427  0.16665198  0.00529147  1
  Mn  Mn7  1  0.99540241  0.00559935  0.00919518  1
  Mn  Mn8  1  -0.00018975  0.66565433  0.00037949  1
  Co  Co9  1  0.00784652  0.31848582  0.98430697  1
  Co  Co10  1  0.49995680  0.48987735  0.00008639  1
  Co  Co11  1  0.50142338  0.83496616  0.99715325  1
  O  O12  1  0.88261271  0.11230228  0.23477458  1
  O  O13  1  0.38648313  0.29636748  0.22703373  1
  O  O14  1  0.87782772  0.46499677  0.24434455  1
  O  O15  1  0.39021800  0.63010480  0.21956400  1
  O  O16  1  0.88829019  0.78496532  0.22341962  1
  O  O17  1  0.38963348  0.95852646  0.22073303  1
  O  O18  1  0.60737528  0.03576001  0.78524945  1
  O  O19  1  0.12502908  0.21627091  0.74994183  1
  O  O20  1  0.61441445  0.38202774  0.77117110  1
  O  O21  1  0.10720559  0.55076578  0.78558882  1
  O  O22  1  0.61067854  0.70403259  0.77864292  1
  O  O23  1  0.11583113  0.87777355  0.76833773  1
