# generated using pymatgen
data_Na2TcF6
_symmetry_space_group_name_H-M   'P 1'
_cell_length_a   4.37267555
_cell_length_b   5.62016372
_cell_length_c   5.62015827
_cell_angle_alpha   120.00020818
_cell_angle_beta   89.99998886
_cell_angle_gamma   89.99953838
_symmetry_Int_Tables_number   1
_chemical_formula_structural   Na2TcF6
_chemical_formula_sum   'Na2 Tc1 F6'
_cell_volume   119.61192719
_cell_formula_units_Z   1
loop_
 _symmetry_equiv_pos_site_id
 _symmetry_equiv_pos_as_xyz
  1  'x, y, z'
loop_
 _atom_site_type_symbol
 _atom_site_label
 _atom_site_symmetry_multiplicity
 _atom_site_fract_x
 _atom_site_fract_y
 _atom_site_fract_z
 _atom_site_occupancy
  Na  Na0  1  0.31313874  0.33338164  0.66669082  1
  Na  Na1  1  0.68686126  0.66661836  0.33330918  1
  Tc  Tc2  1  -0.00000000  0.00000000  0.00000000  1
  F  F3  1  0.24136264  0.82932382  0.65879955  1
  F  F4  1  0.24135759  0.34120052  0.17053366  1
  F  F5  1  0.24136168  0.82945762  0.17065710  1
  F  F6  1  0.75863736  0.17067618  0.34120045  1
  F  F7  1  0.75864241  0.65879948  0.82946634  1
  F  F8  1  0.75863832  0.17054238  0.82934290  1
