# generated using pymatgen
data_ThAlPd
_symmetry_space_group_name_H-M   'P 1'
_cell_length_a   4.20022586
_cell_length_b   7.32648192
_cell_length_c   7.32834692
_cell_angle_alpha   119.99158478
_cell_angle_beta   90.00000000
_cell_angle_gamma   90.00000000
_symmetry_Int_Tables_number   1
_chemical_formula_structural   ThAlPd
_chemical_formula_sum   'Th3 Al3 Pd3'
_cell_volume   195.31769926
_cell_formula_units_Z   3
loop_
 _symmetry_equiv_pos_site_id
 _symmetry_equiv_pos_as_xyz
  1  'x, y, z'
loop_
 _atom_site_type_symbol
 _atom_site_label
 _atom_site_symmetry_multiplicity
 _atom_site_fract_x
 _atom_site_fract_y
 _atom_site_fract_z
 _atom_site_occupancy
  Th  Th0  1  0.50000000  0.58169201  1.00000000  1
  Th  Th1  1  0.50000000  0.41824144  0.41826984  1
  Th  Th2  1  0.50000000  -0.00002840  0.58173016  1
  Al  Al3  1  -0.00000000  0.23275527  1.00000000  1
  Al  Al4  1  -0.00000000  0.76721339  0.76720505  1
  Al  Al5  1  -0.00000000  0.00000834  0.23279495  1
  Pd  Pd6  1  -0.00000000  0.33332824  0.66666429  1
  Pd  Pd7  1  -0.00000000  0.66666395  0.33333571  1
  Pd  Pd8  1  0.50000000  0.00002576  0.00000000  1
