# generated using pymatgen
data_ThAlNi
_symmetry_space_group_name_H-M   'P 1'
_cell_length_a   4.06589869
_cell_length_b   7.05153173
_cell_length_c   7.05152250
_cell_angle_alpha   120.00003861
_cell_angle_beta   90.00000000
_cell_angle_gamma   90.00000000
_symmetry_Int_Tables_number   1
_chemical_formula_structural   ThAlNi
_chemical_formula_sum   'Th3 Al3 Ni3'
_cell_volume   175.08678829
_cell_formula_units_Z   3
loop_
 _symmetry_equiv_pos_site_id
 _symmetry_equiv_pos_as_xyz
  1  'x, y, z'
loop_
 _atom_site_type_symbol
 _atom_site_label
 _atom_site_symmetry_multiplicity
 _atom_site_fract_x
 _atom_site_fract_y
 _atom_site_fract_z
 _atom_site_occupancy
  Th  Th0  1  0.50000000  0.57667512  0.00000000  1
  Th  Th1  1  0.50000000  0.42330390  0.42332028  1
  Th  Th2  1  0.50000000  0.99998361  0.57667972  1
  Al  Al3  1  0.00000000  0.22924024  1.00000000  1
  Al  Al4  1  0.00000000  0.77075837  0.77076007  1
  Al  Al5  1  0.00000000  0.99999830  0.22923993  1
  Ni  Ni6  1  0.00000000  0.33331268  0.66668554  1
  Ni  Ni7  1  0.00000000  0.66662715  0.33331446  1
  Ni  Ni8  1  0.50000000  0.00000063  0.00000000  1
