# generated using pymatgen
data_Sc2InCu2
_symmetry_space_group_name_H-M   'P 1'
_cell_length_a   3.38431977
_cell_length_b   7.34055072
_cell_length_c   7.34055072
_cell_angle_alpha   90.00000000
_cell_angle_beta   90.00000000
_cell_angle_gamma   90.00000000
_symmetry_Int_Tables_number   1
_chemical_formula_structural   Sc2InCu2
_chemical_formula_sum   'Sc4 In2 Cu4'
_cell_volume   182.35962000
_cell_formula_units_Z   2
loop_
 _symmetry_equiv_pos_site_id
 _symmetry_equiv_pos_as_xyz
  1  'x, y, z'
loop_
 _atom_site_type_symbol
 _atom_site_label
 _atom_site_symmetry_multiplicity
 _atom_site_fract_x
 _atom_site_fract_y
 _atom_site_fract_z
 _atom_site_occupancy
  Sc  Sc0  1  0.00000000  0.33183498  0.66816502  1
  Sc  Sc1  1  0.00000000  0.66816502  0.33183498  1
  Sc  Sc2  1  0.00000000  0.16816502  0.16816502  1
  Sc  Sc3  1  0.00000000  0.83183498  0.83183498  1
  In  In4  1  0.50000000  0.00000000  0.50000000  1
  In  In5  1  0.50000000  0.50000000  0.00000000  1
  Cu  Cu6  1  0.50000000  0.12391361  0.87608639  1
  Cu  Cu7  1  0.50000000  0.87608639  0.12391361  1
  Cu  Cu8  1  0.50000000  0.37608639  0.37608639  1
  Cu  Cu9  1  0.50000000  0.62391361  0.62391361  1
