# generated using pymatgen
data_Li7Mn2(CoO4)3
_symmetry_space_group_name_H-M   'P 1'
_cell_length_a   2.94200256
_cell_length_b   7.88127378
_cell_length_c   10.24662914
_cell_angle_alpha   68.97945691
_cell_angle_beta   90.00000006
_cell_angle_gamma   79.24294313
_symmetry_Int_Tables_number   1
_chemical_formula_structural   Li7Mn2(CoO4)3
_chemical_formula_sum   'Li7 Mn2 Co3 O12'
_cell_volume   217.29634516
_cell_formula_units_Z   1
loop_
 _symmetry_equiv_pos_site_id
 _symmetry_equiv_pos_as_xyz
  1  'x, y, z'
loop_
 _atom_site_type_symbol
 _atom_site_label
 _atom_site_symmetry_multiplicity
 _atom_site_fract_x
 _atom_site_fract_y
 _atom_site_fract_z
 _atom_site_occupancy
  Li  Li0  1  0.82882274  0.34235353  0.58022312  1
  Li  Li1  1  0.16485642  0.67028816  0.90275979  1
  Li  Li2  1  0.50107229  -0.00214458  0.25887167  1
  Li  Li3  1  0.82982191  0.34035517  0.09076584  1
  Li  Li4  1  0.16560577  0.66878946  0.43112443  1
  Li  Li5  1  0.50344158  0.99311684  0.73471302  1
  Li  Li6  1  0.66539973  0.66920154  0.65992229  1
  Mn  Mn7  1  0.00059869  -0.00119738  0.00122589  1
  Mn  Mn8  1  0.32719404  0.34561092  0.82539553  1
  Co  Co9  1  0.34200306  0.31599288  0.34159283  1
  Co  Co10  1  0.01233115  0.97533770  0.51060965  1
  Co  Co11  1  0.67464869  0.65070363  0.17876969  1
  O  O12  1  0.76233129  0.47533841  0.87355570  1
  O  O13  1  0.08182572  0.83634855  0.18922461  1
  O  O14  1  0.41204200  0.17591501  0.53064910  1
  O  O15  1  0.74682995  0.50634111  0.36565975  1
  O  O16  1  0.07649086  0.84701827  0.70013812  1
  O  O17  1  0.42464925  0.15070050  0.03057610  1
  O  O18  1  0.91395844  0.17208313  0.29547517  1
  O  O19  1  0.25779691  0.48440519  0.64220637  1
  O  O20  1  0.57241191  0.85517718  0.96402782  1
  O  O21  1  0.90979000  0.18042000  0.80635609  1
  O  O22  1  0.24651201  0.50697498  0.12835587  1
  O  O23  1  0.57956560  0.84086981  0.45780155  1
