# generated using pymatgen
data_GdAl
_symmetry_space_group_name_H-M   'P 1'
_cell_length_a   5.65992569
_cell_length_b   5.90734580
_cell_length_c   5.90734580
_cell_angle_alpha   100.49914221
_cell_angle_beta   90.00000000
_cell_angle_gamma   90.00000000
_symmetry_Int_Tables_number   1
_chemical_formula_structural   GdAl
_chemical_formula_sum   'Gd4 Al4'
_cell_volume   194.20609012
_cell_formula_units_Z   4
loop_
 _symmetry_equiv_pos_site_id
 _symmetry_equiv_pos_as_xyz
  1  'x, y, z'
loop_
 _atom_site_type_symbol
 _atom_site_label
 _atom_site_symmetry_multiplicity
 _atom_site_fract_x
 _atom_site_fract_y
 _atom_site_fract_z
 _atom_site_occupancy
  Gd  Gd0  1  0.25000000  0.97554778  0.33594433  1
  Gd  Gd1  1  0.75000000  0.66405567  0.02445222  1
  Gd  Gd2  1  0.75000000  0.02445222  0.66405567  1
  Gd  Gd3  1  0.25000000  0.33594433  0.97554778  1
  Al  Al4  1  0.50000000  0.50000000  0.50000000  1
  Al  Al5  1  0.00000000  0.50000000  0.50000000  1
  Al  Al6  1  0.25000000  0.80957765  0.80957765  1
  Al  Al7  1  0.75000000  0.19042235  0.19042235  1
