# generated using pymatgen
data_YbAlCu
_symmetry_space_group_name_H-M   'P 1'
_cell_length_a   3.98198433
_cell_length_b   7.09136764
_cell_length_c   7.09037694
_cell_angle_alpha   120.00462792
_cell_angle_beta   90.00000000
_cell_angle_gamma   90.00000000
_symmetry_Int_Tables_number   1
_chemical_formula_structural   YbAlCu
_chemical_formula_sum   'Yb3 Al3 Cu3'
_cell_volume   173.38409210
_cell_formula_units_Z   3
loop_
 _symmetry_equiv_pos_site_id
 _symmetry_equiv_pos_as_xyz
  1  'x, y, z'
loop_
 _atom_site_type_symbol
 _atom_site_label
 _atom_site_symmetry_multiplicity
 _atom_site_fract_x
 _atom_site_fract_y
 _atom_site_fract_z
 _atom_site_occupancy
  Yb  Yb0  1  0.50000000  0.58358776  1.00000000  1
  Yb  Yb1  1  0.50000000  0.41638446  0.41638632  1
  Yb  Yb2  1  0.50000000  0.99999815  0.58361368  1
  Al  Al3  1  -0.00000000  0.23509127  1.00000000  1
  Al  Al4  1  -0.00000000  0.76489535  0.76491326  1
  Al  Al5  1  -0.00000000  0.99998209  0.23508674  1
  Cu  Cu6  1  -0.00000000  0.33331698  0.66667622  1
  Cu  Cu7  1  -0.00000000  0.66664076  0.33332378  1
  Cu  Cu8  1  0.50000000  0.00000317  0.00000000  1
