# generated using pymatgen
data_NaCd4As3
_symmetry_space_group_name_H-M   'P 1'
_cell_length_a   4.54467068
_cell_length_b   4.54467068
_cell_length_c   11.68195318
_cell_angle_alpha   78.78350845
_cell_angle_beta   78.78350845
_cell_angle_gamma   60.00000554
_symmetry_Int_Tables_number   1
_chemical_formula_structural   NaCd4As3
_chemical_formula_sum   'Na1 Cd4 As3'
_cell_volume   203.61515668
_cell_formula_units_Z   1
loop_
 _symmetry_equiv_pos_site_id
 _symmetry_equiv_pos_as_xyz
  1  'x, y, z'
loop_
 _atom_site_type_symbol
 _atom_site_label
 _atom_site_symmetry_multiplicity
 _atom_site_fract_x
 _atom_site_fract_y
 _atom_site_fract_z
 _atom_site_occupancy
  Na  Na0  1  0.50000000  0.50000000  0.50000000  1
  Cd  Cd1  1  0.09546882  0.09546882  0.71359355  1
  Cd  Cd2  1  0.90453118  0.90453118  0.28640645  1
  Cd  Cd3  1  0.29917576  0.29917576  0.10247271  1
  Cd  Cd4  1  0.70082424  0.70082424  0.89752729  1
  As  As5  1  0.21979516  0.21979516  0.34061453  1
  As  As6  1  0.78020484  0.78020484  0.65938547  1
  As  As7  1  -0.00000000  -0.00000000  0.00000000  1
