# generated using pymatgen
data_DyNiGe2
_symmetry_space_group_name_H-M   'P 1'
_cell_length_a   4.22612033
_cell_length_b   4.11736612
_cell_length_c   8.47374804
_cell_angle_alpha   104.06061963
_cell_angle_beta   90.00000000
_cell_angle_gamma   90.00000000
_symmetry_Int_Tables_number   1
_chemical_formula_structural   DyNiGe2
_chemical_formula_sum   'Dy2 Ni2 Ge4'
_cell_volume   143.02968709
_cell_formula_units_Z   2
loop_
 _symmetry_equiv_pos_site_id
 _symmetry_equiv_pos_as_xyz
  1  'x, y, z'
loop_
 _atom_site_type_symbol
 _atom_site_label
 _atom_site_symmetry_multiplicity
 _atom_site_fract_x
 _atom_site_fract_y
 _atom_site_fract_z
 _atom_site_occupancy
  Dy  Dy0  1  0.75000000  0.10898324  0.21796648  1
  Dy  Dy1  1  0.25000000  0.89101676  0.78203352  1
  Ni  Ni2  1  0.75000000  0.32056034  0.64112067  1
  Ni  Ni3  1  0.25000000  0.67943966  0.35887933  1
  Ge  Ge4  1  0.75000000  0.45972134  0.91944267  1
  Ge  Ge5  1  0.25000000  0.54027866  0.08055733  1
  Ge  Ge6  1  0.75000000  0.74896987  0.49793975  1
  Ge  Ge7  1  0.25000000  0.25103013  0.50206025  1
