# generated using pymatgen
data_YSnPt2
_symmetry_space_group_name_H-M   'P 1'
_cell_length_a   4.55783957
_cell_length_b   4.55783957
_cell_length_c   9.17161783
_cell_angle_alpha   90.00000000
_cell_angle_beta   90.00000000
_cell_angle_gamma   120.00515015
_symmetry_Int_Tables_number   1
_chemical_formula_structural   YSnPt2
_chemical_formula_sum   'Y2 Sn2 Pt4'
_cell_volume   164.99550372
_cell_formula_units_Z   2
loop_
 _symmetry_equiv_pos_site_id
 _symmetry_equiv_pos_as_xyz
  1  'x, y, z'
loop_
 _atom_site_type_symbol
 _atom_site_label
 _atom_site_symmetry_multiplicity
 _atom_site_fract_x
 _atom_site_fract_y
 _atom_site_fract_z
 _atom_site_occupancy
  Y  Y0  1  0.66665198  0.33334802  0.75000000  1
  Y  Y1  1  0.33334802  0.66665198  0.25000000  1
  Sn  Sn2  1  0.00000000  0.00000000  0.50000000  1
  Sn  Sn3  1  0.00000000  0.00000000  0.00000000  1
  Pt  Pt4  1  0.66672367  0.33327633  0.09072117  1
  Pt  Pt5  1  0.33327633  0.66672367  0.90927883  1
  Pt  Pt6  1  0.33327633  0.66672367  0.59072117  1
  Pt  Pt7  1  0.66672367  0.33327633  0.40927883  1
