# generated using pymatgen
data_LaTe3
_symmetry_space_group_name_H-M   'P 1'
_cell_length_a   4.43952717
_cell_length_b   4.42965662
_cell_length_c   13.77174409
_cell_angle_alpha   90.00000000
_cell_angle_beta   99.27553472
_cell_angle_gamma   90.00000000
_symmetry_Int_Tables_number   1
_chemical_formula_structural   LaTe3
_chemical_formula_sum   'La2 Te6'
_cell_volume   267.28815414
_cell_formula_units_Z   2
loop_
 _symmetry_equiv_pos_site_id
 _symmetry_equiv_pos_as_xyz
  1  'x, y, z'
loop_
 _atom_site_type_symbol
 _atom_site_label
 _atom_site_symmetry_multiplicity
 _atom_site_fract_x
 _atom_site_fract_y
 _atom_site_fract_z
 _atom_site_occupancy
  La  La0  1  0.17013405  0.75000000  0.34026810  1
  La  La1  1  0.82986595  0.25000000  0.65973190  1
  Te  Te2  1  0.92571619  0.75000000  0.85143239  1
  Te  Te3  1  0.07428381  0.25000000  0.14856761  1
  Te  Te4  1  0.57503670  0.75000000  0.15007340  1
  Te  Te5  1  0.42496330  0.25000000  0.84992660  1
  Te  Te6  1  0.29497419  0.75000000  0.58994838  1
  Te  Te7  1  0.70502581  0.25000000  0.41005162  1
