# generated using pymatgen
data_LaInNi
_symmetry_space_group_name_H-M   'P 1'
_cell_length_a   4.04139078
_cell_length_b   7.63908131
_cell_length_c   7.63864346
_cell_angle_alpha   120.00189477
_cell_angle_beta   90.00000000
_cell_angle_gamma   90.00000000
_symmetry_Int_Tables_number   1
_chemical_formula_structural   LaInNi
_chemical_formula_sum   'La3 In3 Ni3'
_cell_volume   204.22577756
_cell_formula_units_Z   3
loop_
 _symmetry_equiv_pos_site_id
 _symmetry_equiv_pos_as_xyz
  1  'x, y, z'
loop_
 _atom_site_type_symbol
 _atom_site_label
 _atom_site_symmetry_multiplicity
 _atom_site_fract_x
 _atom_site_fract_y
 _atom_site_fract_z
 _atom_site_occupancy
  La  La0  1  0.50000000  0.58541419  0.00000000  1
  La  La1  1  0.50000000  0.41463587  0.41470463  1
  La  La2  1  0.50000000  0.99993124  0.58529537  1
  In  In3  1  0.00000000  0.24396574  1.00000000  1
  In  In4  1  -0.00000000  0.75602068  0.75596366  1
  In  In5  1  -0.00000000  0.00005702  0.24403634  1
  Ni  Ni6  1  0.00000000  0.33330134  0.66672992  1
  Ni  Ni7  1  0.00000000  0.66657142  0.33327008  1
  Ni  Ni8  1  0.50000000  0.00000252  1.00000000  1
