# generated using pymatgen
data_Li7Mn2(CoO4)3
_symmetry_space_group_name_H-M   'P 1'
_cell_length_a   2.94101393
_cell_length_b   8.19817264
_cell_length_c   9.78862106
_cell_angle_alpha   113.81719360
_cell_angle_beta   90.00000000
_cell_angle_gamma   90.00000000
_symmetry_Int_Tables_number   1
_chemical_formula_structural   Li7Mn2(CoO4)3
_chemical_formula_sum   'Li7 Mn2 Co3 O12'
_cell_volume   215.91365235
_cell_formula_units_Z   1
loop_
 _symmetry_equiv_pos_site_id
 _symmetry_equiv_pos_as_xyz
  1  'x, y, z'
loop_
 _atom_site_type_symbol
 _atom_site_label
 _atom_site_symmetry_multiplicity
 _atom_site_fract_x
 _atom_site_fract_y
 _atom_site_fract_z
 _atom_site_occupancy
  Li  Li0  1  -0.00000000  0.82161896  0.65559799  1
  Li  Li1  1  0.00000000  0.49980384  0.99372311  1
  Li  Li2  1  0.00000000  0.17735121  0.34724087  1
  Li  Li3  1  0.50000000  0.34413170  0.17836998  1
  Li  Li4  1  0.50000000  0.01099611  0.49649979  1
  Li  Li5  1  0.50000000  0.64404644  0.82042430  1
  Li  Li6  1  -0.00000000  0.33859693  0.66458460  1
  Mn  Mn7  1  -0.00000000  0.99630235  -0.00185822  1
  Mn  Mn8  1  0.50000000  0.17499188  0.82852153  1
  Co  Co9  1  -0.00000000  0.66226909  0.34414863  1
  Co  Co10  1  0.50000000  0.48817087  0.51257962  1
  Co  Co11  1  0.50000000  0.82246377  0.17297752  1
  O  O12  1  -0.00000000  0.22800926  0.98161110  1
  O  O13  1  0.00000000  0.90778244  0.32380987  1
  O  O14  1  -0.00000000  0.58440595  0.66012021  1
  O  O15  1  0.50000000  0.74538154  0.49258509  1
  O  O16  1  0.50000000  0.39855571  0.83856616  1
  O  O17  1  0.50000000  0.06888057  0.14204684  1
  O  O18  1  -0.00000000  0.42921381  0.33197248  1
  O  O19  1  0.00000000  0.09244418  0.68987279  1
  O  O20  1  0.00000000  0.77188384  0.00808810  1
  O  O21  1  0.50000000  0.93539726  0.85324898  1
  O  O22  1  0.50000000  0.59708516  0.17044844  1
  O  O23  1  0.50000000  0.26021713  0.49482022  1
