# generated using pymatgen
data_TbSnPt2
_symmetry_space_group_name_H-M   'P 1'
_cell_length_a   4.56277842
_cell_length_b   4.56277842
_cell_length_c   9.17272066
_cell_angle_alpha   90.00000000
_cell_angle_beta   90.00000000
_cell_angle_gamma   120.00094601
_symmetry_Int_Tables_number   1
_chemical_formula_structural   TbSnPt2
_chemical_formula_sum   'Tb2 Sn2 Pt4'
_cell_volume   165.38016387
_cell_formula_units_Z   2
loop_
 _symmetry_equiv_pos_site_id
 _symmetry_equiv_pos_as_xyz
  1  'x, y, z'
loop_
 _atom_site_type_symbol
 _atom_site_label
 _atom_site_symmetry_multiplicity
 _atom_site_fract_x
 _atom_site_fract_y
 _atom_site_fract_z
 _atom_site_occupancy
  Tb  Tb0  1  0.66661758  0.33338242  0.75000000  1
  Tb  Tb1  1  0.33338242  0.66661758  0.25000000  1
  Sn  Sn2  1  0.00000000  0.00000000  0.50000000  1
  Sn  Sn3  1  0.00000000  0.00000000  0.00000000  1
  Pt  Pt4  1  0.66670689  0.33329311  0.09074058  1
  Pt  Pt5  1  0.33329311  0.66670689  0.90925942  1
  Pt  Pt6  1  0.33329311  0.66670689  0.59074058  1
  Pt  Pt7  1  0.66670689  0.33329311  0.40925942  1
