# generated using pymatgen
data_LaCoC2
_symmetry_space_group_name_H-M   'P 1'
_cell_length_a   3.87000484
_cell_length_b   3.87000484
_cell_length_c   7.43830709
_cell_angle_alpha   98.68716666
_cell_angle_beta   98.68716666
_cell_angle_gamma   90.02361881
_symmetry_Int_Tables_number   1
_chemical_formula_structural   LaCoC2
_chemical_formula_sum   'La2 Co2 C4'
_cell_volume   108.83088161
_cell_formula_units_Z   2
loop_
 _symmetry_equiv_pos_site_id
 _symmetry_equiv_pos_as_xyz
  1  'x, y, z'
loop_
 _atom_site_type_symbol
 _atom_site_label
 _atom_site_symmetry_multiplicity
 _atom_site_fract_x
 _atom_site_fract_y
 _atom_site_fract_z
 _atom_site_occupancy
  La  La0  1  0.92619539  0.07323569  0.50204351  1
  La  La1  1  0.07323569  0.92619539  0.00204351  1
  Co  Co2  1  0.48727401  0.62739018  0.69472260  1
  Co  Co3  1  0.62739018  0.48727401  0.19472260  1
  C  C4  1  0.50991943  0.14931584  0.77442217  1
  C  C5  1  0.14931584  0.50991943  0.27442217  1
  C  C6  1  0.55611660  0.40455287  0.92581171  1
  C  C7  1  0.40455287  0.55611660  0.42581171  1
