# generated using pymatgen
data_Ba2ThCu2S5
_symmetry_space_group_name_H-M   'P 1'
_cell_length_a   4.14017609
_cell_length_b   7.16921543
_cell_length_c   9.19203135
_cell_angle_alpha   69.32862061
_cell_angle_beta   76.98509192
_cell_angle_gamma   73.21706070
_symmetry_Int_Tables_number   1
_chemical_formula_structural   Ba2ThCu2S5
_chemical_formula_sum   'Ba2 Th1 Cu2 S5'
_cell_volume   242.07257558
_cell_formula_units_Z   1
loop_
 _symmetry_equiv_pos_site_id
 _symmetry_equiv_pos_as_xyz
  1  'x, y, z'
loop_
 _atom_site_type_symbol
 _atom_site_label
 _atom_site_symmetry_multiplicity
 _atom_site_fract_x
 _atom_site_fract_y
 _atom_site_fract_z
 _atom_site_occupancy
  Ba  Ba0  1  0.17562418  0.34119111  0.30756053  1
  Ba  Ba1  1  0.82437582  0.65880889  0.69243947  1
  Th  Th2  1  0.00000000  -0.00000000  0.00000000  1
  Cu  Cu3  1  0.55414766  0.19002944  0.70167523  1
  Cu  Cu4  1  0.44585234  0.80997056  0.29832477  1
  S  S5  1  0.14622583  0.02012526  0.68742308  1
  S  S6  1  0.85377417  0.97987474  0.31257692  1
  S  S7  1  0.38725883  0.29308583  0.93239651  1
  S  S8  1  0.61274117  0.70691417  0.06760349  1
  S  S9  1  0.50000000  0.50000000  0.50000000  1
