# generated using pymatgen
data_LaCdPd
_symmetry_space_group_name_H-M   'P 1'
_cell_length_a   4.13386784
_cell_length_b   7.84222144
_cell_length_c   7.84318040
_cell_angle_alpha   119.99595477
_cell_angle_beta   90.00000000
_cell_angle_gamma   90.00000000
_symmetry_Int_Tables_number   1
_chemical_formula_structural   LaCdPd
_chemical_formula_sum   'La3 Cd3 Pd3'
_cell_volume   220.20958919
_cell_formula_units_Z   3
loop_
 _symmetry_equiv_pos_site_id
 _symmetry_equiv_pos_as_xyz
  1  'x, y, z'
loop_
 _atom_site_type_symbol
 _atom_site_label
 _atom_site_symmetry_multiplicity
 _atom_site_fract_x
 _atom_site_fract_y
 _atom_site_fract_z
 _atom_site_occupancy
  La  La0  1  0.50000000  0.59166950  1.00000000  1
  La  La1  1  0.50000000  0.40846896  0.40855090  1
  La  La2  1  0.50000000  0.99991806  0.59144910  1
  Cd  Cd3  1  -0.00000000  0.24853938  0.00000000  1
  Cd  Cd4  1  -0.00000000  0.75141935  0.75140321  1
  Cd  Cd5  1  -0.00000000  0.00001614  0.24859679  1
  Pd  Pd6  1  -0.00000000  0.33329420  0.66668127  1
  Pd  Pd7  1  -0.00000000  0.66661293  0.33331873  1
  Pd  Pd8  1  0.50000000  0.99996147  0.00000000  1
