# generated using pymatgen
data_EuAu
_symmetry_space_group_name_H-M   'P 1'
_cell_length_a   4.76182346
_cell_length_b   6.04305177
_cell_length_c   7.74309117
_cell_angle_alpha   90.00000000
_cell_angle_beta   90.00000000
_cell_angle_gamma   90.00000000
_symmetry_Int_Tables_number   1
_chemical_formula_structural   EuAu
_chemical_formula_sum   'Eu4 Au4'
_cell_volume   222.81477097
_cell_formula_units_Z   4
loop_
 _symmetry_equiv_pos_site_id
 _symmetry_equiv_pos_as_xyz
  1  'x, y, z'
loop_
 _atom_site_type_symbol
 _atom_site_label
 _atom_site_symmetry_multiplicity
 _atom_site_fract_x
 _atom_site_fract_y
 _atom_site_fract_z
 _atom_site_occupancy
  Eu  Eu0  1  0.25000000  0.35718290  0.68397308  1
  Eu  Eu1  1  0.25000000  0.14281710  0.18397308  1
  Eu  Eu2  1  0.75000000  0.64281710  0.31602692  1
  Eu  Eu3  1  0.75000000  0.85718290  0.81602692  1
  Au  Au4  1  0.25000000  0.85234220  0.53993078  1
  Au  Au5  1  0.25000000  0.64765780  0.03993078  1
  Au  Au6  1  0.75000000  0.14765780  0.46006922  1
  Au  Au7  1  0.75000000  0.35234220  0.96006922  1
