# generated using pymatgen
data_SmZnNi
_symmetry_space_group_name_H-M   'P 1'
_cell_length_a   3.80361675
_cell_length_b   7.13812901
_cell_length_c   7.13841718
_cell_angle_alpha   119.99866719
_cell_angle_beta   90.00000000
_cell_angle_gamma   90.00000000
_symmetry_Int_Tables_number   1
_chemical_formula_structural   SmZnNi
_chemical_formula_sum   'Sm3 Zn3 Ni3'
_cell_volume   167.84929964
_cell_formula_units_Z   3
loop_
 _symmetry_equiv_pos_site_id
 _symmetry_equiv_pos_as_xyz
  1  'x, y, z'
loop_
 _atom_site_type_symbol
 _atom_site_label
 _atom_site_symmetry_multiplicity
 _atom_site_fract_x
 _atom_site_fract_y
 _atom_site_fract_z
 _atom_site_occupancy
  Sm  Sm0  1  0.50000000  0.58730731  1.00000000  1
  Sm  Sm1  1  0.50000000  0.41269151  0.41273139  1
  Sm  Sm2  1  0.50000000  0.99996011  0.58726861  1
  Zn  Zn3  1  -0.00000000  0.23728462  1.00000000  1
  Zn  Zn4  1  -0.00000000  0.76271202  0.76270503  1
  Zn  Zn5  1  -0.00000000  0.00000699  0.23729497  1
  Ni  Ni6  1  -0.00000000  0.33330338  0.66666161  1
  Ni  Ni7  1  -0.00000000  0.66664178  0.33333839  1
  Ni  Ni8  1  0.50000000  0.99999228  0.00000000  1
