# generated using pymatgen
data_Ba2ZnAs2
_symmetry_space_group_name_H-M   'P 1'
_cell_length_a   6.64529441
_cell_length_b   6.97272374
_cell_length_c   8.32472269
_cell_angle_alpha   114.75861094
_cell_angle_beta   113.52380666
_cell_angle_gamma   90.00000000
_symmetry_Int_Tables_number   1
_chemical_formula_structural   Ba2ZnAs2
_chemical_formula_sum   'Ba4 Zn2 As4'
_cell_volume   314.62760538
_cell_formula_units_Z   2
loop_
 _symmetry_equiv_pos_site_id
 _symmetry_equiv_pos_as_xyz
  1  'x, y, z'
loop_
 _atom_site_type_symbol
 _atom_site_label
 _atom_site_symmetry_multiplicity
 _atom_site_fract_x
 _atom_site_fract_y
 _atom_site_fract_z
 _atom_site_occupancy
  Ba  Ba0  1  0.86094926  0.05633457  0.72189852  1
  Ba  Ba1  1  0.13905074  0.94366543  0.27810148  1
  Ba  Ba2  1  0.63905074  0.33443606  0.27810148  1
  Ba  Ba3  1  0.36094926  0.66556394  0.72189852  1
  Zn  Zn4  1  0.75000000  0.50000000  -0.00000000  1
  Zn  Zn5  1  0.25000000  0.50000000  -0.00000000  1
  As  As6  1  0.60814012  0.81047769  0.21628024  1
  As  As7  1  0.39185988  0.18952231  0.78371976  1
  As  As8  1  0.89185988  0.59419745  0.78371976  1
  As  As9  1  0.10814012  0.40580255  0.21628024  1
