# generated using pymatgen
data_DyMgPd
_symmetry_space_group_name_H-M   'P 1'
_cell_length_a   4.02042910
_cell_length_b   7.51846834
_cell_length_c   7.51769018
_cell_angle_alpha   120.00341976
_cell_angle_beta   90.00000000
_cell_angle_gamma   90.00000000
_symmetry_Int_Tables_number   1
_chemical_formula_structural   DyMgPd
_chemical_formula_sum   'Dy3 Mg3 Pd3'
_cell_volume   196.78947722
_cell_formula_units_Z   3
loop_
 _symmetry_equiv_pos_site_id
 _symmetry_equiv_pos_as_xyz
  1  'x, y, z'
loop_
 _atom_site_type_symbol
 _atom_site_label
 _atom_site_symmetry_multiplicity
 _atom_site_fract_x
 _atom_site_fract_y
 _atom_site_fract_z
 _atom_site_occupancy
  Dy  Dy0  1  0.50000000  0.58521754  0.00000000  1
  Dy  Dy1  1  0.50000000  0.41476246  0.41477352  1
  Dy  Dy2  1  0.50000000  -0.00001106  0.58522648  1
  Mg  Mg3  1  -0.00000000  0.24409604  1.00000000  1
  Mg  Mg4  1  0.00000000  0.75591216  0.75591483  1
  Mg  Mg5  1  0.00000000  0.99999732  0.24408517  1
  Pd  Pd6  1  0.00000000  0.33329409  0.66666761  1
  Pd  Pd7  1  -0.00000000  0.66662648  0.33333239  1
  Pd  Pd8  1  0.50000000  0.00000498  0.00000000  1
