# generated using pymatgen
data_NdInNi
_symmetry_space_group_name_H-M   'P 1'
_cell_length_a   3.97928007
_cell_length_b   7.52542883
_cell_length_c   7.53302697
_cell_angle_alpha   119.96664534
_cell_angle_beta   90.00000000
_cell_angle_gamma   90.00000000
_symmetry_Int_Tables_number   1
_chemical_formula_structural   NdInNi
_chemical_formula_sum   'Nd3 In3 Ni3'
_cell_volume   195.42574833
_cell_formula_units_Z   3
loop_
 _symmetry_equiv_pos_site_id
 _symmetry_equiv_pos_as_xyz
  1  'x, y, z'
loop_
 _atom_site_type_symbol
 _atom_site_label
 _atom_site_symmetry_multiplicity
 _atom_site_fract_x
 _atom_site_fract_y
 _atom_site_fract_z
 _atom_site_occupancy
  Nd  Nd0  1  0.50000000  0.58562849  0.00000000  1
  Nd  Nd1  1  0.50000000  0.41483960  0.41527859  1
  Nd  Nd2  1  0.50000000  -0.00043899  0.58472141  1
  In  In3  1  0.00000000  0.24669171  1.00000000  1
  In  In4  1  0.00000000  0.75322343  0.75336238  1
  In  In5  1  0.00000000  -0.00013894  0.24663762  1
  Ni  Ni6  1  0.50000000  0.00031273  1.00000000  1
  Ni  Ni7  1  -0.00000000  0.33309117  0.66640038  1
  Ni  Ni8  1  -0.00000000  0.66669080  0.33359962  1
