# generated using pymatgen
data_PrHgPd
_symmetry_space_group_name_H-M   'P 1'
_cell_length_a   3.98108357
_cell_length_b   7.87028523
_cell_length_c   7.87096308
_cell_angle_alpha   119.99715169
_cell_angle_beta   90.00000000
_cell_angle_gamma   90.00000000
_symmetry_Int_Tables_number   1
_chemical_formula_structural   PrHgPd
_chemical_formula_sum   'Pr3 Hg3 Pd3'
_cell_volume   213.58105985
_cell_formula_units_Z   3
loop_
 _symmetry_equiv_pos_site_id
 _symmetry_equiv_pos_as_xyz
  1  'x, y, z'
loop_
 _atom_site_type_symbol
 _atom_site_label
 _atom_site_symmetry_multiplicity
 _atom_site_fract_x
 _atom_site_fract_y
 _atom_site_fract_z
 _atom_site_occupancy
  Pr  Pr0  1  0.50000000  0.60146709  1.00000000  1
  Pr  Pr1  1  0.50000000  0.39855260  0.39860067  1
  Pr  Pr2  1  0.50000000  0.99995192  0.60139933  1
  Hg  Hg3  1  0.00000000  0.26368145  1.00000000  1
  Hg  Hg4  1  -0.00000000  0.73627242  0.73625390  1
  Hg  Hg5  1  0.00000000  0.00001852  0.26374610  1
  Pd  Pd6  1  0.00000000  0.33333417  0.66669100  1
  Pd  Pd7  1  0.00000000  0.66664316  0.33330900  1
  Pd  Pd8  1  0.50000000  0.99997866  -0.00000000  1
