# generated using pymatgen
data_ErCdGa
_symmetry_space_group_name_H-M   'P 1'
_cell_length_a   4.38986391
_cell_length_b   7.23353850
_cell_length_c   7.23355269
_cell_angle_alpha   119.99993133
_cell_angle_beta   90.00000000
_cell_angle_gamma   90.00000000
_symmetry_Int_Tables_number   1
_chemical_formula_structural   ErCdGa
_chemical_formula_sum   'Er3 Cd3 Ga3'
_cell_volume   198.92274123
_cell_formula_units_Z   3
loop_
 _symmetry_equiv_pos_site_id
 _symmetry_equiv_pos_as_xyz
  1  'x, y, z'
loop_
 _atom_site_type_symbol
 _atom_site_label
 _atom_site_symmetry_multiplicity
 _atom_site_fract_x
 _atom_site_fract_y
 _atom_site_fract_z
 _atom_site_occupancy
  Er  Er0  1  0.50000000  0.57663590  1.00000000  1
  Er  Er1  1  0.50000000  0.42337453  0.42338482  1
  Er  Er2  1  0.50000000  -0.00001029  0.57661518  1
  Cd  Cd3  1  -0.00000000  0.24798007  0.00000000  1
  Cd  Cd4  1  0.00000000  0.75199888  0.75200744  1
  Cd  Cd5  1  0.00000000  0.99999144  0.24799256  1
  Ga  Ga6  1  -0.00000000  0.33332515  0.66669703  1
  Ga  Ga7  1  -0.00000000  0.66662812  0.33330297  1
  Ga  Ga8  1  0.50000000  0.99997622  0.00000000  1
