# generated using pymatgen
data_Li7Mn2(CoO4)3
_symmetry_space_group_name_H-M   'P 1'
_cell_length_a   2.94884042
_cell_length_b   8.21909414
_cell_length_c   9.85901142
_cell_angle_alpha   113.62275062
_cell_angle_beta   90.00000000
_cell_angle_gamma   90.00000000
_symmetry_Int_Tables_number   1
_chemical_formula_structural   Li7Mn2(CoO4)3
_chemical_formula_sum   'Li7 Mn2 Co3 O12'
_cell_volume   218.92765822
_cell_formula_units_Z   1
loop_
 _symmetry_equiv_pos_site_id
 _symmetry_equiv_pos_as_xyz
  1  'x, y, z'
loop_
 _atom_site_type_symbol
 _atom_site_label
 _atom_site_symmetry_multiplicity
 _atom_site_fract_x
 _atom_site_fract_y
 _atom_site_fract_z
 _atom_site_occupancy
  Li  Li0  1  0.00000000  0.80579107  0.64503386  1
  Li  Li1  1  0.00000000  0.50416423  0.99988730  1
  Li  Li2  1  0.00000000  0.18898758  0.35435503  1
  Li  Li3  1  0.50000000  0.35019129  0.18519299  1
  Li  Li4  1  0.50000000  0.99454691  0.48683092  1
  Li  Li5  1  0.50000000  0.65822677  0.82481633  1
  Li  Li6  1  0.50000000  0.50075439  0.49851117  1
  Mn  Mn7  1  -0.00000000  0.99779708  0.00130076  1
  Mn  Mn8  1  0.50000000  0.16784603  0.82975413  1
  Co  Co9  1  0.00000000  0.65771739  0.34711232  1
  Co  Co10  1  0.00000000  0.34996511  0.65455709  1
  Co  Co11  1  0.50000000  0.82176747  0.17518242  1
  O  O12  1  0.00000000  0.22754917  0.97899330  1
  O  O13  1  0.00000000  0.90726662  0.32191031  1
  O  O14  1  0.00000000  0.57593490  0.67410344  1
  O  O15  1  0.50000000  0.75211541  0.49339247  1
  O  O16  1  0.50000000  0.39283769  0.82897406  1
  O  O17  1  0.50000000  0.07198618  0.14265614  1
  O  O18  1  0.00000000  0.42901435  0.32795757  1
  O  O19  1  0.00000000  0.09363627  0.69188101  1
  O  O20  1  0.00000000  0.77397711  0.00909719  1
  O  O21  1  0.50000000  0.93542089  0.85405735  1
  O  O22  1  0.50000000  0.59349384  0.16399802  1
  O  O23  1  0.50000000  0.24901225  0.51044480  1
