# generated using pymatgen
data_NiPbO3
_symmetry_space_group_name_H-M   'P 1'
_cell_length_a   5.45064506
_cell_length_b   5.45064506
_cell_length_c   5.73241039
_cell_angle_alpha   61.61307290
_cell_angle_beta   61.61307290
_cell_angle_gamma   59.99999858
_symmetry_Int_Tables_number   1
_chemical_formula_structural   NiPbO3
_chemical_formula_sum   'Ni2 Pb2 O6'
_cell_volume   123.27849460
_cell_formula_units_Z   2
loop_
 _symmetry_equiv_pos_site_id
 _symmetry_equiv_pos_as_xyz
  1  'x, y, z'
loop_
 _atom_site_type_symbol
 _atom_site_label
 _atom_site_symmetry_multiplicity
 _atom_site_fract_x
 _atom_site_fract_y
 _atom_site_fract_z
 _atom_site_occupancy
  Ni  Ni0  1  0.49873102  0.49873102  0.50380694  1
  Ni  Ni1  1  -0.00126898  -0.00126898  0.00380694  1
  Pb  Pb2  1  0.21124902  0.21124902  0.36625293  1
  Pb  Pb3  1  0.71124902  0.71124902  0.86625293  1
  O  O4  1  0.12378487  0.38006273  0.70908004  1
  O  O5  1  0.38006273  0.78707236  0.70908004  1
  O  O6  1  0.78707236  0.12378487  0.70908004  1
  O  O7  1  0.62378487  0.28707236  0.20908004  1
  O  O8  1  0.28707236  0.88006273  0.20908004  1
  O  O9  1  0.88006273  0.62378487  0.20908004  1
