# generated using pymatgen
data_ScGeOs
_symmetry_space_group_name_H-M   'P 1'
_cell_length_a   3.46515048
_cell_length_b   6.99528764
_cell_length_c   6.99455126
_cell_angle_alpha   120.00348206
_cell_angle_beta   90.00000000
_cell_angle_gamma   90.00000000
_symmetry_Int_Tables_number   1
_chemical_formula_structural   ScGeOs
_chemical_formula_sum   'Sc3 Ge3 Os3'
_cell_volume   146.82598591
_cell_formula_units_Z   3
loop_
 _symmetry_equiv_pos_site_id
 _symmetry_equiv_pos_as_xyz
  1  'x, y, z'
loop_
 _atom_site_type_symbol
 _atom_site_label
 _atom_site_symmetry_multiplicity
 _atom_site_fract_x
 _atom_site_fract_y
 _atom_site_fract_z
 _atom_site_occupancy
  Sc  Sc0  1  0.50000000  0.59885946  1.00000000  1
  Sc  Sc1  1  0.50000000  0.40111475  0.40114252  1
  Sc  Sc2  1  0.50000000  0.99997223  0.59885748  1
  Ge  Ge3  1  -0.00000000  0.33332736  0.66668124  1
  Ge  Ge4  1  -0.00000000  0.66664613  0.33331876  1
  Ge  Ge5  1  0.50000000  0.99999854  -0.00000000  1
  Os  Os6  1  -0.00000000  0.25609950  0.00000000  1
  Os  Os7  1  0.00000000  0.74388557  0.74388911  1
  Os  Os8  1  -0.00000000  -0.00000354  0.25611089  1
