# generated using pymatgen
data_InPd3
_symmetry_space_group_name_H-M   'P 1'
_cell_length_a   4.13302905
_cell_length_b   4.13302905
_cell_length_c   8.27550458
_cell_angle_alpha   104.46062587
_cell_angle_beta   104.46062587
_cell_angle_gamma   90.00000000
_symmetry_Int_Tables_number   1
_chemical_formula_structural   InPd3
_chemical_formula_sum   'In2 Pd6'
_cell_volume   132.25320158
_cell_formula_units_Z   2
loop_
 _symmetry_equiv_pos_site_id
 _symmetry_equiv_pos_as_xyz
  1  'x, y, z'
loop_
 _atom_site_type_symbol
 _atom_site_label
 _atom_site_symmetry_multiplicity
 _atom_site_fract_x
 _atom_site_fract_y
 _atom_site_fract_z
 _atom_site_occupancy
  In  In0  1  0.87477296  0.87477296  0.74954593  1
  In  In1  1  0.12522704  0.12522704  0.25045407  1
  Pd  Pd2  1  0.50000000  -0.00000000  -0.00000000  1
  Pd  Pd3  1  0.00000000  0.50000000  0.00000000  1
  Pd  Pd4  1  0.25000000  0.75000000  0.50000000  1
  Pd  Pd5  1  0.75000000  0.25000000  0.50000000  1
  Pd  Pd6  1  0.62605446  0.62605446  0.25210892  1
  Pd  Pd7  1  0.37394554  0.37394554  0.74789108  1
