# generated using pymatgen
data_Li7Mn4CoO12
_symmetry_space_group_name_H-M   'P 1'
_cell_length_a   3.04251231
_cell_length_b   14.53754038
_cell_length_c   5.06975054
_cell_angle_alpha   92.72895114
_cell_angle_beta   86.44543428
_cell_angle_gamma   93.31444457
_symmetry_Int_Tables_number   1
_chemical_formula_structural   Li7Mn4CoO12
_chemical_formula_sum   'Li7 Mn4 Co1 O12'
_cell_volume   223.21436647
_cell_formula_units_Z   1
loop_
 _symmetry_equiv_pos_site_id
 _symmetry_equiv_pos_as_xyz
  1  'x, y, z'
loop_
 _atom_site_type_symbol
 _atom_site_label
 _atom_site_symmetry_multiplicity
 _atom_site_fract_x
 _atom_site_fract_y
 _atom_site_fract_z
 _atom_site_occupancy
  Li  Li0  1  0.00000000  0.16666700  0.66666700  1
  Li  Li1  1  0.47875646  0.51218669  0.49827245  1
  Li  Li2  1  0.00504507  0.81924804  0.32145722  1
  Li  Li3  1  0.50000000  0.16666700  0.16666700  1
  Li  Li4  1  0.99495493  0.51408496  0.01187578  1
  Li  Li5  1  0.52124354  0.82114631  0.83506055  1
  Li  Li6  1  0.50000000  0.66666700  0.16666700  1
  Mn  Mn7  1  0.00207323  0.99640014  0.99767392  1
  Mn  Mn8  1  0.99792677  0.33693286  0.33565908  1
  Mn  Mn9  1  0.49801540  0.33683649  0.83551392  1
  Mn  Mn10  1  0.50198460  0.99649651  0.49781908  1
  Co  Co11  1  0.00000000  0.66666700  0.66666700  1
  O  O12  1  0.46692049  0.07614236  0.82307652  1
  O  O13  1  0.97677785  0.41171305  0.66517681  1
  O  O14  1  0.51861151  0.73834646  0.51679980  1
  O  O15  1  0.97236097  0.07530137  0.32293537  1
  O  O16  1  0.47109718  0.41480567  0.16214149  1
  O  O17  1  0.99557667  0.74054706  0.95978667  1
  O  O18  1  0.53307951  0.25719164  0.51025748  1
  O  O19  1  0.00442333  0.59278594  0.37354633  1
  O  O20  1  0.52890282  0.91852733  0.17119151  1
  O  O21  1  0.02763903  0.25803263  0.01039863  1
  O  O22  1  0.48138849  0.59498654  0.81653320  1
  O  O23  1  0.02322215  0.92161995  0.66815619  1
