# generated using pymatgen
data_Hf2TlC
_symmetry_space_group_name_H-M   'P 1'
_cell_length_a   3.34727807
_cell_length_b   3.34727807
_cell_length_c   14.84081749
_cell_angle_alpha   90.00000000
_cell_angle_beta   90.00000000
_cell_angle_gamma   119.99964597
_symmetry_Int_Tables_number   1
_chemical_formula_structural   Hf2TlC
_chemical_formula_sum   'Hf4 Tl2 C2'
_cell_volume   144.00367954
_cell_formula_units_Z   2
loop_
 _symmetry_equiv_pos_site_id
 _symmetry_equiv_pos_as_xyz
  1  'x, y, z'
loop_
 _atom_site_type_symbol
 _atom_site_label
 _atom_site_symmetry_multiplicity
 _atom_site_fract_x
 _atom_site_fract_y
 _atom_site_fract_z
 _atom_site_occupancy
  Hf  Hf0  1  0.66667312  0.33332688  0.58172207  1
  Hf  Hf1  1  0.33332688  0.66667312  0.41827793  1
  Hf  Hf2  1  0.33332688  0.66667312  0.08172207  1
  Hf  Hf3  1  0.66667312  0.33332688  0.91827793  1
  Tl  Tl4  1  0.66669339  0.33330661  0.25000000  1
  Tl  Tl5  1  0.33330661  0.66669339  0.75000000  1
  C  C6  1  -0.00000000  -0.00000000  0.50000000  1
  C  C7  1  -0.00000000  -0.00000000  -0.00000000  1
