# generated using pymatgen
data_PrAlCu
_symmetry_space_group_name_H-M   'P 1'
_cell_length_a   4.25921377
_cell_length_b   7.14045749
_cell_length_c   7.14240766
_cell_angle_alpha   119.99096477
_cell_angle_beta   90.00000000
_cell_angle_gamma   90.00000000
_symmetry_Int_Tables_number   1
_chemical_formula_structural   PrAlCu
_chemical_formula_sum   'Pr3 Al3 Cu3'
_cell_volume   188.13529332
_cell_formula_units_Z   3
loop_
 _symmetry_equiv_pos_site_id
 _symmetry_equiv_pos_as_xyz
  1  'x, y, z'
loop_
 _atom_site_type_symbol
 _atom_site_label
 _atom_site_symmetry_multiplicity
 _atom_site_fract_x
 _atom_site_fract_y
 _atom_site_fract_z
 _atom_site_occupancy
  Pr  Pr0  1  0.50000000  0.58498392  1.00000000  1
  Pr  Pr1  1  0.50000000  0.41521922  0.41523720  1
  Pr  Pr2  1  0.50000000  0.99998202  0.58476280  1
  Al  Al3  1  0.00000000  0.22706278  0.00000000  1
  Al  Al4  1  0.00000000  0.77290799  0.77275391  1
  Al  Al5  1  0.00000000  0.00015408  0.22724609  1
  Cu  Cu6  1  -0.00000000  0.33309648  0.66656059  1
  Cu  Cu7  1  0.00000000  0.66653589  0.33343941  1
  Cu  Cu8  1  0.50000000  -0.00004238  -0.00000000  1
