# generated using pymatgen
data_LiAsSe2
_symmetry_space_group_name_H-M   'P 1'
_cell_length_a   5.54657208
_cell_length_b   5.63659156
_cell_length_c   6.84405838
_cell_angle_alpha   110.84217011
_cell_angle_beta   113.90433458
_cell_angle_gamma   90.00000000
_symmetry_Int_Tables_number   1
_chemical_formula_structural   LiAsSe2
_chemical_formula_sum   'Li2 As2 Se4'
_cell_volume   180.19538086
_cell_formula_units_Z   2
loop_
 _symmetry_equiv_pos_site_id
 _symmetry_equiv_pos_as_xyz
  1  'x, y, z'
loop_
 _atom_site_type_symbol
 _atom_site_label
 _atom_site_symmetry_multiplicity
 _atom_site_fract_x
 _atom_site_fract_y
 _atom_site_fract_z
 _atom_site_occupancy
  Li  Li0  1  0.26128242  0.50252567  0.99988085  1
  Li  Li1  1  0.73859843  0.00252567  0.99988085  1
  As  As2  1  0.00874120  0.83623952  0.57183560  1
  As  As3  1  0.56309439  0.33623952  0.57183560  1
  Se  Se4  1  0.97006375  0.23739087  0.48649013  1
  Se  Se5  1  0.51642638  0.73739087  0.48649013  1
  Se  Se6  1  0.22927968  0.98913394  0.97895342  1
  Se  Se7  1  0.74967374  0.48913394  0.97895342  1
