# generated using pymatgen
data_NaZn4As3
_symmetry_space_group_name_H-M   'P 1'
_cell_length_a   4.19915084
_cell_length_b   4.19915084
_cell_length_c   11.22703905
_cell_angle_alpha   79.22162260
_cell_angle_beta   79.22162260
_cell_angle_gamma   60.00000480
_symmetry_Int_Tables_number   1
_chemical_formula_structural   NaZn4As3
_chemical_formula_sum   'Na1 Zn4 As3'
_cell_volume   167.39768011
_cell_formula_units_Z   1
loop_
 _symmetry_equiv_pos_site_id
 _symmetry_equiv_pos_as_xyz
  1  'x, y, z'
loop_
 _atom_site_type_symbol
 _atom_site_label
 _atom_site_symmetry_multiplicity
 _atom_site_fract_x
 _atom_site_fract_y
 _atom_site_fract_z
 _atom_site_occupancy
  Na  Na0  1  0.50000000  0.50000000  0.50000000  1
  Zn  Zn1  1  0.09179719  0.09179719  0.72460842  1
  Zn  Zn2  1  0.90820281  0.90820281  0.27539158  1
  Zn  Zn3  1  0.30070977  0.30070977  0.09787069  1
  Zn  Zn4  1  0.69929023  0.69929023  0.90212931  1
  As  As5  1  0.22534173  0.22534173  0.32397481  1
  As  As6  1  0.77465827  0.77465827  0.67602519  1
  As  As7  1  0.00000000  0.00000000  -0.00000000  1
