# generated using pymatgen
data_ThGaRh
_symmetry_space_group_name_H-M   'P 1'
_cell_length_a   4.01891423
_cell_length_b   7.33823506
_cell_length_c   7.33742153
_cell_angle_alpha   120.00366652
_cell_angle_beta   90.00000000
_cell_angle_gamma   90.00000000
_symmetry_Int_Tables_number   1
_chemical_formula_structural   ThGaRh
_chemical_formula_sum   'Th3 Ga3 Rh3'
_cell_volume   187.39517789
_cell_formula_units_Z   3
loop_
 _symmetry_equiv_pos_site_id
 _symmetry_equiv_pos_as_xyz
  1  'x, y, z'
loop_
 _atom_site_type_symbol
 _atom_site_label
 _atom_site_symmetry_multiplicity
 _atom_site_fract_x
 _atom_site_fract_y
 _atom_site_fract_z
 _atom_site_occupancy
  Th  Th0  1  0.50000000  0.59014497  -0.00000000  1
  Th  Th1  1  0.50000000  0.40984274  0.40986363  1
  Th  Th2  1  0.50000000  0.99997911  0.59013637  1
  Ga  Ga3  1  0.00000000  0.24333924  0.00000000  1
  Ga  Ga4  1  -0.00000000  0.75664090  0.75664977  1
  Ga  Ga5  1  -0.00000000  0.99999113  0.24335023  1
  Rh  Rh6  1  -0.00000000  0.33334268  0.66670068  1
  Rh  Rh7  1  -0.00000000  0.66664200  0.33329932  1
  Rh  Rh8  1  0.50000000  -0.00002277  -0.00000000  1
