# generated using pymatgen
data_SmCoGe2
_symmetry_space_group_name_H-M   'P 1'
_cell_length_a   4.22380925
_cell_length_b   4.22421502
_cell_length_c   8.53528699
_cell_angle_alpha   104.32701904
_cell_angle_beta   90.00000000
_cell_angle_gamma   90.00000000
_symmetry_Int_Tables_number   1
_chemical_formula_structural   SmCoGe2
_chemical_formula_sum   'Sm2 Co2 Ge4'
_cell_volume   147.55265049
_cell_formula_units_Z   2
loop_
 _symmetry_equiv_pos_site_id
 _symmetry_equiv_pos_as_xyz
  1  'x, y, z'
loop_
 _atom_site_type_symbol
 _atom_site_label
 _atom_site_symmetry_multiplicity
 _atom_site_fract_x
 _atom_site_fract_y
 _atom_site_fract_z
 _atom_site_occupancy
  Sm  Sm0  1  0.75000000  0.10726884  0.21453767  1
  Sm  Sm1  1  0.25000000  0.89273116  0.78546233  1
  Co  Co2  1  0.75000000  0.31661465  0.63322929  1
  Co  Co3  1  0.25000000  0.68338535  0.36677071  1
  Ge  Ge4  1  0.75000000  0.45396634  0.90793269  1
  Ge  Ge5  1  0.25000000  0.54603366  0.09206731  1
  Ge  Ge6  1  0.75000000  0.74924248  0.49848495  1
  Ge  Ge7  1  0.25000000  0.25075752  0.50151505  1
