# generated using pymatgen
data_Sr2TaInO6
_symmetry_space_group_name_H-M   'P 1'
_cell_length_a   5.79278273
_cell_length_b   5.79278273
_cell_length_c   5.80224322
_cell_angle_alpha   90.51577184
_cell_angle_beta   119.53754936
_cell_angle_gamma   119.81390345
_symmetry_Int_Tables_number   1
_chemical_formula_structural   Sr2TaInO6
_chemical_formula_sum   'Sr2 Ta1 In1 O6'
_cell_volume   138.39885118
_cell_formula_units_Z   1
loop_
 _symmetry_equiv_pos_site_id
 _symmetry_equiv_pos_as_xyz
  1  'x, y, z'
loop_
 _atom_site_type_symbol
 _atom_site_label
 _atom_site_symmetry_multiplicity
 _atom_site_fract_x
 _atom_site_fract_y
 _atom_site_fract_z
 _atom_site_occupancy
  Sr  Sr0  1  0.49070999  0.25121543  0.74192542  1
  Sr  Sr1  1  0.50929001  0.74878457  0.25807458  1
  Ta  Ta2  1  -0.00000000  0.50000000  0.50000000  1
  In  In3  1  -0.00000000  0.00000000  0.00000000  1
  O  O4  1  0.91988652  0.26153560  0.18142212  1
  O  O5  1  0.08011348  0.73846440  0.81857788  1
  O  O6  1  0.99775838  0.21597794  0.69454857  1
  O  O7  1  0.52142938  0.30320981  0.30545143  1
  O  O8  1  0.00224162  0.78402206  0.30545143  1
  O  O9  1  0.47857062  0.69679019  0.69454857  1
