# generated using pymatgen
data_NdAlNi
_symmetry_space_group_name_H-M   'P 1'
_cell_length_a   3.94330156
_cell_length_b   7.16908822
_cell_length_c   7.16840083
_cell_angle_alpha   120.00316968
_cell_angle_beta   90.00000000
_cell_angle_gamma   90.00000000
_symmetry_Int_Tables_number   1
_chemical_formula_structural   NdAlNi
_chemical_formula_sum   'Nd3 Al3 Ni3'
_cell_volume   175.49427595
_cell_formula_units_Z   3
loop_
 _symmetry_equiv_pos_site_id
 _symmetry_equiv_pos_as_xyz
  1  'x, y, z'
loop_
 _atom_site_type_symbol
 _atom_site_label
 _atom_site_symmetry_multiplicity
 _atom_site_fract_x
 _atom_site_fract_y
 _atom_site_fract_z
 _atom_site_occupancy
  Nd  Nd0  1  0.50000000  0.57811374  0.00000000  1
  Nd  Nd1  1  0.50000000  0.42188331  0.42189594  1
  Nd  Nd2  1  0.50000000  0.99998738  0.57810406  1
  Al  Al3  1  0.00000000  0.22492502  0.00000000  1
  Al  Al4  1  0.00000000  0.77507952  0.77508354  1
  Al  Al5  1  0.00000000  0.99999598  0.22491646  1
  Ni  Ni6  1  0.00000000  0.33333329  0.66670943  1
  Ni  Ni7  1  -0.00000000  0.66662386  0.33329057  1
  Ni  Ni8  1  0.50000000  0.99995790  1.00000000  1
