# generated using pymatgen
data_Li7Mn4CoO12
_symmetry_space_group_name_H-M   'P 1'
_cell_length_a   3.03657429
_cell_length_b   5.06628976
_cell_length_c   14.63803749
_cell_angle_alpha   97.77483164
_cell_angle_beta   86.49627158
_cell_angle_gamma   93.31445573
_symmetry_Int_Tables_number   1
_chemical_formula_structural   Li7Mn4CoO12
_chemical_formula_sum   'Li7 Mn4 Co1 O12'
_cell_volume   222.42710858
_cell_formula_units_Z   1
loop_
 _symmetry_equiv_pos_site_id
 _symmetry_equiv_pos_as_xyz
  1  'x, y, z'
loop_
 _atom_site_type_symbol
 _atom_site_label
 _atom_site_symmetry_multiplicity
 _atom_site_fract_x
 _atom_site_fract_y
 _atom_site_fract_z
 _atom_site_occupancy
  Li  Li0  1  0.91793269  0.41541996  0.16642623  1
  Li  Li1  1  0.23961720  0.74675543  0.51257722  1
  Li  Li2  1  0.60930499  0.07535696  0.82173407  1
  Li  Li3  1  0.41540131  0.91791404  0.16690777  1
  Li  Li4  1  0.72402801  0.25797604  0.51159893  1
  Li  Li5  1  0.09371580  0.58657757  0.82075578  1
  Li  Li6  1  0.66666700  0.66666700  0.66666700  1
  Mn  Mn7  1  0.00405288  0.00010029  0.99673292  1
  Mn  Mn8  1  0.32928012  0.33323271  0.33660008  1
  Mn  Mn9  1  0.50366247  0.50039010  0.99698080  1
  Mn  Mn10  1  0.82967053  0.83294290  0.33635220  1
  Co  Co11  1  0.16666700  0.16666700  0.66666700  1
  O  O12  1  0.43052812  0.21401734  0.07603249  1
  O  O13  1  0.76395974  0.54527442  0.41454625  1
  O  O14  1  0.12392208  0.91098553  0.74074556  1
  O  O15  1  0.93301904  0.71452428  0.07577410  1
  O  O16  1  0.26912613  0.04089412  0.41141241  1
  O  O17  1  0.65057094  0.35166703  0.73847707  1
  O  O18  1  0.40031496  0.61880972  0.25755990  1
  O  O19  1  0.68276206  0.98166597  0.59485593  1
  O  O20  1  0.06420687  0.29243888  0.92192059  1
  O  O21  1  0.90280588  0.11931666  0.25730151  1
  O  O22  1  0.20941092  0.42234747  0.59258744  1
  O  O23  1  0.56937326  0.78805858  0.91878675  1
