# generated using pymatgen
data_Na2PdSe2
_symmetry_space_group_name_H-M   'P 1'
_cell_length_a   3.75489878
_cell_length_b   5.73433623
_cell_length_c   11.40989475
_cell_angle_alpha   90.00000000
_cell_angle_beta   90.00000000
_cell_angle_gamma   109.11132897
_symmetry_Int_Tables_number   1
_chemical_formula_structural   Na2PdSe2
_chemical_formula_sum   'Na4 Pd2 Se4'
_cell_volume   232.13552639
_cell_formula_units_Z   2
loop_
 _symmetry_equiv_pos_site_id
 _symmetry_equiv_pos_as_xyz
  1  'x, y, z'
loop_
 _atom_site_type_symbol
 _atom_site_label
 _atom_site_symmetry_multiplicity
 _atom_site_fract_x
 _atom_site_fract_y
 _atom_site_fract_z
 _atom_site_occupancy
  Na  Na0  1  0.56404032  0.12808064  0.62860549  1
  Na  Na1  1  0.43595968  0.87191936  0.12860549  1
  Na  Na2  1  0.17545764  0.35091528  0.90287917  1
  Na  Na3  1  0.82454236  0.64908472  0.40287917  1
  Pd  Pd4  1  0.86368482  0.72736964  0.74938130  1
  Pd  Pd5  1  0.13631518  0.27263036  0.24938130  1
  Se  Se6  1  0.27848876  0.55697752  0.62752277  1
  Se  Se7  1  0.72151124  0.44302248  0.12752277  1
  Se  Se8  1  0.45060235  0.90120470  0.86961126  1
  Se  Se9  1  0.54939765  0.09879530  0.36961126  1
