# generated using pymatgen
data_Ta2O5
_symmetry_space_group_name_H-M   'P 1'
_cell_length_a   3.83108167
_cell_length_b   3.96921177
_cell_length_c   18.50431030
_cell_angle_alpha   83.84312783
_cell_angle_beta   80.10465667
_cell_angle_gamma   90.00000000
_symmetry_Int_Tables_number   1
_chemical_formula_structural   Ta2O5
_chemical_formula_sum   'Ta6 O15'
_cell_volume   275.54973099
_cell_formula_units_Z   3
loop_
 _symmetry_equiv_pos_site_id
 _symmetry_equiv_pos_as_xyz
  1  'x, y, z'
loop_
 _atom_site_type_symbol
 _atom_site_label
 _atom_site_symmetry_multiplicity
 _atom_site_fract_x
 _atom_site_fract_y
 _atom_site_fract_z
 _atom_site_occupancy
  Ta  Ta0  1  0.17468344  0.57353106  0.85293789  1
  Ta  Ta1  1  0.57531656  0.67646894  0.64706211  1
  Ta  Ta2  1  0.43707563  0.92004781  0.15990439  1
  Ta  Ta3  1  0.31292437  0.32995219  0.34009561  1
  Ta  Ta4  1  0.21185030  0.75319365  0.49361269  1
  Ta  Ta5  1  0.53814970  0.49680635  0.00638731  1
  O  O6  1  0.61075617  0.17631553  0.64736893  1
  O  O7  1  0.13924383  0.07368447  0.85263107  1
  O  O8  1  0.80002564  0.32026371  0.35947258  1
  O  O9  1  0.94997436  0.92973629  0.14052742  1
  O  O10  1  0.11378875  0.69319984  0.61360032  1
  O  O11  1  0.63621125  0.55680016  0.88639968  1
  O  O12  1  0.28314581  0.80647654  0.38704692  1
  O  O13  1  0.46685419  0.44352346  0.11295308  1
  O  O14  1  0.68637478  0.73801094  0.52397812  1
  O  O15  1  0.06362522  0.51198906  0.97602188  1
  O  O16  1  0.22034906  0.25940462  0.48119075  1
  O  O17  1  0.52965094  0.99059538  0.01880925  1
  O  O18  1  0.37500000  0.62500000  0.75000000  1
  O  O19  1  0.37500000  0.12500000  0.25000000  1
  O  O20  1  0.37500000  0.62500000  0.25000000  1
