# generated using pymatgen
data_TmAgGe
_symmetry_space_group_name_H-M   'P 1'
_cell_length_a   4.17589629
_cell_length_b   7.12746075
_cell_length_c   7.12780446
_cell_angle_alpha   119.99840000
_cell_angle_beta   90.00000000
_cell_angle_gamma   90.00000000
_symmetry_Int_Tables_number   1
_chemical_formula_structural   TmAgGe
_chemical_formula_sum   'Tm3 Ag3 Ge3'
_cell_volume   183.72910050
_cell_formula_units_Z   3
loop_
 _symmetry_equiv_pos_site_id
 _symmetry_equiv_pos_as_xyz
  1  'x, y, z'
loop_
 _atom_site_type_symbol
 _atom_site_label
 _atom_site_symmetry_multiplicity
 _atom_site_fract_x
 _atom_site_fract_y
 _atom_site_fract_z
 _atom_site_occupancy
  Tm  Tm0  1  0.50000000  0.58282431  1.00000000  1
  Tm  Tm1  1  0.50000000  0.41711517  0.41716221  1
  Tm  Tm2  1  0.50000000  0.99995296  0.58283779  1
  Ag  Ag3  1  0.00000000  0.25151294  1.00000000  1
  Ag  Ag4  1  0.00000000  0.74841779  0.74840207  1
  Ag  Ag5  1  0.00000000  0.00001571  0.25159793  1
  Ge  Ge6  1  -0.00000000  0.33334278  0.66666016  1
  Ge  Ge7  1  -0.00000000  0.66668262  0.33333984  1
  Ge  Ge8  1  0.50000000  0.00003571  -0.00000000  1
