# generated using pymatgen
data_EuAs3
_symmetry_space_group_name_H-M   'P 1'
_cell_length_a   5.76006593
_cell_length_b   6.06291965
_cell_length_c   6.06291965
_cell_angle_alpha   78.09531440
_cell_angle_beta   73.12345357
_cell_angle_gamma   73.12345357
_symmetry_Int_Tables_number   1
_chemical_formula_structural   EuAs3
_chemical_formula_sum   'Eu2 As6'
_cell_volume   192.16066155
_cell_formula_units_Z   2
loop_
 _symmetry_equiv_pos_site_id
 _symmetry_equiv_pos_as_xyz
  1  'x, y, z'
loop_
 _atom_site_type_symbol
 _atom_site_label
 _atom_site_symmetry_multiplicity
 _atom_site_fract_x
 _atom_site_fract_y
 _atom_site_fract_z
 _atom_site_occupancy
  Eu  Eu0  1  0.67034859  0.16549392  0.16549392  1
  Eu  Eu1  1  0.32965141  0.83450608  0.83450608  1
  As  As2  1  0.20135873  0.36273193  0.91410565  1
  As  As3  1  0.20135873  0.91410565  0.36273193  1
  As  As4  1  0.79864127  0.63726807  0.08589435  1
  As  As5  1  0.79864127  0.08589435  0.63726807  1
  As  As6  1  0.22673394  0.48913103  0.48913103  1
  As  As7  1  0.77326606  0.51086897  0.51086897  1
