# generated using pymatgen
data_HfAlNi
_symmetry_space_group_name_H-M   'P 1'
_cell_length_a   3.51196584
_cell_length_b   6.79415740
_cell_length_c   6.79485543
_cell_angle_alpha   119.99660220
_cell_angle_beta   90.00000000
_cell_angle_gamma   90.00000000
_symmetry_Int_Tables_number   1
_chemical_formula_structural   HfAlNi
_chemical_formula_sum   'Hf3 Al3 Ni3'
_cell_volume   140.41438704
_cell_formula_units_Z   3
loop_
 _symmetry_equiv_pos_site_id
 _symmetry_equiv_pos_as_xyz
  1  'x, y, z'
loop_
 _atom_site_type_symbol
 _atom_site_label
 _atom_site_symmetry_multiplicity
 _atom_site_fract_x
 _atom_site_fract_y
 _atom_site_fract_z
 _atom_site_occupancy
  Hf  Hf0  1  0.50000000  0.59058858  1.00000000  1
  Hf  Hf1  1  0.50000000  0.40938408  0.40936999  1
  Hf  Hf2  1  0.50000000  0.00001409  0.59063001  1
  Al  Al3  1  -0.00000000  0.24721347  1.00000000  1
  Al  Al4  1  -0.00000000  0.75277899  0.75276012  1
  Al  Al5  1  -0.00000000  0.00001887  0.24723988  1
  Ni  Ni6  1  -0.00000000  0.33328954  0.66666980  1
  Ni  Ni7  1  -0.00000000  0.66661975  0.33333020  1
  Ni  Ni8  1  0.50000000  -0.00000737  0.00000000  1
