# generated using pymatgen
data_DyInPt2
_symmetry_space_group_name_H-M   'P 1'
_cell_length_a   4.58799417
_cell_length_b   4.58799417
_cell_length_c   9.08054092
_cell_angle_alpha   90.00000000
_cell_angle_beta   90.00000000
_cell_angle_gamma   120.01187731
_symmetry_Int_Tables_number   1
_chemical_formula_structural   DyInPt2
_chemical_formula_sum   'Dy2 In2 Pt4'
_cell_volume   165.51451098
_cell_formula_units_Z   2
loop_
 _symmetry_equiv_pos_site_id
 _symmetry_equiv_pos_as_xyz
  1  'x, y, z'
loop_
 _atom_site_type_symbol
 _atom_site_label
 _atom_site_symmetry_multiplicity
 _atom_site_fract_x
 _atom_site_fract_y
 _atom_site_fract_z
 _atom_site_occupancy
  Dy  Dy0  1  0.66674147  0.33325853  0.75000000  1
  Dy  Dy1  1  0.33325853  0.66674147  0.25000000  1
  In  In2  1  0.00000000  -0.00000000  0.50000000  1
  In  In3  1  0.00000000  -0.00000000  0.00000000  1
  Pt  Pt4  1  0.66666952  0.33333048  0.09218344  1
  Pt  Pt5  1  0.33333048  0.66666952  0.90781656  1
  Pt  Pt6  1  0.33333048  0.66666952  0.59218344  1
  Pt  Pt7  1  0.66666952  0.33333048  0.40781656  1
