# generated using pymatgen
data_Li9Co7O16
_symmetry_space_group_name_H-M   'P 1'
_cell_length_a   2.94187896
_cell_length_b   9.98958081
_cell_length_c   9.84851824
_cell_angle_alpha   79.11213327
_cell_angle_beta   91.21587631
_cell_angle_gamma   90.79498659
_symmetry_Int_Tables_number   1
_chemical_formula_structural   Li9Co7O16
_chemical_formula_sum   'Li9 Co7 O16'
_cell_volume   284.14116550
_cell_formula_units_Z   1
loop_
 _symmetry_equiv_pos_site_id
 _symmetry_equiv_pos_as_xyz
  1  'x, y, z'
loop_
 _atom_site_type_symbol
 _atom_site_label
 _atom_site_symmetry_multiplicity
 _atom_site_fract_x
 _atom_site_fract_y
 _atom_site_fract_z
 _atom_site_occupancy
  Li  Li0  1  -0.00332878  0.12417096  0.25105983  1
  Li  Li1  1  0.50678845  0.12289325  0.74790667  1
  Li  Li2  1  0.49321155  0.37710675  0.25209333  1
  Li  Li3  1  0.00332878  0.37582904  0.74894017  1
  Li  Li4  1  0.00442787  0.62620041  0.24485016  1
  Li  Li5  1  0.49688923  0.62244400  0.74947589  1
  Li  Li6  1  0.50311077  0.87755600  0.25052411  1
  Li  Li7  1  0.99557213  0.87379959  0.75514984  1
  Li  Li8  1  0.50000000  0.75000000  0.00000000  1
  Co  Co9  1  0.00615032  0.99156924  0.00133418  1
  Co  Co10  1  -0.00615032  0.50843076  0.99866582  1
  Co  Co11  1  0.49324375  0.00198482  0.50079069  1
  Co  Co12  1  0.50000000  0.25000000  0.00000000  1
  Co  Co13  1  0.00000000  0.25000000  0.50000000  1
  Co  Co14  1  0.50675625  0.49801518  0.49920931  1
  Co  Co15  1  0.00000000  0.75000000  0.50000000  1
  O  O16  1  0.46611436  0.07275789  0.11143677  1
  O  O17  1  0.00750318  0.06006609  0.61849124  1
  O  O18  1  -0.00918056  0.32057846  0.10475122  1
  O  O19  1  0.50848899  0.31395601  0.61786421  1
  O  O20  1  0.46608681  0.55562985  0.11475315  1
  O  O21  1  0.02364968  0.55995029  0.61511831  1
  O  O22  1  0.00151812  0.83452046  0.11548850  1
  O  O23  1  0.47937899  0.81167262  0.61777294  1
  O  O24  1  0.49151101  0.18604399  0.38213579  1
  O  O25  1  0.00918056  0.17942154  0.89524878  1
  O  O26  1  0.99249682  0.43993391  0.38150876  1
  O  O27  1  0.53388564  0.42724211  0.88856323  1
  O  O28  1  0.52062101  0.68832738  0.38222706  1
  O  O29  1  -0.00151812  0.66547954  0.88451150  1
  O  O30  1  0.97635032  0.94004971  0.38488169  1
  O  O31  1  0.53391319  0.94437015  0.88524685  1
