# generated using pymatgen
data_U2TlSe6
_symmetry_space_group_name_H-M   'P 1'
_cell_length_a   4.05687534
_cell_length_b   5.51855719
_cell_length_c   11.55685842
_cell_angle_alpha   103.81317458
_cell_angle_beta   100.10881187
_cell_angle_gamma   90.00000000
_symmetry_Int_Tables_number   1
_chemical_formula_structural   U2TlSe6
_chemical_formula_sum   'U2 Tl1 Se6'
_cell_volume   247.11512219
_cell_formula_units_Z   1
loop_
 _symmetry_equiv_pos_site_id
 _symmetry_equiv_pos_as_xyz
  1  'x, y, z'
loop_
 _atom_site_type_symbol
 _atom_site_label
 _atom_site_symmetry_multiplicity
 _atom_site_fract_x
 _atom_site_fract_y
 _atom_site_fract_z
 _atom_site_occupancy
  U  U0  1  0.18036654  0.68036654  0.36073308  1
  U  U1  1  0.81963346  0.31963346  0.63926692  1
  Tl  Tl2  1  0.00000000  0.00000000  0.00000000  1
  Se  Se3  1  0.77443784  0.77443784  0.54887567  1
  Se  Se4  1  0.22556216  0.22556216  0.45112433  1
  Se  Se5  1  0.60557505  0.85195327  0.21115010  1
  Se  Se6  1  0.39442495  0.14804673  0.78884990  1
  Se  Se7  1  0.39442495  0.64080317  0.78884990  1
  Se  Se8  1  0.60557505  0.35919683  0.21115010  1
