# generated using pymatgen
data_Nb2GeC
_symmetry_space_group_name_H-M   'P 1'
_cell_length_a   3.27521210
_cell_length_b   3.27521210
_cell_length_c   12.55707760
_cell_angle_alpha   90.00000000
_cell_angle_beta   90.00000000
_cell_angle_gamma   119.99076077
_symmetry_Int_Tables_number   1
_chemical_formula_structural   Nb2GeC
_chemical_formula_sum   'Nb4 Ge2 C2'
_cell_volume   116.66443875
_cell_formula_units_Z   2
loop_
 _symmetry_equiv_pos_site_id
 _symmetry_equiv_pos_as_xyz
  1  'x, y, z'
loop_
 _atom_site_type_symbol
 _atom_site_label
 _atom_site_symmetry_multiplicity
 _atom_site_fract_x
 _atom_site_fract_y
 _atom_site_fract_z
 _atom_site_occupancy
  Nb  Nb0  1  0.66672178  0.33327822  0.59311245  1
  Nb  Nb1  1  0.33327822  0.66672178  0.40688755  1
  Nb  Nb2  1  0.33327822  0.66672178  0.09311245  1
  Nb  Nb3  1  0.66672178  0.33327822  0.90688755  1
  Ge  Ge4  1  0.33328020  0.66671980  0.75000000  1
  Ge  Ge5  1  0.66671980  0.33328020  0.25000000  1
  C  C6  1  0.00000000  -0.00000000  0.50000000  1
  C  C7  1  0.00000000  -0.00000000  -0.00000000  1
