# generated using pymatgen
data_SrCd2Pd
_symmetry_space_group_name_H-M   'P 1'
_cell_length_a   4.53933290
_cell_length_b   5.81639331
_cell_length_c   8.23798292
_cell_angle_alpha   90.00000000
_cell_angle_beta   90.00000000
_cell_angle_gamma   112.96811910
_symmetry_Int_Tables_number   1
_chemical_formula_structural   SrCd2Pd
_chemical_formula_sum   'Sr2 Cd4 Pd2'
_cell_volume   200.26048602
_cell_formula_units_Z   2
loop_
 _symmetry_equiv_pos_site_id
 _symmetry_equiv_pos_as_xyz
  1  'x, y, z'
loop_
 _atom_site_type_symbol
 _atom_site_label
 _atom_site_symmetry_multiplicity
 _atom_site_fract_x
 _atom_site_fract_y
 _atom_site_fract_z
 _atom_site_occupancy
  Sr  Sr0  1  0.06313581  0.12627161  0.25000000  1
  Sr  Sr1  1  0.93686419  0.87372839  0.75000000  1
  Cd  Cd2  1  0.35027057  0.70054113  0.44523603  1
  Cd  Cd3  1  0.64972943  0.29945887  0.55476397  1
  Cd  Cd4  1  0.35027057  0.70054113  0.05476397  1
  Cd  Cd5  1  0.64972943  0.29945887  0.94523603  1
  Pd  Pd6  1  0.77776393  0.55552786  0.25000000  1
  Pd  Pd7  1  0.22223607  0.44447214  0.75000000  1
