# generated using pymatgen
data_YSnRh
_symmetry_space_group_name_H-M   'P 1'
_cell_length_a   3.91518257
_cell_length_b   7.54146887
_cell_length_c   7.54140696
_cell_angle_alpha   120.00027216
_cell_angle_beta   90.00000000
_cell_angle_gamma   90.00000000
_symmetry_Int_Tables_number   1
_chemical_formula_structural   YSnRh
_chemical_formula_sum   'Y3 Sn3 Rh3'
_cell_volume   192.83673923
_cell_formula_units_Z   3
loop_
 _symmetry_equiv_pos_site_id
 _symmetry_equiv_pos_as_xyz
  1  'x, y, z'
loop_
 _atom_site_type_symbol
 _atom_site_label
 _atom_site_symmetry_multiplicity
 _atom_site_fract_x
 _atom_site_fract_y
 _atom_site_fract_z
 _atom_site_occupancy
  Y  Y0  1  0.50000000  0.59315035  0.00000000  1
  Y  Y1  1  0.50000000  0.40684396  0.40685965  1
  Y  Y2  1  0.50000000  0.99998431  0.59314035  1
  Sn  Sn3  1  0.00000000  0.25953275  1.00000000  1
  Sn  Sn4  1  -0.00000000  0.74044366  0.74045140  1
  Sn  Sn5  1  -0.00000000  0.99999226  0.25954860  1
  Rh  Rh6  1  0.00000000  0.33334033  0.66669735  1
  Rh  Rh7  1  -0.00000000  0.66664298  0.33330265  1
  Rh  Rh8  1  0.50000000  0.99996941  -0.00000000  1
