# generated using pymatgen
data_Gd2Cl3
_symmetry_space_group_name_H-M   'P 1'
_cell_length_a   3.94112425
_cell_length_b   7.85278933
_cell_length_c   9.78467008
_cell_angle_alpha   69.70964858
_cell_angle_beta   78.38158184
_cell_angle_gamma   75.46698330
_symmetry_Int_Tables_number   1
_chemical_formula_structural   Gd2Cl3
_chemical_formula_sum   'Gd4 Cl6'
_cell_volume   272.75458696
_cell_formula_units_Z   2
loop_
 _symmetry_equiv_pos_site_id
 _symmetry_equiv_pos_as_xyz
  1  'x, y, z'
loop_
 _atom_site_type_symbol
 _atom_site_label
 _atom_site_symmetry_multiplicity
 _atom_site_fract_x
 _atom_site_fract_y
 _atom_site_fract_z
 _atom_site_occupancy
  Gd  Gd0  1  0.40958708  0.23534296  0.94548288  1
  Gd  Gd1  1  0.59041292  0.76465704  0.05451712  1
  Gd  Gd2  1  0.13762266  0.02111354  0.70364114  1
  Gd  Gd3  1  0.86237734  0.97888646  0.29635886  1
  Cl  Cl4  1  0.65783088  0.19473952  0.48959872  1
  Cl  Cl5  1  0.34216912  0.80526048  0.51040128  1
  Cl  Cl6  1  0.76989432  0.34118895  0.11902241  1
  Cl  Cl7  1  0.23010568  0.65881105  0.88097759  1
  Cl  Cl8  1  0.95125326  0.36689440  0.73059909  1
  Cl  Cl9  1  0.04874674  0.63310560  0.26940091  1
