# generated using pymatgen
data_Li9Co7O16
_symmetry_space_group_name_H-M   'P 1'
_cell_length_a   2.99594856
_cell_length_b   19.51408438
_cell_length_c   5.09346033
_cell_angle_alpha   91.69875974
_cell_angle_beta   75.93716184
_cell_angle_gamma   87.02336692
_symmetry_Int_Tables_number   1
_chemical_formula_structural   Li9Co7O16
_chemical_formula_sum   'Li9 Co7 O16'
_cell_volume   288.19105701
_cell_formula_units_Z   1
loop_
 _symmetry_equiv_pos_site_id
 _symmetry_equiv_pos_as_xyz
  1  'x, y, z'
loop_
 _atom_site_type_symbol
 _atom_site_label
 _atom_site_symmetry_multiplicity
 _atom_site_fract_x
 _atom_site_fract_y
 _atom_site_fract_z
 _atom_site_occupancy
  Li  Li0  1  0.69456891  0.06123477  0.56390585  1
  Li  Li1  1  0.05984270  0.18810868  0.68711117  1
  Li  Li2  1  0.44152409  0.31100312  0.81188198  1
  Li  Li3  1  0.80847591  0.43899688  0.93811802  1
  Li  Li4  1  0.19015730  0.56189132  0.06288883  1
  Li  Li5  1  0.55543109  0.68876523  0.18609415  1
  Li  Li6  1  0.93967235  0.81251407  0.30390383  1
  Li  Li7  1  0.31032765  0.93748593  0.44609617  1
  Li  Li8  1  0.62500000  0.87500000  0.87500000  1
  Co  Co9  1  0.00117293  0.99502844  -0.00235990  1
  Co  Co10  1  0.24882707  0.75497156  0.75235990  1
  Co  Co11  1  0.37477466  0.12406079  0.12481773  1
  Co  Co12  1  0.75483793  0.24844389  0.25110336  1
  Co  Co13  1  0.12500000  0.37500000  0.37500000  1
  Co  Co14  1  0.49516207  0.50155611  0.49889664  1
  Co  Co15  1  0.87522534  0.62593921  0.62518227  1
  O  O16  1  0.32188608  0.03352239  0.26227763  1
  O  O17  1  0.74557329  0.15860473  0.38706236  1
  O  O18  1  0.06697470  0.28117217  0.51115808  1
  O  O19  1  0.46967379  0.40984043  0.63485446  1
  O  O20  1  0.80095891  0.53417223  0.76492695  1
  O  O21  1  0.23887050  0.66175379  0.88298907  1
  O  O22  1  0.58519141  0.77870992  0.00523093  1
  O  O23  1  0.96375630  0.91611922  0.15041458  1
  O  O24  1  0.01112950  0.08824621  0.86701093  1
  O  O25  1  0.44904209  0.21582877  0.98507305  1
  O  O26  1  0.78032621  0.34015957  0.11514554  1
  O  O27  1  0.18302530  0.46882883  0.23884192  1
  O  O28  1  0.50442571  0.59139527  0.36293764  1
  O  O29  1  0.92811392  0.71647761  0.48772237  1
  O  O30  1  0.28624470  0.83388178  0.59958542  1
  O  O31  1  0.66480959  0.97129008  0.74476907  1
