# generated using pymatgen
data_ZrGaNi
_symmetry_space_group_name_H-M   'P 1'
_cell_length_a   3.50414083
_cell_length_b   6.85821570
_cell_length_c   6.85791015
_cell_angle_alpha   120.00148215
_cell_angle_beta   90.00000000
_cell_angle_gamma   90.00000000
_symmetry_Int_Tables_number   1
_chemical_formula_structural   ZrGaNi
_chemical_formula_sum   'Zr3 Ga3 Ni3'
_cell_volume   142.72781865
_cell_formula_units_Z   3
loop_
 _symmetry_equiv_pos_site_id
 _symmetry_equiv_pos_as_xyz
  1  'x, y, z'
loop_
 _atom_site_type_symbol
 _atom_site_label
 _atom_site_symmetry_multiplicity
 _atom_site_fract_x
 _atom_site_fract_y
 _atom_site_fract_z
 _atom_site_occupancy
  Zr  Zr0  1  0.50000000  0.59430851  0.00000000  1
  Zr  Zr1  1  0.50000000  0.40567893  0.40569172  1
  Zr  Zr2  1  0.50000000  0.99998721  0.59430828  1
  Ga  Ga3  1  -0.00000000  0.25762040  0.00000000  1
  Ga  Ga4  1  -0.00000000  0.74238996  0.74238900  1
  Ga  Ga5  1  -0.00000000  0.00000096  0.25761100  1
  Ni  Ni6  1  0.00000000  0.33331071  0.66667830  1
  Ni  Ni7  1  0.00000000  0.66663241  0.33332170  1
  Ni  Ni8  1  0.50000000  0.99997091  1.00000000  1
