# generated using pymatgen
data_ErAlNi
_symmetry_space_group_name_H-M   'P 1'
_cell_length_a   3.80424142
_cell_length_b   6.97596948
_cell_length_c   6.97220965
_cell_angle_alpha   120.01784302
_cell_angle_beta   90.00000000
_cell_angle_gamma   90.00000000
_symmetry_Int_Tables_number   1
_chemical_formula_structural   ErAlNi
_chemical_formula_sum   'Er3 Al3 Ni3'
_cell_volume   160.21220493
_cell_formula_units_Z   3
loop_
 _symmetry_equiv_pos_site_id
 _symmetry_equiv_pos_as_xyz
  1  'x, y, z'
loop_
 _atom_site_type_symbol
 _atom_site_label
 _atom_site_symmetry_multiplicity
 _atom_site_fract_x
 _atom_site_fract_y
 _atom_site_fract_z
 _atom_site_occupancy
  Er  Er0  1  0.50000000  0.58332210  1.00000000  1
  Er  Er1  1  0.50000000  0.41663980  0.41663604  1
  Er  Er2  1  0.50000000  0.00000377  0.58336396  1
  Al  Al3  1  0.00000000  0.23765706  0.00000000  1
  Al  Al4  1  0.00000000  0.76234697  0.76233396  1
  Al  Al5  1  0.00000000  0.00001301  0.23766604  1
  Ni  Ni6  1  -0.00000000  0.33336310  0.66674321  1
  Ni  Ni7  1  -0.00000000  0.66661988  0.33325679  1
  Ni  Ni8  1  0.50000000  0.99993432  1.00000000  1
