# generated using pymatgen
data_ThInNi
_symmetry_space_group_name_H-M   'P 1'
_cell_length_a   4.13607841
_cell_length_b   7.40003011
_cell_length_c   7.39503221
_cell_angle_alpha   120.02236115
_cell_angle_beta   90.00000000
_cell_angle_gamma   90.00000000
_symmetry_Int_Tables_number   1
_chemical_formula_structural   ThInNi
_chemical_formula_sum   'Th3 In3 Ni3'
_cell_volume   195.97246250
_cell_formula_units_Z   3
loop_
 _symmetry_equiv_pos_site_id
 _symmetry_equiv_pos_as_xyz
  1  'x, y, z'
loop_
 _atom_site_type_symbol
 _atom_site_label
 _atom_site_symmetry_multiplicity
 _atom_site_fract_x
 _atom_site_fract_y
 _atom_site_fract_z
 _atom_site_occupancy
  Th  Th0  1  0.50000000  0.58414974  1.00000000  1
  Th  Th1  1  0.50000000  0.41582007  0.41511566  1
  Th  Th2  1  0.50000000  0.00070442  0.58488434  1
  In  In3  1  0.00000000  0.24593104  1.00000000  1
  In  In4  1  -0.00000000  0.75450166  0.75469582  1
  In  In5  1  -0.00000000  0.99980584  0.24530418  1
  Ni  Ni6  1  -0.00000000  0.33257266  0.66666771  1
  Ni  Ni7  1  -0.00000000  0.66590495  0.33333229  1
  Ni  Ni8  1  0.50000000  0.00050961  1.00000000  1
