# generated using pymatgen
data_DyZnPd
_symmetry_space_group_name_H-M   'P 1'
_cell_length_a   3.82527401
_cell_length_b   7.34166767
_cell_length_c   7.34575567
_cell_angle_alpha   119.98158897
_cell_angle_beta   90.00000000
_cell_angle_gamma   90.00000000
_symmetry_Int_Tables_number   1
_chemical_formula_structural   DyZnPd
_chemical_formula_sum   'Dy3 Zn3 Pd3'
_cell_volume   178.69192352
_cell_formula_units_Z   3
loop_
 _symmetry_equiv_pos_site_id
 _symmetry_equiv_pos_as_xyz
  1  'x, y, z'
loop_
 _atom_site_type_symbol
 _atom_site_label
 _atom_site_symmetry_multiplicity
 _atom_site_fract_x
 _atom_site_fract_y
 _atom_site_fract_z
 _atom_site_occupancy
  Dy  Dy0  1  0.50000000  0.59492521  1.00000000  1
  Dy  Dy1  1  0.50000000  0.40477168  0.40494626  1
  Dy  Dy2  1  0.50000000  0.99982542  0.59505374  1
  Zn  Zn3  1  0.00000000  0.25370992  1.00000000  1
  Zn  Zn4  1  -0.00000000  0.74624288  0.74646053  1
  Zn  Zn5  1  -0.00000000  0.99978236  0.25353947  1
  Pd  Pd6  1  0.00000000  0.33340938  0.66656139  1
  Pd  Pd7  1  -0.00000000  0.66684799  0.33343861  1
  Pd  Pd8  1  0.50000000  0.00038518  0.00000000  1
