# generated using pymatgen
data_Mg(BrO3)2
_symmetry_space_group_name_H-M   'P 1'
_cell_length_a   6.36287394
_cell_length_b   5.03664526
_cell_length_c   5.03664526
_cell_angle_alpha   67.64586375
_cell_angle_beta   88.47590966
_cell_angle_gamma   88.47590966
_symmetry_Int_Tables_number   1
_chemical_formula_structural   Mg(BrO3)2
_chemical_formula_sum   'Mg1 Br2 O6'
_cell_volume   149.20556529
_cell_formula_units_Z   1
loop_
 _symmetry_equiv_pos_site_id
 _symmetry_equiv_pos_as_xyz
  1  'x, y, z'
loop_
 _atom_site_type_symbol
 _atom_site_label
 _atom_site_symmetry_multiplicity
 _atom_site_fract_x
 _atom_site_fract_y
 _atom_site_fract_z
 _atom_site_occupancy
  Mg  Mg0  1  -0.00000000  -0.00000000  -0.00000000  1
  Br  Br1  1  0.26827776  0.34816940  0.34816940  1
  Br  Br2  1  0.73172224  0.65183060  0.65183060  1
  O  O3  1  0.05047740  0.24128197  0.24128197  1
  O  O4  1  0.94952260  0.75871803  0.75871803  1
  O  O5  1  0.75483156  0.29191933  0.76792906  1
  O  O6  1  0.75483156  0.76792906  0.29191933  1
  O  O7  1  0.24516844  0.70808067  0.23207094  1
  O  O8  1  0.24516844  0.23207094  0.70808067  1
