# generated using pymatgen
data_GdHg3
_symmetry_space_group_name_H-M   'P 1'
_cell_length_a   5.07666156
_cell_length_b   6.73158133
_cell_length_c   6.73158133
_cell_angle_alpha   119.94686811
_cell_angle_beta   90.00000000
_cell_angle_gamma   90.00000000
_symmetry_Int_Tables_number   1
_chemical_formula_structural   GdHg3
_chemical_formula_sum   'Gd2 Hg6'
_cell_volume   199.33121178
_cell_formula_units_Z   2
loop_
 _symmetry_equiv_pos_site_id
 _symmetry_equiv_pos_as_xyz
  1  'x, y, z'
loop_
 _atom_site_type_symbol
 _atom_site_label
 _atom_site_symmetry_multiplicity
 _atom_site_fract_x
 _atom_site_fract_y
 _atom_site_fract_z
 _atom_site_occupancy
  Gd  Gd0  1  0.75000000  0.66630289  0.33369711  1
  Gd  Gd1  1  0.25000000  0.33369711  0.66630289  1
  Hg  Hg2  1  0.75000000  0.16604652  0.33102154  1
  Hg  Hg3  1  0.75000000  0.16544505  0.83455495  1
  Hg  Hg4  1  0.75000000  0.66897846  0.83395348  1
  Hg  Hg5  1  0.25000000  0.83395348  0.66897846  1
  Hg  Hg6  1  0.25000000  0.83455495  0.16544505  1
  Hg  Hg7  1  0.25000000  0.33102154  0.16604652  1
