# generated using pymatgen
data_Ca(GaP)2
_symmetry_space_group_name_H-M   'P 1'
_cell_length_a   3.87255738
_cell_length_b   3.87255738
_cell_length_c   16.53119566
_cell_angle_alpha   90.00000000
_cell_angle_beta   90.00000000
_cell_angle_gamma   119.99819863
_symmetry_Int_Tables_number   1
_chemical_formula_structural   Ca(GaP)2
_chemical_formula_sum   'Ca2 Ga4 P4'
_cell_volume   214.70319322
_cell_formula_units_Z   2
loop_
 _symmetry_equiv_pos_site_id
 _symmetry_equiv_pos_as_xyz
  1  'x, y, z'
loop_
 _atom_site_type_symbol
 _atom_site_label
 _atom_site_symmetry_multiplicity
 _atom_site_fract_x
 _atom_site_fract_y
 _atom_site_fract_z
 _atom_site_occupancy
  Ca  Ca0  1  0.00000000  0.00000000  0.50000000  1
  Ca  Ca1  1  0.00000000  0.00000000  -0.00000000  1
  Ga  Ga2  1  0.66667185  0.33332815  0.67525802  1
  Ga  Ga3  1  0.33332815  0.66667185  0.32474198  1
  Ga  Ga4  1  0.33332815  0.66667185  0.17525802  1
  Ga  Ga5  1  0.66667185  0.33332815  0.82474198  1
  P  P6  1  0.66666827  0.33333173  0.11479043  1
  P  P7  1  0.33333173  0.66666827  0.88520957  1
  P  P8  1  0.33333173  0.66666827  0.61479043  1
  P  P9  1  0.66666827  0.33333173  0.38520957  1
