# generated using pymatgen
data_SmInNi
_symmetry_space_group_name_H-M   'P 1'
_cell_length_a   3.91640352
_cell_length_b   7.51968671
_cell_length_c   7.51710314
_cell_angle_alpha   120.01136753
_cell_angle_beta   90.00000000
_cell_angle_gamma   90.00000000
_symmetry_Int_Tables_number   1
_chemical_formula_structural   SmInNi
_chemical_formula_sum   'Sm3 In3 Ni3'
_cell_volume   191.69843243
_cell_formula_units_Z   3
loop_
 _symmetry_equiv_pos_site_id
 _symmetry_equiv_pos_as_xyz
  1  'x, y, z'
loop_
 _atom_site_type_symbol
 _atom_site_label
 _atom_site_symmetry_multiplicity
 _atom_site_fract_x
 _atom_site_fract_y
 _atom_site_fract_z
 _atom_site_occupancy
  Sm  Sm0  1  0.50000000  0.58639195  0.00000000  1
  Sm  Sm1  1  0.50000000  0.41356857  0.41361924  1
  Sm  Sm2  1  0.50000000  -0.00005067  0.58638076  1
  In  In3  1  0.00000000  0.24961782  0.00000000  1
  In  In4  1  -0.00000000  0.75031863  0.75033486  1
  In  In5  1  0.00000000  -0.00001623  0.24966514  1
  Ni  Ni6  1  0.00000000  0.33333455  0.66663089  1
  Ni  Ni7  1  0.00000000  0.66670366  0.33336911  1
  Ni  Ni8  1  0.50000000  0.00003174  0.00000000  1
