# generated using pymatgen
data_ErNiGe3
_symmetry_space_group_name_H-M   'P 1'
_cell_length_a   4.09297559
_cell_length_b   4.07091060
_cell_length_c   10.97493911
_cell_angle_alpha   90.00000000
_cell_angle_beta   100.74680034
_cell_angle_gamma   90.00000000
_symmetry_Int_Tables_number   1
_chemical_formula_structural   ErNiGe3
_chemical_formula_sum   'Er2 Ni2 Ge6'
_cell_volume   179.65862681
_cell_formula_units_Z   2
loop_
 _symmetry_equiv_pos_site_id
 _symmetry_equiv_pos_as_xyz
  1  'x, y, z'
loop_
 _atom_site_type_symbol
 _atom_site_label
 _atom_site_symmetry_multiplicity
 _atom_site_fract_x
 _atom_site_fract_y
 _atom_site_fract_z
 _atom_site_occupancy
  Er  Er0  1  0.16902383  0.50000000  0.33804767  1
  Er  Er1  1  0.83097617  0.50000000  0.66195233  1
  Ni  Ni2  1  0.38882988  -0.00000000  0.77765977  1
  Ni  Ni3  1  0.61117012  0.00000000  0.22234023  1
  Ge  Ge4  1  0.28312263  -0.00000000  0.56624525  1
  Ge  Ge5  1  0.71687737  0.00000000  0.43375475  1
  Ge  Ge6  1  0.44263074  0.50000000  0.88526148  1
  Ge  Ge7  1  0.55736926  0.50000000  0.11473852  1
  Ge  Ge8  1  0.05757025  -0.00000000  0.11514050  1
  Ge  Ge9  1  0.94242975  -0.00000000  0.88485950  1
