# generated using pymatgen
data_Li9Co7O16
_symmetry_space_group_name_H-M   'P 1'
_cell_length_a   2.99685152
_cell_length_b   4.97781616
_cell_length_c   19.51999350
_cell_angle_alpha   92.23874869
_cell_angle_beta   81.28624309
_cell_angle_gamma   90.03310047
_symmetry_Int_Tables_number   1
_chemical_formula_structural   Li9Co7O16
_chemical_formula_sum   'Li9 Co7 O16'
_cell_volume   287.60988343
_cell_formula_units_Z   1
loop_
 _symmetry_equiv_pos_site_id
 _symmetry_equiv_pos_as_xyz
  1  'x, y, z'
loop_
 _atom_site_type_symbol
 _atom_site_label
 _atom_site_symmetry_multiplicity
 _atom_site_fract_x
 _atom_site_fract_y
 _atom_site_fract_z
 _atom_site_occupancy
  Li  Li0  1  0.87494576  0.36896349  0.12783331  1
  Li  Li1  1  0.12674086  0.62541094  0.37174349  1
  Li  Li2  1  0.37521027  0.87563226  0.62509155  1
  Li  Li3  1  0.62471149  0.12452583  0.87496848  1
  Li  Li4  1  0.37325914  0.87458906  0.12825651  1
  Li  Li5  1  0.62505424  0.13103651  0.37216669  1
  Li  Li6  1  0.87528851  0.37547417  0.62503152  1
  Li  Li7  1  0.12478973  0.62436774  0.87490845  1
  Li  Li8  1  0.25000000  0.25000000  0.25000000  1
  Co  Co9  1  0.99961673  0.99944970  0.00057348  1
  Co  Co10  1  0.75000000  0.75000000  0.25000000  1
  Co  Co11  1  0.50038327  0.50055030  0.49942652  1
  Co  Co12  1  0.75000000  0.75000000  0.75000000  1
  Co  Co13  1  0.49996105  0.49963906  0.00028243  1
  Co  Co14  1  0.00003895  0.00036094  0.49971757  1
  Co  Co15  1  0.25000000  0.25000000  0.75000000  1
  O  O16  1  0.44280350  0.19641452  0.05936152  1
  O  O17  1  0.69372433  0.47426666  0.30555174  1
  O  O18  1  0.94418189  0.69554748  0.55744012  1
  O  O19  1  0.19221342  0.93846360  0.80712557  1
  O  O20  1  0.94437748  0.69352538  0.05762060  1
  O  O21  1  0.19806939  0.91396946  0.30318358  1
  O  O22  1  0.44431143  0.19671677  0.55725248  1
  O  O23  1  0.69215154  0.43843692  0.80721999  1
  O  O24  1  0.30193061  0.58603054  0.19681642  1
  O  O25  1  0.55562252  0.80647462  0.44237940  1
  O  O26  1  0.80784846  0.06156308  0.69278001  1
  O  O27  1  0.05568857  0.30328323  0.94274752  1
  O  O28  1  0.80627567  0.02573334  0.19444826  1
  O  O29  1  0.05719650  0.30358548  0.44063848  1
  O  O30  1  0.30778658  0.56153640  0.69287443  1
  O  O31  1  0.55581811  0.80445252  0.94255988  1
