# generated using pymatgen
data_Er6MnTe2
_symmetry_space_group_name_H-M   'P 1'
_cell_length_a   4.06231169
_cell_length_b   8.19988046
_cell_length_c   8.19929197
_cell_angle_alpha   120.00237524
_cell_angle_beta   90.00000000
_cell_angle_gamma   90.00000000
_symmetry_Int_Tables_number   1
_chemical_formula_structural   Er6MnTe2
_chemical_formula_sum   'Er6 Mn1 Te2'
_cell_volume   236.52516365
_cell_formula_units_Z   1
loop_
 _symmetry_equiv_pos_site_id
 _symmetry_equiv_pos_as_xyz
  1  'x, y, z'
loop_
 _atom_site_type_symbol
 _atom_site_label
 _atom_site_symmetry_multiplicity
 _atom_site_fract_x
 _atom_site_fract_y
 _atom_site_fract_z
 _atom_site_occupancy
  Er  Er0  1  0.50000000  0.60739234  0.00000000  1
  Er  Er1  1  0.50000000  0.39247279  0.39246508  1
  Er  Er2  1  0.50000000  0.00000771  0.60753492  1
  Er  Er3  1  0.00000000  0.23645005  1.00000000  1
  Er  Er4  1  0.00000000  0.76320134  0.76276329  1
  Er  Er5  1  0.00000000  0.00043804  0.23723671  1
  Mn  Mn6  1  0.50000000  0.99978280  1.00000000  1
  Te  Te7  1  0.00000000  0.33376774  0.66738054  1
  Te  Te8  1  0.00000000  0.66638720  0.33261946  1
