# generated using pymatgen
data_Ba2GdMoO6
_symmetry_space_group_name_H-M   'P 1'
_cell_length_a   6.04491013
_cell_length_b   6.00981772
_cell_length_c   6.05277016
_cell_angle_alpha   60.52018723
_cell_angle_beta   60.33522156
_cell_angle_gamma   90.47381570
_symmetry_Int_Tables_number   1
_chemical_formula_structural   Ba2GdMoO6
_chemical_formula_sum   'Ba2 Gd1 Mo1 O6'
_cell_volume   156.84394970
_cell_formula_units_Z   1
loop_
 _symmetry_equiv_pos_site_id
 _symmetry_equiv_pos_as_xyz
  1  'x, y, z'
loop_
 _atom_site_type_symbol
 _atom_site_label
 _atom_site_symmetry_multiplicity
 _atom_site_fract_x
 _atom_site_fract_y
 _atom_site_fract_z
 _atom_site_occupancy
  Ba  Ba0  1  0.24870772  0.74824620  0.50231171  1
  Ba  Ba1  1  0.75129228  0.25175380  0.49768829  1
  Gd  Gd2  1  -0.00000000  -0.00000000  0.00000000  1
  Mo  Mo3  1  0.50000000  0.50000000  0.00000000  1
  O  O4  1  0.25777003  0.26922033  0.47364528  1
  O  O5  1  0.74222997  0.73077967  0.52635472  1
  O  O6  1  0.24286631  0.29639824  0.99803125  1
  O  O7  1  0.75713369  0.70360176  0.00196875  1
  O  O8  1  0.70791585  0.23853331  0.00957247  1
  O  O9  1  0.29208415  0.76146669  0.99042753  1
