# generated using pymatgen
data_Sr2MgReO6
_symmetry_space_group_name_H-M   'P 1'
_cell_length_a   5.62064219
_cell_length_b   5.62064219
_cell_length_c   5.65162892
_cell_angle_alpha   119.81880106
_cell_angle_beta   119.81880106
_cell_angle_gamma   90.00000000
_symmetry_Int_Tables_number   1
_chemical_formula_structural   Sr2MgReO6
_chemical_formula_sum   'Sr2 Mg1 Re1 O6'
_cell_volume   126.93815455
_cell_formula_units_Z   1
loop_
 _symmetry_equiv_pos_site_id
 _symmetry_equiv_pos_as_xyz
  1  'x, y, z'
loop_
 _atom_site_type_symbol
 _atom_site_label
 _atom_site_symmetry_multiplicity
 _atom_site_fract_x
 _atom_site_fract_y
 _atom_site_fract_z
 _atom_site_occupancy
  Sr  Sr0  1  0.75000000  0.25000000  0.50000000  1
  Sr  Sr1  1  0.25000000  0.75000000  0.50000000  1
  Mg  Mg2  1  0.50000000  0.50000000  0.00000000  1
  Re  Re3  1  -0.00000000  -0.00000000  0.00000000  1
  O  O4  1  0.24244390  0.24244390  0.48488781  1
  O  O5  1  0.75755610  0.75755610  0.51511219  1
  O  O6  1  0.20904358  0.27384390  1.00000000  1
  O  O7  1  0.79095642  0.72615610  0.00000000  1
  O  O8  1  0.72615610  0.20904358  1.00000000  1
  O  O9  1  0.27384390  0.79095642  0.00000000  1
