# generated using pymatgen
data_UGaRh
_symmetry_space_group_name_H-M   'P 1'
_cell_length_a   4.09542158
_cell_length_b   6.87773527
_cell_length_c   6.88548181
_cell_angle_alpha   119.96278458
_cell_angle_beta   90.00000000
_cell_angle_gamma   90.00000000
_symmetry_Int_Tables_number   1
_chemical_formula_structural   UGaRh
_chemical_formula_sum   'U3 Ga3 Rh3'
_cell_volume   168.02417747
_cell_formula_units_Z   3
loop_
 _symmetry_equiv_pos_site_id
 _symmetry_equiv_pos_as_xyz
  1  'x, y, z'
loop_
 _atom_site_type_symbol
 _atom_site_label
 _atom_site_symmetry_multiplicity
 _atom_site_fract_x
 _atom_site_fract_y
 _atom_site_fract_z
 _atom_site_occupancy
  U  U0  1  0.50000000  0.57875592  0.00000000  1
  U  U1  1  0.50000000  0.42155084  0.42116897  1
  U  U2  1  0.50000000  0.00038187  0.57883103  1
  Ga  Ga3  1  0.00000000  0.23962399  0.00000000  1
  Ga  Ga4  1  0.00000000  0.76029479  0.76011993  1
  Ga  Ga5  1  0.00000000  0.00017486  0.23988007  1
  Rh  Rh6  1  0.00000000  0.33307335  0.66661440  1
  Rh  Rh7  1  0.00000000  0.66645895  0.33338560  1
  Rh  Rh8  1  0.50000000  0.99958542  0.00000000  1
