# generated using pymatgen
data_ThAlPt
_symmetry_space_group_name_H-M   'P 1'
_cell_length_a   4.18054938
_cell_length_b   7.31050379
_cell_length_c   7.31100427
_cell_angle_alpha   119.99774141
_cell_angle_beta   90.00000000
_cell_angle_gamma   90.00000000
_symmetry_Int_Tables_number   1
_chemical_formula_structural   ThAlPt
_chemical_formula_sum   'Th3 Al3 Pt3'
_cell_volume   193.50768468
_cell_formula_units_Z   3
loop_
 _symmetry_equiv_pos_site_id
 _symmetry_equiv_pos_as_xyz
  1  'x, y, z'
loop_
 _atom_site_type_symbol
 _atom_site_label
 _atom_site_symmetry_multiplicity
 _atom_site_fract_x
 _atom_site_fract_y
 _atom_site_fract_z
 _atom_site_occupancy
  Th  Th0  1  0.50000000  0.58055575  1.00000000  1
  Th  Th1  1  0.50000000  0.41940294  0.41940768  1
  Th  Th2  1  0.50000000  -0.00000473  0.58059232  1
  Al  Al3  1  -0.00000000  0.23316936  1.00000000  1
  Al  Al4  1  0.00000000  0.76680900  0.76682240  1
  Al  Al5  1  0.00000000  0.99998661  0.23317760  1
  Pt  Pt6  1  -0.00000000  0.33332297  0.66665465  1
  Pt  Pt7  1  -0.00000000  0.66666832  0.33334535  1
  Pt  Pt8  1  0.50000000  0.99998977  1.00000000  1
