# generated using pymatgen
data_Li9Mn2Co5O16
_symmetry_space_group_name_H-M   'P 1'
_cell_length_a   5.71340950
_cell_length_b   10.11514643
_cell_length_c   5.93923072
_cell_angle_alpha   91.64064632
_cell_angle_beta   118.99795463
_cell_angle_gamma   73.57598355
_symmetry_Int_Tables_number   1
_chemical_formula_structural   Li9Mn2Co5O16
_chemical_formula_sum   'Li9 Mn2 Co5 O16'
_cell_volume   285.54483096
_cell_formula_units_Z   1
loop_
 _symmetry_equiv_pos_site_id
 _symmetry_equiv_pos_as_xyz
  1  'x, y, z'
loop_
 _atom_site_type_symbol
 _atom_site_label
 _atom_site_symmetry_multiplicity
 _atom_site_fract_x
 _atom_site_fract_y
 _atom_site_fract_z
 _atom_site_occupancy
  Li  Li0  1  0.00109272  0.24639222  0.74716432  1
  Li  Li1  1  0.49536183  0.75470542  0.24799014  1
  Li  Li2  1  0.00151330  0.24690773  0.25501278  1
  Li  Li3  1  0.49875862  0.75013405  0.75384607  1
  Li  Li4  1  0.50124138  0.24986595  0.24615393  1
  Li  Li5  1  -0.00151330  0.75309227  0.74498722  1
  Li  Li6  1  0.50463817  0.24529458  0.75200986  1
  Li  Li7  1  0.99890728  0.75360778  0.25283568  1
  Li  Li8  1  0.00000000  -0.00000000  0.50000000  1
  Mn  Mn9  1  0.00000000  -0.00000000  -0.00000000  1
  Mn  Mn10  1  0.00000000  0.50000000  0.50000000  1
  Co  Co11  1  0.50000000  0.50000000  0.50000000  1
  Co  Co12  1  0.50000000  0.50000000  -0.00000000  1
  Co  Co13  1  0.50000000  -0.00000000  0.50000000  1
  Co  Co14  1  0.00000000  0.50000000  -0.00000000  1
  Co  Co15  1  0.50000000  -0.00000000  -0.00000000  1
  O  O16  1  0.24628139  0.11532955  0.11119957  1
  O  O17  1  0.74106357  0.61643745  0.60783855  1
  O  O18  1  0.27606977  0.11124651  0.60681211  1
  O  O19  1  0.75634722  0.61664239  0.10785374  1
  O  O20  1  0.76675532  0.10620756  0.65818144  1
  O  O21  1  0.24938838  0.61171675  0.12006220  1
  O  O22  1  0.74090936  0.11144742  0.10810035  1
  O  O23  1  0.24263924  0.61943141  0.62275848  1
  O  O24  1  0.75736076  0.38056859  0.37724152  1
  O  O25  1  0.25909064  0.88855258  0.89189965  1
  O  O26  1  0.75061162  0.38828325  0.87993780  1
  O  O27  1  0.23324468  0.89379244  0.34181856  1
  O  O28  1  0.24365278  0.38335761  0.89214626  1
  O  O29  1  0.72393023  0.88875349  0.39318789  1
  O  O30  1  0.25893643  0.38356255  0.39216145  1
  O  O31  1  0.75371861  0.88467045  0.88880043  1
