# generated using pymatgen
data_ErSnIr
_symmetry_space_group_name_H-M   'P 1'
_cell_length_a   3.91467636
_cell_length_b   7.48320036
_cell_length_c   7.48412573
_cell_angle_alpha   119.99590857
_cell_angle_beta   90.00000000
_cell_angle_gamma   90.00000000
_symmetry_Int_Tables_number   1
_chemical_formula_structural   ErSnIr
_chemical_formula_sum   'Er3 Sn3 Ir3'
_cell_volume   189.87721232
_cell_formula_units_Z   3
loop_
 _symmetry_equiv_pos_site_id
 _symmetry_equiv_pos_as_xyz
  1  'x, y, z'
loop_
 _atom_site_type_symbol
 _atom_site_label
 _atom_site_symmetry_multiplicity
 _atom_site_fract_x
 _atom_site_fract_y
 _atom_site_fract_z
 _atom_site_occupancy
  Er  Er0  1  0.50000000  0.59282229  1.00000000  1
  Er  Er1  1  0.50000000  0.40713207  0.40714786  1
  Er  Er2  1  0.50000000  0.99998421  0.59285214  1
  Sn  Sn3  1  -0.00000000  0.25909161  0.00000000  1
  Sn  Sn4  1  0.00000000  0.74092826  0.74089403  1
  Sn  Sn5  1  0.00000000  0.00003423  0.25910597  1
  Ir  Ir6  1  -0.00000000  0.33331912  0.66668787  1
  Ir  Ir7  1  -0.00000000  0.66663125  0.33331213  1
  Ir  Ir8  1  0.50000000  0.99995696  1.00000000  1
