# generated using pymatgen
data_Ca2CdP2
_symmetry_space_group_name_H-M   'P 1'
_cell_length_a   4.21266972
_cell_length_b   7.08801162
_cell_length_c   8.33351026
_cell_angle_alpha   90.00000000
_cell_angle_beta   104.64059183
_cell_angle_gamma   90.00000000
_symmetry_Int_Tables_number   1
_chemical_formula_structural   Ca2CdP2
_chemical_formula_sum   'Ca4 Cd2 P4'
_cell_volume   240.75449366
_cell_formula_units_Z   2
loop_
 _symmetry_equiv_pos_site_id
 _symmetry_equiv_pos_as_xyz
  1  'x, y, z'
loop_
 _atom_site_type_symbol
 _atom_site_label
 _atom_site_symmetry_multiplicity
 _atom_site_fract_x
 _atom_site_fract_y
 _atom_site_fract_z
 _atom_site_occupancy
  Ca  Ca0  1  0.29887021  0.92628989  0.59774043  1
  Ca  Ca1  1  0.70112979  0.42628989  0.40225957  1
  Ca  Ca2  1  0.46483925  0.26987240  0.92967850  1
  Ca  Ca3  1  0.53516075  0.76987240  0.07032150  1
  Cd  Cd4  1  0.09919837  0.10824919  0.19839673  1
  Cd  Cd5  1  0.90080163  0.60824919  0.80160327  1
  P  P6  1  0.06284231  0.47976327  0.12568463  1
  P  P7  1  0.93715769  0.97976327  0.87431537  1
  P  P8  1  0.31924636  0.50449524  0.63849272  1
  P  P9  1  0.68075364  0.00449524  0.36150728  1
