# generated using pymatgen
data_TmSnPd
_symmetry_space_group_name_H-M   'P 1'
_cell_length_a   3.81594956
_cell_length_b   7.64490466
_cell_length_c   7.64484485
_cell_angle_alpha   120.00025393
_cell_angle_beta   90.00000000
_cell_angle_gamma   90.00000000
_symmetry_Int_Tables_number   1
_chemical_formula_structural   TmSnPd
_chemical_formula_sum   'Tm3 Sn3 Pd3'
_cell_volume   193.14029715
_cell_formula_units_Z   3
loop_
 _symmetry_equiv_pos_site_id
 _symmetry_equiv_pos_as_xyz
  1  'x, y, z'
loop_
 _atom_site_type_symbol
 _atom_site_label
 _atom_site_symmetry_multiplicity
 _atom_site_fract_x
 _atom_site_fract_y
 _atom_site_fract_z
 _atom_site_occupancy
  Tm  Tm0  1  0.50000000  0.59942382  0.00000000  1
  Tm  Tm1  1  0.50000000  0.40055995  0.40057727  1
  Tm  Tm2  1  0.50000000  0.99998268  0.59942273  1
  Sn  Sn3  1  0.00000000  0.26390841  0.00000000  1
  Sn  Sn4  1  0.00000000  0.73607134  0.73607570  1
  Sn  Sn5  1  -0.00000000  0.99999564  0.26392430  1
  Pd  Pd6  1  0.00000000  0.33333194  0.66667505  1
  Pd  Pd7  1  0.00000000  0.66665690  0.33332495  1
  Pd  Pd8  1  0.50000000  0.99996932  0.00000000  1
