# generated using pymatgen
data_Ba2CeTaO6
_symmetry_space_group_name_H-M   'P 1'
_cell_length_a   6.11284426
_cell_length_b   6.10927500
_cell_length_c   6.13648321
_cell_angle_alpha   89.77896854
_cell_angle_beta   119.87265612
_cell_angle_gamma   120.01933247
_symmetry_Int_Tables_number   1
_chemical_formula_structural   Ba2CeTaO6
_chemical_formula_sum   'Ba2 Ce1 Ta1 O6'
_cell_volume   162.61798081
_cell_formula_units_Z   1
loop_
 _symmetry_equiv_pos_site_id
 _symmetry_equiv_pos_as_xyz
  1  'x, y, z'
loop_
 _atom_site_type_symbol
 _atom_site_label
 _atom_site_symmetry_multiplicity
 _atom_site_fract_x
 _atom_site_fract_y
 _atom_site_fract_z
 _atom_site_occupancy
  Ba  Ba0  1  0.50362073  0.75198281  0.25525865  1
  Ba  Ba1  1  0.49637927  0.24801719  0.74474135  1
  Ce  Ce2  1  -0.00000000  -0.00000000  0.00000000  1
  Ta  Ta3  1  -0.00000000  0.50000000  0.50000000  1
  O  O4  1  0.05343007  0.32337584  0.78348429  1
  O  O5  1  0.94656993  0.67662416  0.21651571  1
  O  O6  1  0.00342921  0.24217745  0.29823972  1
  O  O7  1  0.46301204  0.75782255  0.70176028  1
  O  O8  1  0.99657079  0.75782255  0.70176028  1
  O  O9  1  0.53698796  0.24217745  0.29823972  1
