# generated using pymatgen
data_LiTbGe
_symmetry_space_group_name_H-M   'P 1'
_cell_length_a   4.29316780
_cell_length_b   7.09038406
_cell_length_c   7.09042839
_cell_angle_alpha   119.99979637
_cell_angle_beta   90.00000000
_cell_angle_gamma   90.00000000
_symmetry_Int_Tables_number   1
_chemical_formula_structural   LiTbGe
_chemical_formula_sum   'Li3 Tb3 Ge3'
_cell_volume   186.91821349
_cell_formula_units_Z   3
loop_
 _symmetry_equiv_pos_site_id
 _symmetry_equiv_pos_as_xyz
  1  'x, y, z'
loop_
 _atom_site_type_symbol
 _atom_site_label
 _atom_site_symmetry_multiplicity
 _atom_site_fract_x
 _atom_site_fract_y
 _atom_site_fract_z
 _atom_site_occupancy
  Li  Li0  1  0.50000000  0.23471532  0.00000000  1
  Li  Li1  1  0.50000000  0.76527803  0.76527945  1
  Li  Li2  1  0.50000000  0.99999858  0.23472055  1
  Tb  Tb3  1  0.00000000  0.57898337  0.00000000  1
  Tb  Tb4  1  0.00000000  0.42100799  0.42102261  1
  Tb  Tb5  1  0.00000000  0.99998538  0.57897739  1
  Ge  Ge6  1  0.00000000  0.99999989  0.00000000  1
  Ge  Ge7  1  0.50000000  0.33330935  0.66668726  1
  Ge  Ge8  1  0.50000000  0.66662209  0.33331274  1
