# generated using pymatgen
data_Nd(BIr)2
_symmetry_space_group_name_H-M   'P 1'
_cell_length_a   5.59163169
_cell_length_b   5.59163169
_cell_length_c   6.15216948
_cell_angle_alpha   105.18857082
_cell_angle_beta   105.18857082
_cell_angle_gamma   115.05439528
_symmetry_Int_Tables_number   1
_chemical_formula_structural   Nd(BIr)2
_chemical_formula_sum   'Nd2 B4 Ir4'
_cell_volume   152.10038506
_cell_formula_units_Z   2
loop_
 _symmetry_equiv_pos_site_id
 _symmetry_equiv_pos_as_xyz
  1  'x, y, z'
loop_
 _atom_site_type_symbol
 _atom_site_label
 _atom_site_symmetry_multiplicity
 _atom_site_fract_x
 _atom_site_fract_y
 _atom_site_fract_z
 _atom_site_occupancy
  Nd  Nd0  1  0.75000000  0.25000000  0.50000000  1
  Nd  Nd1  1  0.00000000  -0.00000000  0.00000000  1
  B  B2  1  0.07212475  0.92787525  0.50000000  1
  B  B3  1  0.67787525  0.32212475  0.00000000  1
  B  B4  1  0.42787525  0.57212475  0.50000000  1
  B  B5  1  0.32212475  0.67787525  -0.00000000  1
  Ir  Ir6  1  0.12060880  0.62060880  0.24121759  1
  Ir  Ir7  1  0.37939120  0.87939120  0.75878241  1
  Ir  Ir8  1  0.62939120  0.62939120  0.25878241  1
  Ir  Ir9  1  0.37060880  0.37060880  0.74121759  1
