# generated using pymatgen
data_Cs2Sb2Pd
_symmetry_space_group_name_H-M   'P 1'
_cell_length_a   6.89233285
_cell_length_b   7.87823936
_cell_length_c   8.64799260
_cell_angle_alpha   117.09680705
_cell_angle_beta   90.00000000
_cell_angle_gamma   90.00000000
_symmetry_Int_Tables_number   1
_chemical_formula_structural   Cs2Sb2Pd
_chemical_formula_sum   'Cs4 Sb4 Pd2'
_cell_volume   418.03913893
_cell_formula_units_Z   2
loop_
 _symmetry_equiv_pos_site_id
 _symmetry_equiv_pos_as_xyz
  1  'x, y, z'
loop_
 _atom_site_type_symbol
 _atom_site_label
 _atom_site_symmetry_multiplicity
 _atom_site_fract_x
 _atom_site_fract_y
 _atom_site_fract_z
 _atom_site_occupancy
  Cs  Cs0  1  0.75000000  0.41119113  0.82238225  1
  Cs  Cs1  1  0.25000000  0.58880887  0.17761775  1
  Cs  Cs2  1  0.75000000  0.79803718  0.59607436  1
  Cs  Cs3  1  0.25000000  0.20196282  0.40392564  1
  Sb  Sb4  1  0.75000000  0.27783503  0.19986157  1
  Sb  Sb5  1  0.25000000  0.07797346  0.80013843  1
  Sb  Sb6  1  0.25000000  0.72216497  0.80013843  1
  Sb  Sb7  1  0.75000000  0.92202654  0.19986157  1
  Pd  Pd8  1  0.50000000  -0.00000000  -0.00000000  1
  Pd  Pd9  1  0.00000000  -0.00000000  -0.00000000  1
