# generated using pymatgen
data_CsTmS2
_symmetry_space_group_name_H-M   'P 1'
_cell_length_a   4.04943119
_cell_length_b   4.04943119
_cell_length_c   16.05115882
_cell_angle_alpha   90.00000000
_cell_angle_beta   90.00000000
_cell_angle_gamma   120.00048339
_symmetry_Int_Tables_number   1
_chemical_formula_structural   CsTmS2
_chemical_formula_sum   'Cs2 Tm2 S4'
_cell_volume   227.94126534
_cell_formula_units_Z   2
loop_
 _symmetry_equiv_pos_site_id
 _symmetry_equiv_pos_as_xyz
  1  'x, y, z'
loop_
 _atom_site_type_symbol
 _atom_site_label
 _atom_site_symmetry_multiplicity
 _atom_site_fract_x
 _atom_site_fract_y
 _atom_site_fract_z
 _atom_site_occupancy
  Cs  Cs0  1  0.66669385  0.33330615  0.75000000  1
  Cs  Cs1  1  0.33330615  0.66669385  0.25000000  1
  Tm  Tm2  1  -0.00000000  -0.00000000  0.50000000  1
  Tm  Tm3  1  -0.00000000  -0.00000000  -0.00000000  1
  S  S4  1  0.66667222  0.33332778  0.08978615  1
  S  S5  1  0.33332778  0.66667222  0.91021385  1
  S  S6  1  0.33332778  0.66667222  0.58978615  1
  S  S7  1  0.66667222  0.33332778  0.41021385  1
