# generated using pymatgen
data_Li9Mn2Co5O16
_symmetry_space_group_name_H-M   'P 1'
_cell_length_a   4.98586432
_cell_length_b   9.81412021
_cell_length_c   5.93444571
_cell_angle_alpha   88.40072156
_cell_angle_beta   91.16932757
_cell_angle_gamma   100.98239042
_symmetry_Int_Tables_number   1
_chemical_formula_structural   Li9Mn2Co5O16
_chemical_formula_sum   'Li9 Mn2 Co5 O16'
_cell_volume   284.92065191
_cell_formula_units_Z   1
loop_
 _symmetry_equiv_pos_site_id
 _symmetry_equiv_pos_as_xyz
  1  'x, y, z'
loop_
 _atom_site_type_symbol
 _atom_site_label
 _atom_site_symmetry_multiplicity
 _atom_site_fract_x
 _atom_site_fract_y
 _atom_site_fract_z
 _atom_site_occupancy
  Li  Li0  1  0.74721982  0.24605872  0.99543559  1
  Li  Li1  1  0.75128317  0.75277750  0.25503114  1
  Li  Li2  1  0.75828306  0.24435704  0.50430609  1
  Li  Li3  1  0.24786917  0.24562095  0.25469877  1
  Li  Li4  1  0.24171694  0.75564296  0.49569391  1
  Li  Li5  1  0.24871683  0.24722250  0.74496886  1
  Li  Li6  1  0.75213083  0.75437905  0.74530123  1
  Li  Li7  1  0.25278018  0.75394128  0.00456441  1
  Li  Li8  1  0.00000000  0.00000000  0.50000000  1
  Mn  Mn9  1  0.00000000  0.00000000  0.00000000  1
  Mn  Mn10  1  0.50000000  0.50000000  0.50000000  1
  Co  Co11  1  -0.00113042  0.49909718  0.24668399  1
  Co  Co12  1  0.00113042  0.50090282  0.75331601  1
  Co  Co13  1  0.49959303  -0.00027054  0.74219776  1
  Co  Co14  1  0.50000000  0.50000000  0.00000000  1
  Co  Co15  1  0.50040697  0.00027054  0.25780224  1
  O  O16  1  0.86449985  0.11124044  0.76445259  1
  O  O17  1  0.85755956  0.61364299  -0.00695058  1
  O  O18  1  0.85970946  0.10817893  0.22798987  1
  O  O19  1  0.36510294  0.10977888  0.01494922  1
  O  O20  1  0.36086856  0.61678926  0.26595320  1
  O  O21  1  0.39697714  0.11210103  0.51033787  1
  O  O22  1  0.86359615  0.61825044  0.49486607  1
  O  O23  1  0.36103958  0.61648737  0.77479266  1
  O  O24  1  0.63896042  0.38351263  0.22520734  1
  O  O25  1  0.60302286  0.88789897  0.48966213  1
  O  O26  1  0.63913144  0.38321074  0.73404680  1
  O  O27  1  0.13640385  0.38174956  0.50513393  1
  O  O28  1  0.14029054  0.89182107  0.77201013  1
  O  O29  1  0.14244044  0.38635701  0.00695058  1
  O  O30  1  0.63489706  0.89022112  0.98505078  1
  O  O31  1  0.13550015  0.88875956  0.23554741  1
