# generated using pymatgen
data_LaCu
_symmetry_space_group_name_H-M   'P 1'
_cell_length_a   4.72939786
_cell_length_b   5.69752275
_cell_length_c   7.43786996
_cell_angle_alpha   90.00000000
_cell_angle_beta   90.00000000
_cell_angle_gamma   90.00000000
_symmetry_Int_Tables_number   1
_chemical_formula_structural   LaCu
_chemical_formula_sum   'La4 Cu4'
_cell_volume   200.41974240
_cell_formula_units_Z   4
loop_
 _symmetry_equiv_pos_site_id
 _symmetry_equiv_pos_as_xyz
  1  'x, y, z'
loop_
 _atom_site_type_symbol
 _atom_site_label
 _atom_site_symmetry_multiplicity
 _atom_site_fract_x
 _atom_site_fract_y
 _atom_site_fract_z
 _atom_site_occupancy
  La  La0  1  0.25000000  0.36432213  0.67980987  1
  La  La1  1  0.25000000  0.13567787  0.17980987  1
  La  La2  1  0.75000000  0.63567787  0.32019013  1
  La  La3  1  0.75000000  0.86432213  0.82019013  1
  Cu  Cu4  1  0.25000000  0.88446226  0.53391916  1
  Cu  Cu5  1  0.25000000  0.61553774  0.03391916  1
  Cu  Cu6  1  0.75000000  0.11553774  0.46608084  1
  Cu  Cu7  1  0.75000000  0.38446226  0.96608084  1
