# generated using pymatgen
data_Eu2ZnP2
_symmetry_space_group_name_H-M   'P 1'
_cell_length_a   4.14728048
_cell_length_b   7.24462276
_cell_length_c   8.16117295
_cell_angle_alpha   90.00000000
_cell_angle_beta   104.71943268
_cell_angle_gamma   90.00000000
_symmetry_Int_Tables_number   1
_chemical_formula_structural   Eu2ZnP2
_chemical_formula_sum   'Eu4 Zn2 P4'
_cell_volume   237.15910623
_cell_formula_units_Z   2
loop_
 _symmetry_equiv_pos_site_id
 _symmetry_equiv_pos_as_xyz
  1  'x, y, z'
loop_
 _atom_site_type_symbol
 _atom_site_label
 _atom_site_symmetry_multiplicity
 _atom_site_fract_x
 _atom_site_fract_y
 _atom_site_fract_z
 _atom_site_occupancy
  Eu  Eu0  1  0.70552083  0.03342935  0.41104166  1
  Eu  Eu1  1  0.29447917  0.53342935  0.58895834  1
  Eu  Eu2  1  0.53562427  0.70154851  0.07124854  1
  Eu  Eu3  1  0.46437573  0.20154851  0.92875146  1
  Zn  Zn4  1  0.90553596  0.85012856  0.81107192  1
  Zn  Zn5  1  0.09446404  0.35012856  0.18892808  1
  P  P6  1  0.93894106  0.49924674  0.87788212  1
  P  P7  1  0.06105894  0.99924674  0.12211788  1
  P  P8  1  0.66787500  0.42895684  0.33574999  1
  P  P9  1  0.33212500  0.92895684  0.66425001  1
