# generated using pymatgen
data_ErTe3
_symmetry_space_group_name_H-M   'P 1'
_cell_length_a   4.33743322
_cell_length_b   4.34013556
_cell_length_c   13.11046717
_cell_angle_alpha   90.00000000
_cell_angle_beta   99.52155666
_cell_angle_gamma   90.00000000
_symmetry_Int_Tables_number   1
_chemical_formula_structural   ErTe3
_chemical_formula_sum   'Er2 Te6'
_cell_volume   243.40504826
_cell_formula_units_Z   2
loop_
 _symmetry_equiv_pos_site_id
 _symmetry_equiv_pos_as_xyz
  1  'x, y, z'
loop_
 _atom_site_type_symbol
 _atom_site_label
 _atom_site_symmetry_multiplicity
 _atom_site_fract_x
 _atom_site_fract_y
 _atom_site_fract_z
 _atom_site_occupancy
  Er  Er0  1  0.16973662  0.75000000  0.33947325  1
  Er  Er1  1  0.83026338  0.25000000  0.66052675  1
  Te  Te2  1  0.92539776  0.75000000  0.85079551  1
  Te  Te3  1  0.07460224  0.25000000  0.14920449  1
  Te  Te4  1  0.57471858  0.75000000  0.14943716  1
  Te  Te5  1  0.42528142  0.25000000  0.85056284  1
  Te  Te6  1  0.29332005  0.75000000  0.58664011  1
  Te  Te7  1  0.70667995  0.25000000  0.41335989  1
