# generated using pymatgen
data_YAl2Pd5
_symmetry_space_group_name_H-M   'P 1'
_cell_length_a   4.15429601
_cell_length_b   4.15429601
_cell_length_c   8.05136104
_cell_angle_alpha   104.95065924
_cell_angle_beta   104.95065924
_cell_angle_gamma   90.00000000
_symmetry_Int_Tables_number   1
_chemical_formula_structural   YAl2Pd5
_chemical_formula_sum   'Y1 Al2 Pd5'
_cell_volume   129.37340019
_cell_formula_units_Z   1
loop_
 _symmetry_equiv_pos_site_id
 _symmetry_equiv_pos_as_xyz
  1  'x, y, z'
loop_
 _atom_site_type_symbol
 _atom_site_label
 _atom_site_symmetry_multiplicity
 _atom_site_fract_x
 _atom_site_fract_y
 _atom_site_fract_z
 _atom_site_occupancy
  Y  Y0  1  0.00000000  0.00000000  0.00000000  1
  Al  Al1  1  0.74679953  0.74679953  0.49359906  1
  Al  Al2  1  0.25320047  0.25320047  0.50640094  1
  Pd  Pd3  1  0.50000000  0.50000000  0.00000000  1
  Pd  Pd4  1  0.35541216  0.85541216  0.71082432  1
  Pd  Pd5  1  0.85541216  0.35541216  0.71082432  1
  Pd  Pd6  1  0.64458784  0.14458784  0.28917568  1
  Pd  Pd7  1  0.14458784  0.64458784  0.28917568  1
