# generated using pymatgen
data_Sr2MgTeO6
_symmetry_space_group_name_H-M   'P 1'
_cell_length_a   5.67179842
_cell_length_b   5.66983513
_cell_length_c   5.66773180
_cell_angle_alpha   60.32397031
_cell_angle_beta   59.97625863
_cell_angle_gamma   59.98854116
_symmetry_Int_Tables_number   1
_chemical_formula_structural   Sr2MgTeO6
_chemical_formula_sum   'Sr2 Mg1 Te1 O6'
_cell_volume   129.15802787
_cell_formula_units_Z   1
loop_
 _symmetry_equiv_pos_site_id
 _symmetry_equiv_pos_as_xyz
  1  'x, y, z'
loop_
 _atom_site_type_symbol
 _atom_site_label
 _atom_site_symmetry_multiplicity
 _atom_site_fract_x
 _atom_site_fract_y
 _atom_site_fract_z
 _atom_site_occupancy
  Sr  Sr0  1  0.75017380  0.24768397  0.25196843  1
  Sr  Sr1  1  0.24982620  0.75231603  0.74803157  1
  Mg  Mg2  1  0.00000000  0.50000000  0.50000000  1
  Te  Te3  1  0.50000000  -0.00000000  -0.00000000  1
  O  O4  1  0.25857756  0.28378773  0.19905714  1
  O  O5  1  0.74142244  0.71621227  0.80094286  1
  O  O6  1  0.76349972  0.21860681  0.73793563  1
  O  O7  1  0.72004216  0.78139319  0.26206437  1
  O  O8  1  0.23650028  0.78139319  0.26206437  1
  O  O9  1  0.27995784  0.21860681  0.73793563  1
