# generated using pymatgen
data_HoNiSn
_symmetry_space_group_name_H-M   'P 1'
_cell_length_a   3.90944689
_cell_length_b   7.24605949
_cell_length_c   7.24622718
_cell_angle_alpha   119.99923438
_cell_angle_beta   90.00000000
_cell_angle_gamma   90.00000000
_symmetry_Int_Tables_number   1
_chemical_formula_structural   HoNiSn
_chemical_formula_sum   'Ho3 Ni3 Sn3'
_cell_volume   177.77191088
_cell_formula_units_Z   3
loop_
 _symmetry_equiv_pos_site_id
 _symmetry_equiv_pos_as_xyz
  1  'x, y, z'
loop_
 _atom_site_type_symbol
 _atom_site_label
 _atom_site_symmetry_multiplicity
 _atom_site_fract_x
 _atom_site_fract_y
 _atom_site_fract_z
 _atom_site_occupancy
  Ho  Ho0  1  0.50000000  0.59417626  0.00000000  1
  Ho  Ho1  1  0.50000000  0.40582401  0.40582350  1
  Ho  Ho2  1  0.50000000  0.00000051  0.59417650  1
  Ni  Ni3  1  0.50000000  0.99999343  0.00000000  1
  Ni  Ni4  1  0.00000000  0.33329993  0.66669237  1
  Ni  Ni5  1  0.00000000  0.66660755  0.33330763  1
  Sn  Sn6  1  -0.00000000  0.25973837  -0.00000000  1
  Sn  Sn7  1  -0.00000000  0.74026005  0.74026016  1
  Sn  Sn8  1  -0.00000000  -0.00000011  0.25973984  1
