# generated using pymatgen
data_LaAsO3
_symmetry_space_group_name_H-M   'P 1'
_cell_length_a   4.45467696
_cell_length_b   5.37801199
_cell_length_c   6.28404787
_cell_angle_alpha   90.00000000
_cell_angle_beta   105.68615541
_cell_angle_gamma   90.00000000
_symmetry_Int_Tables_number   1
_chemical_formula_structural   LaAsO3
_chemical_formula_sum   'La2 As2 O6'
_cell_volume   144.94198303
_cell_formula_units_Z   2
loop_
 _symmetry_equiv_pos_site_id
 _symmetry_equiv_pos_as_xyz
  1  'x, y, z'
loop_
 _atom_site_type_symbol
 _atom_site_label
 _atom_site_symmetry_multiplicity
 _atom_site_fract_x
 _atom_site_fract_y
 _atom_site_fract_z
 _atom_site_occupancy
  La  La0  1  0.33698048  0.25000000  0.70045877  1
  La  La1  1  0.66301952  0.75000000  0.29954123  1
  As  As2  1  0.07779038  0.25000000  0.14468939  1
  As  As3  1  0.92220962  0.75000000  0.85531061  1
  O  O4  1  0.66683948  0.25000000  0.11848105  1
  O  O5  1  0.33316052  0.75000000  0.88151895  1
  O  O6  1  0.19373977  0.49870885  0.34328305  1
  O  O7  1  0.80626023  0.99870885  0.65671695  1
  O  O8  1  0.80626023  0.50129115  0.65671695  1
  O  O9  1  0.19373977  0.00129115  0.34328305  1
