# generated using pymatgen
data_Li9Mn2Co5O16
_symmetry_space_group_name_H-M   'P 1'
_cell_length_a   4.98104476
_cell_length_b   9.81055253
_cell_length_c   5.92258819
_cell_angle_alpha   88.22582864
_cell_angle_beta   91.50361751
_cell_angle_gamma   100.87044375
_symmetry_Int_Tables_number   1
_chemical_formula_structural   Li9Mn2Co5O16
_chemical_formula_sum   'Li9 Mn2 Co5 O16'
_cell_volume   284.02704324
_cell_formula_units_Z   1
loop_
 _symmetry_equiv_pos_site_id
 _symmetry_equiv_pos_as_xyz
  1  'x, y, z'
loop_
 _atom_site_type_symbol
 _atom_site_label
 _atom_site_symmetry_multiplicity
 _atom_site_fract_x
 _atom_site_fract_y
 _atom_site_fract_z
 _atom_site_occupancy
  Li  Li0  1  0.75334936  0.24500313  0.99745670  1
  Li  Li1  1  0.75055893  0.75340924  0.25757540  1
  Li  Li2  1  0.75480801  0.24498260  0.50138688  1
  Li  Li3  1  0.24967776  0.24565120  0.25676249  1
  Li  Li4  1  0.24519199  0.75501740  0.49861312  1
  Li  Li5  1  0.24944107  0.24659076  0.74242460  1
  Li  Li6  1  0.75032224  0.75434880  0.74323751  1
  Li  Li7  1  0.24665064  0.75499687  0.00254330  1
  Li  Li8  1  -0.00000000  0.00000000  0.50000000  1
  Mn  Mn9  1  -0.00000000  0.00000000  0.00000000  1
  Mn  Mn10  1  0.50000000  0.50000000  0.00000000  1
  Co  Co11  1  0.99825608  0.49876975  0.25113187  1
  Co  Co12  1  0.00174392  0.50123025  0.74886813  1
  Co  Co13  1  0.50000000  0.50000000  0.50000000  1
  Co  Co14  1  0.50012001  -0.00036864  0.74032002  1
  Co  Co15  1  0.49987999  0.00036864  0.25967998  1
  O  O16  1  0.86554018  0.11218571  0.76513955  1
  O  O17  1  0.86396194  0.61546104  -0.00450931  1
  O  O18  1  0.86070872  0.10831325  0.22941194  1
  O  O19  1  0.36498523  0.11119696  0.01465456  1
  O  O20  1  0.36184229  0.61560350  0.27417103  1
  O  O21  1  0.39532159  0.11281036  0.51085676  1
  O  O22  1  0.85960251  0.61561901  0.49464733  1
  O  O23  1  0.36010896  0.61732876  0.76520476  1
  O  O24  1  0.63989104  0.38267124  0.23479524  1
  O  O25  1  0.60467841  0.88718964  0.48914324  1
  O  O26  1  0.63815771  0.38439650  0.72582897  1
  O  O27  1  0.14039749  0.38438099  0.50535267  1
  O  O28  1  0.13929128  0.89168675  0.77058806  1
  O  O29  1  0.13603806  0.38453896  0.00450931  1
  O  O30  1  0.63501477  0.88880304  0.98534544  1
  O  O31  1  0.13445982  0.88781429  0.23486045  1
