# generated using pymatgen
data_PrCoGe2
_symmetry_space_group_name_H-M   'P 1'
_cell_length_a   4.26764473
_cell_length_b   4.29373868
_cell_length_c   8.61395031
_cell_angle_alpha   104.43205185
_cell_angle_beta   90.00000000
_cell_angle_gamma   90.00000000
_symmetry_Int_Tables_number   1
_chemical_formula_structural   PrCoGe2
_chemical_formula_sum   'Pr2 Co2 Ge4'
_cell_volume   152.86240697
_cell_formula_units_Z   2
loop_
 _symmetry_equiv_pos_site_id
 _symmetry_equiv_pos_as_xyz
  1  'x, y, z'
loop_
 _atom_site_type_symbol
 _atom_site_label
 _atom_site_symmetry_multiplicity
 _atom_site_fract_x
 _atom_site_fract_y
 _atom_site_fract_z
 _atom_site_occupancy
  Pr  Pr0  1  0.75000000  0.10717930  0.21435860  1
  Pr  Pr1  1  0.25000000  0.89282070  0.78564140  1
  Co  Co2  1  0.75000000  0.31547408  0.63094817  1
  Co  Co3  1  0.25000000  0.68452592  0.36905183  1
  Ge  Ge4  1  0.75000000  0.45359370  0.90718740  1
  Ge  Ge5  1  0.25000000  0.54640630  0.09281260  1
  Ge  Ge6  1  0.75000000  0.74940542  0.49881084  1
  Ge  Ge7  1  0.25000000  0.25059458  0.50118916  1
