# generated using pymatgen
data_LuInPd
_symmetry_space_group_name_H-M   'P 1'
_cell_length_a   3.70311643
_cell_length_b   7.77263802
_cell_length_c   7.71621075
_cell_angle_alpha   120.24220106
_cell_angle_beta   90.00000000
_cell_angle_gamma   90.00000000
_symmetry_Int_Tables_number   1
_chemical_formula_structural   LuInPd
_chemical_formula_sum   'Lu3 In3 Pd3'
_cell_volume   191.86926419
_cell_formula_units_Z   3
loop_
 _symmetry_equiv_pos_site_id
 _symmetry_equiv_pos_as_xyz
  1  'x, y, z'
loop_
 _atom_site_type_symbol
 _atom_site_label
 _atom_site_symmetry_multiplicity
 _atom_site_fract_x
 _atom_site_fract_y
 _atom_site_fract_z
 _atom_site_occupancy
  Lu  Lu0  1  0.50000000  0.58892719  0.00000000  1
  Lu  Lu1  1  0.50000000  0.41030563  0.40990008  1
  Lu  Lu2  1  0.50000000  0.00040555  0.59009992  1
  In  In3  1  -0.00000000  0.26238330  1.00000000  1
  In  In4  1  -0.00000000  0.73765308  0.73825839  1
  In  In5  1  0.00000000  0.99939469  0.26174161  1
  Pd  Pd6  1  -0.00000000  0.33368535  0.66703280  1
  Pd  Pd7  1  -0.00000000  0.66665255  0.33296720  1
  Pd  Pd8  1  0.50000000  0.00049265  1.00000000  1
