# generated using pymatgen
data_Li9Mn2Co5O16
_symmetry_space_group_name_H-M   'P 1'
_cell_length_a   4.98061674
_cell_length_b   5.99901945
_cell_length_c   10.18003889
_cell_angle_alpha   104.57890880
_cell_angle_beta   79.58683481
_cell_angle_gamma   88.03278442
_symmetry_Int_Tables_number   1
_chemical_formula_structural   Li9Mn2Co5O16
_chemical_formula_sum   'Li9 Mn2 Co5 O16'
_cell_volume   288.50569890
_cell_formula_units_Z   1
loop_
 _symmetry_equiv_pos_site_id
 _symmetry_equiv_pos_as_xyz
  1  'x, y, z'
loop_
 _atom_site_type_symbol
 _atom_site_label
 _atom_site_symmetry_multiplicity
 _atom_site_fract_x
 _atom_site_fract_y
 _atom_site_fract_z
 _atom_site_occupancy
  Li  Li0  1  0.24855517  0.12013542  0.24605895  1
  Li  Li1  1  0.24816694  0.62553822  0.75407882  1
  Li  Li2  1  0.74757598  0.37999587  0.24701721  1
  Li  Li3  1  0.74509452  0.87669759  0.75276538  1
  Li  Li4  1  0.24744362  0.63057143  0.24852158  1
  Li  Li5  1  0.25543013  0.13235717  0.75331419  1
  Li  Li6  1  0.74887926  0.86460062  0.24633641  1
  Li  Li7  1  0.75785728  0.36910503  0.75284897  1
  Li  Li8  1  0.00169943  0.50383847  0.00097200  1
  Mn  Mn9  1  0.00012762  0.99599553  -0.00012997  1
  Mn  Mn10  1  0.49923879  0.25071453  0.50041247  1
  Co  Co11  1  0.99933719  0.50273344  0.50010755  1
  Co  Co12  1  0.50297470  0.26290537  0.00123271  1
  Co  Co13  1  0.50052146  0.74938948  0.49977291  1
  Co  Co14  1  0.00086227  0.99758953  0.49988004  1
  Co  Co15  1  0.49697219  0.74423090  0.99949824  1
  O  O16  1  0.13297001  0.82142529  0.11323144  1
  O  O17  1  0.13431521  0.30303841  0.61735059  1
  O  O18  1  0.64203241  0.08474275  0.11618017  1
  O  O19  1  0.63867635  0.57979681  0.61631429  1
  O  O20  1  0.14724383  0.27862167  0.10358299  1
  O  O21  1  0.14212965  0.79963275  0.61217328  1
  O  O22  1  0.60450408  0.56760469  0.11300965  1
  O  O23  1  0.63897395  0.06982332  0.61529950  1
  O  O24  1  0.36063047  0.42820052  0.38376243  1
  O  O25  1  0.35987601  0.92323570  0.88659633  1
  O  O26  1  0.85971806  0.69817719  0.38462871  1
  O  O27  1  0.85546278  0.17754173  0.88865929  1
  O  O28  1  0.36205473  0.92083968  0.38412534  1
  O  O29  1  0.39290467  0.41855805  0.88257490  1
  O  O30  1  0.86539842  0.19989676  0.38565992  1
  O  O31  1  0.86237282  0.72246608  0.89416369  1
