# generated using pymatgen
data_HfAsRu
_symmetry_space_group_name_H-M   'P 1'
_cell_length_a   3.92012622
_cell_length_b   6.60079614
_cell_length_c   6.60217224
_cell_angle_alpha   119.99309950
_cell_angle_beta   90.00000000
_cell_angle_gamma   90.00000000
_symmetry_Int_Tables_number   1
_chemical_formula_structural   HfAsRu
_chemical_formula_sum   'Hf3 As3 Ru3'
_cell_volume   147.95990600
_cell_formula_units_Z   3
loop_
 _symmetry_equiv_pos_site_id
 _symmetry_equiv_pos_as_xyz
  1  'x, y, z'
loop_
 _atom_site_type_symbol
 _atom_site_label
 _atom_site_symmetry_multiplicity
 _atom_site_fract_x
 _atom_site_fract_y
 _atom_site_fract_z
 _atom_site_occupancy
  Hf  Hf0  1  0.50000000  0.58232204  1.00000000  1
  Hf  Hf1  1  0.50000000  0.41774029  0.41773984  1
  Hf  Hf2  1  0.50000000  0.00000045  0.58226016  1
  As  As3  1  0.00000000  0.33332409  0.66669588  1
  As  As4  1  0.00000000  0.66662821  0.33330412  1
  As  As5  1  0.50000000  -0.00004254  0.00000000  1
  Ru  Ru6  1  -0.00000000  0.24606158  0.00000000  1
  Ru  Ru7  1  -0.00000000  0.75389239  0.75391890  1
  Ru  Ru8  1  -0.00000000  0.99997349  0.24608110  1
