# generated using pymatgen
data_ErMgAg
_symmetry_space_group_name_H-M   'P 1'
_cell_length_a   4.28289333
_cell_length_b   7.53624089
_cell_length_c   7.53788937
_cell_angle_alpha   119.99276667
_cell_angle_beta   90.00000000
_cell_angle_gamma   90.00000000
_symmetry_Int_Tables_number   1
_chemical_formula_structural   ErMgAg
_chemical_formula_sum   'Er3 Mg3 Ag3'
_cell_volume   210.71918159
_cell_formula_units_Z   3
loop_
 _symmetry_equiv_pos_site_id
 _symmetry_equiv_pos_as_xyz
  1  'x, y, z'
loop_
 _atom_site_type_symbol
 _atom_site_label
 _atom_site_symmetry_multiplicity
 _atom_site_fract_x
 _atom_site_fract_y
 _atom_site_fract_z
 _atom_site_occupancy
  Er  Er0  1  0.50000000  0.58516646  0.00000000  1
  Er  Er1  1  0.50000000  0.41448355  0.41426157  1
  Er  Er2  1  0.50000000  0.00022198  0.58573843  1
  Mg  Mg3  1  -0.00000000  0.24520678  1.00000000  1
  Mg  Mg4  1  -0.00000000  0.75491674  0.75496539  1
  Mg  Mg5  1  -0.00000000  -0.00004865  0.24503461  1
  Ag  Ag6  1  0.00000000  0.33337820  0.66679751  1
  Ag  Ag7  1  0.00000000  0.66658069  0.33320249  1
  Ag  Ag8  1  0.50000000  -0.00000576  0.00000000  1
