# generated using pymatgen
data_YGa2Pd
_symmetry_space_group_name_H-M   'P 1'
_cell_length_a   4.44310768
_cell_length_b   5.56605162
_cell_length_c   6.61929612
_cell_angle_alpha   90.00000000
_cell_angle_beta   90.00000000
_cell_angle_gamma   113.52352855
_symmetry_Int_Tables_number   1
_chemical_formula_structural   YGa2Pd
_chemical_formula_sum   'Y2 Ga4 Pd2'
_cell_volume   150.09494814
_cell_formula_units_Z   2
loop_
 _symmetry_equiv_pos_site_id
 _symmetry_equiv_pos_as_xyz
  1  'x, y, z'
loop_
 _atom_site_type_symbol
 _atom_site_label
 _atom_site_symmetry_multiplicity
 _atom_site_fract_x
 _atom_site_fract_y
 _atom_site_fract_z
 _atom_site_occupancy
  Y  Y0  1  0.41214444  0.82428888  0.25000000  1
  Y  Y1  1  0.58785556  0.17571112  0.75000000  1
  Ga  Ga2  1  0.12824950  0.25649900  0.44651794  1
  Ga  Ga3  1  0.87175050  0.74350100  0.55348206  1
  Ga  Ga4  1  0.12824950  0.25649900  0.05348206  1
  Ga  Ga5  1  0.87175050  0.74350100  0.94651794  1
  Pd  Pd6  1  0.70039069  0.40078138  0.25000000  1
  Pd  Pd7  1  0.29960931  0.59921862  0.75000000  1
