# generated using pymatgen
data_Sb2Te3
_symmetry_space_group_name_H-M   'P 1'
_cell_length_a   5.72067502
_cell_length_b   9.16281527
_cell_length_c   5.73571998
_cell_angle_alpha   76.25707094
_cell_angle_beta   90.00000000
_cell_angle_gamma   108.18993155
_symmetry_Int_Tables_number   1
_chemical_formula_structural   Sb2Te3
_chemical_formula_sum   'Sb4 Te6'
_cell_volume   276.55306234
_cell_formula_units_Z   2
loop_
 _symmetry_equiv_pos_site_id
 _symmetry_equiv_pos_as_xyz
  1  'x, y, z'
loop_
 _atom_site_type_symbol
 _atom_site_label
 _atom_site_symmetry_multiplicity
 _atom_site_fract_x
 _atom_site_fract_y
 _atom_site_fract_z
 _atom_site_occupancy
  Sb  Sb0  1  0.17754368  0.35508736  0.24130799  1
  Sb  Sb1  1  0.82245632  0.64491264  0.75869201  1
  Sb  Sb2  1  0.00950899  0.01901798  0.74648857  1
  Sb  Sb3  1  0.99049101  0.98098202  0.25351143  1
  Te  Te4  1  0.19073264  0.38146527  0.73612899  1
  Te  Te5  1  0.80926736  0.61853473  0.26387101  1
  Te  Te6  1  0.37844267  0.75688533  0.68676163  1
  Te  Te7  1  0.62155733  0.24311467  0.31323837  1
  Te  Te8  1  0.38383246  0.76766492  0.18893032  1
  Te  Te9  1  0.61616754  0.23233508  0.81106968  1
