# generated using pymatgen
data_TmSiAg
_symmetry_space_group_name_H-M   'P 1'
_cell_length_a   4.13555259
_cell_length_b   7.01053421
_cell_length_c   7.01127005
_cell_angle_alpha   119.99653195
_cell_angle_beta   90.00000000
_cell_angle_gamma   90.00000000
_symmetry_Int_Tables_number   1
_chemical_formula_structural   TmSiAg
_chemical_formula_sum   'Tm3 Si3 Ag3'
_cell_volume   176.04640598
_cell_formula_units_Z   3
loop_
 _symmetry_equiv_pos_site_id
 _symmetry_equiv_pos_as_xyz
  1  'x, y, z'
loop_
 _atom_site_type_symbol
 _atom_site_label
 _atom_site_symmetry_multiplicity
 _atom_site_fract_x
 _atom_site_fract_y
 _atom_site_fract_z
 _atom_site_occupancy
  Tm  Tm0  1  0.50000000  0.58129455  0.00000000  1
  Tm  Tm1  1  0.50000000  0.41867177  0.41867422  1
  Tm  Tm2  1  0.50000000  -0.00000244  0.58132578  1
  Si  Si3  1  -0.00000000  0.33329724  0.66664824  1
  Si  Si4  1  -0.00000000  0.66664901  0.33335176  1
  Si  Si5  1  0.50000000  0.00001509  0.00000000  1
  Ag  Ag6  1  -0.00000000  0.25176518  0.00000000  1
  Ag  Ag7  1  0.00000000  0.74821351  0.74821743  1
  Ag  Ag8  1  0.00000000  -0.00000391  0.25178257  1
