# generated using pymatgen
data_EuTiO3
_symmetry_space_group_name_H-M   'P 1'
_cell_length_a   5.57418260
_cell_length_b   5.57418260
_cell_length_c   5.57418260
_cell_angle_alpha   89.25433016
_cell_angle_beta   120.43144245
_cell_angle_gamma   120.43144245
_symmetry_Int_Tables_number   1
_chemical_formula_structural   EuTiO3
_chemical_formula_sum   'Eu2 Ti2 O6'
_cell_volume   121.65985288
_cell_formula_units_Z   2
loop_
 _symmetry_equiv_pos_site_id
 _symmetry_equiv_pos_as_xyz
  1  'x, y, z'
loop_
 _atom_site_type_symbol
 _atom_site_label
 _atom_site_symmetry_multiplicity
 _atom_site_fract_x
 _atom_site_fract_y
 _atom_site_fract_z
 _atom_site_occupancy
  Eu  Eu0  1  0.50000000  0.25000000  0.75000000  1
  Eu  Eu1  1  0.50000000  0.75000000  0.25000000  1
  Ti  Ti2  1  0.00000000  0.50000000  0.50000000  1
  Ti  Ti3  1  0.00000000  -0.00000000  -0.00000000  1
  O  O4  1  -0.00000000  0.75000000  0.75000000  1
  O  O5  1  0.00000000  0.25000000  0.25000000  1
  O  O6  1  0.07296643  0.78648321  0.28648321  1
  O  O7  1  0.92703357  0.21351679  0.71351679  1
  O  O8  1  0.50000000  0.71351679  0.78648321  1
  O  O9  1  0.50000000  0.28648321  0.21351679  1
