# generated using pymatgen
data_Ba2ZnSb2
_symmetry_space_group_name_H-M   'P 1'
_cell_length_a   7.06072998
_cell_length_b   7.27144527
_cell_length_c   8.74365165
_cell_angle_alpha   114.57051926
_cell_angle_beta   113.81365153
_cell_angle_gamma   90.00000000
_symmetry_Int_Tables_number   1
_chemical_formula_structural   Ba2ZnSb2
_chemical_formula_sum   'Ba4 Zn2 Sb4'
_cell_volume   365.82358576
_cell_formula_units_Z   2
loop_
 _symmetry_equiv_pos_site_id
 _symmetry_equiv_pos_as_xyz
  1  'x, y, z'
loop_
 _atom_site_type_symbol
 _atom_site_label
 _atom_site_symmetry_multiplicity
 _atom_site_fract_x
 _atom_site_fract_y
 _atom_site_fract_z
 _atom_site_occupancy
  Ba  Ba0  1  0.86351314  0.06732779  0.72702629  1
  Ba  Ba1  1  0.13648686  0.93267221  0.27297371  1
  Ba  Ba2  1  0.63648686  0.34030150  0.27297371  1
  Ba  Ba3  1  0.36351314  0.65969850  0.72702629  1
  Zn  Zn4  1  0.75000000  0.50000000  -0.00000000  1
  Zn  Zn5  1  0.25000000  0.50000000  -0.00000000  1
  Sb  Sb6  1  0.61067871  0.81676097  0.22135743  1
  Sb  Sb7  1  0.38932129  0.18323903  0.77864257  1
  Sb  Sb8  1  0.88932129  0.59540354  0.77864257  1
  Sb  Sb9  1  0.11067871  0.40459646  0.22135743  1
