# generated using pymatgen
data_Li9Mn2Co5O16
_symmetry_space_group_name_H-M   'P 1'
_cell_length_a   2.96069617
_cell_length_b   10.19839064
_cell_length_c   9.94505166
_cell_angle_alpha   72.99124972
_cell_angle_beta   88.68073455
_cell_angle_gamma   90.54725361
_symmetry_Int_Tables_number   1
_chemical_formula_structural   Li9Mn2Co5O16
_chemical_formula_sum   'Li9 Mn2 Co5 O16'
_cell_volume   287.03205367
_cell_formula_units_Z   1
loop_
 _symmetry_equiv_pos_site_id
 _symmetry_equiv_pos_as_xyz
  1  'x, y, z'
loop_
 _atom_site_type_symbol
 _atom_site_label
 _atom_site_symmetry_multiplicity
 _atom_site_fract_x
 _atom_site_fract_y
 _atom_site_fract_z
 _atom_site_occupancy
  Li  Li0  1  0.99629789  0.26124554  0.74767066  1
  Li  Li1  1  0.50752154  0.72836587  0.50311737  1
  Li  Li2  1  -0.00178831  0.25872121  0.24724784  1
  Li  Li3  1  0.49247846  0.27163413  0.49688263  1
  Li  Li4  1  0.00370211  0.73875446  0.25232934  1
  Li  Li5  1  0.49369813  0.26143815  0.99708160  1
  Li  Li6  1  0.50630187  0.73856185  0.00291840  1
  Li  Li7  1  0.00178831  0.74127879  0.75275216  1
  Li  Li8  1  0.00000000  0.50000000  0.50000000  1
  Mn  Mn9  1  0.00000000  -0.00000000  -0.00000000  1
  Mn  Mn10  1  0.00000000  -0.00000000  0.50000000  1
  Co  Co11  1  0.49948665  0.50275673  0.73689433  1
  Co  Co12  1  0.50051335  0.49724327  0.26310567  1
  Co  Co13  1  0.50039130  -0.00139432  0.25035298  1
  Co  Co14  1  0.00000000  0.50000000  -0.00000000  1
  Co  Co15  1  0.49960870  0.00139432  0.74964702  1
  O  O16  1  0.47680457  0.11074631  0.88015940  1
  O  O17  1  0.00059463  0.62117336  0.63011527  1
  O  O18  1  0.48353885  0.10802323  0.37973872  1
  O  O19  1  0.01235018  0.10553187  0.63748477  1
  O  O20  1  0.49693655  0.62024890  0.35917577  1
  O  O21  1  0.01269802  0.10472102  0.13884685  1
  O  O22  1  0.99387292  0.61653393  0.11623925  1
  O  O23  1  0.48980309  0.61325112  0.87322469  1
  O  O24  1  0.50306345  0.37975110  0.64082423  1
  O  O25  1  -0.01235018  0.89446813  0.36251523  1
  O  O26  1  0.51019691  0.38674888  0.12677531  1
  O  O27  1  -0.00059463  0.37882664  0.36988473  1
  O  O28  1  0.52319543  0.88925369  0.11984060  1
  O  O29  1  0.00612708  0.38346607  0.88376075  1
  O  O30  1  -0.01269802  0.89527898  0.86115315  1
  O  O31  1  0.51646115  0.89197677  0.62026128  1
