# generated using pymatgen
data_Hf6Al2Pt
_symmetry_space_group_name_H-M   'P 1'
_cell_length_a   3.33945646
_cell_length_b   7.97197136
_cell_length_c   7.96783797
_cell_angle_alpha   120.01715827
_cell_angle_beta   90.00000000
_cell_angle_gamma   90.00000000
_symmetry_Int_Tables_number   1
_chemical_formula_structural   Hf6Al2Pt
_chemical_formula_sum   'Hf6 Al2 Pt1'
_cell_volume   183.66970406
_cell_formula_units_Z   1
loop_
 _symmetry_equiv_pos_site_id
 _symmetry_equiv_pos_as_xyz
  1  'x, y, z'
loop_
 _atom_site_type_symbol
 _atom_site_label
 _atom_site_symmetry_multiplicity
 _atom_site_fract_x
 _atom_site_fract_y
 _atom_site_fract_z
 _atom_site_occupancy
  Hf  Hf0  1  0.50000000  0.26843588  0.00000000  1
  Hf  Hf1  1  0.50000000  0.73146325  0.73138360  1
  Hf  Hf2  1  0.50000000  0.00007965  0.26861640  1
  Hf  Hf3  1  0.00000000  0.60176012  0.00000000  1
  Hf  Hf4  1  0.00000000  0.39828564  0.39834264  1
  Hf  Hf5  1  0.00000000  0.99994300  0.60165736  1
  Al  Al6  1  0.50000000  0.33329021  0.66662233  1
  Al  Al7  1  0.50000000  0.66666787  0.33337767  1
  Pt  Pt8  1  -0.00000000  -0.00002561  0.00000000  1
