# generated using pymatgen
data_LuSnRh
_symmetry_space_group_name_H-M   'P 1'
_cell_length_a   3.66142059
_cell_length_b   7.62077058
_cell_length_c   7.62188407
_cell_angle_alpha   119.99517450
_cell_angle_beta   90.00000000
_cell_angle_gamma   90.00000000
_symmetry_Int_Tables_number   1
_chemical_formula_structural   LuSnRh
_chemical_formula_sum   'Lu3 Sn3 Rh3'
_cell_volume   184.18853465
_cell_formula_units_Z   3
loop_
 _symmetry_equiv_pos_site_id
 _symmetry_equiv_pos_as_xyz
  1  'x, y, z'
loop_
 _atom_site_type_symbol
 _atom_site_label
 _atom_site_symmetry_multiplicity
 _atom_site_fract_x
 _atom_site_fract_y
 _atom_site_fract_z
 _atom_site_occupancy
  Lu  Lu0  1  0.50000000  0.59823546  0.00000000  1
  Lu  Lu1  1  0.50000000  0.40182519  0.40182383  1
  Lu  Lu2  1  0.50000000  0.00000136  0.59817617  1
  Sn  Sn3  1  -0.00000000  0.26708588  1.00000000  1
  Sn  Sn4  1  -0.00000000  0.73291574  0.73286263  1
  Sn  Sn5  1  -0.00000000  0.00005311  0.26713737  1
  Rh  Rh6  1  0.00000000  0.33324347  0.66666977  1
  Rh  Rh7  1  0.00000000  0.66657370  0.33333023  1
  Rh  Rh8  1  0.50000000  -0.00003392  0.00000000  1
