# generated using pymatgen
data_Ba2ZnBi2
_symmetry_space_group_name_H-M   'P 1'
_cell_length_a   7.23383987
_cell_length_b   7.41001219
_cell_length_c   8.93813043
_cell_angle_alpha   114.48889314
_cell_angle_beta   113.86993169
_cell_angle_gamma   90.00000000
_symmetry_Int_Tables_number   1
_chemical_formula_structural   Ba2ZnBi2
_chemical_formula_sum   'Ba4 Zn2 Bi4'
_cell_volume   390.53267405
_cell_formula_units_Z   2
loop_
 _symmetry_equiv_pos_site_id
 _symmetry_equiv_pos_as_xyz
  1  'x, y, z'
loop_
 _atom_site_type_symbol
 _atom_site_label
 _atom_site_symmetry_multiplicity
 _atom_site_fract_x
 _atom_site_fract_y
 _atom_site_fract_z
 _atom_site_occupancy
  Ba  Ba0  1  0.86520501  0.07348850  0.73041002  1
  Ba  Ba1  1  0.13479499  0.92651150  0.26958998  1
  Ba  Ba2  1  0.63479499  0.34307848  0.26958998  1
  Ba  Ba3  1  0.36520501  0.65692152  0.73041002  1
  Zn  Zn4  1  0.75000000  0.50000000  -0.00000000  1
  Zn  Zn5  1  0.25000000  0.50000000  -0.00000000  1
  Bi  Bi6  1  0.61327144  0.82312735  0.22654289  1
  Bi  Bi7  1  0.38672856  0.17687265  0.77345711  1
  Bi  Bi8  1  0.88672856  0.59658446  0.77345711  1
  Bi  Bi9  1  0.11327144  0.40341554  0.22654289  1
