# generated using pymatgen
data_SmCoC2
_symmetry_space_group_name_H-M   'P 1'
_cell_length_a   3.74510457
_cell_length_b   3.74510457
_cell_length_c   7.35585095
_cell_angle_alpha   98.02743748
_cell_angle_beta   98.02743748
_cell_angle_gamma   90.03917189
_symmetry_Int_Tables_number   1
_chemical_formula_structural   SmCoC2
_chemical_formula_sum   'Sm2 Co2 C4'
_cell_volume   101.13832646
_cell_formula_units_Z   2
loop_
 _symmetry_equiv_pos_site_id
 _symmetry_equiv_pos_as_xyz
  1  'x, y, z'
loop_
 _atom_site_type_symbol
 _atom_site_label
 _atom_site_symmetry_multiplicity
 _atom_site_fract_x
 _atom_site_fract_y
 _atom_site_fract_z
 _atom_site_occupancy
  Sm  Sm0  1  0.51333668  0.37109182  0.30659779  1
  Sm  Sm1  1  0.37109182  0.51333668  0.80659779  1
  Co  Co2  1  0.06896994  0.93001898  0.50044912  1
  Co  Co3  1  0.93001898  0.06896994  0.00044912  1
  C  C4  1  0.95229142  0.58799392  0.08003737  1
  C  C5  1  0.58799392  0.95229142  0.58003737  1
  C  C6  1  0.99938211  0.84891512  0.23391573  1
  C  C7  1  0.84891512  0.99938211  0.73391573  1
