# generated using pymatgen
data_NdGe2Pd
_symmetry_space_group_name_H-M   'P 1'
_cell_length_a   4.42003592
_cell_length_b   4.34935686
_cell_length_c   8.96524136
_cell_angle_alpha   104.03814078
_cell_angle_beta   90.00000000
_cell_angle_gamma   90.00000000
_symmetry_Int_Tables_number   1
_chemical_formula_structural   NdGe2Pd
_chemical_formula_sum   'Nd2 Ge4 Pd2'
_cell_volume   167.20326832
_cell_formula_units_Z   2
loop_
 _symmetry_equiv_pos_site_id
 _symmetry_equiv_pos_as_xyz
  1  'x, y, z'
loop_
 _atom_site_type_symbol
 _atom_site_label
 _atom_site_symmetry_multiplicity
 _atom_site_fract_x
 _atom_site_fract_y
 _atom_site_fract_z
 _atom_site_occupancy
  Nd  Nd0  1  0.75000000  0.10749270  0.21498540  1
  Nd  Nd1  1  0.25000000  0.89250730  0.78501460  1
  Ge  Ge2  1  0.75000000  0.46372623  0.92745245  1
  Ge  Ge3  1  0.25000000  0.53627377  0.07254755  1
  Ge  Ge4  1  0.75000000  0.74772949  0.49545897  1
  Ge  Ge5  1  0.25000000  0.25227051  0.50454103  1
  Pd  Pd6  1  0.75000000  0.32280025  0.64560049  1
  Pd  Pd7  1  0.25000000  0.67719975  0.35439951  1
