# generated using pymatgen
data_PrInPd
_symmetry_space_group_name_H-M   'P 1'
_cell_length_a   4.09657835
_cell_length_b   7.81183906
_cell_length_c   7.81254625
_cell_angle_alpha   119.99700221
_cell_angle_beta   90.00000000
_cell_angle_gamma   90.00000000
_symmetry_Int_Tables_number   1
_chemical_formula_structural   PrInPd
_chemical_formula_sum   'Pr3 In3 Pd3'
_cell_volume   216.52642444
_cell_formula_units_Z   3
loop_
 _symmetry_equiv_pos_site_id
 _symmetry_equiv_pos_as_xyz
  1  'x, y, z'
loop_
 _atom_site_type_symbol
 _atom_site_label
 _atom_site_symmetry_multiplicity
 _atom_site_fract_x
 _atom_site_fract_y
 _atom_site_fract_z
 _atom_site_occupancy
  Pr  Pr0  1  0.50000000  0.58936292  1.00000000  1
  Pr  Pr1  1  0.50000000  0.41047794  0.41049191  1
  Pr  Pr2  1  0.50000000  -0.00001397  0.58950809  1
  In  In3  1  0.00000000  0.25053937  0.00000000  1
  In  In4  1  0.00000000  0.74940390  0.74924788  1
  In  In5  1  0.00000000  0.00015602  0.25075212  1
  Pd  Pd6  1  -0.00000000  0.33333254  0.66663393  1
  Pd  Pd7  1  -0.00000000  0.66669861  0.33336607  1
  Pd  Pd8  1  0.50000000  0.99994268  1.00000000  1
