# generated using pymatgen
data_Sm2Fe2Se2O3
_symmetry_space_group_name_H-M   'P 1'
_cell_length_a   4.05478300
_cell_length_b   4.05478300
_cell_length_c   9.82206796
_cell_angle_alpha   101.91216412
_cell_angle_beta   101.91216412
_cell_angle_gamma   90.00000000
_symmetry_Int_Tables_number   1
_chemical_formula_structural   Sm2Fe2Se2O3
_chemical_formula_sum   'Sm2 Fe2 Se2 O3'
_cell_volume   154.45374916
_cell_formula_units_Z   1
loop_
 _symmetry_equiv_pos_site_id
 _symmetry_equiv_pos_as_xyz
  1  'x, y, z'
loop_
 _atom_site_type_symbol
 _atom_site_label
 _atom_site_symmetry_multiplicity
 _atom_site_fract_x
 _atom_site_fract_y
 _atom_site_fract_z
 _atom_site_occupancy
  Sm  Sm0  1  0.31031198  0.31031198  0.62062396  1
  Sm  Sm1  1  0.68968802  0.68968802  0.37937604  1
  Fe  Fe2  1  0.00000000  0.50000000  -0.00000000  1
  Fe  Fe3  1  0.50000000  0.00000000  -0.00000000  1
  Se  Se4  1  0.89941892  0.89941892  0.79883784  1
  Se  Se5  1  0.10058108  0.10058108  0.20116216  1
  O  O6  1  0.75000000  0.25000000  0.50000000  1
  O  O7  1  0.25000000  0.75000000  0.50000000  1
  O  O8  1  0.50000000  0.50000000  -0.00000000  1
