# generated using pymatgen
data_CeCoGe2
_symmetry_space_group_name_H-M   'P 1'
_cell_length_a   4.20814106
_cell_length_b   4.19237964
_cell_length_c   8.55246015
_cell_angle_alpha   104.18762068
_cell_angle_beta   90.00000000
_cell_angle_gamma   90.00000000
_symmetry_Int_Tables_number   1
_chemical_formula_structural   CeCoGe2
_chemical_formula_sum   'Ce2 Co2 Ge4'
_cell_volume   146.28136909
_cell_formula_units_Z   2
loop_
 _symmetry_equiv_pos_site_id
 _symmetry_equiv_pos_as_xyz
  1  'x, y, z'
loop_
 _atom_site_type_symbol
 _atom_site_label
 _atom_site_symmetry_multiplicity
 _atom_site_fract_x
 _atom_site_fract_y
 _atom_site_fract_z
 _atom_site_occupancy
  Ce  Ce0  1  0.75000000  0.11080980  0.22161960  1
  Ce  Ce1  1  0.25000000  0.88919020  0.77838040  1
  Co  Co2  1  0.75000000  0.31893261  0.63786522  1
  Co  Co3  1  0.25000000  0.68106739  0.36213478  1
  Ge  Ge4  1  0.75000000  0.45642833  0.91285665  1
  Ge  Ge5  1  0.25000000  0.54357167  0.08714335  1
  Ge  Ge6  1  0.75000000  0.75024472  0.50048943  1
  Ge  Ge7  1  0.25000000  0.24975528  0.49951057  1
