# generated using pymatgen
data_LiOsF6
_symmetry_space_group_name_H-M   'P 1'
_cell_length_a   5.15165701
_cell_length_b   5.15165701
_cell_length_c   5.51106756
_cell_angle_alpha   62.13485881
_cell_angle_beta   62.13485881
_cell_angle_gamma   59.99999135
_symmetry_Int_Tables_number   1
_chemical_formula_structural   LiOsF6
_chemical_formula_sum   'Li1 Os1 F6'
_cell_volume   106.63492634
_cell_formula_units_Z   1
loop_
 _symmetry_equiv_pos_site_id
 _symmetry_equiv_pos_as_xyz
  1  'x, y, z'
loop_
 _atom_site_type_symbol
 _atom_site_label
 _atom_site_symmetry_multiplicity
 _atom_site_fract_x
 _atom_site_fract_y
 _atom_site_fract_z
 _atom_site_occupancy
  Li  Li0  1  0.50000000  0.50000000  0.50000000  1
  Os  Os1  1  -0.00000000  -0.00000000  0.00000000  1
  F  F2  1  0.88708487  0.63516586  0.23892911  1
  F  F3  1  0.63516586  0.23882016  0.23892911  1
  F  F4  1  0.23882016  0.88708487  0.23892911  1
  F  F5  1  0.11291513  0.36483414  0.76107089  1
  F  F6  1  0.36483414  0.76117984  0.76107089  1
  F  F7  1  0.76117984  0.11291513  0.76107089  1
