# generated using pymatgen
data_GdSnPt2
_symmetry_space_group_name_H-M   'P 1'
_cell_length_a   4.57746559
_cell_length_b   4.57746559
_cell_length_c   9.23264729
_cell_angle_alpha   90.00000000
_cell_angle_beta   90.00000000
_cell_angle_gamma   120.00199754
_symmetry_Int_Tables_number   1
_chemical_formula_structural   GdSnPt2
_chemical_formula_sum   'Gd2 Sn2 Pt4'
_cell_volume   167.53220727
_cell_formula_units_Z   2
loop_
 _symmetry_equiv_pos_site_id
 _symmetry_equiv_pos_as_xyz
  1  'x, y, z'
loop_
 _atom_site_type_symbol
 _atom_site_label
 _atom_site_symmetry_multiplicity
 _atom_site_fract_x
 _atom_site_fract_y
 _atom_site_fract_z
 _atom_site_occupancy
  Gd  Gd0  1  0.66656136  0.33343864  0.75000000  1
  Gd  Gd1  1  0.33343864  0.66656136  0.25000000  1
  Sn  Sn2  1  -0.00000000  0.00000000  0.50000000  1
  Sn  Sn3  1  -0.00000000  0.00000000  0.00000000  1
  Pt  Pt4  1  0.66670522  0.33329478  0.08991429  1
  Pt  Pt5  1  0.33329478  0.66670522  0.91008571  1
  Pt  Pt6  1  0.33329478  0.66670522  0.58991429  1
  Pt  Pt7  1  0.66670522  0.33329478  0.41008571  1
