# generated using pymatgen
data_HoPt
_symmetry_space_group_name_H-M   'P 1'
_cell_length_a   4.52702286
_cell_length_b   5.56546319
_cell_length_c   6.98730472
_cell_angle_alpha   90.00000000
_cell_angle_beta   90.00000000
_cell_angle_gamma   90.00000000
_symmetry_Int_Tables_number   1
_chemical_formula_structural   HoPt
_chemical_formula_sum   'Ho4 Pt4'
_cell_volume   176.04499630
_cell_formula_units_Z   4
loop_
 _symmetry_equiv_pos_site_id
 _symmetry_equiv_pos_as_xyz
  1  'x, y, z'
loop_
 _atom_site_type_symbol
 _atom_site_label
 _atom_site_symmetry_multiplicity
 _atom_site_fract_x
 _atom_site_fract_y
 _atom_site_fract_z
 _atom_site_occupancy
  Ho  Ho0  1  0.25000000  0.36314712  0.68087039  1
  Ho  Ho1  1  0.25000000  0.13685288  0.18087039  1
  Ho  Ho2  1  0.75000000  0.63685288  0.31912961  1
  Ho  Ho3  1  0.75000000  0.86314712  0.81912961  1
  Pt  Pt4  1  0.25000000  0.84785663  0.54378690  1
  Pt  Pt5  1  0.25000000  0.65214337  0.04378690  1
  Pt  Pt6  1  0.75000000  0.15214337  0.45621310  1
  Pt  Pt7  1  0.75000000  0.34785663  0.95621310  1
