# generated using pymatgen
data_Li9Mn2Co5O16
_symmetry_space_group_name_H-M   'P 1'
_cell_length_a   2.97496176
_cell_length_b   8.08552823
_cell_length_c   12.08036129
_cell_angle_alpha   90.88873800
_cell_angle_beta   99.95876503
_cell_angle_gamma   89.00328233
_symmetry_Int_Tables_number   1
_chemical_formula_structural   Li9Mn2Co5O16
_chemical_formula_sum   'Li9 Mn2 Co5 O16'
_cell_volume   286.13793844
_cell_formula_units_Z   1
loop_
 _symmetry_equiv_pos_site_id
 _symmetry_equiv_pos_as_xyz
  1  'x, y, z'
loop_
 _atom_site_type_symbol
 _atom_site_label
 _atom_site_symmetry_multiplicity
 _atom_site_fract_x
 _atom_site_fract_y
 _atom_site_fract_z
 _atom_site_occupancy
  Li  Li0  1  0.75752154  0.00630827  0.75031409  1
  Li  Li1  1  0.88856487  0.25444048  0.38122768  1
  Li  Li2  1  0.99835746  0.49950181  0.99968650  1
  Li  Li3  1  0.12093848  0.74600285  0.62421301  1
  Li  Li4  1  0.24299991  0.00108870  0.24691359  1
  Li  Li5  1  0.36792161  0.25517065  0.87391737  1
  Li  Li6  1  0.50399419  0.48984164  0.50331602  1
  Li  Li7  1  0.62616892  0.74658617  0.12614287  1
  Li  Li8  1  0.11017290  0.25503019  0.61918621  1
  Mn  Mn9  1  0.99999203  0.99997048  0.99931850  1
  Mn  Mn10  1  0.50536175  0.00685791  0.50282572  1
  Co  Co11  1  0.25227415  0.50018835  0.25063574  1
  Co  Co12  1  0.36978340  0.74755170  0.87319476  1
  Co  Co13  1  0.62979340  0.25177151  0.12650007  1
  Co  Co14  1  0.74053649  0.48967127  0.74528119  1
  Co  Co15  1  0.88805447  0.74750163  0.37679808  1
  O  O16  1  0.34561782  0.98765977  0.87448007  1
  O  O17  1  0.48992405  0.23285425  0.49719791  1
  O  O18  1  0.60468216  0.48906522  0.13174296  1
  O  O19  1  0.72888758  0.73071963  0.75670929  1
  O  O20  1  0.91667254  0.98905388  0.38956520  1
  O  O21  1  0.97937763  0.24158262  0.00649783  1
  O  O22  1  0.10808507  0.50146900  0.63568414  1
  O  O23  1  0.23193119  0.73945517  0.25677624  1
  O  O24  1  0.08438408  0.99920288  0.60941646  1
  O  O25  1  0.27062317  0.26250496  0.24295637  1
  O  O26  1  0.39218044  0.51311308  0.86826286  1
  O  O27  1  0.52261251  0.75980291  0.49164961  1
  O  O28  1  0.65159569  0.01110299  0.12386662  1
  O  O29  1  0.75864388  0.27537949  0.75383068  1
  O  O30  1  0.89183287  0.51154232  0.36772433  1
  O  O31  1  0.02052075  0.75800822  0.99417203  1
