# generated using pymatgen
data_ZrGaCo
_symmetry_space_group_name_H-M   'P 1'
_cell_length_a   3.32356468
_cell_length_b   6.97765554
_cell_length_c   6.97781236
_cell_angle_alpha   119.99925828
_cell_angle_beta   90.00000000
_cell_angle_gamma   90.00000000
_symmetry_Int_Tables_number   1
_chemical_formula_structural   ZrGaCo
_chemical_formula_sum   'Zr3 Ga3 Co3'
_cell_volume   140.14152066
_cell_formula_units_Z   3
loop_
 _symmetry_equiv_pos_site_id
 _symmetry_equiv_pos_as_xyz
  1  'x, y, z'
loop_
 _atom_site_type_symbol
 _atom_site_label
 _atom_site_symmetry_multiplicity
 _atom_site_fract_x
 _atom_site_fract_y
 _atom_site_fract_z
 _atom_site_occupancy
  Zr  Zr0  1  0.50000000  0.59824439  1.00000000  1
  Zr  Zr1  1  0.50000000  0.40178847  0.40173961  1
  Zr  Zr2  1  0.50000000  0.00004886  0.59826039  1
  Ga  Ga3  1  -0.00000000  0.26283357  0.00000000  1
  Ga  Ga4  1  0.00000000  0.73709356  0.73707351  1
  Ga  Ga5  1  0.00000000  0.00002005  0.26292649  1
  Co  Co6  1  -0.00000000  0.33331821  0.66668768  1
  Co  Co7  1  -0.00000000  0.66663053  0.33331232  1
  Co  Co8  1  0.50000000  0.99992237  1.00000000  1
