# generated using pymatgen
data_Ho3Sn7
_symmetry_space_group_name_H-M   'P 1'
_cell_length_a   4.40475512
_cell_length_b   4.46682637
_cell_length_c   13.49595029
_cell_angle_alpha   90.00000000
_cell_angle_beta   99.39198967
_cell_angle_gamma   90.00000000
_symmetry_Int_Tables_number   1
_chemical_formula_structural   Ho3Sn7
_chemical_formula_sum   'Ho3 Sn7'
_cell_volume   261.97703007
_cell_formula_units_Z   1
loop_
 _symmetry_equiv_pos_site_id
 _symmetry_equiv_pos_as_xyz
  1  'x, y, z'
loop_
 _atom_site_type_symbol
 _atom_site_label
 _atom_site_symmetry_multiplicity
 _atom_site_fract_x
 _atom_site_fract_y
 _atom_site_fract_z
 _atom_site_occupancy
  Ho  Ho0  1  -0.00000000  0.50000000  -0.00000000  1
  Ho  Ho1  1  0.31051266  -0.00000000  0.62102531  1
  Ho  Ho2  1  0.68948734  0.00000000  0.37897469  1
  Sn  Sn3  1  0.50000000  0.00000000  -0.00000000  1
  Sn  Sn4  1  0.40289806  0.50000000  0.80579612  1
  Sn  Sn5  1  0.59710194  0.50000000  0.19420388  1
  Sn  Sn6  1  0.09640782  0.00000000  0.19281564  1
  Sn  Sn7  1  0.90359218  -0.00000000  0.80718436  1
  Sn  Sn8  1  0.21089573  0.50000000  0.42179145  1
  Sn  Sn9  1  0.78910427  0.50000000  0.57820855  1
