# generated using pymatgen
data_LaGa2Ni
_symmetry_space_group_name_H-M   'P 1'
_cell_length_a   4.22499061
_cell_length_b   4.29462534
_cell_length_c   9.05551174
_cell_angle_alpha   103.71707881
_cell_angle_beta   90.00000000
_cell_angle_gamma   90.00000000
_symmetry_Int_Tables_number   1
_chemical_formula_structural   LaGa2Ni
_chemical_formula_sum   'La2 Ga4 Ni2'
_cell_volume   159.62364095
_cell_formula_units_Z   2
loop_
 _symmetry_equiv_pos_site_id
 _symmetry_equiv_pos_as_xyz
  1  'x, y, z'
loop_
 _atom_site_type_symbol
 _atom_site_label
 _atom_site_symmetry_multiplicity
 _atom_site_fract_x
 _atom_site_fract_y
 _atom_site_fract_z
 _atom_site_occupancy
  La  La0  1  -0.00000000  0.85905475  0.71810950  1
  La  La1  1  -0.00000000  0.14094525  0.28189050  1
  Ga  Ga2  1  -0.00000000  0.50000000  0.00000000  1
  Ga  Ga3  1  0.50000000  -0.00000000  0.00000000  1
  Ga  Ga4  1  0.50000000  0.70880054  0.41760109  1
  Ga  Ga5  1  0.50000000  0.29119946  0.58239891  1
  Ni  Ni6  1  0.50000000  0.57078605  0.14157210  1
  Ni  Ni7  1  0.50000000  0.42921395  0.85842790  1
