# generated using pymatgen
data_Tb6CoTe2
_symmetry_space_group_name_H-M   'P 1'
_cell_length_a   3.93670963
_cell_length_b   8.44866060
_cell_length_c   8.44598289
_cell_angle_alpha   120.01048248
_cell_angle_beta   90.00000000
_cell_angle_gamma   90.00000000
_symmetry_Int_Tables_number   1
_chemical_formula_structural   Tb6CoTe2
_chemical_formula_sum   'Tb6 Co1 Te2'
_cell_volume   243.25187246
_cell_formula_units_Z   1
loop_
 _symmetry_equiv_pos_site_id
 _symmetry_equiv_pos_as_xyz
  1  'x, y, z'
loop_
 _atom_site_type_symbol
 _atom_site_label
 _atom_site_symmetry_multiplicity
 _atom_site_fract_x
 _atom_site_fract_y
 _atom_site_fract_z
 _atom_site_occupancy
  Tb  Tb0  1  0.50000000  0.59569814  1.00000000  1
  Tb  Tb1  1  0.50000000  0.40429159  0.40427226  1
  Tb  Tb2  1  0.50000000  0.00001933  0.59572774  1
  Tb  Tb3  1  0.00000000  0.23606708  0.00000000  1
  Tb  Tb4  1  0.00000000  0.76377298  0.76387597  1
  Tb  Tb5  1  0.00000000  0.99989701  0.23612403  1
  Co  Co6  1  0.50000000  0.00023987  1.00000000  1
  Te  Te7  1  0.00000000  0.33336234  0.66681070  1
  Te  Te8  1  0.00000000  0.66655165  0.33318930  1
