# generated using pymatgen
data_DyCdGa
_symmetry_space_group_name_H-M   'P 1'
_cell_length_a   4.39799226
_cell_length_b   7.26457096
_cell_length_c   7.26485086
_cell_angle_alpha   119.99871915
_cell_angle_beta   90.00000000
_cell_angle_gamma   90.00000000
_symmetry_Int_Tables_number   1
_chemical_formula_structural   DyCdGa
_chemical_formula_sum   'Dy3 Cd3 Ga3'
_cell_volume   201.01449323
_cell_formula_units_Z   3
loop_
 _symmetry_equiv_pos_site_id
 _symmetry_equiv_pos_as_xyz
  1  'x, y, z'
loop_
 _atom_site_type_symbol
 _atom_site_label
 _atom_site_symmetry_multiplicity
 _atom_site_fract_x
 _atom_site_fract_y
 _atom_site_fract_z
 _atom_site_occupancy
  Dy  Dy0  1  0.50000000  0.57733713  1.00000000  1
  Dy  Dy1  1  0.50000000  0.42265460  0.42267481  1
  Dy  Dy2  1  0.50000000  0.99997979  0.57732519  1
  Cd  Cd3  1  -0.00000000  0.24749027  0.00000000  1
  Cd  Cd4  1  0.00000000  0.75248253  0.75246910  1
  Cd  Cd5  1  0.00000000  0.00001343  0.24753090  1
  Ga  Ga6  1  -0.00000000  0.33332171  0.66669000  1
  Ga  Ga7  1  -0.00000000  0.66663171  0.33331000  1
  Ga  Ga8  1  0.50000000  -0.00001117  1.00000000  1
