# generated using pymatgen
data_Li9Mn2Co5O16
_symmetry_space_group_name_H-M   'P 1'
_cell_length_a   2.93165522
_cell_length_b   10.46043023
_cell_length_c   9.84158698
_cell_angle_alpha   107.18976130
_cell_angle_beta   91.72352538
_cell_angle_gamma   82.44322838
_symmetry_Int_Tables_number   1
_chemical_formula_structural   Li9Mn2Co5O16
_chemical_formula_sum   'Li9 Mn2 Co5 O16'
_cell_volume   285.80809518
_cell_formula_units_Z   1
loop_
 _symmetry_equiv_pos_site_id
 _symmetry_equiv_pos_as_xyz
  1  'x, y, z'
loop_
 _atom_site_type_symbol
 _atom_site_label
 _atom_site_symmetry_multiplicity
 _atom_site_fract_x
 _atom_site_fract_y
 _atom_site_fract_z
 _atom_site_occupancy
  Li  Li0  1  0.92860113  0.13006408  0.31151006  1
  Li  Li1  1  0.42769641  0.13121110  0.82010435  1
  Li  Li2  1  0.31524270  0.37818709  0.43579795  1
  Li  Li3  1  0.81488223  0.36625973  0.94521398  1
  Li  Li4  1  0.69240713  0.62452957  0.55958698  1
  Li  Li5  1  0.18947272  0.62364018  0.06380414  1
  Li  Li6  1  0.06728148  0.87235955  0.68329333  1
  Li  Li7  1  0.56486790  0.87297440  0.18708230  1
  Li  Li8  1  0.38401253  0.25039086  0.11717389  1
  Mn  Mn9  1  -0.00045903  0.00589519  0.00127304  1
  Mn  Mn10  1  0.24902361  0.50420138  0.75337127  1
  Co  Co11  1  0.50068792  0.99786487  0.49795891  1
  Co  Co12  1  0.87649811  0.24945168  0.62201662  1
  Co  Co13  1  0.75521369  0.48933601  0.24543525  1
  Co  Co14  1  0.12787157  0.74580687  0.37662124  1
  Co  Co15  1  0.61292186  0.75246350  0.87811920  1
  O  O16  1  0.48544988  0.05352515  0.13844270  1
  O  O17  1  0.95368146  0.06315250  0.64371007  1
  O  O18  1  0.83289920  0.33363632  0.28091186  1
  O  O19  1  0.33869909  0.31621660  0.77200306  1
  O  O20  1  0.18443177  0.56501181  0.39678947  1
  O  O21  1  0.67785395  0.57286437  0.90078744  1
  O  O22  1  0.59235864  0.81063791  0.52426450  1
  O  O23  1  0.09647127  0.81401124  0.01405349  1
  O  O24  1  0.41377880  0.18816801  0.47474132  1
  O  O25  1  0.91859238  0.17059423  0.96798588  1
  O  O26  1  0.82028887  0.43913298  0.60295034  1
  O  O27  1  0.31128449  0.44344558  0.10503798  1
  O  O28  1  0.12906468  0.69354156  0.74020318  1
  O  O29  1  0.66369951  0.67602026  0.22893089  1
  O  O30  1  0.52471775  0.93445535  0.86131904  1
  O  O31  1  0.05050630  0.93095007  0.34950627  1
