# generated using pymatgen
data_SmPdPb
_symmetry_space_group_name_H-M   'P 1'
_cell_length_a   3.97984746
_cell_length_b   7.91381646
_cell_length_c   7.92556173
_cell_angle_alpha   119.95099049
_cell_angle_beta   90.00000000
_cell_angle_gamma   90.00000000
_symmetry_Int_Tables_number   1
_chemical_formula_structural   SmPdPb
_chemical_formula_sum   'Sm3 Pd3 Pb3'
_cell_volume   216.28547299
_cell_formula_units_Z   3
loop_
 _symmetry_equiv_pos_site_id
 _symmetry_equiv_pos_as_xyz
  1  'x, y, z'
loop_
 _atom_site_type_symbol
 _atom_site_label
 _atom_site_symmetry_multiplicity
 _atom_site_fract_x
 _atom_site_fract_y
 _atom_site_fract_z
 _atom_site_occupancy
  Sm  Sm0  1  0.50000000  0.59678910  0.00000000  1
  Sm  Sm1  1  0.50000000  0.40305671  0.40280629  1
  Sm  Sm2  1  0.50000000  0.00025042  0.59719371  1
  Pd  Pd3  1  -0.00000000  0.33327109  0.66695278  1
  Pd  Pd4  1  -0.00000000  0.66631831  0.33304722  1
  Pd  Pd5  1  0.50000000  0.99968107  1.00000000  1
  Pb  Pb6  1  0.00000000  0.26249527  0.00000000  1
  Pb  Pb7  1  0.00000000  0.73746729  0.73689655  1
  Pb  Pb8  1  -0.00000000  0.00057074  0.26310345  1
