# generated using pymatgen
data_Tm2NiSn6
_symmetry_space_group_name_H-M   'P 1'
_cell_length_a   4.37571800
_cell_length_b   4.42008916
_cell_length_c   11.37328203
_cell_angle_alpha   90.00000000
_cell_angle_beta   101.09102821
_cell_angle_gamma   90.00000000
_symmetry_Int_Tables_number   1
_chemical_formula_structural   Tm2NiSn6
_chemical_formula_sum   'Tm2 Ni1 Sn6'
_cell_volume   215.86292257
_cell_formula_units_Z   1
loop_
 _symmetry_equiv_pos_site_id
 _symmetry_equiv_pos_as_xyz
  1  'x, y, z'
loop_
 _atom_site_type_symbol
 _atom_site_label
 _atom_site_symmetry_multiplicity
 _atom_site_fract_x
 _atom_site_fract_y
 _atom_site_fract_z
 _atom_site_occupancy
  Tm  Tm0  1  0.17868848  0.00000000  0.35737696  1
  Tm  Tm1  1  0.82131152  0.00000000  0.64262304  1
  Ni  Ni2  1  0.50000000  0.50000000  -0.00000000  1
  Sn  Sn3  1  0.42957883  0.00000000  0.85915766  1
  Sn  Sn4  1  0.57042117  0.00000000  0.14084234  1
  Sn  Sn5  1  0.07136329  0.50000000  0.14272658  1
  Sn  Sn6  1  0.92863671  0.50000000  0.85727342  1
  Sn  Sn7  1  0.70347854  0.50000000  0.40695708  1
  Sn  Sn8  1  0.29652146  0.50000000  0.59304292  1
