# generated using pymatgen
data_GdNiGe3
_symmetry_space_group_name_H-M   'P 1'
_cell_length_a   4.12776478
_cell_length_b   4.14039748
_cell_length_c   11.01922674
_cell_angle_alpha   100.82859380
_cell_angle_beta   90.00000000
_cell_angle_gamma   90.00000000
_symmetry_Int_Tables_number   1
_chemical_formula_structural   GdNiGe3
_chemical_formula_sum   'Gd2 Ni2 Ge6'
_cell_volume   184.97166361
_cell_formula_units_Z   2
loop_
 _symmetry_equiv_pos_site_id
 _symmetry_equiv_pos_as_xyz
  1  'x, y, z'
loop_
 _atom_site_type_symbol
 _atom_site_label
 _atom_site_symmetry_multiplicity
 _atom_site_fract_x
 _atom_site_fract_y
 _atom_site_fract_z
 _atom_site_occupancy
  Gd  Gd0  1  0.50000000  0.83156448  0.66312896  1
  Gd  Gd1  1  0.50000000  0.16843552  0.33687104  1
  Ni  Ni2  1  -0.00000000  0.61017023  0.22034046  1
  Ni  Ni3  1  -0.00000000  0.38982977  0.77965954  1
  Ge  Ge4  1  0.00000000  0.71654763  0.43309526  1
  Ge  Ge5  1  -0.00000000  0.28345237  0.56690474  1
  Ge  Ge6  1  0.50000000  0.55717357  0.11434715  1
  Ge  Ge7  1  0.50000000  0.44282643  0.88565285  1
  Ge  Ge8  1  0.00000000  0.94273936  0.88547872  1
  Ge  Ge9  1  -0.00000000  0.05726064  0.11452128  1
