# generated using pymatgen
data_Li9Mn2Co5O16
_symmetry_space_group_name_H-M   'P 1'
_cell_length_a   4.97913377
_cell_length_b   10.22226447
_cell_length_c   5.93069003
_cell_angle_alpha   91.91963264
_cell_angle_beta   76.32410052
_cell_angle_gamma   80.11832957
_symmetry_Int_Tables_number   1
_chemical_formula_structural   Li9Mn2Co5O16
_chemical_formula_sum   'Li9 Mn2 Co5 O16'
_cell_volume   288.08448987
_cell_formula_units_Z   1
loop_
 _symmetry_equiv_pos_site_id
 _symmetry_equiv_pos_as_xyz
  1  'x, y, z'
loop_
 _atom_site_type_symbol
 _atom_site_label
 _atom_site_symmetry_multiplicity
 _atom_site_fract_x
 _atom_site_fract_y
 _atom_site_fract_z
 _atom_site_occupancy
  Li  Li0  1  0.49276212  0.13412967  0.38099155  1
  Li  Li1  1  0.99939019  0.25862894  0.24282484  1
  Li  Li2  1  0.99583962  0.99861577  0.50635531  1
  Li  Li3  1  0.49820593  0.37544772  0.12502770  1
  Li  Li4  1  0.00551471  0.49786464  0.99868609  1
  Li  Li5  1  0.50365730  0.61730189  0.87117228  1
  Li  Li6  1  0.99757375  0.74650974  0.74877436  1
  Li  Li7  1  0.50388817  0.87271495  0.62259887  1
  Li  Li8  1  0.49761802  0.37552194  0.62736326  1
  Mn  Mn9  1  0.00132139  0.00231904  -0.00132212  1
  Mn  Mn10  1  0.49912066  0.13061237  0.87073015  1
  Co  Co11  1  0.00586472  0.25524801  0.74078707  1
  Co  Co12  1  -0.00479209  0.49341751  0.51241583  1
  Co  Co13  1  0.49783309  0.62200903  0.37514210  1
  Co  Co14  1  -0.00030324  0.74796001  0.25135476  1
  Co  Co15  1  0.50206525  0.87178292  0.12658516  1
  O  O16  1  0.74094830  0.17590269  0.06210596  1
  O  O17  1  0.25057096  0.29751284  0.92843134  1
  O  O18  1  0.26262723  0.06452481  0.15281547  1
  O  O19  1  0.77429117  0.42582944  0.80572161  1
  O  O20  1  0.23203849  0.56042782  0.66091787  1
  O  O21  1  0.74507932  0.67359025  0.55715812  1
  O  O22  1  0.24752993  0.81039537  0.41530156  1
  O  O23  1  0.75059975  0.92101886  0.30691788  1
  O  O24  1  0.25794828  0.07824335  0.68759934  1
  O  O25  1  0.74261229  0.18256916  0.60377103  1
  O  O26  1  0.74172191  0.94723626  0.82920923  1
  O  O27  1  0.22472084  0.32413153  0.44597051  1
  O  O28  1  0.77219942  0.44638379  0.32838840  1
  O  O29  1  0.25404997  0.57647782  0.19064239  1
  O  O30  1  0.75380201  0.69046752  0.08354224  1
  O  O31  1  0.25370055  0.82520333  0.94201784  1
