# generated using pymatgen
data_La3Sn7
_symmetry_space_group_name_H-M   'P 1'
_cell_length_a   4.63161775
_cell_length_b   4.73260599
_cell_length_c   13.29850247
_cell_angle_alpha   90.00000000
_cell_angle_beta   100.02864879
_cell_angle_gamma   90.00000000
_symmetry_Int_Tables_number   1
_chemical_formula_structural   La3Sn7
_chemical_formula_sum   'La3 Sn7'
_cell_volume   287.04428845
_cell_formula_units_Z   1
loop_
 _symmetry_equiv_pos_site_id
 _symmetry_equiv_pos_as_xyz
  1  'x, y, z'
loop_
 _atom_site_type_symbol
 _atom_site_label
 _atom_site_symmetry_multiplicity
 _atom_site_fract_x
 _atom_site_fract_y
 _atom_site_fract_z
 _atom_site_occupancy
  La  La0  1  0.18492088  0.00000000  0.36984175  1
  La  La1  1  0.81507912  0.00000000  0.63015825  1
  La  La2  1  0.00000000  0.00000000  0.00000000  1
  Sn  Sn3  1  0.28823625  0.50000000  0.57647250  1
  Sn  Sn4  1  0.71176375  0.50000000  0.42352750  1
  Sn  Sn5  1  0.40534136  -0.00000000  0.81068273  1
  Sn  Sn6  1  0.59465864  0.00000000  0.18931727  1
  Sn  Sn7  1  0.09565576  0.50000000  0.19131152  1
  Sn  Sn8  1  0.90434424  0.50000000  0.80868848  1
  Sn  Sn9  1  0.50000000  0.50000000  0.00000000  1
