# generated using pymatgen
data_Tb(BIr)2
_symmetry_space_group_name_H-M   'P 1'
_cell_length_a   5.49682731
_cell_length_b   5.49682731
_cell_length_c   6.20071229
_cell_angle_alpha   104.27798458
_cell_angle_beta   104.27798458
_cell_angle_gamma   116.33278788
_symmetry_Int_Tables_number   1
_chemical_formula_structural   Tb(BIr)2
_chemical_formula_sum   'Tb2 B4 Ir4'
_cell_volume   148.42765536
_cell_formula_units_Z   2
loop_
 _symmetry_equiv_pos_site_id
 _symmetry_equiv_pos_as_xyz
  1  'x, y, z'
loop_
 _atom_site_type_symbol
 _atom_site_label
 _atom_site_symmetry_multiplicity
 _atom_site_fract_x
 _atom_site_fract_y
 _atom_site_fract_z
 _atom_site_occupancy
  Tb  Tb0  1  0.75000000  0.25000000  0.50000000  1
  Tb  Tb1  1  -0.00000000  0.00000000  0.00000000  1
  B  B2  1  0.06995750  0.93004250  0.50000000  1
  B  B3  1  0.68004250  0.31995750  -0.00000000  1
  B  B4  1  0.43004250  0.56995750  0.50000000  1
  B  B5  1  0.31995750  0.68004250  0.00000000  1
  Ir  Ir6  1  0.12314766  0.62314766  0.24629531  1
  Ir  Ir7  1  0.37685234  0.87685234  0.75370469  1
  Ir  Ir8  1  0.62685234  0.62685234  0.25370469  1
  Ir  Ir9  1  0.37314766  0.37314766  0.74629531  1
