# generated using pymatgen
data_Tb6FeBi2
_symmetry_space_group_name_H-M   'P 1'
_cell_length_a   4.19870054
_cell_length_b   8.36234052
_cell_length_c   8.37845547
_cell_angle_alpha   120.01815165
_cell_angle_beta   90.00000000
_cell_angle_gamma   90.00000000
_symmetry_Int_Tables_number   1
_chemical_formula_structural   Tb6FeBi2
_chemical_formula_sum   'Tb6 Fe1 Bi2'
_cell_volume   254.71697125
_cell_formula_units_Z   1
loop_
 _symmetry_equiv_pos_site_id
 _symmetry_equiv_pos_as_xyz
  1  'x, y, z'
loop_
 _atom_site_type_symbol
 _atom_site_label
 _atom_site_symmetry_multiplicity
 _atom_site_fract_x
 _atom_site_fract_y
 _atom_site_fract_z
 _atom_site_occupancy
  Tb  Tb0  1  -0.00000000  0.00941193  0.76392940  1
  Tb  Tb1  1  -0.00000000  0.24490152  0.22456758  1
  Tb  Tb2  1  -0.00000000  0.77762122  0.98889381  1
  Tb  Tb3  1  0.50000000  0.61142915  0.59343558  1
  Tb  Tb4  1  0.50000000  0.00842208  0.38027427  1
  Tb  Tb5  1  0.50000000  0.40636290  0.99051889  1
  Fe  Fe6  1  0.50000000  0.01381908  -0.00007659  1
  Bi  Bi7  1  -0.00000000  0.33919279  0.65699089  1
  Bi  Bi8  1  -0.00000000  0.67923934  0.32583618  1
