# generated using pymatgen
data_TbPt
_symmetry_space_group_name_H-M   'P 1'
_cell_length_a   4.57581083
_cell_length_b   5.57984285
_cell_length_c   7.06742893
_cell_angle_alpha   90.00000000
_cell_angle_beta   90.00000000
_cell_angle_gamma   90.00000000
_symmetry_Int_Tables_number   1
_chemical_formula_structural   TbPt
_chemical_formula_sum   'Tb4 Pt4'
_cell_volume   180.44775343
_cell_formula_units_Z   4
loop_
 _symmetry_equiv_pos_site_id
 _symmetry_equiv_pos_as_xyz
  1  'x, y, z'
loop_
 _atom_site_type_symbol
 _atom_site_label
 _atom_site_symmetry_multiplicity
 _atom_site_fract_x
 _atom_site_fract_y
 _atom_site_fract_z
 _atom_site_occupancy
  Tb  Tb0  1  0.25000000  0.35757737  0.68357765  1
  Tb  Tb1  1  0.25000000  0.14242263  0.18357765  1
  Tb  Tb2  1  0.75000000  0.64242263  0.31642235  1
  Tb  Tb3  1  0.75000000  0.85757737  0.81642235  1
  Pt  Pt4  1  0.25000000  0.84488207  0.54173493  1
  Pt  Pt5  1  0.25000000  0.65511793  0.04173493  1
  Pt  Pt6  1  0.75000000  0.15511793  0.45826507  1
  Pt  Pt7  1  0.75000000  0.34488207  0.95826507  1
