# generated using pymatgen
data_CeHgPd
_symmetry_space_group_name_H-M   'P 1'
_cell_length_a   3.91121310
_cell_length_b   7.83597363
_cell_length_c   7.83751118
_cell_angle_alpha   119.99350335
_cell_angle_beta   90.00000000
_cell_angle_gamma   90.00000000
_symmetry_Int_Tables_number   1
_chemical_formula_structural   CeHgPd
_chemical_formula_sum   'Ce3 Hg3 Pd3'
_cell_volume   208.03752436
_cell_formula_units_Z   3
loop_
 _symmetry_equiv_pos_site_id
 _symmetry_equiv_pos_as_xyz
  1  'x, y, z'
loop_
 _atom_site_type_symbol
 _atom_site_label
 _atom_site_symmetry_multiplicity
 _atom_site_fract_x
 _atom_site_fract_y
 _atom_site_fract_z
 _atom_site_occupancy
  Ce  Ce0  1  0.50000000  0.60020461  1.00000000  1
  Ce  Ce1  1  0.50000000  0.39961032  0.39966184  1
  Ce  Ce2  1  0.50000000  0.99994848  0.60033816  1
  Hg  Hg3  1  0.00000000  0.26487202  1.00000000  1
  Hg  Hg4  1  0.00000000  0.73568391  0.73637308  1
  Hg  Hg5  1  -0.00000000  0.99931083  0.26362692  1
  Pd  Pd6  1  0.00000000  0.33265748  0.66572862  1
  Pd  Pd7  1  -0.00000000  0.66692886  0.33427138  1
  Pd  Pd8  1  0.50000000  0.00068350  1.00000000  1
