# generated using pymatgen
data_Er(NiB)2
_symmetry_space_group_name_H-M   'P 1'
_cell_length_a   4.93348787
_cell_length_b   4.93348787
_cell_length_c   6.08768055
_cell_angle_alpha   102.64993542
_cell_angle_beta   103.50765973
_cell_angle_gamma   116.20295404
_symmetry_Int_Tables_number   1
_chemical_formula_structural   Er(NiB)2
_chemical_formula_sum   'Er2 Ni4 B4'
_cell_volume   120.13133534
_cell_formula_units_Z   2
loop_
 _symmetry_equiv_pos_site_id
 _symmetry_equiv_pos_as_xyz
  1  'x, y, z'
loop_
 _atom_site_type_symbol
 _atom_site_label
 _atom_site_symmetry_multiplicity
 _atom_site_fract_x
 _atom_site_fract_y
 _atom_site_fract_z
 _atom_site_occupancy
  Er  Er0  1  0.86839817  0.11839817  0.75000000  1
  Er  Er1  1  0.13160183  0.88160183  0.25000000  1
  Ni  Ni2  1  0.16647266  0.72246818  0.70019284  1
  Ni  Ni3  1  0.52227534  0.46627982  0.79980716  1
  Ni  Ni4  1  0.83352734  0.27753182  0.29980716  1
  Ni  Ni5  1  0.47772466  0.53372018  0.20019284  1
  B  B6  1  0.67849065  0.49616692  0.52239647  1
  B  B7  1  0.47377044  0.15609417  0.97760353  1
  B  B8  1  0.32150935  0.50383308  0.47760353  1
  B  B9  1  0.52622956  0.84390583  0.02239647  1
