# generated using pymatgen
data_DyZnNi
_symmetry_space_group_name_H-M   'P 1'
_cell_length_a   3.73140280
_cell_length_b   7.02096390
_cell_length_c   7.02110376
_cell_angle_alpha   119.99933560
_cell_angle_beta   90.00000000
_cell_angle_gamma   90.00000000
_symmetry_Int_Tables_number   1
_chemical_formula_structural   DyZnNi
_chemical_formula_sum   'Dy3 Zn3 Ni3'
_cell_volume   159.29707587
_cell_formula_units_Z   3
loop_
 _symmetry_equiv_pos_site_id
 _symmetry_equiv_pos_as_xyz
  1  'x, y, z'
loop_
 _atom_site_type_symbol
 _atom_site_label
 _atom_site_symmetry_multiplicity
 _atom_site_fract_x
 _atom_site_fract_y
 _atom_site_fract_z
 _atom_site_occupancy
  Dy  Dy0  1  0.50000000  0.58760710  1.00000000  1
  Dy  Dy1  1  0.50000000  0.41231022  0.41230419  1
  Dy  Dy2  1  0.50000000  0.00000603  0.58769581  1
  Zn  Zn3  1  -0.00000000  0.24272442  1.00000000  1
  Zn  Zn4  1  0.00000000  0.75725535  0.75732807  1
  Zn  Zn5  1  0.00000000  0.99992728  0.24267193  1
  Ni  Ni6  1  0.00000000  0.33336799  0.66671931  1
  Ni  Ni7  1  0.00000000  0.66664868  0.33328069  1
  Ni  Ni8  1  0.50000000  0.00005293  0.00000000  1
