# generated using pymatgen
data_Li9Mn2Co5O16
_symmetry_space_group_name_H-M   'P 1'
_cell_length_a   4.97231426
_cell_length_b   5.84194744
_cell_length_c   10.42936654
_cell_angle_alpha   90.72168779
_cell_angle_beta   96.57292113
_cell_angle_gamma   105.93171141
_symmetry_Int_Tables_number   1
_chemical_formula_structural   Li9Mn2Co5O16
_chemical_formula_sum   'Li9 Mn2 Co5 O16'
_cell_volume   289.09348859
_cell_formula_units_Z   1
loop_
 _symmetry_equiv_pos_site_id
 _symmetry_equiv_pos_as_xyz
  1  'x, y, z'
loop_
 _atom_site_type_symbol
 _atom_site_label
 _atom_site_symmetry_multiplicity
 _atom_site_fract_x
 _atom_site_fract_y
 _atom_site_fract_z
 _atom_site_occupancy
  Li  Li0  1  0.00934484  0.25375375  0.25815273  1
  Li  Li1  1  0.49514228  0.87365689  0.62271449  1
  Li  Li2  1  0.99331480  0.99444248  0.50407235  1
  Li  Li3  1  0.49342595  0.62426004  0.87085826  1
  Li  Li4  1  0.99690720  0.74742718  0.73856606  1
  Li  Li5  1  0.50827926  0.37917407  0.13355877  1
  Li  Li6  1  0.99613706  0.50038035  0.00047672  1
  Li  Li7  1  0.50334090  0.12617220  0.37059686  1
  Li  Li8  1  0.00078666  0.50159730  0.50183581  1
  Mn  Mn9  1  -0.00104021  0.99869685  0.00141678  1
  Mn  Mn10  1  0.99296431  0.24619740  0.74622877  1
  Co  Co11  1  0.51108629  0.62561461  0.38435124  1
  Co  Co12  1  0.50241804  0.87609234  0.12663744  1
  Co  Co13  1  0.49250356  0.12341962  0.87008945  1
  Co  Co14  1  0.00930857  0.75103655  0.25275133  1
  Co  Co15  1  0.49949905  0.38158128  0.61725224  1
  O  O16  1  0.74680297  0.16474787  0.06477946  1
  O  O17  1  0.27094603  0.79456955  0.42541279  1
  O  O18  1  0.76067895  0.91720995  0.31532557  1
  O  O19  1  0.24514866  0.53099010  0.69360278  1
  O  O20  1  0.73387025  0.68028133  0.56052995  1
  O  O21  1  0.22820238  0.29023536  0.92078358  1
  O  O22  1  0.74301001  0.41114743  0.81377470  1
  O  O23  1  0.26533060  0.05171557  0.18500275  1
  O  O24  1  0.28162136  0.33378958  0.44051315  1
  O  O25  1  0.74450015  0.96068145  0.81104115  1
  O  O26  1  0.23396791  0.07111786  0.68726010  1
  O  O27  1  0.74997627  0.70483235  0.06751853  1
  O  O28  1  0.25408550  0.83847652  0.93566913  1
  O  O29  1  0.73261585  0.45942817  0.31561734  1
  O  O30  1  0.24574594  0.58507096  0.18048077  1
  O  O31  1  0.76007859  0.20220006  0.58313595  1
