# generated using pymatgen
data_CeZnNi
_symmetry_space_group_name_H-M   'P 1'
_cell_length_a   3.81230628
_cell_length_b   7.08966148
_cell_length_c   7.07807664
_cell_angle_alpha   120.05415616
_cell_angle_beta   90.00000000
_cell_angle_gamma   90.00000000
_symmetry_Int_Tables_number   1
_chemical_formula_structural   CeZnNi
_chemical_formula_sum   'Ce3 Zn3 Ni3'
_cell_volume   165.58535249
_cell_formula_units_Z   3
loop_
 _symmetry_equiv_pos_site_id
 _symmetry_equiv_pos_as_xyz
  1  'x, y, z'
loop_
 _atom_site_type_symbol
 _atom_site_label
 _atom_site_symmetry_multiplicity
 _atom_site_fract_x
 _atom_site_fract_y
 _atom_site_fract_z
 _atom_site_occupancy
  Ce  Ce0  1  0.50000000  0.58415841  0.00000000  1
  Ce  Ce1  1  0.50000000  0.41525399  0.41531603  1
  Ce  Ce2  1  0.50000000  -0.00006204  0.58468397  1
  Zn  Zn3  1  -0.00000000  0.23872856  1.00000000  1
  Zn  Zn4  1  -0.00000000  0.76130111  0.76165808  1
  Zn  Zn5  1  -0.00000000  0.99964304  0.23834192  1
  Ni  Ni6  1  -0.00000000  0.33373709  0.66708822  1
  Ni  Ni7  1  0.00000000  0.66664887  0.33291178  1
  Ni  Ni8  1  0.50000000  0.00049097  1.00000000  1
