# generated using pymatgen
data_B3Os2
_symmetry_space_group_name_H-M   'P 1'
_cell_length_a   2.94197355
_cell_length_b   2.94197355
_cell_length_c   12.92562302
_cell_angle_alpha   90.00000000
_cell_angle_beta   90.00000000
_cell_angle_gamma   119.99938415
_symmetry_Int_Tables_number   1
_chemical_formula_structural   B3Os2
_chemical_formula_sum   'B6 Os4'
_cell_volume   96.88629339
_cell_formula_units_Z   2
loop_
 _symmetry_equiv_pos_site_id
 _symmetry_equiv_pos_as_xyz
  1  'x, y, z'
loop_
 _atom_site_type_symbol
 _atom_site_label
 _atom_site_symmetry_multiplicity
 _atom_site_fract_x
 _atom_site_fract_y
 _atom_site_fract_z
 _atom_site_occupancy
  B  B0  1  0.66667027  0.33332973  0.46932142  1
  B  B1  1  0.33332973  0.66667027  0.53067858  1
  B  B2  1  0.33332973  0.66667027  0.96932142  1
  B  B3  1  0.66667027  0.33332973  0.03067858  1
  B  B4  1  0.66666979  0.33333021  0.25000000  1
  B  B5  1  0.33333021  0.66666979  0.75000000  1
  Os  Os6  1  0.66666658  0.33333342  0.63994506  1
  Os  Os7  1  0.33333342  0.66666658  0.36005494  1
  Os  Os8  1  0.33333342  0.66666658  0.13994506  1
  Os  Os9  1  0.66666658  0.33333342  0.86005494  1
