# generated using pymatgen
data_Li9Mn2Co5O16
_symmetry_space_group_name_H-M   'P 1'
_cell_length_a   2.89248959
_cell_length_b   10.68922087
_cell_length_c   10.25696845
_cell_angle_alpha   113.01424800
_cell_angle_beta   88.94284907
_cell_angle_gamma   83.33577549
_symmetry_Int_Tables_number   1
_chemical_formula_structural   Li9Mn2Co5O16
_chemical_formula_sum   'Li9 Mn2 Co5 O16'
_cell_volume   289.20903806
_cell_formula_units_Z   1
loop_
 _symmetry_equiv_pos_site_id
 _symmetry_equiv_pos_as_xyz
  1  'x, y, z'
loop_
 _atom_site_type_symbol
 _atom_site_label
 _atom_site_symmetry_multiplicity
 _atom_site_fract_x
 _atom_site_fract_y
 _atom_site_fract_z
 _atom_site_occupancy
  Li  Li0  1  0.87634875  0.24513343  0.92749431  1
  Li  Li1  1  0.12166494  0.75890422  0.06728333  1
  Li  Li2  1  0.38991450  0.23956632  0.19008621  1
  Li  Li3  1  0.38942397  0.22977450  0.66895405  1
  Li  Li4  1  0.61587325  0.75349042  0.81172237  1
  Li  Li5  1  0.88660472  0.24497718  0.43778323  1
  Li  Li6  1  0.11286064  0.75701593  0.56733868  1
  Li  Li7  1  0.60839319  0.77056111  0.32816137  1
  Li  Li8  1  -0.00055207  0.00038482  0.50001956  1
  Mn  Mn9  1  -0.00093610  0.00059936  -0.00039972  1
  Mn  Mn10  1  0.24839344  0.49987656  0.12509017  1
  Co  Co11  1  0.49521613  0.00667625  0.27242590  1
  Co  Co12  1  0.73670683  0.50070964  0.37878346  1
  Co  Co13  1  0.24786070  0.49954080  0.62745099  1
  Co  Co14  1  0.50460859  -0.00652486  0.72718961  1
  Co  Co15  1  0.75938060  0.50005393  0.87251645  1
  O  O16  1  0.44908217  0.11159106  0.97440633  1
  O  O17  1  0.70024650  0.61000290  0.09736578  1
  O  O18  1  0.94751490  0.10793226  0.20277523  1
  O  O19  1  0.94757037  0.11769606  0.72412589  1
  O  O20  1  0.18721657  0.61781084  0.84283479  1
  O  O21  1  0.44141063  0.12082325  0.45521568  1
  O  O22  1  0.67463006  0.61341498  0.59010755  1
  O  O23  1  0.16999966  0.60887724  0.33054784  1
  O  O24  1  0.32233378  0.38978765  0.92356265  1
  O  O25  1  0.54924298  0.88959357  0.02627864  1
  O  O26  1  0.79626755  0.39003218  0.15344654  1
  O  O27  1  0.83182538  0.38473281  0.65881275  1
  O  O28  1  0.05133076  0.89385067  0.79641368  1
  O  O29  1  0.32636295  0.38411104  0.40439281  1
  O  O30  1  0.55996826  0.87728744  0.54387754  1
  O  O31  1  0.05323544  0.88171645  0.27393633  1
