# generated using pymatgen
data_TbAlCu
_symmetry_space_group_name_H-M   'P 1'
_cell_length_a   4.05355234
_cell_length_b   7.02113320
_cell_length_c   7.02118954
_cell_angle_alpha   119.99973534
_cell_angle_beta   90.00000000
_cell_angle_gamma   90.00000000
_symmetry_Int_Tables_number   1
_chemical_formula_structural   TbAlCu
_chemical_formula_sum   'Tb3 Al3 Cu3'
_cell_volume   173.05553118
_cell_formula_units_Z   3
loop_
 _symmetry_equiv_pos_site_id
 _symmetry_equiv_pos_as_xyz
  1  'x, y, z'
loop_
 _atom_site_type_symbol
 _atom_site_label
 _atom_site_symmetry_multiplicity
 _atom_site_fract_x
 _atom_site_fract_y
 _atom_site_fract_z
 _atom_site_occupancy
  Tb  Tb0  1  0.50000000  0.58573816  0.00000000  1
  Tb  Tb1  1  0.50000000  0.41424337  0.41425127  1
  Tb  Tb2  1  0.50000000  0.99999210  0.58574873  1
  Al  Al3  1  0.00000000  0.23388048  1.00000000  1
  Al  Al4  1  0.00000000  0.76611284  0.76611447  1
  Al  Al5  1  0.00000000  0.99999837  0.23388553  1
  Cu  Cu6  1  0.00000000  0.33331238  0.66669247  1
  Cu  Cu7  1  -0.00000000  0.66661992  0.33330753  1
  Cu  Cu8  1  0.50000000  0.00000238  0.00000000  1
