# generated using pymatgen
data_CeGe
_symmetry_space_group_name_H-M   'P 1'
_cell_length_a   4.07125254
_cell_length_b   5.93355624
_cell_length_c   8.20691874
_cell_angle_alpha   90.00000000
_cell_angle_beta   90.00000000
_cell_angle_gamma   90.00000000
_symmetry_Int_Tables_number   1
_chemical_formula_structural   CeGe
_chemical_formula_sum   'Ce4 Ge4'
_cell_volume   198.25458453
_cell_formula_units_Z   4
loop_
 _symmetry_equiv_pos_site_id
 _symmetry_equiv_pos_as_xyz
  1  'x, y, z'
loop_
 _atom_site_type_symbol
 _atom_site_label
 _atom_site_symmetry_multiplicity
 _atom_site_fract_x
 _atom_site_fract_y
 _atom_site_fract_z
 _atom_site_occupancy
  Ce  Ce0  1  0.25000000  0.37978169  0.68161885  1
  Ce  Ce1  1  0.25000000  0.12021831  0.18161885  1
  Ce  Ce2  1  0.75000000  0.62021831  0.31838115  1
  Ce  Ce3  1  0.75000000  0.87978169  0.81838115  1
  Ge  Ge4  1  0.25000000  0.85987226  0.53872541  1
  Ge  Ge5  1  0.25000000  0.64012774  0.03872541  1
  Ge  Ge6  1  0.75000000  0.14012774  0.46127459  1
  Ge  Ge7  1  0.75000000  0.35987226  0.96127459  1
