# generated using pymatgen
data_TbZnPd
_symmetry_space_group_name_H-M   'P 1'
_cell_length_a   3.82727989
_cell_length_b   7.37372912
_cell_length_c   7.37290158
_cell_angle_alpha   120.00371112
_cell_angle_beta   90.00000000
_cell_angle_gamma   90.00000000
_symmetry_Int_Tables_number   1
_chemical_formula_structural   TbZnPd
_chemical_formula_sum   'Tb3 Zn3 Pd3'
_cell_volume   180.18981078
_cell_formula_units_Z   3
loop_
 _symmetry_equiv_pos_site_id
 _symmetry_equiv_pos_as_xyz
  1  'x, y, z'
loop_
 _atom_site_type_symbol
 _atom_site_label
 _atom_site_symmetry_multiplicity
 _atom_site_fract_x
 _atom_site_fract_y
 _atom_site_fract_z
 _atom_site_occupancy
  Tb  Tb0  1  0.00000000  0.59320632  0.00000000  1
  Tb  Tb1  1  -0.00000000  0.40677032  0.40682417  1
  Tb  Tb2  1  0.00000000  0.99994614  0.59317583  1
  Zn  Zn3  1  0.50000000  0.25171288  1.00000000  1
  Zn  Zn4  1  0.50000000  0.74827190  0.74832731  1
  Zn  Zn5  1  0.50000000  0.99994460  0.25167269  1
  Pd  Pd6  1  0.00000000  0.00002365  -0.00000000  1
  Pd  Pd7  1  0.50000000  0.33334385  0.66666350  1
  Pd  Pd8  1  0.50000000  0.66668035  0.33333650  1
