# generated using pymatgen
data_YAlCu
_symmetry_space_group_name_H-M   'P 1'
_cell_length_a   4.05678758
_cell_length_b   7.01623322
_cell_length_c   7.01561166
_cell_angle_alpha   120.00292893
_cell_angle_beta   90.00000000
_cell_angle_gamma   90.00000000
_symmetry_Int_Tables_number   1
_chemical_formula_structural   YAlCu
_chemical_formula_sum   'Y3 Al3 Cu3'
_cell_volume   172.92972034
_cell_formula_units_Z   3
loop_
 _symmetry_equiv_pos_site_id
 _symmetry_equiv_pos_as_xyz
  1  'x, y, z'
loop_
 _atom_site_type_symbol
 _atom_site_label
 _atom_site_symmetry_multiplicity
 _atom_site_fract_x
 _atom_site_fract_y
 _atom_site_fract_z
 _atom_site_occupancy
  Y  Y0  1  0.50000000  0.58611709  1.00000000  1
  Y  Y1  1  0.50000000  0.41384217  0.41384554  1
  Y  Y2  1  0.50000000  -0.00000337  0.58615446  1
  Al  Al3  1  -0.00000000  0.23446772  0.00000000  1
  Al  Al4  1  -0.00000000  0.76552312  0.76555315  1
  Al  Al5  1  -0.00000000  0.99996997  0.23444685  1
  Cu  Cu6  1  -0.00000000  0.33332278  0.66667046  1
  Cu  Cu7  1  -0.00000000  0.66665232  0.33332954  1
  Cu  Cu8  1  0.50000000  0.00000820  1.00000000  1
