# generated using pymatgen
data_Cs2TcF6
_symmetry_space_group_name_H-M   'P 1'
_cell_length_a   5.15748622
_cell_length_b   6.36123763
_cell_length_c   6.36124230
_cell_angle_alpha   120.00021618
_cell_angle_beta   89.99973660
_cell_angle_gamma   90.00023325
_symmetry_Int_Tables_number   1
_chemical_formula_structural   Cs2TcF6
_chemical_formula_sum   'Cs2 Tc1 F6'
_cell_volume   180.73876881
_cell_formula_units_Z   1
loop_
 _symmetry_equiv_pos_site_id
 _symmetry_equiv_pos_as_xyz
  1  'x, y, z'
loop_
 _atom_site_type_symbol
 _atom_site_label
 _atom_site_symmetry_multiplicity
 _atom_site_fract_x
 _atom_site_fract_y
 _atom_site_fract_z
 _atom_site_occupancy
  Cs  Cs0  1  0.29856952  0.33335255  0.66667519  1
  Cs  Cs1  1  0.70143048  0.66664745  0.33332481  1
  Tc  Tc2  1  0.00000000  0.00000000  0.00000000  1
  F  F3  1  0.21181488  0.85060319  0.70118365  1
  F  F4  1  0.21182096  0.29881985  0.14940884  1
  F  F5  1  0.21181484  0.85060188  0.14941918  1
  F  F6  1  0.78818512  0.14939681  0.29881635  1
  F  F7  1  0.78817904  0.70118015  0.85059116  1
  F  F8  1  0.78818516  0.14939812  0.85058082  1
