# generated using pymatgen
data_PrInNi
_symmetry_space_group_name_H-M   'P 1'
_cell_length_a   3.98920096
_cell_length_b   7.60187958
_cell_length_c   7.59912886
_cell_angle_alpha   120.01197864
_cell_angle_beta   90.00000000
_cell_angle_gamma   90.00000000
_symmetry_Int_Tables_number   1
_chemical_formula_structural   PrInNi
_chemical_formula_sum   'Pr3 In3 Ni3'
_cell_volume   199.54870200
_cell_formula_units_Z   3
loop_
 _symmetry_equiv_pos_site_id
 _symmetry_equiv_pos_as_xyz
  1  'x, y, z'
loop_
 _atom_site_type_symbol
 _atom_site_label
 _atom_site_symmetry_multiplicity
 _atom_site_fract_x
 _atom_site_fract_y
 _atom_site_fract_z
 _atom_site_occupancy
  Pr  Pr0  1  0.50000000  0.58773747  1.00000000  1
  Pr  Pr1  1  0.50000000  0.41269574  0.41249377  1
  Pr  Pr2  1  0.50000000  0.00020197  0.58750623  1
  In  In3  1  0.00000000  0.24754131  0.00000000  1
  In  In4  1  -0.00000000  0.75259984  0.75229366  1
  In  In5  1  -0.00000000  0.00030618  0.24770634  1
  Ni  Ni6  1  0.50000000  0.99935114  0.00000000  1
  Ni  Ni7  1  0.00000000  0.33307744  0.66668853  1
  Ni  Ni8  1  0.00000000  0.66638891  0.33331147  1
