# generated using pymatgen
data_Ta2N
_symmetry_space_group_name_H-M   'P 1'
_cell_length_a   4.96606495
_cell_length_b   5.31905028
_cell_length_c   5.31794754
_cell_angle_alpha   119.99315020
_cell_angle_beta   89.99579149
_cell_angle_gamma   90.00210385
_symmetry_Int_Tables_number   1
_chemical_formula_structural   Ta2N
_chemical_formula_sum   'Ta6 N3'
_cell_volume   121.66093320
_cell_formula_units_Z   3
loop_
 _symmetry_equiv_pos_site_id
 _symmetry_equiv_pos_as_xyz
  1  'x, y, z'
loop_
 _atom_site_type_symbol
 _atom_site_label
 _atom_site_symmetry_multiplicity
 _atom_site_fract_x
 _atom_site_fract_y
 _atom_site_fract_z
 _atom_site_occupancy
  Ta  Ta0  1  0.24659220  0.33336908  0.33346889  1
  Ta  Ta1  1  0.24659220  0.66663092  0.00009981  1
  Ta  Ta2  1  0.24663452  0.00000000  0.66675924  1
  Ta  Ta3  1  0.75340780  0.66663092  0.66653111  1
  Ta  Ta4  1  0.75340780  0.33336908  0.99990019  1
  Ta  Ta5  1  0.75336548  1.00000000  0.33324076  1
  N  N6  1  0.50000000  0.66664306  0.33332153  1
  N  N7  1  0.50000000  0.33335694  0.66667847  1
  N  N8  1  -0.00000000  -0.00000000  -0.00000000  1
