# generated using pymatgen
data_HoSnIr
_symmetry_space_group_name_H-M   'P 1'
_cell_length_a   3.89362840
_cell_length_b   7.51434599
_cell_length_c   7.51452534
_cell_angle_alpha   119.99920407
_cell_angle_beta   90.00000000
_cell_angle_gamma   90.00000000
_symmetry_Int_Tables_number   1
_chemical_formula_structural   HoSnIr
_chemical_formula_sum   'Ho3 Sn3 Ir3'
_cell_volume   190.40631897
_cell_formula_units_Z   3
loop_
 _symmetry_equiv_pos_site_id
 _symmetry_equiv_pos_as_xyz
  1  'x, y, z'
loop_
 _atom_site_type_symbol
 _atom_site_label
 _atom_site_symmetry_multiplicity
 _atom_site_fract_x
 _atom_site_fract_y
 _atom_site_fract_z
 _atom_site_occupancy
  Ho  Ho0  1  0.50000000  0.59765998  1.00000000  1
  Ho  Ho1  1  0.50000000  0.40231818  0.40231885  1
  Ho  Ho2  1  0.50000000  0.99999934  0.59768115  1
  Sn  Sn3  1  -0.00000000  0.26192983  1.00000000  1
  Sn  Sn4  1  -0.00000000  0.73803982  0.73804049  1
  Sn  Sn5  1  -0.00000000  -0.00000067  0.26195951  1
  Ir  Ir6  1  0.00000000  0.33332714  0.66668110  1
  Ir  Ir7  1  0.00000000  0.66664604  0.33331890  1
  Ir  Ir8  1  0.50000000  0.99998035  1.00000000  1
