# generated using pymatgen
data_Li9Mn2Co5O16
_symmetry_space_group_name_H-M   'P 1'
_cell_length_a   5.02819859
_cell_length_b   5.92262266
_cell_length_c   10.15453190
_cell_angle_alpha   104.88178751
_cell_angle_beta   80.34936776
_cell_angle_gamma   87.74781540
_symmetry_Int_Tables_number   1
_chemical_formula_structural   Li9Mn2Co5O16
_chemical_formula_sum   'Li9 Mn2 Co5 O16'
_cell_volume   287.04567949
_cell_formula_units_Z   1
loop_
 _symmetry_equiv_pos_site_id
 _symmetry_equiv_pos_as_xyz
  1  'x, y, z'
loop_
 _atom_site_type_symbol
 _atom_site_label
 _atom_site_symmetry_multiplicity
 _atom_site_fract_x
 _atom_site_fract_y
 _atom_site_fract_z
 _atom_site_occupancy
  Li  Li0  1  0.25844068  0.13407765  0.27021511  1
  Li  Li1  1  0.25576656  0.60623757  0.73604459  1
  Li  Li2  1  0.75154719  0.38091432  0.26606131  1
  Li  Li3  1  0.75581736  0.86235850  0.73560000  1
  Li  Li4  1  0.24630424  0.64443758  0.26591085  1
  Li  Li5  1  0.25835676  0.12334519  0.73404583  1
  Li  Li6  1  0.74200362  0.88542935  0.26308008  1
  Li  Li7  1  0.73818144  0.36204957  0.72991388  1
  Li  Li8  1  0.50149052  0.25165711  0.49882485  1
  Mn  Mn9  1  0.00070637  0.99756708  0.00034655  1
  Mn  Mn10  1  0.50166622  0.25080269  0.99829651  1
  Co  Co11  1  0.00590345  0.49487697  0.49848955  1
  Co  Co12  1  0.49476021  0.74791409  0.49899728  1
  Co  Co13  1  0.00167073  0.50195526  0.99975400  1
  Co  Co14  1  0.98623483  0.00889764  0.50337722  1
  Co  Co15  1  0.49823609  0.75356458  0.00180838  1
  O  O16  1  0.13942979  0.81826669  0.11360523  1
  O  O17  1  0.10508683  0.31971047  0.61421877  1
  O  O18  1  0.64263544  0.07572269  0.11525691  1
  O  O19  1  0.64492432  0.56820521  0.61018693  1
  O  O20  1  0.12475197  0.29138727  0.10217462  1
  O  O21  1  0.12218837  0.78430349  0.61275394  1
  O  O22  1  0.64438623  0.57824753  0.11160552  1
  O  O23  1  0.63711035  0.05285280  0.61880377  1
  O  O24  1  0.34704632  0.45076297  0.38625632  1
  O  O25  1  0.35568133  0.91789750  0.88621696  1
  O  O26  1  0.87953851  0.68267822  0.38558699  1
  O  O27  1  0.86804144  0.17587845  0.88526813  1
  O  O28  1  0.36894229  0.92917861  0.38732139  1
  O  O29  1  0.35916872  0.43144090  0.88546679  1
  O  O30  1  0.89453968  0.20907013  0.38673413  1
  O  O31  1  0.86944214  0.70831190  0.89777761  1
