# generated using pymatgen
data_CeSi2Ir
_symmetry_space_group_name_H-M   'P 1'
_cell_length_a   4.18645842
_cell_length_b   4.20903324
_cell_length_c   8.67401652
_cell_angle_alpha   104.04141232
_cell_angle_beta   90.00000000
_cell_angle_gamma   90.00000000
_symmetry_Int_Tables_number   1
_chemical_formula_structural   CeSi2Ir
_chemical_formula_sum   'Ce2 Si4 Ir2'
_cell_volume   148.27745276
_cell_formula_units_Z   2
loop_
 _symmetry_equiv_pos_site_id
 _symmetry_equiv_pos_as_xyz
  1  'x, y, z'
loop_
 _atom_site_type_symbol
 _atom_site_label
 _atom_site_symmetry_multiplicity
 _atom_site_fract_x
 _atom_site_fract_y
 _atom_site_fract_z
 _atom_site_occupancy
  Ce  Ce0  1  0.75000000  0.10612422  0.21224844  1
  Ce  Ce1  1  0.25000000  0.89387578  0.78775156  1
  Si  Si2  1  0.75000000  0.46383521  0.92767042  1
  Si  Si3  1  0.25000000  0.53616479  0.07232958  1
  Si  Si4  1  0.75000000  0.75072982  0.50145965  1
  Si  Si5  1  0.25000000  0.24927018  0.49854035  1
  Ir  Ir6  1  0.75000000  0.32302812  0.64605623  1
  Ir  Ir7  1  0.25000000  0.67697188  0.35394377  1
