# generated using pymatgen
data_Sr2CoOsO6
_symmetry_space_group_name_H-M   'P 1'
_cell_length_a   5.55792221
_cell_length_b   5.55792221
_cell_length_c   5.67186307
_cell_angle_alpha   119.33765752
_cell_angle_beta   119.33765752
_cell_angle_gamma   90.00000000
_symmetry_Int_Tables_number   1
_chemical_formula_structural   Sr2CoOsO6
_chemical_formula_sum   'Sr2 Co1 Os1 O6'
_cell_volume   126.32963022
_cell_formula_units_Z   1
loop_
 _symmetry_equiv_pos_site_id
 _symmetry_equiv_pos_as_xyz
  1  'x, y, z'
loop_
 _atom_site_type_symbol
 _atom_site_label
 _atom_site_symmetry_multiplicity
 _atom_site_fract_x
 _atom_site_fract_y
 _atom_site_fract_z
 _atom_site_occupancy
  Sr  Sr0  1  0.75000000  0.25000000  0.50000000  1
  Sr  Sr1  1  0.25000000  0.75000000  0.50000000  1
  Co  Co2  1  -0.00000000  -0.00000000  -0.00000000  1
  Os  Os3  1  0.50000000  0.50000000  -0.00000000  1
  O  O4  1  0.26235843  0.26235843  0.52471686  1
  O  O5  1  0.73764157  0.73764157  0.47528314  1
  O  O6  1  0.22294983  0.28860519  1.00000000  1
  O  O7  1  0.77705017  0.71139481  0.00000000  1
  O  O8  1  0.71139481  0.22294983  0.00000000  1
  O  O9  1  0.28860519  0.77705017  1.00000000  1
