# generated using pymatgen
data_ErMgPd
_symmetry_space_group_name_H-M   'P 1'
_cell_length_a   4.01234510
_cell_length_b   7.46902391
_cell_length_c   7.46961180
_cell_angle_alpha   119.99739131
_cell_angle_beta   90.00000000
_cell_angle_gamma   90.00000000
_symmetry_Int_Tables_number   1
_chemical_formula_structural   ErMgPd
_chemical_formula_sum   'Er3 Mg3 Pd3'
_cell_volume   193.86624939
_cell_formula_units_Z   3
loop_
 _symmetry_equiv_pos_site_id
 _symmetry_equiv_pos_as_xyz
  1  'x, y, z'
loop_
 _atom_site_type_symbol
 _atom_site_label
 _atom_site_symmetry_multiplicity
 _atom_site_fract_x
 _atom_site_fract_y
 _atom_site_fract_z
 _atom_site_occupancy
  Er  Er0  1  0.50000000  0.58559967  0.00000000  1
  Er  Er1  1  0.50000000  0.41432229  0.41436386  1
  Er  Er2  1  0.50000000  0.99995843  0.58563614  1
  Mg  Mg3  1  -0.00000000  0.24529500  1.00000000  1
  Mg  Mg4  1  -0.00000000  0.75472147  0.75475900  1
  Mg  Mg5  1  -0.00000000  -0.00003753  0.24524100  1
  Pd  Pd6  1  -0.00000000  0.33332060  0.66665711  1
  Pd  Pd7  1  -0.00000000  0.66666349  0.33334289  1
  Pd  Pd8  1  0.50000000  0.00005658  1.00000000  1
