# generated using pymatgen
data_Li9Mn2Co5O16
_symmetry_space_group_name_H-M   'P 1'
_cell_length_a   2.94912623
_cell_length_b   10.08542688
_cell_length_c   9.83659313
_cell_angle_alpha   93.90303862
_cell_angle_beta   82.07312273
_cell_angle_gamma   90.48879939
_symmetry_Int_Tables_number   1
_chemical_formula_structural   Li9Mn2Co5O16
_chemical_formula_sum   'Li9 Mn2 Co5 O16'
_cell_volume   289.10397304
_cell_formula_units_Z   1
loop_
 _symmetry_equiv_pos_site_id
 _symmetry_equiv_pos_as_xyz
  1  'x, y, z'
loop_
 _atom_site_type_symbol
 _atom_site_label
 _atom_site_symmetry_multiplicity
 _atom_site_fract_x
 _atom_site_fract_y
 _atom_site_fract_z
 _atom_site_occupancy
  Li  Li0  1  0.87060010  0.19576202  0.24293797  1
  Li  Li1  1  0.11493079  0.31173385  0.76240896  1
  Li  Li2  1  0.37730264  0.44129061  0.24691908  1
  Li  Li3  1  0.63593444  0.56098801  0.75257440  1
  Li  Li4  1  0.87645279  0.68515499  0.25545081  1
  Li  Li5  1  0.14433551  0.80890560  0.74568009  1
  Li  Li6  1  0.37955349  0.93149171  0.24578380  1
  Li  Li7  1  0.61030063  0.06636633  0.75421595  1
  Li  Li8  1  0.51147240  0.24763257  0.98997203  1
  Mn  Mn9  1  0.99514993  0.00744141  0.99725017  1
  Mn  Mn10  1  0.24871279  0.12529207  0.49630079  1
  Co  Co11  1  0.74989991  0.38510748  0.49547848  1
  Co  Co12  1  0.00266189  0.48850463  0.00160243  1
  Co  Co13  1  0.24923214  0.63340176  0.50622519  1
  Co  Co14  1  0.49445158  0.74576718  0.00715458  1
  Co  Co15  1  0.75504432  0.86942517  0.50188899  1
  O  O16  1  0.44463955  0.08255769  0.10845089  1
  O  O17  1  0.70140213  0.21281285  0.60285073  1
  O  O18  1  0.94672825  0.36115259  0.11422716  1
  O  O19  1  0.19702320  0.46544581  0.61557295  1
  O  O20  1  0.39977455  0.59251252  0.11446662  1
  O  O21  1  0.69531239  0.71359341  0.62779596  1
  O  O22  1  0.93017107  0.84737747  0.11387522  1
  O  O23  1  0.19914061  0.97776335  0.61069215  1
  O  O24  1  0.30186695  0.27727669  0.38334747  1
  O  O25  1  0.59891065  0.41511895  0.88514072  1
  O  O26  1  0.80548572  0.52781971  0.38390976  1
  O  O27  1  0.05552708  0.65024226  0.89561883  1
  O  O28  1  0.31438090  0.77321189  0.38074928  1
  O  O29  1  0.54138652  0.91035920  0.89361333  1
  O  O30  1  0.79731561  0.04479802  0.38677323  1
  O  O31  1  0.05489947  0.14369221  0.88107197  1
