# generated using pymatgen
data_Nb(SBr)2
_symmetry_space_group_name_H-M   'P 1'
_cell_length_a   6.65786174
_cell_length_b   6.66074834
_cell_length_c   7.71116272
_cell_angle_alpha   90.27671915
_cell_angle_beta   68.15994582
_cell_angle_gamma   61.04907676
_symmetry_Int_Tables_number   1
_chemical_formula_structural   Nb(SBr)2
_chemical_formula_sum   'Nb2 S4 Br4'
_cell_volume   270.45840001
_cell_formula_units_Z   2
loop_
 _symmetry_equiv_pos_site_id
 _symmetry_equiv_pos_as_xyz
  1  'x, y, z'
loop_
 _atom_site_type_symbol
 _atom_site_label
 _atom_site_symmetry_multiplicity
 _atom_site_fract_x
 _atom_site_fract_y
 _atom_site_fract_z
 _atom_site_occupancy
  Nb  Nb0  1  0.87332085  0.87459617  0.00043622  1
  Nb  Nb1  1  0.12667915  0.12540383  0.99956378  1
  S  S2  1  0.80240587  0.23469393  0.87150205  1
  S  S3  1  0.19759413  0.76530607  0.12849795  1
  S  S4  1  0.14112028  0.94214061  0.70589542  1
  S  S5  1  0.85887972  0.05785939  0.29410458  1
  Br  Br6  1  0.76920648  0.57522870  0.22279611  1
  Br  Br7  1  0.23079352  0.42477130  0.77720389  1
  Br  Br8  1  0.64013554  0.83158416  0.77748491  1
  Br  Br9  1  0.35986446  0.16841584  0.22251509  1
