# generated using pymatgen
data_Ti3Sn
_symmetry_space_group_name_H-M   'P 1'
_cell_length_a   4.74372367
_cell_length_b   5.76340277
_cell_length_c   6.00496114
_cell_angle_alpha   118.67800676
_cell_angle_beta   90.00000000
_cell_angle_gamma   90.00000000
_symmetry_Int_Tables_number   1
_chemical_formula_structural   Ti3Sn
_chemical_formula_sum   'Ti6 Sn2'
_cell_volume   144.03623160
_cell_formula_units_Z   2
loop_
 _symmetry_equiv_pos_site_id
 _symmetry_equiv_pos_as_xyz
  1  'x, y, z'
loop_
 _atom_site_type_symbol
 _atom_site_label
 _atom_site_symmetry_multiplicity
 _atom_site_fract_x
 _atom_site_fract_y
 _atom_site_fract_z
 _atom_site_occupancy
  Ti  Ti0  1  0.75000000  0.82231684  0.64463367  1
  Ti  Ti1  1  0.25000000  0.17768316  0.35536633  1
  Ti  Ti2  1  0.75000000  0.83145694  0.14561551  1
  Ti  Ti3  1  0.25000000  0.68584142  0.85438449  1
  Ti  Ti4  1  0.25000000  0.16854306  0.85438449  1
  Ti  Ti5  1  0.75000000  0.31415858  0.14561551  1
  Sn  Sn6  1  0.75000000  0.33224301  0.66448602  1
  Sn  Sn7  1  0.25000000  0.66775699  0.33551398  1
