# generated using pymatgen
data_Y2InCu2
_symmetry_space_group_name_H-M   'P 1'
_cell_length_a   3.67317502
_cell_length_b   7.67991506
_cell_length_c   7.67991506
_cell_angle_alpha   90.00000000
_cell_angle_beta   90.00000000
_cell_angle_gamma   90.00000000
_symmetry_Int_Tables_number   1
_chemical_formula_structural   Y2InCu2
_chemical_formula_sum   'Y4 In2 Cu4'
_cell_volume   216.64788601
_cell_formula_units_Z   2
loop_
 _symmetry_equiv_pos_site_id
 _symmetry_equiv_pos_as_xyz
  1  'x, y, z'
loop_
 _atom_site_type_symbol
 _atom_site_label
 _atom_site_symmetry_multiplicity
 _atom_site_fract_x
 _atom_site_fract_y
 _atom_site_fract_z
 _atom_site_occupancy
  Y  Y0  1  0.50000000  0.17160396  0.67160396  1
  Y  Y1  1  0.50000000  0.82839604  0.32839604  1
  Y  Y2  1  0.50000000  0.32839604  0.17160396  1
  Y  Y3  1  0.50000000  0.67160396  0.82839604  1
  In  In4  1  0.00000000  0.50000000  0.50000000  1
  In  In5  1  0.00000000  0.00000000  -0.00000000  1
  Cu  Cu6  1  -0.00000000  0.62133238  0.12133238  1
  Cu  Cu7  1  -0.00000000  0.37866762  0.87866762  1
  Cu  Cu8  1  0.00000000  0.87866762  0.62133238  1
  Cu  Cu9  1  -0.00000000  0.12133238  0.37866762  1
