# generated using pymatgen
data_EuP3
_symmetry_space_group_name_H-M   'P 1'
_cell_length_a   5.51623835
_cell_length_b   5.77276059
_cell_length_c   5.77276059
_cell_angle_alpha   77.64978308
_cell_angle_beta   72.40621184
_cell_angle_gamma   72.40621184
_symmetry_Int_Tables_number   1
_chemical_formula_structural   EuP3
_chemical_formula_sum   'Eu2 P6'
_cell_volume   165.50647896
_cell_formula_units_Z   2
loop_
 _symmetry_equiv_pos_site_id
 _symmetry_equiv_pos_as_xyz
  1  'x, y, z'
loop_
 _atom_site_type_symbol
 _atom_site_label
 _atom_site_symmetry_multiplicity
 _atom_site_fract_x
 _atom_site_fract_y
 _atom_site_fract_z
 _atom_site_occupancy
  Eu  Eu0  1  0.65560790  0.16424445  0.16424445  1
  Eu  Eu1  1  0.34439210  0.83575555  0.83575555  1
  P  P2  1  0.18587018  0.37647894  0.90137204  1
  P  P3  1  0.18587018  0.90137204  0.37647894  1
  P  P4  1  0.81412982  0.62352106  0.09862796  1
  P  P5  1  0.81412982  0.09862796  0.62352106  1
  P  P6  1  0.20487514  0.50451610  0.50451610  1
  P  P7  1  0.79512486  0.49548390  0.49548390  1
