# generated using pymatgen
data_LiAuF6
_symmetry_space_group_name_H-M   'P 1'
_cell_length_a   5.06147710
_cell_length_b   5.06147710
_cell_length_c   5.47150223
_cell_angle_alpha   62.44946084
_cell_angle_beta   62.44946084
_cell_angle_gamma   60.00000030
_symmetry_Int_Tables_number   1
_chemical_formula_structural   LiAuF6
_chemical_formula_sum   'Li1 Au1 F6'
_cell_volume   102.62896493
_cell_formula_units_Z   1
loop_
 _symmetry_equiv_pos_site_id
 _symmetry_equiv_pos_as_xyz
  1  'x, y, z'
loop_
 _atom_site_type_symbol
 _atom_site_label
 _atom_site_symmetry_multiplicity
 _atom_site_fract_x
 _atom_site_fract_y
 _atom_site_fract_z
 _atom_site_occupancy
  Li  Li0  1  0.50000000  0.50000000  0.50000000  1
  Au  Au1  1  -0.00000000  0.00000000  -0.00000000  1
  F  F2  1  0.90504393  0.61062837  0.24554172  1
  F  F3  1  0.61062837  0.23878598  0.24554172  1
  F  F4  1  0.23878598  0.90504393  0.24554172  1
  F  F5  1  0.09495607  0.38937163  0.75445828  1
  F  F6  1  0.38937163  0.76121402  0.75445828  1
  F  F7  1  0.76121402  0.09495607  0.75445828  1
