# generated using pymatgen
data_Nb2N
_symmetry_space_group_name_H-M   'P 1'
_cell_length_a   5.00463966
_cell_length_b   5.35167091
_cell_length_c   5.34917845
_cell_angle_alpha   119.98460258
_cell_angle_beta   89.99232572
_cell_angle_gamma   90.00383536
_symmetry_Int_Tables_number   1
_chemical_formula_structural   Nb2N
_chemical_formula_sum   'Nb6 N3'
_cell_volume   124.09300162
_cell_formula_units_Z   3
loop_
 _symmetry_equiv_pos_site_id
 _symmetry_equiv_pos_as_xyz
  1  'x, y, z'
loop_
 _atom_site_type_symbol
 _atom_site_label
 _atom_site_symmetry_multiplicity
 _atom_site_fract_x
 _atom_site_fract_y
 _atom_site_fract_z
 _atom_site_occupancy
  Nb  Nb0  1  0.24864768  0.33305993  0.33307724  1
  Nb  Nb1  1  0.24864768  0.66694007  0.00001731  1
  Nb  Nb2  1  0.24869862  0.00000000  0.66705675  1
  Nb  Nb3  1  0.75135232  0.66694007  0.66692276  1
  Nb  Nb4  1  0.75135232  0.33305993  -0.00001731  1
  Nb  Nb5  1  0.75130138  1.00000000  0.33294325  1
  N  N6  1  0.50000000  0.66663217  0.33331609  1
  N  N7  1  0.50000000  0.33336783  0.66668391  1
  N  N8  1  -0.00000000  -0.00000000  0.00000000  1
