# generated using pymatgen
data_CeInRh
_symmetry_space_group_name_H-M   'P 1'
_cell_length_a   4.02648263
_cell_length_b   7.57749891
_cell_length_c   7.57702551
_cell_angle_alpha   120.00207365
_cell_angle_beta   90.00000000
_cell_angle_gamma   90.00000000
_symmetry_Int_Tables_number   1
_chemical_formula_structural   CeInRh
_chemical_formula_sum   'Ce3 In3 Rh3'
_cell_volume   200.20366266
_cell_formula_units_Z   3
loop_
 _symmetry_equiv_pos_site_id
 _symmetry_equiv_pos_as_xyz
  1  'x, y, z'
loop_
 _atom_site_type_symbol
 _atom_site_label
 _atom_site_symmetry_multiplicity
 _atom_site_fract_x
 _atom_site_fract_y
 _atom_site_fract_z
 _atom_site_occupancy
  Ce  Ce0  1  0.50000000  0.58626720  0.00000000  1
  Ce  Ce1  1  0.50000000  0.41374096  0.41378249  1
  Ce  Ce2  1  0.50000000  0.99995848  0.58621751  1
  In  In3  1  -0.00000000  0.24984741  1.00000000  1
  In  In4  1  -0.00000000  0.75015509  0.75012571  1
  In  In5  1  0.00000000  0.00002938  0.24987429  1
  Rh  Rh6  1  -0.00000000  0.33322062  0.66659014  1
  Rh  Rh7  1  0.00000000  0.66663048  0.33340986  1
  Rh  Rh8  1  0.50000000  0.00005038  0.00000000  1
