# generated using pymatgen
data_Li9Mn2Co5O16
_symmetry_space_group_name_H-M   'P 1'
_cell_length_a   2.92731340
_cell_length_b   15.31420741
_cell_length_c   6.61714156
_cell_angle_alpha   92.34165682
_cell_angle_beta   77.22095448
_cell_angle_gamma   90.00000053
_symmetry_Int_Tables_number   1
_chemical_formula_structural   Li9Mn2Co5O16
_chemical_formula_sum   'Li9 Mn2 Co5 O16'
_cell_volume   289.04128305
_cell_formula_units_Z   1
loop_
 _symmetry_equiv_pos_site_id
 _symmetry_equiv_pos_as_xyz
  1  'x, y, z'
loop_
 _atom_site_type_symbol
 _atom_site_label
 _atom_site_symmetry_multiplicity
 _atom_site_fract_x
 _atom_site_fract_y
 _atom_site_fract_z
 _atom_site_occupancy
  Li  Li0  1  0.30777864  0.06243837  0.38444273  1
  Li  Li1  1  0.94222136  0.18756163  0.11555727  1
  Li  Li2  1  0.56426183  0.30866976  0.87147634  1
  Li  Li3  1  0.68573817  0.94133024  0.62852366  1
  Li  Li4  1  0.06404541  0.81146587  0.87190919  1
  Li  Li5  1  0.43744086  0.68727077  0.12511829  1
  Li  Li6  1  0.18595459  0.43853413  0.62809081  1
  Li  Li7  1  0.81255914  0.56272923  0.37488171  1
  Li  Li8  1  0.62500000  0.12500000  0.75000000  1
  Mn  Mn9  1  0.00609321  0.00312681  0.98781358  1
  Mn  Mn10  1  0.24390679  0.24687319  0.51218642  1
  Co  Co11  1  0.87472931  0.37427121  0.25054137  1
  Co  Co12  1  0.49917326  0.49990895  0.00165347  1
  Co  Co13  1  0.12500000  0.62500000  0.75000000  1
  Co  Co14  1  0.75082674  0.75009105  0.49834653  1
  Co  Co15  1  0.37527069  0.87572879  0.24945863  1
  O  O16  1  0.47087720  0.08274778  0.05824561  1
  O  O17  1  0.10667094  0.22318161  0.78665812  1
  O  O18  1  0.72412833  0.33424328  0.55174335  1
  O  O19  1  0.85466878  0.96440518  0.29066244  1
  O  O20  1  0.22473724  0.83717942  0.55052553  1
  O  O21  1  0.59797065  0.71292058  0.80405871  1
  O  O22  1  0.34709841  0.46225130  0.30580318  1
  O  O23  1  0.97275803  0.58827474  0.05448395  1
  O  O24  1  0.14332906  0.02681839  0.71334188  1
  O  O25  1  0.77912280  0.16725222  0.44175439  1
  O  O26  1  0.39533122  0.28559482  0.20933756  1
  O  O27  1  0.52587167  0.91575672  0.94825665  1
  O  O28  1  0.90290159  0.78774870  0.19419682  1
  O  O29  1  0.27724197  0.66172526  0.44551605  1
  O  O30  1  0.02526276  0.41282058  0.94947447  1
  O  O31  1  0.65202935  0.53707942  0.69594129  1
