# generated using pymatgen
data_CdPSe3
_symmetry_space_group_name_H-M   'P 1'
_cell_length_a   6.62751517
_cell_length_b   6.62751517
_cell_length_c   8.08480807
_cell_angle_alpha   65.80303852
_cell_angle_beta   65.80303849
_cell_angle_gamma   60.00001020
_symmetry_Int_Tables_number   1
_chemical_formula_structural   CdPSe3
_chemical_formula_sum   'Cd2 P2 Se6'
_cell_volume   270.91542706
_cell_formula_units_Z   2
loop_
 _symmetry_equiv_pos_site_id
 _symmetry_equiv_pos_as_xyz
  1  'x, y, z'
loop_
 _atom_site_type_symbol
 _atom_site_label
 _atom_site_symmetry_multiplicity
 _atom_site_fract_x
 _atom_site_fract_y
 _atom_site_fract_z
 _atom_site_occupancy
  Cd  Cd0  1  0.16859084  0.16859084  0.49422747  1
  Cd  Cd1  1  0.83140916  0.83140916  0.50577253  1
  P  P2  1  0.44647746  0.44647746  0.66056763  1
  P  P3  1  0.55352254  0.55352254  0.33943237  1
  Se  Se4  1  0.73839660  0.09858212  0.75229278  1
  Se  Se5  1  0.09858212  0.41072851  0.75229278  1
  Se  Se6  1  0.41072851  0.73839660  0.75229278  1
  Se  Se7  1  0.26160340  0.90141788  0.24770722  1
  Se  Se8  1  0.90141788  0.58927149  0.24770722  1
  Se  Se9  1  0.58927149  0.26160340  0.24770722  1
