# generated using pymatgen
data_U2InIr2
_symmetry_space_group_name_H-M   'P 1'
_cell_length_a   3.50826555
_cell_length_b   7.72493889
_cell_length_c   7.72493889
_cell_angle_alpha   90.00000000
_cell_angle_beta   90.00000000
_cell_angle_gamma   90.00000000
_symmetry_Int_Tables_number   1
_chemical_formula_structural   U2InIr2
_chemical_formula_sum   'U4 In2 Ir4'
_cell_volume   209.35462705
_cell_formula_units_Z   2
loop_
 _symmetry_equiv_pos_site_id
 _symmetry_equiv_pos_as_xyz
  1  'x, y, z'
loop_
 _atom_site_type_symbol
 _atom_site_label
 _atom_site_symmetry_multiplicity
 _atom_site_fract_x
 _atom_site_fract_y
 _atom_site_fract_z
 _atom_site_occupancy
  U  U0  1  0.50000000  0.16641816  0.66641816  1
  U  U1  1  0.50000000  0.83358184  0.33358184  1
  U  U2  1  0.50000000  0.33358184  0.16641816  1
  U  U3  1  0.50000000  0.66641816  0.83358184  1
  In  In4  1  -0.00000000  0.50000000  0.50000000  1
  In  In5  1  -0.00000000  -0.00000000  -0.00000000  1
  Ir  Ir6  1  0.00000000  0.63598453  0.13598453  1
  Ir  Ir7  1  -0.00000000  0.36401547  0.86401547  1
  Ir  Ir8  1  -0.00000000  0.86401547  0.63598453  1
  Ir  Ir9  1  0.00000000  0.13598453  0.36401547  1
