# generated using pymatgen
data_Nb2GaC
_symmetry_space_group_name_H-M   'P 1'
_cell_length_a   3.16230632
_cell_length_b   3.16230632
_cell_length_c   13.62014013
_cell_angle_alpha   90.00000000
_cell_angle_beta   90.00000000
_cell_angle_gamma   119.99863470
_symmetry_Int_Tables_number   1
_chemical_formula_structural   Nb2GaC
_chemical_formula_sum   'Nb4 Ga2 C2'
_cell_volume   117.95763447
_cell_formula_units_Z   2
loop_
 _symmetry_equiv_pos_site_id
 _symmetry_equiv_pos_as_xyz
  1  'x, y, z'
loop_
 _atom_site_type_symbol
 _atom_site_label
 _atom_site_symmetry_multiplicity
 _atom_site_fract_x
 _atom_site_fract_y
 _atom_site_fract_z
 _atom_site_occupancy
  Nb  Nb0  1  0.66667077  0.33332923  0.58942290  1
  Nb  Nb1  1  0.33332923  0.66667077  0.41057710  1
  Nb  Nb2  1  0.33332923  0.66667077  0.08942290  1
  Nb  Nb3  1  0.66667077  0.33332923  0.91057710  1
  Ga  Ga4  1  0.66668644  0.33331356  0.25000000  1
  Ga  Ga5  1  0.33331356  0.66668644  0.75000000  1
  C  C6  1  0.00000000  0.00000000  0.50000000  1
  C  C7  1  0.00000000  0.00000000  -0.00000000  1
