# generated using pymatgen
data_TbGa2Ni
_symmetry_space_group_name_H-M   'P 1'
_cell_length_a   4.09993190
_cell_length_b   5.46715667
_cell_length_c   6.65119187
_cell_angle_alpha   90.00000000
_cell_angle_beta   90.00000000
_cell_angle_gamma   112.02185061
_symmetry_Int_Tables_number   1
_chemical_formula_structural   TbGa2Ni
_chemical_formula_sum   'Tb2 Ga4 Ni2'
_cell_volume   138.20907045
_cell_formula_units_Z   2
loop_
 _symmetry_equiv_pos_site_id
 _symmetry_equiv_pos_as_xyz
  1  'x, y, z'
loop_
 _atom_site_type_symbol
 _atom_site_label
 _atom_site_symmetry_multiplicity
 _atom_site_fract_x
 _atom_site_fract_y
 _atom_site_fract_z
 _atom_site_occupancy
  Tb  Tb0  1  0.42780348  0.85560696  0.25000000  1
  Tb  Tb1  1  0.57219652  0.14439304  0.75000000  1
  Ga  Ga2  1  0.14462769  0.28925537  0.44443851  1
  Ga  Ga3  1  0.85537231  0.71074463  0.55556149  1
  Ga  Ga4  1  0.14462769  0.28925537  0.05556149  1
  Ga  Ga5  1  0.85537231  0.71074463  0.94443851  1
  Ni  Ni6  1  0.70928499  0.41856998  0.25000000  1
  Ni  Ni7  1  0.29071501  0.58143002  0.75000000  1
