# generated using pymatgen
data_ThGaNi
_symmetry_space_group_name_H-M   'P 1'
_cell_length_a   4.03301570
_cell_length_b   7.04097932
_cell_length_c   7.04083404
_cell_angle_alpha   120.00067834
_cell_angle_beta   90.00000000
_cell_angle_gamma   90.00000000
_symmetry_Int_Tables_number   1
_chemical_formula_structural   ThGaNi
_chemical_formula_sum   'Th3 Ga3 Ni3'
_cell_volume   173.14691268
_cell_formula_units_Z   3
loop_
 _symmetry_equiv_pos_site_id
 _symmetry_equiv_pos_as_xyz
  1  'x, y, z'
loop_
 _atom_site_type_symbol
 _atom_site_label
 _atom_site_symmetry_multiplicity
 _atom_site_fract_x
 _atom_site_fract_y
 _atom_site_fract_z
 _atom_site_occupancy
  Th  Th0  1  0.50000000  0.58197542  1.00000000  1
  Th  Th1  1  0.50000000  0.41796433  0.41797151  1
  Th  Th2  1  0.50000000  -0.00000718  0.58202849  1
  Ga  Ga3  1  0.00000000  0.23665096  0.00000000  1
  Ga  Ga4  1  -0.00000000  0.76334577  0.76335272  1
  Ga  Ga5  1  -0.00000000  -0.00000695  0.23664728  1
  Ni  Ni6  1  -0.00000000  0.33332239  0.66669481  1
  Ni  Ni7  1  -0.00000000  0.66662758  0.33330519  1
  Ni  Ni8  1  0.50000000  0.00002769  0.00000000  1
