# generated using pymatgen
data_Cs2S3
_symmetry_space_group_name_H-M   'P 1'
_cell_length_a   6.79220672
_cell_length_b   6.79220672
_cell_length_c   8.45192187
_cell_angle_alpha   90.00000000
_cell_angle_beta   90.00000000
_cell_angle_gamma   108.82426501
_symmetry_Int_Tables_number   1
_chemical_formula_structural   Cs2S3
_chemical_formula_sum   'Cs4 S6'
_cell_volume   369.06571930
_cell_formula_units_Z   2
loop_
 _symmetry_equiv_pos_site_id
 _symmetry_equiv_pos_as_xyz
  1  'x, y, z'
loop_
 _atom_site_type_symbol
 _atom_site_label
 _atom_site_symmetry_multiplicity
 _atom_site_fract_x
 _atom_site_fract_y
 _atom_site_fract_z
 _atom_site_occupancy
  Cs  Cs0  1  0.10300363  0.89699637  0.53058519  1
  Cs  Cs1  1  0.89699637  0.10300363  0.03058519  1
  Cs  Cs2  1  0.57116645  0.42883355  0.81146039  1
  Cs  Cs3  1  0.42883355  0.57116645  0.31146039  1
  S  S4  1  0.62040426  0.95038024  0.64424615  1
  S  S5  1  0.04961976  0.37959574  0.64424615  1
  S  S6  1  0.37959574  0.04961976  0.14424615  1
  S  S7  1  0.95038024  0.62040426  0.14424615  1
  S  S8  1  0.79245410  0.20754590  0.50996213  1
  S  S9  1  0.20754590  0.79245410  0.00996213  1
