# generated using pymatgen
data_LiLaSn2
_symmetry_space_group_name_H-M   'P 1'
_cell_length_a   4.61708310
_cell_length_b   4.57392911
_cell_length_c   9.90514571
_cell_angle_alpha   90.00000000
_cell_angle_beta   103.47758121
_cell_angle_gamma   90.00000000
_symmetry_Int_Tables_number   1
_chemical_formula_structural   LiLaSn2
_chemical_formula_sum   'Li2 La2 Sn4'
_cell_volume   203.41841525
_cell_formula_units_Z   2
loop_
 _symmetry_equiv_pos_site_id
 _symmetry_equiv_pos_as_xyz
  1  'x, y, z'
loop_
 _atom_site_type_symbol
 _atom_site_label
 _atom_site_symmetry_multiplicity
 _atom_site_fract_x
 _atom_site_fract_y
 _atom_site_fract_z
 _atom_site_occupancy
  Li  Li0  1  0.67683790  0.75000000  0.35367580  1
  Li  Li1  1  0.32316210  0.25000000  0.64632420  1
  La  La2  1  0.89456850  0.75000000  0.78913700  1
  La  La3  1  0.10543150  0.25000000  0.21086300  1
  Sn  Sn4  1  0.54405615  0.75000000  0.08811231  1
  Sn  Sn5  1  0.45594385  0.25000000  0.91188769  1
  Sn  Sn6  1  0.24859146  0.75000000  0.49718292  1
  Sn  Sn7  1  0.75140854  0.25000000  0.50281708  1
