# generated using pymatgen
data_Dy2NiSn6
_symmetry_space_group_name_H-M   'P 1'
_cell_length_a   4.40171056
_cell_length_b   4.45149430
_cell_length_c   11.42810866
_cell_angle_alpha   90.00000000
_cell_angle_beta   101.10354235
_cell_angle_gamma   90.00000000
_symmetry_Int_Tables_number   1
_chemical_formula_structural   Dy2NiSn6
_chemical_formula_sum   'Dy2 Ni1 Sn6'
_cell_volume   219.73282918
_cell_formula_units_Z   1
loop_
 _symmetry_equiv_pos_site_id
 _symmetry_equiv_pos_as_xyz
  1  'x, y, z'
loop_
 _atom_site_type_symbol
 _atom_site_label
 _atom_site_symmetry_multiplicity
 _atom_site_fract_x
 _atom_site_fract_y
 _atom_site_fract_z
 _atom_site_occupancy
  Dy  Dy0  1  0.32214413  0.50000000  0.64428826  1
  Dy  Dy1  1  0.67785587  0.50000000  0.35571174  1
  Ni  Ni2  1  -0.00000000  -0.00000000  -0.00000000  1
  Sn  Sn3  1  0.06949729  0.50000000  0.13899458  1
  Sn  Sn4  1  0.93050271  0.50000000  0.86100542  1
  Sn  Sn5  1  0.20476161  0.00000000  0.40952321  1
  Sn  Sn6  1  0.79523839  -0.00000000  0.59047679  1
  Sn  Sn7  1  0.42980501  -0.00000000  0.85961001  1
  Sn  Sn8  1  0.57019499  -0.00000000  0.14038999  1
