# generated using pymatgen
data_ScGeRh
_symmetry_space_group_name_H-M   'P 1'
_cell_length_a   3.83341194
_cell_length_b   6.73424936
_cell_length_c   6.73547977
_cell_angle_alpha   119.99395185
_cell_angle_beta   90.00000000
_cell_angle_gamma   90.00000000
_symmetry_Int_Tables_number   1
_chemical_formula_structural   ScGeRh
_chemical_formula_sum   'Sc3 Ge3 Rh3'
_cell_volume   150.59145096
_cell_formula_units_Z   3
loop_
 _symmetry_equiv_pos_site_id
 _symmetry_equiv_pos_as_xyz
  1  'x, y, z'
loop_
 _atom_site_type_symbol
 _atom_site_label
 _atom_site_symmetry_multiplicity
 _atom_site_fract_x
 _atom_site_fract_y
 _atom_site_fract_z
 _atom_site_occupancy
  Sc  Sc0  1  0.50000000  0.58242843  1.00000000  1
  Sc  Sc1  1  0.50000000  0.41773882  0.41779969  1
  Sc  Sc2  1  0.50000000  0.99993913  0.58220031  1
  Ge  Ge3  1  -0.00000000  0.33319578  0.66662777  1
  Ge  Ge4  1  -0.00000000  0.66656801  0.33337223  1
  Ge  Ge5  1  0.50000000  0.00015592  0.00000000  1
  Rh  Rh6  1  0.00000000  0.24565205  1.00000000  1
  Rh  Rh7  1  -0.00000000  0.75431487  0.75440789  1
  Rh  Rh8  1  -0.00000000  0.99990698  0.24559211  1
