# generated using pymatgen
data_Ba3(ZnAs2)2
_symmetry_space_group_name_H-M   'P 1'
_cell_length_a   4.54133019
_cell_length_b   7.31797609
_cell_length_c   8.83586394
_cell_angle_alpha   112.28541632
_cell_angle_beta   104.89111053
_cell_angle_gamma   90.00000000
_symmetry_Int_Tables_number   1
_chemical_formula_structural   Ba3(ZnAs2)2
_chemical_formula_sum   'Ba3 Zn2 As4'
_cell_volume   261.02269698
_cell_formula_units_Z   1
loop_
 _symmetry_equiv_pos_site_id
 _symmetry_equiv_pos_as_xyz
  1  'x, y, z'
loop_
 _atom_site_type_symbol
 _atom_site_label
 _atom_site_symmetry_multiplicity
 _atom_site_fract_x
 _atom_site_fract_y
 _atom_site_fract_z
 _atom_site_occupancy
  Ba  Ba0  1  0.85659665  0.41685657  0.71319331  1
  Ba  Ba1  1  0.14340335  0.58314343  0.28680669  1
  Ba  Ba2  1  0.00000000  -0.00000000  0.00000000  1
  Zn  Zn3  1  0.67174316  0.96281416  0.34348633  1
  Zn  Zn4  1  0.32825684  0.03718584  0.65651367  1
  As  As5  1  0.79354606  0.83391997  0.58709213  1
  As  As6  1  0.20645394  0.16608003  0.41290787  1
  As  As7  1  0.51134164  0.68058683  0.02268329  1
  As  As8  1  0.48865836  0.31941317  0.97731671  1
