# generated using pymatgen
data_Li9Mn2Co5O16
_symmetry_space_group_name_H-M   'P 1'
_cell_length_a   5.05897044
_cell_length_b   5.11135519
_cell_length_c   11.80329142
_cell_angle_alpha   88.26266893
_cell_angle_beta   86.92829679
_cell_angle_gamma   108.65643609
_symmetry_Int_Tables_number   1
_chemical_formula_structural   Li9Mn2Co5O16
_chemical_formula_sum   'Li9 Mn2 Co5 O16'
_cell_volume   288.39507317
_cell_formula_units_Z   1
loop_
 _symmetry_equiv_pos_site_id
 _symmetry_equiv_pos_as_xyz
  1  'x, y, z'
loop_
 _atom_site_type_symbol
 _atom_site_label
 _atom_site_symmetry_multiplicity
 _atom_site_fract_x
 _atom_site_fract_y
 _atom_site_fract_z
 _atom_site_occupancy
  Li  Li0  1  0.00267663  0.49922094  0.13035034  1
  Li  Li1  1  0.50102078  0.49707353  0.25785890  1
  Li  Li2  1  0.00551105  0.51032452  0.38381567  1
  Li  Li3  1  0.49955239  0.50424005  0.49665953  1
  Li  Li4  1  0.99603465  0.49779592  0.62294771  1
  Li  Li5  1  0.49674662  0.49885688  0.74811525  1
  Li  Li6  1  0.99039060  0.49193055  0.86505051  1
  Li  Li7  1  0.50708097  0.50305124  0.99839722  1
  Li  Li8  1  0.50130828  0.99405751  0.37617873  1
  Mn  Mn9  1  0.00156559  0.00250764  0.99899543  1
  Mn  Mn10  1  0.50520468  0.00318835  0.13025881  1
  Co  Co11  1  0.99621640  0.99140231  0.25387412  1
  Co  Co12  1  0.00514307  0.00006714  0.49324216  1
  Co  Co13  1  0.49331955  0.99792751  0.61947730  1
  Co  Co14  1  0.99954885  0.00088648  0.74378767  1
  Co  Co15  1  0.49922006  0.99856348  0.87142489  1
  O  O16  1  0.75440531  0.23486285  0.00565908  1
  O  O17  1  0.25977272  0.22717836  0.13664908  1
  O  O18  1  0.74228729  0.20654736  0.24032373  1
  O  O19  1  0.22727791  0.24064340  0.38822645  1
  O  O20  1  0.75161812  0.22179529  0.50672822  1
  O  O21  1  0.24503430  0.24090928  0.63067236  1
  O  O22  1  0.73395996  0.22931294  0.75410871  1
  O  O23  1  0.25056165  0.22546616  0.87699076  1
  O  O24  1  0.24674158  0.77102968  0.24397696  1
  O  O25  1  0.76693374  0.75837294  0.36962588  1
  O  O26  1  0.23619226  0.77823657  0.50528002  1
  O  O27  1  0.76618148  0.77623718  0.61630707  1
  O  O28  1  0.25794068  0.76553808  0.74758410  1
  O  O29  1  0.74585624  0.77269488  0.86560275  1
  O  O30  1  0.27364618  0.79163052  0.00496290  1
  O  O31  1  0.74105040  0.76845046  0.11686470  1
