# generated using pymatgen
data_Li9Mn2Co5O16
_symmetry_space_group_name_H-M   'P 1'
_cell_length_a   2.92747865
_cell_length_b   9.79257631
_cell_length_c   10.66570729
_cell_angle_alpha   72.62232241
_cell_angle_beta   82.11194340
_cell_angle_gamma   89.99999481
_symmetry_Int_Tables_number   1
_chemical_formula_structural   Li9Mn2Co5O16
_chemical_formula_sum   'Li9 Mn2 Co5 O16'
_cell_volume   288.77106338
_cell_formula_units_Z   1
loop_
 _symmetry_equiv_pos_site_id
 _symmetry_equiv_pos_as_xyz
  1  'x, y, z'
loop_
 _atom_site_type_symbol
 _atom_site_label
 _atom_site_symmetry_multiplicity
 _atom_site_fract_x
 _atom_site_fract_y
 _atom_site_fract_z
 _atom_site_occupancy
  Li  Li0  1  0.43602465  0.18092541  0.12795071  1
  Li  Li1  1  0.31397535  0.56907459  0.37204929  1
  Li  Li2  1  0.18897350  0.93754871  0.62205301  1
  Li  Li3  1  0.81609256  0.06055447  0.36781488  1
  Li  Li4  1  0.68803526  0.43524317  0.62392948  1
  Li  Li5  1  0.56102650  0.81245129  0.87794699  1
  Li  Li6  1  0.06196474  0.31475683  0.87607052  1
  Li  Li7  1  0.93390744  0.68944553  0.13218512  1
  Li  Li8  1  0.37500000  0.87500000  0.25000000  1
  Mn  Mn9  1  0.99525620  -0.00180607  0.00948761  1
  Mn  Mn10  1  0.75474380  0.75180607  0.49051239  1
  Co  Co11  1  0.87500000  0.37500000  0.25000000  1
  Co  Co12  1  0.62453837  0.12374377  0.75092326  1
  Co  Co13  1  0.50014186  0.50171539  -0.00028372  1
  Co  Co14  1  0.24985814  0.24828461  0.50028372  1
  Co  Co15  1  0.12546163  0.62625623  0.74907674  1
  O  O16  1  0.52933619  0.13920774  0.94132763  1
  O  O17  1  0.40538880  0.52165263  0.18922241  1
  O  O18  1  0.27712506  0.88898626  0.44574987  1
  O  O19  1  0.91516612  0.03112343  0.16966776  1
  O  O20  1  0.77985468  0.39166860  0.44029064  1
  O  O21  1  0.65942415  0.76953805  0.68115170  1
  O  O22  1  0.15487782  0.26998586  0.69024435  1
  O  O23  1  0.03184604  0.64838773  0.93630792  1
  O  O24  1  0.34461120  0.22834737  0.31077759  1
  O  O25  1  0.22066381  0.61079226  0.55867237  1
  O  O26  1  0.09057585  0.98046195  0.81884830  1
  O  O27  1  0.71815396  0.10161227  0.56369208  1
  O  O28  1  0.59512218  0.48001414  0.80975565  1
  O  O29  1  0.47287494  0.86101374  0.05425013  1
  O  O30  1  0.97014532  0.35833140  0.05970936  1
  O  O31  1  0.83483388  0.71887657  0.33033224  1
