# generated using pymatgen
data_Ba2CdAs2
_symmetry_space_group_name_H-M   'P 1'
_cell_length_a   4.65617013
_cell_length_b   8.17218833
_cell_length_c   9.13142863
_cell_angle_alpha   90.00000000
_cell_angle_beta   104.77079985
_cell_angle_gamma   90.00000000
_symmetry_Int_Tables_number   1
_chemical_formula_structural   Ba2CdAs2
_chemical_formula_sum   'Ba4 Cd2 As4'
_cell_volume   335.97851208
_cell_formula_units_Z   2
loop_
 _symmetry_equiv_pos_site_id
 _symmetry_equiv_pos_as_xyz
  1  'x, y, z'
loop_
 _atom_site_type_symbol
 _atom_site_label
 _atom_site_symmetry_multiplicity
 _atom_site_fract_x
 _atom_site_fract_y
 _atom_site_fract_z
 _atom_site_occupancy
  Ba  Ba0  1  0.29569596  0.89194567  0.59139193  1
  Ba  Ba1  1  0.70430404  0.39194567  0.40860807  1
  Ba  Ba2  1  0.46228389  0.23115160  0.92456778  1
  Ba  Ba3  1  0.53771611  0.73115160  0.07543222  1
  Cd  Cd4  1  0.09424489  0.08079498  0.18848979  1
  Cd  Cd5  1  0.90575511  0.58079498  0.81151021  1
  As  As6  1  0.06033414  0.42956812  0.12066829  1
  As  As7  1  0.93966586  0.92956812  0.87933171  1
  As  As8  1  0.32840300  0.50055964  0.65680599  1
  As  As9  1  0.67159700  0.00055964  0.34319401  1
