# generated using pymatgen
data_TaMnGe
_symmetry_space_group_name_H-M   'P 1'
_cell_length_a   3.61595817
_cell_length_b   6.53924378
_cell_length_c   6.55641912
_cell_angle_alpha   119.91338084
_cell_angle_beta   90.00000000
_cell_angle_gamma   90.00000000
_symmetry_Int_Tables_number   1
_chemical_formula_structural   TaMnGe
_chemical_formula_sum   'Ta3 Mn3 Ge3'
_cell_volume   134.37753506
_cell_formula_units_Z   3
loop_
 _symmetry_equiv_pos_site_id
 _symmetry_equiv_pos_as_xyz
  1  'x, y, z'
loop_
 _atom_site_type_symbol
 _atom_site_label
 _atom_site_symmetry_multiplicity
 _atom_site_fract_x
 _atom_site_fract_y
 _atom_site_fract_z
 _atom_site_occupancy
  Ta  Ta0  1  0.50000000  0.58472155  0.00000000  1
  Ta  Ta1  1  0.50000000  0.41564151  0.41619697  1
  Ta  Ta2  1  0.50000000  0.99944454  0.58380303  1
  Mn  Mn3  1  -0.00000000  0.25012000  1.00000000  1
  Mn  Mn4  1  -0.00000000  0.74854893  0.74668671  1
  Mn  Mn5  1  -0.00000000  0.00186222  0.25331329  1
  Ge  Ge6  1  0.00000000  0.33361912  0.66750067  1
  Ge  Ge7  1  0.00000000  0.66611845  0.33249933  1
  Ge  Ge8  1  0.50000000  -0.00017632  1.00000000  1
