# generated using pymatgen
data_Tm2CoGe2
_symmetry_space_group_name_H-M   'P 1'
_cell_length_a   4.19425177
_cell_length_b   5.52302539
_cell_length_c   9.08804096
_cell_angle_alpha   82.19938276
_cell_angle_beta   76.65837707
_cell_angle_gamma   67.68452718
_symmetry_Int_Tables_number   1
_chemical_formula_structural   Tm2CoGe2
_chemical_formula_sum   'Tm4 Co2 Ge4'
_cell_volume   189.23032980
_cell_formula_units_Z   2
loop_
 _symmetry_equiv_pos_site_id
 _symmetry_equiv_pos_as_xyz
  1  'x, y, z'
loop_
 _atom_site_type_symbol
 _atom_site_label
 _atom_site_symmetry_multiplicity
 _atom_site_fract_x
 _atom_site_fract_y
 _atom_site_fract_z
 _atom_site_occupancy
  Tm  Tm0  1  0.18417760  0.74251776  0.88912704  1
  Tm  Tm1  1  0.81582240  0.25748224  0.11087296  1
  Tm  Tm2  1  0.00567583  0.32190477  0.66674357  1
  Tm  Tm3  1  0.99432417  0.67809523  0.33325643  1
  Co  Co4  1  0.27098362  0.10541354  0.35261922  1
  Co  Co5  1  0.72901638  0.89458646  0.64738078  1
  Ge  Ge6  1  0.48502176  0.15460358  0.87535289  1
  Ge  Ge7  1  0.51497824  0.84539642  0.12464711  1
  Ge  Ge8  1  0.34533132  0.74365578  0.56568158  1
  Ge  Ge9  1  0.65466868  0.25634422  0.43431842  1
