# generated using pymatgen
data_ZrAu3
_symmetry_space_group_name_H-M   'P 1'
_cell_length_a   4.89201323
_cell_length_b   4.97510577
_cell_length_c   6.19805592
_cell_angle_alpha   90.00000000
_cell_angle_beta   90.00000000
_cell_angle_gamma   90.00000000
_symmetry_Int_Tables_number   1
_chemical_formula_structural   ZrAu3
_chemical_formula_sum   'Zr2 Au6'
_cell_volume   150.85004056
_cell_formula_units_Z   2
loop_
 _symmetry_equiv_pos_site_id
 _symmetry_equiv_pos_as_xyz
  1  'x, y, z'
loop_
 _atom_site_type_symbol
 _atom_site_label
 _atom_site_symmetry_multiplicity
 _atom_site_fract_x
 _atom_site_fract_y
 _atom_site_fract_z
 _atom_site_occupancy
  Zr  Zr0  1  0.75000000  0.33893628  0.75000000  1
  Zr  Zr1  1  0.25000000  0.66106372  0.25000000  1
  Au  Au2  1  0.75000000  0.83563208  0.00334327  1
  Au  Au3  1  0.75000000  0.83563208  0.49665673  1
  Au  Au4  1  0.25000000  0.16436792  0.99665673  1
  Au  Au5  1  0.25000000  0.16436792  0.50334327  1
  Au  Au6  1  0.25000000  0.65899642  0.75000000  1
  Au  Au7  1  0.75000000  0.34100358  0.25000000  1
