# generated using pymatgen
data_Dy6CoTe2
_symmetry_space_group_name_H-M   'P 1'
_cell_length_a   3.89122396
_cell_length_b   8.35147575
_cell_length_c   8.35035223
_cell_angle_alpha   120.00444823
_cell_angle_beta   90.00000000
_cell_angle_gamma   90.00000000
_symmetry_Int_Tables_number   1
_chemical_formula_structural   Dy6CoTe2
_chemical_formula_sum   'Dy6 Co1 Te2'
_cell_volume   234.99867311
_cell_formula_units_Z   1
loop_
 _symmetry_equiv_pos_site_id
 _symmetry_equiv_pos_as_xyz
  1  'x, y, z'
loop_
 _atom_site_type_symbol
 _atom_site_label
 _atom_site_symmetry_multiplicity
 _atom_site_fract_x
 _atom_site_fract_y
 _atom_site_fract_z
 _atom_site_occupancy
  Dy  Dy0  1  0.50000000  0.59820897  1.00000000  1
  Dy  Dy1  1  0.50000000  0.40182760  0.40183223  1
  Dy  Dy2  1  0.50000000  0.99999537  0.59816777  1
  Dy  Dy3  1  -0.00000000  0.23609481  0.00000000  1
  Dy  Dy4  1  -0.00000000  0.76383632  0.76389735  1
  Dy  Dy5  1  -0.00000000  0.99993897  0.23610265  1
  Co  Co6  1  0.50000000  0.00003521  1.00000000  1
  Te  Te7  1  -0.00000000  0.33333887  0.66671499  1
  Te  Te8  1  -0.00000000  0.66662388  0.33328501  1
