# generated using pymatgen
data_Cs2Pu(Cl2O)2
_symmetry_space_group_name_H-M   'P 1'
_cell_length_a   6.22529101
_cell_length_b   7.39526145
_cell_length_c   7.39526145
_cell_angle_alpha   61.60283391
_cell_angle_beta   91.99307329
_cell_angle_gamma   91.99307329
_symmetry_Int_Tables_number   1
_chemical_formula_structural   Cs2Pu(Cl2O)2
_chemical_formula_sum   'Cs2 Pu1 Cl4 O2'
_cell_volume   299.24799476
_cell_formula_units_Z   1
loop_
 _symmetry_equiv_pos_site_id
 _symmetry_equiv_pos_as_xyz
  1  'x, y, z'
loop_
 _atom_site_type_symbol
 _atom_site_label
 _atom_site_symmetry_multiplicity
 _atom_site_fract_x
 _atom_site_fract_y
 _atom_site_fract_z
 _atom_site_occupancy
  Cs  Cs0  1  0.27565723  0.34232294  0.34232294  1
  Cs  Cs1  1  0.72434277  0.65767706  0.65767706  1
  Pu  Pu2  1  0.00000000  0.00000000  -0.00000000  1
  Cl  Cl3  1  0.78478121  0.64180742  0.14450330  1
  Cl  Cl4  1  0.78478121  0.14450330  0.64180742  1
  Cl  Cl5  1  0.21521879  0.35819258  0.85549670  1
  Cl  Cl6  1  0.21521879  0.85549670  0.35819258  1
  O  O7  1  0.80816518  0.09970987  0.09970987  1
  O  O8  1  0.19183482  0.90029013  0.90029013  1
