# generated using pymatgen
data_Li9Mn2Co5O16
_symmetry_space_group_name_H-M   'P 1'
_cell_length_a   5.78226374
_cell_length_b   5.87474811
_cell_length_c   9.00495533
_cell_angle_alpha   89.86271124
_cell_angle_beta   71.27294877
_cell_angle_gamma   90.00000253
_symmetry_Int_Tables_number   1
_chemical_formula_structural   Li9Mn2Co5O16
_chemical_formula_sum   'Li9 Mn2 Co5 O16'
_cell_volume   289.69717747
_cell_formula_units_Z   1
loop_
 _symmetry_equiv_pos_site_id
 _symmetry_equiv_pos_as_xyz
  1  'x, y, z'
loop_
 _atom_site_type_symbol
 _atom_site_label
 _atom_site_symmetry_multiplicity
 _atom_site_fract_x
 _atom_site_fract_y
 _atom_site_fract_z
 _atom_site_occupancy
  Li  Li0  1  0.61642951  0.25326975  0.26090236  1
  Li  Li1  1  0.37733187  0.74673025  0.73909764  1
  Li  Li2  1  0.25000000  -0.00000000  0.50000000  1
  Li  Li3  1  0.00183529  0.49931627  0.99632941  1
  Li  Li4  1  0.88357049  0.74673025  0.73909764  1
  Li  Li5  1  0.49816471  0.50068373  0.00367059  1
  Li  Li6  1  0.12266813  0.25326975  0.26090236  1
  Li  Li7  1  0.75000000  -0.00000000  0.50000000  1
  Li  Li8  1  0.25000000  0.50000000  0.50000000  1
  Mn  Mn9  1  0.00177499  0.99854173  0.99645001  1
  Mn  Mn10  1  0.49822501  0.00145827  0.00354999  1
  Co  Co11  1  0.75000000  0.50000000  0.50000000  1
  Co  Co12  1  0.61484755  0.74422729  0.26336886  1
  Co  Co13  1  0.37821641  0.25577271  0.73663114  1
  Co  Co14  1  0.12178359  0.74422729  0.26336886  1
  Co  Co15  1  0.88515245  0.25577271  0.73663114  1
  O  O16  1  0.74963343  0.22658902  0.00206242  1
  O  O17  1  0.52161286  0.73233378  0.49301907  1
  O  O18  1  0.37665771  0.99310704  0.24668458  1
  O  O19  1  0.12139056  0.47533537  0.75721888  1
  O  O20  1  0.98536807  0.73233378  0.49301907  1
  O  O21  1  0.63680926  0.49773182  0.72638149  1
  O  O22  1  0.24830415  0.22658902  0.00206242  1
  O  O23  1  0.88018640  0.97138928  0.23962719  1
  O  O24  1  0.51463193  0.26766622  0.50698093  1
  O  O25  1  0.25169585  0.77341098  0.99793758  1
  O  O26  1  0.12334229  0.00689296  0.75331542  1
  O  O27  1  0.86319074  0.50226818  0.27361851  1
  O  O28  1  0.75036657  0.77341098  0.99793758  1
  O  O29  1  0.37860944  0.52466463  0.24278112  1
  O  O30  1  0.97838714  0.26766622  0.50698093  1
  O  O31  1  0.61981360  0.02861072  0.76037281  1
