# generated using pymatgen
data_Hf4CuSi4
_symmetry_space_group_name_H-M   'P 1'
_cell_length_a   3.75433900
_cell_length_b   5.21591778
_cell_length_c   8.59261129
_cell_angle_alpha   73.32068409
_cell_angle_beta   77.38121367
_cell_angle_gamma   68.90640799
_symmetry_Int_Tables_number   1
_chemical_formula_structural   Hf4CuSi4
_chemical_formula_sum   'Hf4 Cu1 Si4'
_cell_volume   149.12968513
_cell_formula_units_Z   1
loop_
 _symmetry_equiv_pos_site_id
 _symmetry_equiv_pos_as_xyz
  1  'x, y, z'
loop_
 _atom_site_type_symbol
 _atom_site_label
 _atom_site_symmetry_multiplicity
 _atom_site_fract_x
 _atom_site_fract_y
 _atom_site_fract_z
 _atom_site_occupancy
  Hf  Hf0  1  0.10795951  0.16482185  0.61925912  1
  Hf  Hf1  1  0.89204049  0.83517815  0.38074088  1
  Hf  Hf2  1  0.75374100  0.65036756  0.84215043  1
  Hf  Hf3  1  0.24625900  0.34963244  0.15784957  1
  Cu  Cu4  1  -0.00000000  -0.00000000  0.00000000  1
  Si  Si5  1  0.38471815  0.61701414  0.61354956  1
  Si  Si6  1  0.61528185  0.38298586  0.38645044  1
  Si  Si7  1  0.46231622  0.22527245  0.85009510  1
  Si  Si8  1  0.53768378  0.77472755  0.14990490  1
