# generated using pymatgen
data_CeRhPb
_symmetry_space_group_name_H-M   'P 1'
_cell_length_a   4.06094549
_cell_length_b   7.67691890
_cell_length_c   7.67946154
_cell_angle_alpha   119.98905391
_cell_angle_beta   90.00000000
_cell_angle_gamma   90.00000000
_symmetry_Int_Tables_number   1
_chemical_formula_structural   CeRhPb
_chemical_formula_sum   'Ce3 Rh3 Pb3'
_cell_volume   207.35924670
_cell_formula_units_Z   3
loop_
 _symmetry_equiv_pos_site_id
 _symmetry_equiv_pos_as_xyz
  1  'x, y, z'
loop_
 _atom_site_type_symbol
 _atom_site_label
 _atom_site_symmetry_multiplicity
 _atom_site_fract_x
 _atom_site_fract_y
 _atom_site_fract_z
 _atom_site_occupancy
  Ce  Ce0  1  0.50000000  0.59025382  1.00000000  1
  Ce  Ce1  1  0.50000000  0.41035226  0.41024626  1
  Ce  Ce2  1  0.50000000  0.00010600  0.58975374  1
  Rh  Rh3  1  0.50000000  0.99987501  0.00000000  1
  Rh  Rh4  1  0.00000000  0.33302821  0.66650450  1
  Rh  Rh5  1  -0.00000000  0.66652371  0.33349550  1
  Pb  Pb6  1  -0.00000000  0.25825440  0.00000000  1
  Pb  Pb7  1  0.00000000  0.74156653  0.74162648  1
  Pb  Pb8  1  0.00000000  0.99994005  0.25837352  1
