# generated using pymatgen
data_K2CdSn
_symmetry_space_group_name_H-M   'P 1'
_cell_length_a   6.57136414
_cell_length_b   7.00598392
_cell_length_c   7.00598392
_cell_angle_alpha   103.74597961
_cell_angle_beta   90.00000000
_cell_angle_gamma   90.00000000
_symmetry_Int_Tables_number   1
_chemical_formula_structural   K2CdSn
_chemical_formula_sum   'K4 Cd2 Sn2'
_cell_volume   313.30942581
_cell_formula_units_Z   2
loop_
 _symmetry_equiv_pos_site_id
 _symmetry_equiv_pos_as_xyz
  1  'x, y, z'
loop_
 _atom_site_type_symbol
 _atom_site_label
 _atom_site_symmetry_multiplicity
 _atom_site_fract_x
 _atom_site_fract_y
 _atom_site_fract_z
 _atom_site_occupancy
  K  K0  1  0.25000000  0.68101740  0.01893275  1
  K  K1  1  0.75000000  0.98106725  0.31898260  1
  K  K2  1  0.25000000  0.03981067  0.68265725  1
  K  K3  1  0.75000000  0.31734275  0.96018933  1
  Cd  Cd4  1  0.50000000  0.50799182  0.49200818  1
  Cd  Cd5  1  0.00000000  0.50799182  0.49200818  1
  Sn  Sn6  1  0.25000000  0.23643516  0.23165687  1
  Sn  Sn7  1  0.75000000  0.76834313  0.76356484  1
