# generated using pymatgen
data_GdSiAg
_symmetry_space_group_name_H-M   'P 1'
_cell_length_a   4.24146828
_cell_length_b   7.14698871
_cell_length_c   7.14556292
_cell_angle_alpha   120.00659869
_cell_angle_beta   90.00000000
_cell_angle_gamma   90.00000000
_symmetry_Int_Tables_number   1
_chemical_formula_structural   GdSiAg
_chemical_formula_sum   'Gd3 Si3 Ag3'
_cell_volume   187.57610684
_cell_formula_units_Z   3
loop_
 _symmetry_equiv_pos_site_id
 _symmetry_equiv_pos_as_xyz
  1  'x, y, z'
loop_
 _atom_site_type_symbol
 _atom_site_label
 _atom_site_symmetry_multiplicity
 _atom_site_fract_x
 _atom_site_fract_y
 _atom_site_fract_z
 _atom_site_occupancy
  Gd  Gd0  1  0.50000000  0.58315887  0.00000000  1
  Gd  Gd1  1  0.50000000  0.41675478  0.41666351  1
  Gd  Gd2  1  0.50000000  0.00009127  0.58333649  1
  Si  Si3  1  0.00000000  0.33327496  0.66655361  1
  Si  Si4  1  0.00000000  0.66672135  0.33344639  1
  Si  Si5  1  0.50000000  0.99986821  1.00000000  1
  Ag  Ag6  1  0.00000000  0.25055591  0.00000000  1
  Ag  Ag7  1  0.00000000  0.74934914  0.74922362  1
  Ag  Ag8  1  0.00000000  0.00012552  0.25077638  1
