# generated using pymatgen
data_Li9Mn2Co5O16
_symmetry_space_group_name_H-M   'P 1'
_cell_length_a   5.15870754
_cell_length_b   11.56489608
_cell_length_c   5.15551318
_cell_angle_alpha   90.00000000
_cell_angle_beta   68.86868303
_cell_angle_gamma   90.00000000
_symmetry_Int_Tables_number   1
_chemical_formula_structural   Li9Mn2Co5O16
_chemical_formula_sum   'Li9 Mn2 Co5 O16'
_cell_volume   286.89493856
_cell_formula_units_Z   1
loop_
 _symmetry_equiv_pos_site_id
 _symmetry_equiv_pos_as_xyz
  1  'x, y, z'
loop_
 _atom_site_type_symbol
 _atom_site_label
 _atom_site_symmetry_multiplicity
 _atom_site_fract_x
 _atom_site_fract_y
 _atom_site_fract_z
 _atom_site_occupancy
  Li  Li0  1  0.50000000  0.12772070  -0.00000000  1
  Li  Li1  1  0.50000000  0.25089090  0.50000000  1
  Li  Li2  1  0.50000000  0.38221901  -0.00000000  1
  Li  Li3  1  0.50000000  0.49603747  0.50000000  1
  Li  Li4  1  0.50000000  0.62172715  -0.00000000  1
  Li  Li5  1  0.50000000  0.74536586  0.50000000  1
  Li  Li6  1  0.50000000  0.87024237  -0.00000000  1
  Li  Li7  1  0.50000000  0.00627724  0.50000000  1
  Li  Li8  1  0.00000000  0.50120875  -0.00000000  1
  Mn  Mn9  1  0.00000000  0.00281929  -0.00000000  1
  Mn  Mn10  1  0.00000000  0.87278260  0.50000000  1
  Co  Co11  1  0.00000000  0.12526467  0.50000000  1
  Co  Co12  1  0.00000000  0.25660269  -0.00000000  1
  Co  Co13  1  0.00000000  0.37528736  0.50000000  1
  Co  Co14  1  0.00000000  0.62046512  0.50000000  1
  Co  Co15  1  0.00000000  0.74612059  -0.00000000  1
  O  O16  1  0.23271811  0.12254917  0.77202048  1
  O  O17  1  0.21753489  0.24954977  0.27007919  1
  O  O18  1  0.21458980  0.37029270  0.73381480  1
  O  O19  1  0.23490429  0.49175714  0.27916750  1
  O  O20  1  0.21448232  0.63338246  0.75153091  1
  O  O21  1  0.24141788  0.75854677  0.26651764  1
  O  O22  1  0.20794170  0.87421665  0.75226170  1
  O  O23  1  0.23278392  -0.00081054  0.28155895  1
  O  O24  1  0.76728189  0.12254917  0.22797952  1
  O  O25  1  0.78246511  0.24954977  0.72992081  1
  O  O26  1  0.78541020  0.37029270  0.26618520  1
  O  O27  1  0.76509571  0.49175714  0.72083250  1
  O  O28  1  0.78551768  0.63338246  0.24846909  1
  O  O29  1  0.75858212  0.75854677  0.73348236  1
  O  O30  1  0.79205830  0.87421665  0.24773830  1
  O  O31  1  0.76721608  -0.00081054  0.71844105  1
