# generated using pymatgen
data_ScMnGe
_symmetry_space_group_name_H-M   'P 1'
_cell_length_a   3.85964965
_cell_length_b   6.60591256
_cell_length_c   6.60922156
_cell_angle_alpha   119.98343776
_cell_angle_beta   90.00000000
_cell_angle_gamma   90.00000000
_symmetry_Int_Tables_number   1
_chemical_formula_structural   ScMnGe
_chemical_formula_sum   'Sc3 Mn3 Ge3'
_cell_volume   145.96008369
_cell_formula_units_Z   3
loop_
 _symmetry_equiv_pos_site_id
 _symmetry_equiv_pos_as_xyz
  1  'x, y, z'
loop_
 _atom_site_type_symbol
 _atom_site_label
 _atom_site_symmetry_multiplicity
 _atom_site_fract_x
 _atom_site_fract_y
 _atom_site_fract_z
 _atom_site_occupancy
  Sc  Sc0  1  0.50000000  0.58573509  1.00000000  1
  Sc  Sc1  1  0.50000000  0.41408748  0.41408321  1
  Sc  Sc2  1  0.50000000  0.00000426  0.58591679  1
  Mn  Mn3  1  -0.00000000  0.23090252  1.00000000  1
  Mn  Mn4  1  -0.00000000  0.76917434  0.76923799  1
  Mn  Mn5  1  0.00000000  -0.00006365  0.23076201  1
  Ge  Ge6  1  -0.00000000  0.33334995  0.66672669  1
  Ge  Ge7  1  -0.00000000  0.66662326  0.33327331  1
  Ge  Ge8  1  0.50000000  0.00008675  0.00000000  1
