# generated using pymatgen
data_Sr2Ti2Sb2OF2
_symmetry_space_group_name_H-M   'P 1'
_cell_length_a   4.11290385
_cell_length_b   4.11290385
_cell_length_c   11.06611287
_cell_angle_alpha   100.70971762
_cell_angle_beta   100.70971762
_cell_angle_gamma   90.00000000
_symmetry_Int_Tables_number   1
_chemical_formula_structural   Sr2Ti2Sb2OF2
_chemical_formula_sum   'Sr2 Ti2 Sb2 O1 F2'
_cell_volume   180.61390689
_cell_formula_units_Z   1
loop_
 _symmetry_equiv_pos_site_id
 _symmetry_equiv_pos_as_xyz
  1  'x, y, z'
loop_
 _atom_site_type_symbol
 _atom_site_label
 _atom_site_symmetry_multiplicity
 _atom_site_fract_x
 _atom_site_fract_y
 _atom_site_fract_z
 _atom_site_occupancy
  Sr  Sr0  1  0.31695504  0.31695504  0.63391008  1
  Sr  Sr1  1  0.68304496  0.68304496  0.36608992  1
  Ti  Ti2  1  0.00000000  0.50000000  0.00000000  1
  Ti  Ti3  1  0.50000000  0.00000000  0.00000000  1
  Sb  Sb4  1  0.90453174  0.90453174  0.80906347  1
  Sb  Sb5  1  0.09546826  0.09546826  0.19093653  1
  O  O6  1  0.50000000  0.50000000  0.00000000  1
  F  F7  1  0.75000000  0.25000000  0.50000000  1
  F  F8  1  0.25000000  0.75000000  0.50000000  1
