# generated using pymatgen
data_Er6CoTe2
_symmetry_space_group_name_H-M   'P 1'
_cell_length_a   3.89145444
_cell_length_b   8.29111376
_cell_length_c   8.28552525
_cell_angle_alpha   120.02230798
_cell_angle_beta   90.00000000
_cell_angle_gamma   90.00000000
_symmetry_Int_Tables_number   1
_chemical_formula_structural   Er6CoTe2
_chemical_formula_sum   'Er6 Co1 Te2'
_cell_volume   231.46100396
_cell_formula_units_Z   1
loop_
 _symmetry_equiv_pos_site_id
 _symmetry_equiv_pos_as_xyz
  1  'x, y, z'
loop_
 _atom_site_type_symbol
 _atom_site_label
 _atom_site_symmetry_multiplicity
 _atom_site_fract_x
 _atom_site_fract_y
 _atom_site_fract_z
 _atom_site_occupancy
  Er  Er0  1  0.50000000  0.60397563  1.00000000  1
  Er  Er1  1  0.50000000  0.39574322  0.39575511  1
  Er  Er2  1  0.50000000  -0.00001189  0.60424489  1
  Er  Er3  1  -0.00000000  0.00023968  0.23717517  1
  Er  Er4  1  -0.00000000  0.23687407  0.00000000  1
  Er  Er5  1  -0.00000000  0.76306451  0.76282483  1
  Co  Co6  1  0.50000000  0.00021900  0.00000000  1
  Te  Te7  1  -0.00000000  0.66668776  0.33337976  1
  Te  Te8  1  0.00000000  0.33330800  0.66662024  1
