# generated using pymatgen
data_YbSnIr
_symmetry_space_group_name_H-M   'P 1'
_cell_length_a   4.18858419
_cell_length_b   7.29990365
_cell_length_c   7.29712418
_cell_angle_alpha   120.01259879
_cell_angle_beta   90.00000000
_cell_angle_gamma   90.00000000
_symmetry_Int_Tables_number   1
_chemical_formula_structural   YbSnIr
_chemical_formula_sum   'Yb3 Sn3 Ir3'
_cell_volume   193.20199045
_cell_formula_units_Z   3
loop_
 _symmetry_equiv_pos_site_id
 _symmetry_equiv_pos_as_xyz
  1  'x, y, z'
loop_
 _atom_site_type_symbol
 _atom_site_label
 _atom_site_symmetry_multiplicity
 _atom_site_fract_x
 _atom_site_fract_y
 _atom_site_fract_z
 _atom_site_occupancy
  Yb  Yb0  1  0.50000000  0.59221334  1.00000000  1
  Yb  Yb1  1  0.50000000  0.40765956  0.40766256  1
  Yb  Yb2  1  0.50000000  -0.00000300  0.59233744  1
  Sn  Sn3  1  0.00000000  0.25837527  0.00000000  1
  Sn  Sn4  1  -0.00000000  0.74171230  0.74176308  1
  Sn  Sn5  1  -0.00000000  0.99994922  0.25823692  1
  Ir  Ir6  1  -0.00000000  0.33333401  0.66671811  1
  Ir  Ir7  1  -0.00000000  0.66661590  0.33328189  1
  Ir  Ir8  1  0.50000000  0.00004338  1.00000000  1
