# generated using pymatgen
data_Sr2Bi2O5
_symmetry_space_group_name_H-M   'P 1'
_cell_length_a   3.91954043
_cell_length_b   6.28026362
_cell_length_c   7.70758633
_cell_angle_alpha   90.00000000
_cell_angle_beta   75.26995674
_cell_angle_gamma   90.00000000
_symmetry_Int_Tables_number   1
_chemical_formula_structural   Sr2Bi2O5
_chemical_formula_sum   'Sr2 Bi2 O5'
_cell_volume   183.49250246
_cell_formula_units_Z   1
loop_
 _symmetry_equiv_pos_site_id
 _symmetry_equiv_pos_as_xyz
  1  'x, y, z'
loop_
 _atom_site_type_symbol
 _atom_site_label
 _atom_site_symmetry_multiplicity
 _atom_site_fract_x
 _atom_site_fract_y
 _atom_site_fract_z
 _atom_site_occupancy
  Sr  Sr0  1  0.18215741  0.75000000  0.63568517  1
  Sr  Sr1  1  0.80512853  0.25000000  0.38974294  1
  Bi  Bi2  1  0.43184937  0.75000000  0.13630126  1
  Bi  Bi3  1  0.56758712  0.25000000  0.86482576  1
  O  O4  1  0.33634129  0.99541731  0.32731742  1
  O  O5  1  0.66461233  0.01221184  0.67077534  1
  O  O6  1  0.33634129  0.50458269  0.32731742  1
  O  O7  1  0.66461233  0.48778816  0.67077534  1
  O  O8  1  0.00117032  0.75000000  0.99765935  1
