# generated using pymatgen
data_ErGa2Pd
_symmetry_space_group_name_H-M   'P 1'
_cell_length_a   4.42459687
_cell_length_b   5.52957606
_cell_length_c   6.61152346
_cell_angle_alpha   90.00000000
_cell_angle_beta   90.00000000
_cell_angle_gamma   113.58347481
_symmetry_Int_Tables_number   1
_chemical_formula_structural   ErGa2Pd
_chemical_formula_sum   'Er2 Ga4 Pd2'
_cell_volume   148.24812440
_cell_formula_units_Z   2
loop_
 _symmetry_equiv_pos_site_id
 _symmetry_equiv_pos_as_xyz
  1  'x, y, z'
loop_
 _atom_site_type_symbol
 _atom_site_label
 _atom_site_symmetry_multiplicity
 _atom_site_fract_x
 _atom_site_fract_y
 _atom_site_fract_z
 _atom_site_occupancy
  Er  Er0  1  0.41239687  0.82479373  0.25000000  1
  Er  Er1  1  0.58760313  0.17520627  0.75000000  1
  Ga  Ga2  1  0.12794854  0.25589708  0.44699584  1
  Ga  Ga3  1  0.87205146  0.74410292  0.55300416  1
  Ga  Ga4  1  0.12794854  0.25589708  0.05300416  1
  Ga  Ga5  1  0.87205146  0.74410292  0.94699584  1
  Pd  Pd6  1  0.70020303  0.40040606  0.25000000  1
  Pd  Pd7  1  0.29979697  0.59959394  0.75000000  1
