# generated using pymatgen
data_Li9Mn2Co5O16
_symmetry_space_group_name_H-M   'P 1'
_cell_length_a   5.75172720
_cell_length_b   10.15206709
_cell_length_c   5.92196806
_cell_angle_alpha   90.66646111
_cell_angle_beta   119.05351779
_cell_angle_gamma   73.54401855
_symmetry_Int_Tables_number   1
_chemical_formula_structural   Li9Mn2Co5O16
_chemical_formula_sum   'Li9 Mn2 Co5 O16'
_cell_volume   286.61078242
_cell_formula_units_Z   1
loop_
 _symmetry_equiv_pos_site_id
 _symmetry_equiv_pos_as_xyz
  1  'x, y, z'
loop_
 _atom_site_type_symbol
 _atom_site_label
 _atom_site_symmetry_multiplicity
 _atom_site_fract_x
 _atom_site_fract_y
 _atom_site_fract_z
 _atom_site_occupancy
  Li  Li0  1  0.98007115  0.26684539  0.73622359  1
  Li  Li1  1  0.51069295  0.73315461  0.26377641  1
  Li  Li2  1  0.98746386  0.26531896  0.24024668  1
  Li  Li3  1  0.50433361  0.73704904  0.74571626  1
  Li  Li4  1  0.49566639  0.26295096  0.25428374  1
  Li  Li5  1  0.01253614  0.73468104  0.75975332  1
  Li  Li6  1  0.48930705  0.26684539  0.73622359  1
  Li  Li7  1  0.01992885  0.73315461  0.26377641  1
  Li  Li8  1  0.50000000  0.50000000  0.50000000  1
  Mn  Mn9  1  -0.00000000  -0.00000000  0.00000000  1
  Mn  Mn10  1  0.50000000  -0.00000000  0.00000000  1
  Co  Co11  1  -0.00000000  -0.00000000  0.50000000  1
  Co  Co12  1  0.50000000  0.50000000  0.00000000  1
  Co  Co13  1  0.50000000  -0.00000000  0.50000000  1
  Co  Co14  1  -0.00000000  0.50000000  0.00000000  1
  Co  Co15  1  -0.00000000  0.50000000  0.50000000  1
  O  O16  1  0.24837661  0.11474602  0.10666075  1
  O  O17  1  0.77484795  0.61242916  0.62698882  1
  O  O18  1  0.27168059  0.10320757  0.64656874  1
  O  O19  1  0.77158867  0.61277580  0.15595315  1
  O  O20  1  0.74228187  0.11290107  0.59746480  1
  O  O21  1  0.24795430  0.61486611  0.11077472  1
  O  O22  1  0.74353812  0.11474602  0.10666075  1
  O  O23  1  0.23971170  0.61242916  0.62698882  1
  O  O24  1  0.76028830  0.38757084  0.37301118  1
  O  O25  1  0.25646188  0.88525398  0.89333925  1
  O  O26  1  0.75204570  0.38513389  0.88922528  1
  O  O27  1  0.25771813  0.88709893  0.40253520  1
  O  O28  1  0.22841133  0.38722420  0.84404685  1
  O  O29  1  0.72831941  0.89679243  0.35343126  1
  O  O30  1  0.22515205  0.38757084  0.37301118  1
  O  O31  1  0.75162339  0.88525398  0.89333925  1
