# generated using pymatgen
data_SmCdPd
_symmetry_space_group_name_H-M   'P 1'
_cell_length_a   3.96614323
_cell_length_b   7.73635682
_cell_length_c   7.73780138
_cell_angle_alpha   119.99382017
_cell_angle_beta   90.00000000
_cell_angle_gamma   90.00000000
_symmetry_Int_Tables_number   1
_chemical_formula_structural   SmCdPd
_chemical_formula_sum   'Sm3 Cd3 Pd3'
_cell_volume   205.62699865
_cell_formula_units_Z   3
loop_
 _symmetry_equiv_pos_site_id
 _symmetry_equiv_pos_as_xyz
  1  'x, y, z'
loop_
 _atom_site_type_symbol
 _atom_site_label
 _atom_site_symmetry_multiplicity
 _atom_site_fract_x
 _atom_site_fract_y
 _atom_site_fract_z
 _atom_site_occupancy
  Sm  Sm0  1  0.50000000  0.59453912  1.00000000  1
  Sm  Sm1  1  0.50000000  0.40574620  0.40589479  1
  Sm  Sm2  1  0.50000000  -0.00014859  0.59410521  1
  Cd  Cd3  1  -0.00000000  0.25487679  1.00000000  1
  Cd  Cd4  1  0.00000000  0.74501176  0.74498736  1
  Cd  Cd5  1  0.00000000  0.00002439  0.25501264  1
  Pd  Pd6  1  -0.00000000  0.33326035  0.66666128  1
  Pd  Pd7  1  -0.00000000  0.66659908  0.33333872  1
  Pd  Pd8  1  0.50000000  -0.00000911  0.00000000  1
