# generated using pymatgen
data_SmMgPd
_symmetry_space_group_name_H-M   'P 1'
_cell_length_a   4.05871425
_cell_length_b   7.61608074
_cell_length_c   7.61546305
_cell_angle_alpha   120.00268578
_cell_angle_beta   90.00000000
_cell_angle_gamma   90.00000000
_symmetry_Int_Tables_number   1
_chemical_formula_structural   SmMgPd
_chemical_formula_sum   'Sm3 Mg3 Pd3'
_cell_volume   203.86149693
_cell_formula_units_Z   3
loop_
 _symmetry_equiv_pos_site_id
 _symmetry_equiv_pos_as_xyz
  1  'x, y, z'
loop_
 _atom_site_type_symbol
 _atom_site_label
 _atom_site_symmetry_multiplicity
 _atom_site_fract_x
 _atom_site_fract_y
 _atom_site_fract_z
 _atom_site_occupancy
  Sm  Sm0  1  0.50000000  0.58516983  0.00000000  1
  Sm  Sm1  1  0.50000000  0.41481015  0.41483044  1
  Sm  Sm2  1  0.50000000  0.99997971  0.58516956  1
  Mg  Mg3  1  -0.00000000  0.24102240  0.00000000  1
  Mg  Mg4  1  0.00000000  0.75896907  0.75898444  1
  Mg  Mg5  1  -0.00000000  0.99998463  0.24101556  1
  Pd  Pd6  1  -0.00000000  0.33331209  0.66667336  1
  Pd  Pd7  1  -0.00000000  0.66663872  0.33332664  1
  Pd  Pd8  1  0.50000000  0.00001340  -0.00000000  1
