# generated using pymatgen
data_Ca(InP)2
_symmetry_space_group_name_H-M   'P 1'
_cell_length_a   4.08670069
_cell_length_b   4.08670069
_cell_length_c   17.54585833
_cell_angle_alpha   90.00000000
_cell_angle_beta   90.00000000
_cell_angle_gamma   120.03576388
_symmetry_Int_Tables_number   1
_chemical_formula_structural   Ca(InP)2
_chemical_formula_sum   'Ca2 In4 P4'
_cell_volume   253.68470765
_cell_formula_units_Z   2
loop_
 _symmetry_equiv_pos_site_id
 _symmetry_equiv_pos_as_xyz
  1  'x, y, z'
loop_
 _atom_site_type_symbol
 _atom_site_label
 _atom_site_symmetry_multiplicity
 _atom_site_fract_x
 _atom_site_fract_y
 _atom_site_fract_z
 _atom_site_occupancy
  Ca  Ca0  1  0.00000000  -0.00000000  0.00000000  1
  Ca  Ca1  1  0.00000000  -0.00000000  0.50000000  1
  In  In2  1  0.33340914  0.66659086  0.83017246  1
  In  In3  1  0.66659086  0.33340914  0.16982754  1
  In  In4  1  0.66659086  0.33340914  0.33017246  1
  In  In5  1  0.33340914  0.66659086  0.66982754  1
  P  P6  1  0.66654639  0.33345361  0.89708886  1
  P  P7  1  0.33345361  0.66654639  0.10291114  1
  P  P8  1  0.33345361  0.66654639  0.39708886  1
  P  P9  1  0.66654639  0.33345361  0.60291114  1
