# generated using pymatgen
data_TbHO2
_symmetry_space_group_name_H-M   'P 1'
_cell_length_a   3.67127012
_cell_length_b   4.37696739
_cell_length_c   6.06865897
_cell_angle_alpha   109.67552747
_cell_angle_beta   90.00000000
_cell_angle_gamma   90.00000000
_symmetry_Int_Tables_number   1
_chemical_formula_structural   TbHO2
_chemical_formula_sum   'Tb2 H2 O4'
_cell_volume   91.82384917
_cell_formula_units_Z   2
loop_
 _symmetry_equiv_pos_site_id
 _symmetry_equiv_pos_as_xyz
  1  'x, y, z'
loop_
 _atom_site_type_symbol
 _atom_site_label
 _atom_site_symmetry_multiplicity
 _atom_site_fract_x
 _atom_site_fract_y
 _atom_site_fract_z
 _atom_site_occupancy
  Tb  Tb0  1  0.25000000  0.33696067  0.18946238  1
  Tb  Tb1  1  0.75000000  0.66303933  0.81053762  1
  H  H2  1  0.25000000  0.98098525  0.59515998  1
  H  H3  1  0.75000000  0.01901475  0.40484002  1
  O  O4  1  0.25000000  0.76771499  0.05079458  1
  O  O5  1  0.75000000  0.23228501  0.94920542  1
  O  O6  1  0.25000000  0.74942277  0.56625030  1
  O  O7  1  0.75000000  0.25057723  0.43374970  1
