# generated using pymatgen
data_Sr(RuO3)2
_symmetry_space_group_name_H-M   'P 1'
_cell_length_a   5.31709885
_cell_length_b   5.31828550
_cell_length_c   5.23431973
_cell_angle_alpha   89.98852865
_cell_angle_beta   90.00573694
_cell_angle_gamma   120.00738026
_symmetry_Int_Tables_number   1
_chemical_formula_structural   Sr(RuO3)2
_chemical_formula_sum   'Sr1 Ru2 O6'
_cell_volume   128.17547909
_cell_formula_units_Z   1
loop_
 _symmetry_equiv_pos_site_id
 _symmetry_equiv_pos_as_xyz
  1  'x, y, z'
loop_
 _atom_site_type_symbol
 _atom_site_label
 _atom_site_symmetry_multiplicity
 _atom_site_fract_x
 _atom_site_fract_y
 _atom_site_fract_z
 _atom_site_occupancy
  Sr  Sr0  1  -0.00000000  0.00000000  -0.00000000  1
  Ru  Ru1  1  0.66689773  0.33344886  0.50000000  1
  Ru  Ru2  1  0.33310227  0.66655114  0.50000000  1
  O  O3  1  0.38098801  0.38097005  0.30143427  1
  O  O4  1  0.61901199  -0.00001796  0.30143427  1
  O  O5  1  0.00000000  0.61898833  0.30150165  1
  O  O6  1  0.61901199  0.61902995  0.69856573  1
  O  O7  1  0.38098801  0.00001796  0.69856573  1
  O  O8  1  1.00000000  0.38101167  0.69849835  1
