# generated using pymatgen
data_LuSiAg
_symmetry_space_group_name_H-M   'P 1'
_cell_length_a   4.12248442
_cell_length_b   6.96545394
_cell_length_c   6.96552612
_cell_angle_alpha   119.99965531
_cell_angle_beta   90.00000000
_cell_angle_gamma   90.00000000
_symmetry_Int_Tables_number   1
_chemical_formula_structural   LuSiAg
_chemical_formula_sum   'Lu3 Si3 Ag3'
_cell_volume   173.21859554
_cell_formula_units_Z   3
loop_
 _symmetry_equiv_pos_site_id
 _symmetry_equiv_pos_as_xyz
  1  'x, y, z'
loop_
 _atom_site_type_symbol
 _atom_site_label
 _atom_site_symmetry_multiplicity
 _atom_site_fract_x
 _atom_site_fract_y
 _atom_site_fract_z
 _atom_site_occupancy
  Lu  Lu0  1  0.50000000  0.57907259  1.00000000  1
  Lu  Lu1  1  0.50000000  0.42091153  0.42092113  1
  Lu  Lu2  1  0.50000000  0.99999040  0.57907887  1
  Si  Si3  1  -0.00000000  0.33332088  0.66667398  1
  Si  Si4  1  -0.00000000  0.66664690  0.33332602  1
  Si  Si5  1  0.50000000  0.99998238  1.00000000  1
  Ag  Ag6  1  -0.00000000  0.25093006  1.00000000  1
  Ag  Ag7  1  0.00000000  0.74904652  0.74904777  1
  Ag  Ag8  1  0.00000000  -0.00000125  0.25095223  1
