# generated using pymatgen
data_Th(BOs)2
_symmetry_space_group_name_H-M   'P 1'
_cell_length_a   5.63166845
_cell_length_b   5.63166845
_cell_length_c   6.06892588
_cell_angle_alpha   108.59546889
_cell_angle_beta   108.59546889
_cell_angle_gamma   108.22282053
_symmetry_Int_Tables_number   1
_chemical_formula_structural   Th(BOs)2
_chemical_formula_sum   'Th2 B4 Os4'
_cell_volume   153.41020336
_cell_formula_units_Z   2
loop_
 _symmetry_equiv_pos_site_id
 _symmetry_equiv_pos_as_xyz
  1  'x, y, z'
loop_
 _atom_site_type_symbol
 _atom_site_label
 _atom_site_symmetry_multiplicity
 _atom_site_fract_x
 _atom_site_fract_y
 _atom_site_fract_z
 _atom_site_occupancy
  Th  Th0  1  0.00000000  -0.00000000  0.00000000  1
  Th  Th1  1  0.25000000  0.75000000  0.50000000  1
  B  B2  1  0.68358032  0.31641968  -0.00000000  1
  B  B3  1  0.31641968  0.68358032  -0.00000000  1
  B  B4  1  0.93295784  0.06704216  0.50000000  1
  B  B5  1  0.56704216  0.43295784  0.50000000  1
  Os  Os6  1  0.36298637  0.36298637  0.72597273  1
  Os  Os7  1  0.63701363  0.63701363  0.27402727  1
  Os  Os8  1  0.88721968  0.38721968  0.77443936  1
  Os  Os9  1  0.61278032  0.11278032  0.22556064  1
