# generated using pymatgen
data_YNiGe2
_symmetry_space_group_name_H-M   'P 1'
_cell_length_a   4.20747395
_cell_length_b   4.09453017
_cell_length_c   8.56217671
_cell_angle_alpha   103.83376286
_cell_angle_beta   90.00000000
_cell_angle_gamma   90.00000000
_symmetry_Int_Tables_number   1
_chemical_formula_structural   YNiGe2
_chemical_formula_sum   'Y2 Ni2 Ge4'
_cell_volume   143.22737851
_cell_formula_units_Z   2
loop_
 _symmetry_equiv_pos_site_id
 _symmetry_equiv_pos_as_xyz
  1  'x, y, z'
loop_
 _atom_site_type_symbol
 _atom_site_label
 _atom_site_symmetry_multiplicity
 _atom_site_fract_x
 _atom_site_fract_y
 _atom_site_fract_z
 _atom_site_occupancy
  Y  Y0  1  0.75000000  0.10755773  0.21511547  1
  Y  Y1  1  0.25000000  0.89244227  0.78488453  1
  Ni  Ni2  1  0.75000000  0.32055872  0.64111744  1
  Ni  Ni3  1  0.25000000  0.67944128  0.35888256  1
  Ge  Ge4  1  0.75000000  0.45844254  0.91688507  1
  Ge  Ge5  1  0.25000000  0.54155746  0.08311493  1
  Ge  Ge6  1  0.75000000  0.74748594  0.49497188  1
  Ge  Ge7  1  0.25000000  0.25251406  0.50502812  1
