# generated using pymatgen
data_Mn2Cr3Co3O16
_symmetry_space_group_name_H-M   'P 1'
_cell_length_a   5.76074534
_cell_length_b   5.78213331
_cell_length_c   8.89242319
_cell_angle_alpha   89.71390251
_cell_angle_beta   90.14708340
_cell_angle_gamma   119.94580197
_symmetry_Int_Tables_number   1
_chemical_formula_structural   Mn2Cr3Co3O16
_chemical_formula_sum   'Mn2 Cr3 Co3 O16'
_cell_volume   256.65459290
_cell_formula_units_Z   1
loop_
 _symmetry_equiv_pos_site_id
 _symmetry_equiv_pos_as_xyz
  1  'x, y, z'
loop_
 _atom_site_type_symbol
 _atom_site_label
 _atom_site_symmetry_multiplicity
 _atom_site_fract_x
 _atom_site_fract_y
 _atom_site_fract_z
 _atom_site_occupancy
  Mn  Mn0  1  0.33848526  0.66606712  0.48188077  1
  Mn  Mn1  1  0.66698943  0.33666438  0.98125554  1
  Cr  Cr2  1  0.15849580  0.83129018  0.20464371  1
  Cr  Cr3  1  0.15844881  0.32775987  0.20387395  1
  Cr  Cr4  1  0.32720925  0.16188127  0.70264773  1
  Co  Co5  1  0.65564463  0.82903465  0.21390324  1
  Co  Co6  1  0.83156843  0.66089190  0.71013569  1
  Co  Co7  1  0.82615977  0.15791462  0.70971271  1
  O  O8  1  0.16855534  0.83155932  0.60733119  1
  O  O9  1  0.05094490  0.52416449  0.33890019  1
  O  O10  1  0.34542439  0.67381175  0.09903369  1
  O  O11  1  0.98365991  0.99199932  0.31580857  1
  O  O12  1  0.98503963  0.99380719  0.81278717  1
  O  O13  1  0.18043997  0.34464055  0.60586988  1
  O  O14  1  0.48035724  0.95655676  0.33988072  1
  O  O15  1  0.48321219  0.52496028  0.33964702  1
  O  O16  1  0.34472640  0.17408090  0.10909953  1
  O  O17  1  0.67224064  0.83100393  0.60531840  1
  O  O18  1  0.52599124  0.48190156  0.83603049  1
  O  O19  1  0.51339030  0.04573960  0.84581995  1
  O  O20  1  0.67914954  0.33319670  0.60256148  1
  O  O21  1  0.83352869  0.66613493  0.10505802  1
  O  O22  1  0.95613940  0.48377196  0.84011172  1
  O  O23  1  0.83419884  0.17136977  0.10440964  1
