# generated using pymatgen
data_HfReSi
_symmetry_space_group_name_H-M   'P 1'
_cell_length_a   3.40514821
_cell_length_b   6.96664485
_cell_length_c   6.96676429
_cell_angle_alpha   119.99943627
_cell_angle_beta   90.00000000
_cell_angle_gamma   90.00000000
_symmetry_Int_Tables_number   1
_chemical_formula_structural   HfReSi
_chemical_formula_sum   'Hf3 Re3 Si3'
_cell_volume   143.12777050
_cell_formula_units_Z   3
loop_
 _symmetry_equiv_pos_site_id
 _symmetry_equiv_pos_as_xyz
  1  'x, y, z'
loop_
 _atom_site_type_symbol
 _atom_site_label
 _atom_site_symmetry_multiplicity
 _atom_site_fract_x
 _atom_site_fract_y
 _atom_site_fract_z
 _atom_site_occupancy
  Hf  Hf0  1  0.50000000  0.59538125  1.00000000  1
  Hf  Hf1  1  0.50000000  0.40458823  0.40459823  1
  Hf  Hf2  1  0.50000000  0.99999000  0.59540177  1
  Re  Re3  1  0.00000000  0.25596504  1.00000000  1
  Re  Re4  1  -0.00000000  0.74402985  0.74403299  1
  Re  Re5  1  -0.00000000  -0.00000315  0.25596701  1
  Si  Si6  1  0.00000000  0.33331066  0.66667286  1
  Si  Si7  1  0.00000000  0.66663780  0.33332714  1
  Si  Si8  1  0.50000000  0.00000031  0.00000000  1
