# generated using pymatgen
data_HfGaRh
_symmetry_space_group_name_H-M   'P 1'
_cell_length_a   3.26984497
_cell_length_b   7.32198501
_cell_length_c   7.32198446
_cell_angle_alpha   59.98506300
_cell_angle_beta   90.00088341
_cell_angle_gamma   89.99911668
_symmetry_Int_Tables_number   1
_chemical_formula_structural   HfGaRh
_chemical_formula_sum   'Hf3 Ga3 Rh3'
_cell_volume   151.79240598
_cell_formula_units_Z   3
loop_
 _symmetry_equiv_pos_site_id
 _symmetry_equiv_pos_as_xyz
  1  'x, y, z'
loop_
 _atom_site_type_symbol
 _atom_site_label
 _atom_site_symmetry_multiplicity
 _atom_site_fract_x
 _atom_site_fract_y
 _atom_site_fract_z
 _atom_site_occupancy
  Hf  Hf0  1  0.99461326  0.60970215  0.39029785  1
  Hf  Hf1  1  0.99465130  0.39031871  0.99996907  1
  Hf  Hf2  1  0.99465130  0.00003093  0.60968129  1
  Ga  Ga3  1  0.49136347  0.27506456  0.72493544  1
  Ga  Ga4  1  0.49130687  0.72494982  0.99995948  1
  Ga  Ga5  1  0.49130687  0.00004052  0.27505018  1
  Rh  Rh6  1  0.49555484  0.66666460  0.66668042  1
  Rh  Rh7  1  0.49555484  0.33331958  0.33333540  1
  Rh  Rh8  1  0.99239726  0.00000913  0.99999087  1
