# generated using pymatgen
data_LiNbPO5
_symmetry_space_group_name_H-M   'P 1'
_cell_length_a   5.41899332
_cell_length_b   10.67173410
_cell_length_c   7.63580581
_cell_angle_alpha   98.78667490
_cell_angle_beta   69.21630667
_cell_angle_gamma   75.29190254
_symmetry_Int_Tables_number   1
_chemical_formula_structural   LiNbPO5
_chemical_formula_sum   'Li4 Nb4 P4 O20'
_cell_volume   384.64726467
_cell_formula_units_Z   4
loop_
 _symmetry_equiv_pos_site_id
 _symmetry_equiv_pos_as_xyz
  1  'x, y, z'
loop_
 _atom_site_type_symbol
 _atom_site_label
 _atom_site_symmetry_multiplicity
 _atom_site_fract_x
 _atom_site_fract_y
 _atom_site_fract_z
 _atom_site_occupancy
  Li  Li0  1  0.25000000  0.25000000  0.25000000  1
  Li  Li1  1  0.25000000  0.25000000  0.75000000  1
  Li  Li2  1  0.75000000  0.75000000  0.25000000  1
  Li  Li3  1  0.25000000  0.75000000  0.75000000  1
  Nb  Nb4  1  0.49962430  0.00000000  0.50000000  1
  Nb  Nb5  1  0.75000000  0.25000000  0.25000000  1
  Nb  Nb6  1  0.00037570  0.50000000  1.00000000  1
  Nb  Nb7  1  0.75000000  0.75000000  0.75000000  1
  P  P8  1  0.81362779  0.06304425  0.81226632  1
  P  P9  1  0.68637221  0.43695575  0.68773368  1
  P  P10  1  0.31106264  0.56304425  0.31226632  1
  P  P11  1  0.18893736  0.93695575  0.18773368  1
  O  O12  1  0.10692078  0.09025877  0.20210415  1
  O  O13  1  0.66844657  0.14945433  0.02538892  1
  O  O14  1  0.08630836  0.09410231  0.70919980  1
  O  O15  1  0.00308235  0.33236218  0.08295459  1
  O  O16  1  0.60598694  0.09735476  0.71718256  1
  O  O17  1  0.49691765  0.16763782  0.41704541  1
  O  O18  1  0.39307922  0.40974123  0.29789585  1
  O  O19  1  0.83155343  0.35054567  0.47461108  1
  O  O20  1  0.11038954  0.59410231  0.20919980  1
  O  O21  1  0.57947474  0.59735476  0.21718256  1
  O  O22  1  0.41369164  0.40589769  0.79080020  1
  O  O23  1  0.89401306  0.40264524  0.78281744  1
  O  O24  1  0.60071631  0.59025877  0.70210415  1
  O  O25  1  0.15671118  0.64945433  0.52538892  1
  O  O26  1  0.92052526  0.90264524  0.28281744  1
  O  O27  1  0.91839813  0.66763782  0.91704541  1
  O  O28  1  0.38961046  0.90589769  0.29080020  1
  O  O29  1  0.58160187  0.83236218  0.58295459  1
  O  O30  1  0.34328882  0.85054567  0.97461108  1
  O  O31  1  0.89928369  0.90974123  0.79789585  1
