# generated using pymatgen
data_ErSnPt
_symmetry_space_group_name_H-M   'P 1'
_cell_length_a   3.98754346
_cell_length_b   7.50604630
_cell_length_c   7.50701119
_cell_angle_alpha   119.99574369
_cell_angle_beta   90.00000000
_cell_angle_gamma   90.00000000
_symmetry_Int_Tables_number   1
_chemical_formula_structural   ErSnPt
_chemical_formula_sum   'Er3 Sn3 Pt3'
_cell_volume   194.59558746
_cell_formula_units_Z   3
loop_
 _symmetry_equiv_pos_site_id
 _symmetry_equiv_pos_as_xyz
  1  'x, y, z'
loop_
 _atom_site_type_symbol
 _atom_site_label
 _atom_site_symmetry_multiplicity
 _atom_site_fract_x
 _atom_site_fract_y
 _atom_site_fract_z
 _atom_site_occupancy
  Er  Er0  1  0.50000000  0.59237411  1.00000000  1
  Er  Er1  1  0.50000000  0.40760270  0.40760701  1
  Er  Er2  1  0.50000000  -0.00000431  0.59239299  1
  Sn  Sn3  1  0.00000000  0.25805262  0.00000000  1
  Sn  Sn4  1  -0.00000000  0.74192708  0.74191407  1
  Sn  Sn5  1  0.00000000  0.00001301  0.25808593  1
  Pt  Pt6  1  0.00000000  0.33331628  0.66669563  1
  Pt  Pt7  1  0.00000000  0.66662064  0.33330437  1
  Pt  Pt8  1  0.50000000  -0.00000213  0.00000000  1
