# generated using pymatgen
data_Pr(GePt)2
_symmetry_space_group_name_H-M   'P 1'
_cell_length_a   4.40647249
_cell_length_b   4.39648055
_cell_length_c   10.08314921
_cell_angle_alpha   90.00000000
_cell_angle_beta   90.13620458
_cell_angle_gamma   90.00000000
_symmetry_Int_Tables_number   1
_chemical_formula_structural   Pr(GePt)2
_chemical_formula_sum   'Pr2 Ge4 Pt4'
_cell_volume   195.34000123
_cell_formula_units_Z   2
loop_
 _symmetry_equiv_pos_site_id
 _symmetry_equiv_pos_as_xyz
  1  'x, y, z'
loop_
 _atom_site_type_symbol
 _atom_site_label
 _atom_site_symmetry_multiplicity
 _atom_site_fract_x
 _atom_site_fract_y
 _atom_site_fract_z
 _atom_site_occupancy
  Pr  Pr0  1  0.74838536  0.74317707  0.25282409  1
  Pr  Pr1  1  0.25161464  0.24317707  0.74717591  1
  Ge  Ge2  1  0.75432191  0.76689795  0.86852527  1
  Ge  Ge3  1  0.24567809  0.26689795  0.13147473  1
  Ge  Ge4  1  0.25079249  0.72469871  0.50039548  1
  Ge  Ge5  1  0.74920751  0.22469871  0.49960452  1
  Pt  Pt6  1  0.75170701  0.72459685  0.62327093  1
  Pt  Pt7  1  0.24829299  0.22459685  0.37672907  1
  Pt  Pt8  1  0.25559174  0.76862941  0.00046909  1
  Pt  Pt9  1  0.74440826  0.26862941  0.99953091  1
