# generated using pymatgen
data_LiFe2(CoO4)2
_symmetry_space_group_name_H-M   'P 1'
_cell_length_a   5.85141459
_cell_length_b   5.85440479
_cell_length_c   5.72846448
_cell_angle_alpha   60.40897082
_cell_angle_beta   59.92321234
_cell_angle_gamma   89.22824338
_symmetry_Int_Tables_number   1
_chemical_formula_structural   LiFe2(CoO4)2
_chemical_formula_sum   'Li1 Fe2 Co2 O8'
_cell_volume   140.34469322
_cell_formula_units_Z   1
loop_
 _symmetry_equiv_pos_site_id
 _symmetry_equiv_pos_as_xyz
  1  'x, y, z'
loop_
 _atom_site_type_symbol
 _atom_site_label
 _atom_site_symmetry_multiplicity
 _atom_site_fract_x
 _atom_site_fract_y
 _atom_site_fract_z
 _atom_site_occupancy
  Li  Li0  1  0.50000000  -0.00000000  0.50000000  1
  Fe  Fe1  1  0.00000000  0.50000000  0.50000000  1
  Fe  Fe2  1  0.50000000  -0.00000000  -0.00000000  1
  Co  Co3  1  0.00000000  -0.00000000  -0.00000000  1
  Co  Co4  1  0.00000000  -0.00000000  0.50000000  1
  O  O5  1  0.21081093  0.20316403  0.04529493  1
  O  O6  1  0.24183023  0.78362474  0.00316353  1
  O  O7  1  0.20680033  0.21460788  0.53984771  1
  O  O8  1  0.24329716  0.77989257  0.46928105  1
  O  O9  1  0.75670284  0.22010743  0.53071895  1
  O  O10  1  0.79319967  0.78539212  0.46015229  1
  O  O11  1  0.75816977  0.21637526  0.99683647  1
  O  O12  1  0.78918907  0.79683597  0.95470607  1
