# generated using pymatgen
data_ErZnPd
_symmetry_space_group_name_H-M   'P 1'
_cell_length_a   3.78942034
_cell_length_b   7.31948985
_cell_length_c   7.31921916
_cell_angle_alpha   120.00122459
_cell_angle_beta   90.00000000
_cell_angle_gamma   90.00000000
_symmetry_Int_Tables_number   1
_chemical_formula_structural   ErZnPd
_chemical_formula_sum   'Er3 Zn3 Pd3'
_cell_volume   175.81001822
_cell_formula_units_Z   3
loop_
 _symmetry_equiv_pos_site_id
 _symmetry_equiv_pos_as_xyz
  1  'x, y, z'
loop_
 _atom_site_type_symbol
 _atom_site_label
 _atom_site_symmetry_multiplicity
 _atom_site_fract_x
 _atom_site_fract_y
 _atom_site_fract_z
 _atom_site_occupancy
  Er  Er0  1  0.00000000  0.40575389  0.00000000  1
  Er  Er1  1  0.00000000  0.59420116  0.59419474  1
  Er  Er2  1  0.00000000  0.00000641  0.40580526  1
  Zn  Zn3  1  0.50000000  0.74648791  1.00000000  1
  Zn  Zn4  1  0.50000000  0.25354167  0.25349286  1
  Zn  Zn5  1  0.50000000  0.00004881  0.74650714  1
  Pd  Pd6  1  0.00000000  -0.00004367  1.00000000  1
  Pd  Pd7  1  0.50000000  0.33326812  0.66663241  1
  Pd  Pd8  1  0.50000000  0.66663571  0.33336759  1
