# generated using pymatgen
data_ThAlIr
_symmetry_space_group_name_H-M   'P 1'
_cell_length_a   4.16347023
_cell_length_b   7.23105065
_cell_length_c   7.22778880
_cell_angle_alpha   120.01492982
_cell_angle_beta   90.00000000
_cell_angle_gamma   90.00000000
_symmetry_Int_Tables_number   1
_chemical_formula_structural   ThAlIr
_chemical_formula_sum   'Th3 Al3 Ir3'
_cell_volume   188.42025908
_cell_formula_units_Z   3
loop_
 _symmetry_equiv_pos_site_id
 _symmetry_equiv_pos_as_xyz
  1  'x, y, z'
loop_
 _atom_site_type_symbol
 _atom_site_label
 _atom_site_symmetry_multiplicity
 _atom_site_fract_x
 _atom_site_fract_y
 _atom_site_fract_z
 _atom_site_occupancy
  Th  Th0  1  0.50000000  0.58151089  1.00000000  1
  Th  Th1  1  0.50000000  0.41818450  0.41853902  1
  Th  Th2  1  0.50000000  -0.00035452  0.58146098  1
  Al  Al3  1  0.00000000  0.22963472  0.00000000  1
  Al  Al4  1  0.00000000  0.77028219  0.77045889  1
  Al  Al5  1  -0.00000000  -0.00017671  0.22954111  1
  Ir  Ir6  1  -0.00000000  0.33364628  0.66677692  1
  Ir  Ir7  1  0.00000000  0.66686935  0.33322308  1
  Ir  Ir8  1  0.50000000  0.00030331  0.00000000  1
