# generated using pymatgen
data_MnNiAs
_symmetry_space_group_name_H-M   'P 1'
_cell_length_a   3.66411912
_cell_length_b   6.16048190
_cell_length_c   6.16113940
_cell_angle_alpha   119.99646324
_cell_angle_beta   90.00000000
_cell_angle_gamma   90.00000000
_symmetry_Int_Tables_number   1
_chemical_formula_structural   MnNiAs
_chemical_formula_sum   'Mn3 Ni3 As3'
_cell_volume   120.44573159
_cell_formula_units_Z   3
loop_
 _symmetry_equiv_pos_site_id
 _symmetry_equiv_pos_as_xyz
  1  'x, y, z'
loop_
 _atom_site_type_symbol
 _atom_site_label
 _atom_site_symmetry_multiplicity
 _atom_site_fract_x
 _atom_site_fract_y
 _atom_site_fract_z
 _atom_site_occupancy
  Mn  Mn0  1  0.50000000  0.58713830  1.00000000  1
  Mn  Mn1  1  0.50000000  0.41279377  0.41269272  1
  Mn  Mn2  1  0.50000000  0.00010105  0.58730728  1
  Ni  Ni3  1  -0.00000000  0.25146846  1.00000000  1
  Ni  Ni4  1  -0.00000000  0.74838702  0.74839980  1
  Ni  Ni5  1  -0.00000000  0.99998722  0.25160020  1
  As  As6  1  -0.00000000  0.33329687  0.66669400  1
  As  As7  1  -0.00000000  0.66660288  0.33330600  1
  As  As8  1  0.50000000  0.00012443  0.00000000  1
