# generated using pymatgen
data_LaMgAg
_symmetry_space_group_name_H-M   'P 1'
_cell_length_a   4.39090652
_cell_length_b   7.91957890
_cell_length_c   7.92009817
_cell_angle_alpha   119.99782764
_cell_angle_beta   90.00000000
_cell_angle_gamma   90.00000000
_symmetry_Int_Tables_number   1
_chemical_formula_structural   LaMgAg
_chemical_formula_sum   'La3 Mg3 Ag3'
_cell_volume   238.52119908
_cell_formula_units_Z   3
loop_
 _symmetry_equiv_pos_site_id
 _symmetry_equiv_pos_as_xyz
  1  'x, y, z'
loop_
 _atom_site_type_symbol
 _atom_site_label
 _atom_site_symmetry_multiplicity
 _atom_site_fract_x
 _atom_site_fract_y
 _atom_site_fract_z
 _atom_site_occupancy
  La  La0  1  0.50000000  0.58528175  1.00000000  1
  La  La1  1  0.50000000  0.41471430  0.41472051  1
  La  La2  1  0.50000000  0.99999379  0.58527949  1
  Mg  Mg3  1  -0.00000000  0.23919361  0.00000000  1
  Mg  Mg4  1  0.00000000  0.76079899  0.76079534  1
  Mg  Mg5  1  0.00000000  0.00000365  0.23920466  1
  Ag  Ag6  1  0.00000000  0.33330877  0.66670261  1
  Ag  Ag7  1  -0.00000000  0.66660616  0.33329739  1
  Ag  Ag8  1  0.50000000  -0.00000101  -0.00000000  1
