# generated using pymatgen
data_HfGaNi
_symmetry_space_group_name_H-M   'P 1'
_cell_length_a   3.42352150
_cell_length_b   6.83490117
_cell_length_c   6.84044337
_cell_angle_alpha   119.97319446
_cell_angle_beta   90.00000000
_cell_angle_gamma   90.00000000
_symmetry_Int_Tables_number   1
_chemical_formula_structural   HfGaNi
_chemical_formula_sum   'Hf3 Ga3 Ni3'
_cell_volume   138.65560393
_cell_formula_units_Z   3
loop_
 _symmetry_equiv_pos_site_id
 _symmetry_equiv_pos_as_xyz
  1  'x, y, z'
loop_
 _atom_site_type_symbol
 _atom_site_label
 _atom_site_symmetry_multiplicity
 _atom_site_fract_x
 _atom_site_fract_y
 _atom_site_fract_z
 _atom_site_occupancy
  Hf  Hf0  1  0.50000000  0.59750095  1.00000000  1
  Hf  Hf1  1  0.50000000  0.40239683  0.40215421  1
  Hf  Hf2  1  0.50000000  0.00024262  0.59784579  1
  Ga  Ga3  1  0.00000000  0.26019058  1.00000000  1
  Ga  Ga4  1  0.00000000  0.73972342  0.73960679  1
  Ga  Ga5  1  0.00000000  0.00011663  0.26039321  1
  Ni  Ni6  1  0.00000000  0.33320411  0.66667317  1
  Ni  Ni7  1  -0.00000000  0.66653095  0.33332683  1
  Ni  Ni8  1  0.50000000  0.99999390  0.00000000  1
