# generated using pymatgen
data_SrTl2Pd
_symmetry_space_group_name_H-M   'P 1'
_cell_length_a   4.54708119
_cell_length_b   6.00973948
_cell_length_c   8.45713051
_cell_angle_alpha   90.00000000
_cell_angle_beta   90.00000000
_cell_angle_gamma   112.22899516
_symmetry_Int_Tables_number   1
_chemical_formula_structural   SrTl2Pd
_chemical_formula_sum   'Sr2 Tl4 Pd2'
_cell_volume   213.93011214
_cell_formula_units_Z   2
loop_
 _symmetry_equiv_pos_site_id
 _symmetry_equiv_pos_as_xyz
  1  'x, y, z'
loop_
 _atom_site_type_symbol
 _atom_site_label
 _atom_site_symmetry_multiplicity
 _atom_site_fract_x
 _atom_site_fract_y
 _atom_site_fract_z
 _atom_site_occupancy
  Sr  Sr0  1  0.43487257  0.86974515  0.75000000  1
  Sr  Sr1  1  0.56512743  0.13025485  0.25000000  1
  Tl  Tl2  1  0.14765545  0.29531091  0.94912378  1
  Tl  Tl3  1  0.85234455  0.70468909  0.05087622  1
  Tl  Tl4  1  0.14765545  0.29531091  0.55087622  1
  Tl  Tl5  1  0.85234455  0.70468909  0.44912378  1
  Pd  Pd6  1  0.28075979  0.56151958  0.25000000  1
  Pd  Pd7  1  0.71924021  0.43848042  0.75000000  1
