# generated using pymatgen
data_LiCu5(PO4)2
_symmetry_space_group_name_H-M   'P 1'
_cell_length_a   6.19510331
_cell_length_b   5.69174175
_cell_length_c   5.15049560
_cell_angle_alpha   92.02871286
_cell_angle_beta   90.00000000
_cell_angle_gamma   90.00000000
_symmetry_Int_Tables_number   1
_chemical_formula_structural   LiCu5(PO4)2
_chemical_formula_sum   'Li1 Cu5 P2 O8'
_cell_volume   181.49742371
_cell_formula_units_Z   1
loop_
 _symmetry_equiv_pos_site_id
 _symmetry_equiv_pos_as_xyz
  1  'x, y, z'
loop_
 _atom_site_type_symbol
 _atom_site_label
 _atom_site_symmetry_multiplicity
 _atom_site_fract_x
 _atom_site_fract_y
 _atom_site_fract_z
 _atom_site_occupancy
  Li  Li0  1  0.00000000  0.14645828  0.50584606  1
  Cu  Cu1  1  0.26080483  0.36998276  0.02085140  1
  Cu  Cu2  1  0.29659545  0.64797800  0.45446796  1
  Cu  Cu3  1  0.50000000  0.72886017  0.97452765  1
  Cu  Cu4  1  0.70340455  0.64797800  0.45446796  1
  Cu  Cu5  1  0.73919517  0.36998276  0.02085140  1
  P  P6  1  0.00000000  0.85201378  0.99610686  1
  P  P7  1  0.50000000  0.17532584  0.51701938  1
  O  O8  1  0.00000000  0.10474537  0.89015346  1
  O  O9  1  0.00000000  0.85080765  0.29707313  1
  O  O10  1  0.19780173  0.70885649  0.88021626  1
  O  O11  1  0.28747747  0.29674220  0.41898698  1
  O  O12  1  0.50000000  0.17316018  0.81683192  1
  O  O13  1  0.50000000  0.92151283  0.39598835  1
  O  O14  1  0.71252253  0.29674220  0.41898698  1
  O  O15  1  0.80219827  0.70885649  0.88021626  1
