# generated using pymatgen
data_ErSnPd
_symmetry_space_group_name_H-M   'P 1'
_cell_length_a   3.85814189
_cell_length_b   7.63209089
_cell_length_c   7.63213674
_cell_angle_alpha   119.99979512
_cell_angle_beta   90.00000000
_cell_angle_gamma   90.00000000
_symmetry_Int_Tables_number   1
_chemical_formula_structural   ErSnPd
_chemical_formula_sum   'Er3 Sn3 Pd3'
_cell_volume   194.62534717
_cell_formula_units_Z   3
loop_
 _symmetry_equiv_pos_site_id
 _symmetry_equiv_pos_as_xyz
  1  'x, y, z'
loop_
 _atom_site_type_symbol
 _atom_site_label
 _atom_site_symmetry_multiplicity
 _atom_site_fract_x
 _atom_site_fract_y
 _atom_site_fract_z
 _atom_site_occupancy
  Er  Er0  1  0.50000000  0.59513228  1.00000000  1
  Er  Er1  1  0.50000000  0.40485097  0.40484482  1
  Er  Er2  1  0.50000000  0.00000615  0.59515518  1
  Sn  Sn3  1  0.00000000  0.26079727  0.00000000  1
  Sn  Sn4  1  0.00000000  0.73918221  0.73920009  1
  Sn  Sn5  1  -0.00000000  0.99998212  0.26079991  1
  Pd  Pd6  1  0.00000000  0.33332449  0.66674866  1
  Pd  Pd7  1  0.00000000  0.66657583  0.33325134  1
  Pd  Pd8  1  0.50000000  0.00004867  0.00000000  1
