# generated using pymatgen
data_ErPdPb
_symmetry_space_group_name_H-M   'P 1'
_cell_length_a   3.83941152
_cell_length_b   7.84991941
_cell_length_c   7.85047797
_cell_angle_alpha   119.99764730
_cell_angle_beta   90.00000000
_cell_angle_gamma   90.00000000
_symmetry_Int_Tables_number   1
_chemical_formula_structural   ErPdPb
_chemical_formula_sum   'Er3 Pd3 Pb3'
_cell_volume   204.91176233
_cell_formula_units_Z   3
loop_
 _symmetry_equiv_pos_site_id
 _symmetry_equiv_pos_as_xyz
  1  'x, y, z'
loop_
 _atom_site_type_symbol
 _atom_site_label
 _atom_site_symmetry_multiplicity
 _atom_site_fract_x
 _atom_site_fract_y
 _atom_site_fract_z
 _atom_site_occupancy
  Er  Er0  1  0.50000000  0.60032380  0.00000000  1
  Er  Er1  1  0.50000000  0.39966098  0.39968912  1
  Er  Er2  1  0.50000000  0.99997185  0.60031088  1
  Pd  Pd3  1  -0.00000000  0.33335190  0.66662847  1
  Pd  Pd4  1  -0.00000000  0.66672343  0.33337153  1
  Pd  Pd5  1  0.50000000  0.99987261  0.00000000  1
  Pb  Pb6  1  -0.00000000  0.26684742  0.00000000  1
  Pb  Pb7  1  -0.00000000  0.73312656  0.73310511  1
  Pb  Pb8  1  -0.00000000  0.00002145  0.26689489  1
