# generated using pymatgen
data_LaGe2Rh
_symmetry_space_group_name_H-M   'P 1'
_cell_length_a   4.38682820
_cell_length_b   4.41658344
_cell_length_c   8.97120070
_cell_angle_alpha   104.25000425
_cell_angle_beta   90.00000000
_cell_angle_gamma   90.00000000
_symmetry_Int_Tables_number   1
_chemical_formula_structural   LaGe2Rh
_chemical_formula_sum   'La2 Ge4 Rh2'
_cell_volume   168.46701718
_cell_formula_units_Z   2
loop_
 _symmetry_equiv_pos_site_id
 _symmetry_equiv_pos_as_xyz
  1  'x, y, z'
loop_
 _atom_site_type_symbol
 _atom_site_label
 _atom_site_symmetry_multiplicity
 _atom_site_fract_x
 _atom_site_fract_y
 _atom_site_fract_z
 _atom_site_occupancy
  La  La0  1  0.75000000  0.10788644  0.21577289  1
  La  La1  1  0.25000000  0.89211356  0.78422711  1
  Ge  Ge2  1  0.75000000  0.45823264  0.91646528  1
  Ge  Ge3  1  0.25000000  0.54176736  0.08353472  1
  Ge  Ge4  1  0.75000000  0.74964906  0.49929813  1
  Ge  Ge5  1  0.25000000  0.25035094  0.50070187  1
  Rh  Rh6  1  0.75000000  0.31876004  0.63752008  1
  Rh  Rh7  1  0.25000000  0.68123996  0.36247992  1
