# generated using pymatgen
data_LiSbS2
_symmetry_space_group_name_H-M   'P 1'
_cell_length_a   5.58511888
_cell_length_b   5.58511888
_cell_length_c   6.76911821
_cell_angle_alpha   114.24005319
_cell_angle_beta   114.38864936
_cell_angle_gamma   90.11135235
_symmetry_Int_Tables_number   1
_chemical_formula_structural   LiSbS2
_chemical_formula_sum   'Li2 Sb2 S4'
_cell_volume   171.57660592
_cell_formula_units_Z   2
loop_
 _symmetry_equiv_pos_site_id
 _symmetry_equiv_pos_as_xyz
  1  'x, y, z'
loop_
 _atom_site_type_symbol
 _atom_site_label
 _atom_site_symmetry_multiplicity
 _atom_site_fract_x
 _atom_site_fract_y
 _atom_site_fract_z
 _atom_site_occupancy
  Li  Li0  1  0.88012677  0.13012677  0.25000000  1
  Li  Li1  1  0.11987323  0.86987323  0.75000000  1
  Sb  Sb2  1  0.64020548  0.39020548  0.75000000  1
  Sb  Sb3  1  0.35979452  0.60979452  0.25000000  1
  S  S4  1  0.61769146  0.84130219  0.75466138  1
  S  S5  1  0.08664081  0.36303008  0.74533862  1
  S  S6  1  0.38230854  0.15869781  0.24533862  1
  S  S7  1  0.91335919  0.63696992  0.25466138  1
