# generated using pymatgen
data_Ba2Br2O
_symmetry_space_group_name_H-M   'P 1'
_cell_length_a   6.74507567
_cell_length_b   7.50866727
_cell_length_c   8.28913651
_cell_angle_alpha   116.93132206
_cell_angle_beta   114.00788350
_cell_angle_gamma   90.00000000
_symmetry_Int_Tables_number   1
_chemical_formula_structural   Ba2Br2O
_chemical_formula_sum   'Ba4 Br4 O2'
_cell_volume   333.03993711
_cell_formula_units_Z   2
loop_
 _symmetry_equiv_pos_site_id
 _symmetry_equiv_pos_as_xyz
  1  'x, y, z'
loop_
 _atom_site_type_symbol
 _atom_site_label
 _atom_site_symmetry_multiplicity
 _atom_site_fract_x
 _atom_site_fract_y
 _atom_site_fract_z
 _atom_site_occupancy
  Ba  Ba0  1  0.59709796  0.90941298  0.19419591  1
  Ba  Ba1  1  0.40290204  0.09058702  0.80580409  1
  Ba  Ba2  1  0.09709796  0.28478294  0.19419591  1
  Ba  Ba3  1  0.90290204  0.71521706  0.80580409  1
  Br  Br4  1  0.85268922  0.20359929  0.70537843  1
  Br  Br5  1  0.14731078  0.79640071  0.29462157  1
  Br  Br6  1  0.35268922  0.50177914  0.70537843  1
  Br  Br7  1  0.64731078  0.49822086  0.29462157  1
  O  O8  1  0.75000000  -0.00000000  -0.00000000  1
  O  O9  1  0.25000000  -0.00000000  -0.00000000  1
