# generated using pymatgen
data_LiCu2PO4
_symmetry_space_group_name_H-M   'P 1'
_cell_length_a   6.21106625
_cell_length_b   5.50490780
_cell_length_c   5.17006957
_cell_angle_alpha   91.87162528
_cell_angle_beta   91.18923490
_cell_angle_gamma   89.56313391
_symmetry_Int_Tables_number   1
_chemical_formula_structural   LiCu2PO4
_chemical_formula_sum   'Li2 Cu4 P2 O8'
_cell_volume   176.63501278
_cell_formula_units_Z   2
loop_
 _symmetry_equiv_pos_site_id
 _symmetry_equiv_pos_as_xyz
  1  'x, y, z'
loop_
 _atom_site_type_symbol
 _atom_site_label
 _atom_site_symmetry_multiplicity
 _atom_site_fract_x
 _atom_site_fract_y
 _atom_site_fract_z
 _atom_site_occupancy
  Li  Li0  1  0.00309210  0.15102292  0.50063174  1
  Li  Li1  1  0.24876957  0.67660993  0.48756568  1
  Cu  Cu2  1  0.27333309  0.36245314  0.03199527  1
  Cu  Cu3  1  0.50934905  0.75339926  0.99600167  1
  Cu  Cu4  1  0.71756128  0.65041463  0.43536375  1
  Cu  Cu5  1  0.73415932  0.36964710  0.02760004  1
  P  P6  1  0.00597821  0.84411525  0.98512105  1
  P  P7  1  0.49593976  0.17037098  0.51451955  1
  O  O8  1  0.00382760  0.10683822  0.88693788  1
  O  O9  1  0.00799353  0.83819505  0.28532424  1
  O  O10  1  0.20597295  0.70190904  0.87092769  1
  O  O11  1  0.29182648  0.31488512  0.42021873  1
  O  O12  1  0.50119952  0.16736323  0.81344452  1
  O  O13  1  0.48283997  0.90496443  0.40344446  1
  O  O14  1  0.71125850  0.28582784  0.42008131  1
  O  O15  1  0.80690005  0.70198286  0.86341541  1
