# generated using pymatgen
data_LuSnIr
_symmetry_space_group_name_H-M   'P 1'
_cell_length_a   3.78625034
_cell_length_b   7.53515388
_cell_length_c   7.53425749
_cell_angle_alpha   120.00393153
_cell_angle_beta   90.00000000
_cell_angle_gamma   90.00000000
_symmetry_Int_Tables_number   1
_chemical_formula_structural   LuSnIr
_chemical_formula_sum   'Lu3 Sn3 Ir3'
_cell_volume   186.14669694
_cell_formula_units_Z   3
loop_
 _symmetry_equiv_pos_site_id
 _symmetry_equiv_pos_as_xyz
  1  'x, y, z'
loop_
 _atom_site_type_symbol
 _atom_site_label
 _atom_site_symmetry_multiplicity
 _atom_site_fract_x
 _atom_site_fract_y
 _atom_site_fract_z
 _atom_site_occupancy
  Lu  Lu0  1  0.50000000  0.59823714  1.00000000  1
  Lu  Lu1  1  0.50000000  0.40173984  0.40176404  1
  Lu  Lu2  1  0.50000000  0.99997580  0.59823596  1
  Sn  Sn3  1  0.00000000  0.26494810  0.00000000  1
  Sn  Sn4  1  0.00000000  0.73503074  0.73504701  1
  Sn  Sn5  1  0.00000000  0.99998372  0.26495299  1
  Ir  Ir6  1  0.00000000  0.33333353  0.66666533  1
  Ir  Ir7  1  0.00000000  0.66666820  0.33333467  1
  Ir  Ir8  1  0.50000000  0.99998294  1.00000000  1
