# generated using pymatgen
data_HoNiGe3
_symmetry_space_group_name_H-M   'P 1'
_cell_length_a   4.10292426
_cell_length_b   4.09015246
_cell_length_c   10.97532183
_cell_angle_alpha   90.00000000
_cell_angle_beta   100.77285394
_cell_angle_gamma   90.00000000
_symmetry_Int_Tables_number   1
_chemical_formula_structural   HoNiGe3
_chemical_formula_sum   'Ho2 Ni2 Ge6'
_cell_volume   180.93724302
_cell_formula_units_Z   2
loop_
 _symmetry_equiv_pos_site_id
 _symmetry_equiv_pos_as_xyz
  1  'x, y, z'
loop_
 _atom_site_type_symbol
 _atom_site_label
 _atom_site_symmetry_multiplicity
 _atom_site_fract_x
 _atom_site_fract_y
 _atom_site_fract_z
 _atom_site_occupancy
  Ho  Ho0  1  0.16879096  0.50000000  0.33758193  1
  Ho  Ho1  1  0.83120904  0.50000000  0.66241807  1
  Ni  Ni2  1  0.38934642  0.00000000  0.77869283  1
  Ni  Ni3  1  0.61065358  0.00000000  0.22130717  1
  Ge  Ge4  1  0.28313692  0.00000000  0.56627384  1
  Ge  Ge5  1  0.71686308  0.00000000  0.43372616  1
  Ge  Ge6  1  0.44250765  0.50000000  0.88501529  1
  Ge  Ge7  1  0.55749235  0.50000000  0.11498471  1
  Ge  Ge8  1  0.05760135  0.00000000  0.11520269  1
  Ge  Ge9  1  0.94239865  0.00000000  0.88479731  1
