# generated using pymatgen
data_HfSb
_symmetry_space_group_name_H-M   'P 1'
_cell_length_a   5.63246586
_cell_length_b   5.63246586
_cell_length_c   5.63246586
_cell_angle_alpha   90.00000000
_cell_angle_beta   90.00000000
_cell_angle_gamma   90.00000000
_symmetry_Int_Tables_number   1
_chemical_formula_structural   HfSb
_chemical_formula_sum   'Hf4 Sb4'
_cell_volume   178.68813007
_cell_formula_units_Z   4
loop_
 _symmetry_equiv_pos_site_id
 _symmetry_equiv_pos_as_xyz
  1  'x, y, z'
loop_
 _atom_site_type_symbol
 _atom_site_label
 _atom_site_symmetry_multiplicity
 _atom_site_fract_x
 _atom_site_fract_y
 _atom_site_fract_z
 _atom_site_occupancy
  Hf  Hf0  1  0.35604307  0.85604307  0.64395693  1
  Hf  Hf1  1  0.85604307  0.64395693  0.35604307  1
  Hf  Hf2  1  0.64395693  0.35604307  0.85604307  1
  Hf  Hf3  1  0.14395693  0.14395693  0.14395693  1
  Sb  Sb4  1  0.65630437  0.15630437  0.34369563  1
  Sb  Sb5  1  0.15630437  0.34369563  0.65630437  1
  Sb  Sb6  1  0.34369563  0.65630437  0.15630437  1
  Sb  Sb7  1  0.84369563  0.84369563  0.84369563  1
