# generated using pymatgen
data_TbCoGe2
_symmetry_space_group_name_H-M   'P 1'
_cell_length_a   4.18785832
_cell_length_b   4.16873149
_cell_length_c   8.50322457
_cell_angle_alpha   104.18931276
_cell_angle_beta   90.00000000
_cell_angle_gamma   90.00000000
_symmetry_Int_Tables_number   1
_chemical_formula_structural   TbCoGe2
_chemical_formula_sum   'Tb2 Co2 Ge4'
_cell_volume   143.92073695
_cell_formula_units_Z   2
loop_
 _symmetry_equiv_pos_site_id
 _symmetry_equiv_pos_as_xyz
  1  'x, y, z'
loop_
 _atom_site_type_symbol
 _atom_site_label
 _atom_site_symmetry_multiplicity
 _atom_site_fract_x
 _atom_site_fract_y
 _atom_site_fract_z
 _atom_site_occupancy
  Tb  Tb0  1  0.75000000  0.10790917  0.21581833  1
  Tb  Tb1  1  0.25000000  0.89209083  0.78418167  1
  Co  Co2  1  0.75000000  0.31800959  0.63601919  1
  Co  Co3  1  0.25000000  0.68199041  0.36398081  1
  Ge  Ge4  1  0.75000000  0.45492699  0.90985399  1
  Ge  Ge5  1  0.25000000  0.54507301  0.09014601  1
  Ge  Ge6  1  0.75000000  0.74882662  0.49765323  1
  Ge  Ge7  1  0.25000000  0.25117338  0.50234677  1
