# generated using pymatgen
data_LiCoP2O7
_symmetry_space_group_name_H-M   'P 1'
_cell_length_a   5.50853884
_cell_length_b   8.11253327
_cell_length_c   8.19776683
_cell_angle_alpha   117.58324458
_cell_angle_beta   89.99999996
_cell_angle_gamma   70.15310592
_symmetry_Int_Tables_number   1
_chemical_formula_structural   LiCoP2O7
_chemical_formula_sum   'Li2 Co2 P4 O14'
_cell_volume   299.93918596
_cell_formula_units_Z   2
loop_
 _symmetry_equiv_pos_site_id
 _symmetry_equiv_pos_as_xyz
  1  'x, y, z'
loop_
 _atom_site_type_symbol
 _atom_site_label
 _atom_site_symmetry_multiplicity
 _atom_site_fract_x
 _atom_site_fract_y
 _atom_site_fract_z
 _atom_site_occupancy
  Li  Li0  1  0.95317981  0.45025029  0.31999739  1
  Li  Li1  1  0.59656990  0.45025029  0.81999739  1
  Co  Co2  1  0.01188828  0.99706084  0.00132451  1
  Co  Co3  1  0.99105088  0.99706084  0.50132451  1
  P  P4  1  0.75411817  0.78553792  0.14359941  1
  P  P5  1  0.46034491  0.78553792  0.64359941  1
  P  P6  1  0.53906039  0.21395266  0.35214982  1
  P  P7  1  0.24698695  0.21395266  0.85214982  1
  O  O8  1  0.91526505  0.79458518  0.30137095  1
  O  O9  1  0.90299209  0.80301327  0.99497306  1
  O  O10  1  0.71716702  0.61331355  0.56372546  1
  O  O11  1  0.66952043  0.61331355  0.06372546  1
  O  O12  1  0.74421008  0.20339304  0.21173681  1
  O  O13  1  0.67790746  0.20774112  0.51693994  1
  O  O14  1  0.29399464  0.80301327  0.49497306  1
  O  O15  1  0.29014977  0.79458518  0.80137095  1
  O  O16  1  0.34527578  0.37706261  0.90749036  1
  O  O17  1  0.49833335  0.99893153  0.24516529  1
  O  O18  1  0.50273512  0.99893153  0.74516529  1
  O  O19  1  0.27766161  0.37706261  0.40749036  1
  O  O20  1  0.11435142  0.20774112  0.01693994  1
  O  O21  1  0.05239788  0.20339304  0.71173681  1
