# generated using pymatgen
data_SiNiPd
_symmetry_space_group_name_H-M   'P 1'
_cell_length_a   3.48715139
_cell_length_b   6.12672211
_cell_length_c   6.12699008
_cell_angle_alpha   119.99855117
_cell_angle_beta   90.00000000
_cell_angle_gamma   90.00000000
_symmetry_Int_Tables_number   1
_chemical_formula_structural   SiNiPd
_chemical_formula_sum   'Si3 Ni3 Pd3'
_cell_volume   113.36608104
_cell_formula_units_Z   3
loop_
 _symmetry_equiv_pos_site_id
 _symmetry_equiv_pos_as_xyz
  1  'x, y, z'
loop_
 _atom_site_type_symbol
 _atom_site_label
 _atom_site_symmetry_multiplicity
 _atom_site_fract_x
 _atom_site_fract_y
 _atom_site_fract_z
 _atom_site_occupancy
  Si  Si0  1  0.00000000  0.33333229  0.66668284  1
  Si  Si1  1  0.00000000  0.66664946  0.33331716  1
  Si  Si2  1  0.50000000  -0.00001724  0.00000000  1
  Ni  Ni3  1  -0.00000000  0.25334865  0.00000000  1
  Ni  Ni4  1  0.00000000  0.74655812  0.74657691  1
  Ni  Ni5  1  0.00000000  -0.00001878  0.25342309  1
  Pd  Pd6  1  0.50000000  0.59992026  1.00000000  1
  Pd  Pd7  1  0.50000000  0.40011586  0.40010448  1
  Pd  Pd8  1  0.50000000  0.00001139  0.59989552  1
