# generated using pymatgen
data_CeCdPd
_symmetry_space_group_name_H-M   'P 1'
_cell_length_a   4.03205590
_cell_length_b   7.69262878
_cell_length_c   7.69136309
_cell_angle_alpha   120.00545148
_cell_angle_beta   90.00000000
_cell_angle_gamma   90.00000000
_symmetry_Int_Tables_number   1
_chemical_formula_structural   CeCdPd
_chemical_formula_sum   'Ce3 Cd3 Pd3'
_cell_volume   206.59100397
_cell_formula_units_Z   3
loop_
 _symmetry_equiv_pos_site_id
 _symmetry_equiv_pos_as_xyz
  1  'x, y, z'
loop_
 _atom_site_type_symbol
 _atom_site_label
 _atom_site_symmetry_multiplicity
 _atom_site_fract_x
 _atom_site_fract_y
 _atom_site_fract_z
 _atom_site_occupancy
  Ce  Ce0  1  0.50000000  0.59010442  0.00000000  1
  Ce  Ce1  1  0.50000000  0.40974297  0.40976591  1
  Ce  Ce2  1  0.50000000  0.99997707  0.59023409  1
  Cd  Cd3  1  -0.00000000  0.25135106  0.00000000  1
  Cd  Cd4  1  -0.00000000  0.74867347  0.74867054  1
  Cd  Cd5  1  -0.00000000  0.00000293  0.25132946  1
  Pd  Pd6  1  0.00000000  0.33333450  0.66668379  1
  Pd  Pd7  1  0.00000000  0.66665071  0.33331621  1
  Pd  Pd8  1  0.50000000  0.00006286  1.00000000  1
