# generated using pymatgen
data_PrInCu
_symmetry_space_group_name_H-M   'P 1'
_cell_length_a   4.23541683
_cell_length_b   7.54349467
_cell_length_c   7.54350682
_cell_angle_alpha   119.99994679
_cell_angle_beta   90.00000000
_cell_angle_gamma   90.00000000
_symmetry_Int_Tables_number   1
_chemical_formula_structural   PrInCu
_chemical_formula_sum   'Pr3 In3 Cu3'
_cell_volume   208.72424435
_cell_formula_units_Z   3
loop_
 _symmetry_equiv_pos_site_id
 _symmetry_equiv_pos_as_xyz
  1  'x, y, z'
loop_
 _atom_site_type_symbol
 _atom_site_label
 _atom_site_symmetry_multiplicity
 _atom_site_fract_x
 _atom_site_fract_y
 _atom_site_fract_z
 _atom_site_occupancy
  Pr  Pr0  1  0.50000000  0.58500552  -0.00000000  1
  Pr  Pr1  1  0.50000000  0.41495362  0.41501255  1
  Pr  Pr2  1  0.50000000  0.99994107  0.58498745  1
  In  In3  1  -0.00000000  0.24547376  -0.00000000  1
  In  In4  1  0.00000000  0.75458360  0.75460737  1
  In  In5  1  0.00000000  0.99997622  0.24539263  1
  Cu  Cu6  1  -0.00000000  0.33331267  0.66667882  1
  Cu  Cu7  1  -0.00000000  0.66663385  0.33332118  1
  Cu  Cu8  1  0.50000000  0.00001967  0.00000000  1
