# generated using pymatgen
data_UGaPt
_symmetry_space_group_name_H-M   'P 1'
_cell_length_a   4.12376445
_cell_length_b   7.03700899
_cell_length_c   7.02062242
_cell_angle_alpha   120.07724024
_cell_angle_beta   90.00000000
_cell_angle_gamma   90.00000000
_symmetry_Int_Tables_number   1
_chemical_formula_structural   UGaPt
_chemical_formula_sum   'U3 Ga3 Pt3'
_cell_volume   176.29892180
_cell_formula_units_Z   3
loop_
 _symmetry_equiv_pos_site_id
 _symmetry_equiv_pos_as_xyz
  1  'x, y, z'
loop_
 _atom_site_type_symbol
 _atom_site_label
 _atom_site_symmetry_multiplicity
 _atom_site_fract_x
 _atom_site_fract_y
 _atom_site_fract_z
 _atom_site_occupancy
  U  U0  1  0.50000000  0.57796035  0.00000000  1
  U  U1  1  0.50000000  0.42318159  0.42373793  1
  U  U2  1  0.50000000  0.99944366  0.57626207  1
  Ga  Ga3  1  -0.00000000  0.24252977  -0.00000000  1
  Ga  Ga4  1  0.00000000  0.75774929  0.75814343  1
  Ga  Ga5  1  0.00000000  0.99960586  0.24185657  1
  Pt  Pt6  1  -0.00000000  0.33234126  0.66621850  1
  Pt  Pt7  1  -0.00000000  0.66612276  0.33378150  1
  Pt  Pt8  1  0.50000000  0.00096545  -0.00000000  1
