# generated using pymatgen
data_Li6Mn3Sb(PO4)6
_symmetry_space_group_name_H-M   'P 1'
_cell_length_a   8.76731791
_cell_length_b   8.80498961
_cell_length_c   8.79725994
_cell_angle_alpha   60.59827203
_cell_angle_beta   60.21339516
_cell_angle_gamma   60.76349565
_symmetry_Int_Tables_number   1
_chemical_formula_structural   Li6Mn3Sb(PO4)6
_chemical_formula_sum   'Li6 Mn3 Sb1 P6 O24'
_cell_volume   485.88060338
_cell_formula_units_Z   1
loop_
 _symmetry_equiv_pos_site_id
 _symmetry_equiv_pos_as_xyz
  1  'x, y, z'
loop_
 _atom_site_type_symbol
 _atom_site_label
 _atom_site_symmetry_multiplicity
 _atom_site_fract_x
 _atom_site_fract_y
 _atom_site_fract_z
 _atom_site_occupancy
  Li  Li0  1  0.03357290  0.02032572  0.00752370  1
  Li  Li1  1  0.72430577  0.15907408  0.35790760  1
  Li  Li2  1  0.47556536  0.50059152  0.49224200  1
  Li  Li3  1  0.30793388  0.84439584  0.63875088  1
  Li  Li4  1  0.64164150  0.31277222  0.83368315  1
  Li  Li5  1  0.84364012  0.64067181  0.30809561  1
  Mn  Mn6  1  0.14252741  0.14839850  0.14177325  1
  Mn  Mn7  1  0.34739147  0.36254628  0.35222964  1
  Mn  Mn8  1  0.65364320  0.65626541  0.65463689  1
  Sb  Sb9  1  0.85200261  0.84951800  0.85202973  1
  P  P10  1  0.05644147  0.75479391  0.43766069  1
  P  P11  1  0.44506947  0.05056350  0.75319595  1
  P  P12  1  0.75240157  0.44209237  0.04982138  1
  P  P13  1  0.24185349  0.53878074  0.95453551  1
  P  P14  1  0.54623335  0.96136087  0.24740403  1
  P  P15  1  0.95362946  0.24136107  0.53414439  1
  O  O16  1  0.13495380  0.23860764  0.51728543  1
  O  O17  1  0.25784993  0.53515871  0.11963710  1
  O  O18  1  0.07408602  0.92205697  0.25556524  1
  O  O19  1  0.56587436  0.10971790  0.27351390  1
  O  O20  1  0.23826068  0.59926827  0.44341119  1
  O  O21  1  0.98631243  0.82755860  0.60260940  1
  O  O22  1  0.25867339  0.08825055  0.91005053  1
  O  O23  1  0.47620664  0.22118387  0.58342601  1
  O  O24  1  0.60182531  0.43743428  0.24054224  1
  O  O25  1  0.16682150  0.39291287  0.99892094  1
  O  O26  1  0.09999022  0.74768981  0.88337437  1
  O  O27  1  0.38633443  0.03161159  0.18106903  1
  O  O28  1  0.60373036  0.97622768  0.83445567  1
  O  O29  1  0.91066617  0.25370201  0.07569065  1
  O  O30  1  0.82281682  0.60482989  0.98635603  1
  O  O31  1  0.41800175  0.53788159  0.77782294  1
  O  O32  1  0.53998256  0.78249161  0.41825321  1
  O  O33  1  0.74968130  0.88700726  0.09801306  1
  O  O34  1  0.96923594  0.18709594  0.38404040  1
  O  O35  1  0.78593958  0.42078587  0.54339365  1
  O  O36  1  0.45755394  0.89952538  0.70334185  1
  O  O37  1  0.88255899  0.09973076  0.74290168  1
  O  O38  1  0.69106214  0.46488740  0.90295322  1
  O  O39  1  0.90372772  0.69987171  0.45873687  1
