# generated using pymatgen
data_Sr(ZnSn)2
_symmetry_space_group_name_H-M   'P 1'
_cell_length_a   4.66054738
_cell_length_b   4.67456293
_cell_length_c   11.51388456
_cell_angle_alpha   90.65817946
_cell_angle_beta   90.00000000
_cell_angle_gamma   90.00000000
_symmetry_Int_Tables_number   1
_chemical_formula_structural   Sr(ZnSn)2
_chemical_formula_sum   'Sr2 Zn4 Sn4'
_cell_volume   250.82519227
_cell_formula_units_Z   2
loop_
 _symmetry_equiv_pos_site_id
 _symmetry_equiv_pos_as_xyz
  1  'x, y, z'
loop_
 _atom_site_type_symbol
 _atom_site_label
 _atom_site_symmetry_multiplicity
 _atom_site_fract_x
 _atom_site_fract_y
 _atom_site_fract_z
 _atom_site_occupancy
  Sr  Sr0  1  0.75000000  0.74172616  0.24484915  1
  Sr  Sr1  1  0.25000000  0.25827384  0.75515085  1
  Zn  Zn2  1  0.75000000  0.74358481  0.63925530  1
  Zn  Zn3  1  0.25000000  0.25641519  0.36074470  1
  Zn  Zn4  1  0.75000000  0.27017346  0.99919014  1
  Zn  Zn5  1  0.25000000  0.72982654  0.00080986  1
  Sn  Sn6  1  0.75000000  0.77389443  0.86894236  1
  Sn  Sn7  1  0.25000000  0.22610557  0.13105764  1
  Sn  Sn8  1  0.75000000  0.24337329  0.50023749  1
  Sn  Sn9  1  0.25000000  0.75662671  0.49976251  1
