# generated using pymatgen
data_TaFeB
_symmetry_space_group_name_H-M   'P 1'
_cell_length_a   3.20388090
_cell_length_b   5.98028651
_cell_length_c   5.97992302
_cell_angle_alpha   120.00201170
_cell_angle_beta   90.00000000
_cell_angle_gamma   90.00000000
_symmetry_Int_Tables_number   1
_chemical_formula_structural   TaFeB
_chemical_formula_sum   'Ta3 Fe3 B3'
_cell_volume   99.22378168
_cell_formula_units_Z   3
loop_
 _symmetry_equiv_pos_site_id
 _symmetry_equiv_pos_as_xyz
  1  'x, y, z'
loop_
 _atom_site_type_symbol
 _atom_site_label
 _atom_site_symmetry_multiplicity
 _atom_site_fract_x
 _atom_site_fract_y
 _atom_site_fract_z
 _atom_site_occupancy
  Ta  Ta0  1  0.50000000  0.58836063  1.00000000  1
  Ta  Ta1  1  0.50000000  0.41157742  0.41156558  1
  Ta  Ta2  1  0.50000000  0.00001184  0.58843442  1
  Fe  Fe3  1  -0.00000000  0.23963680  1.00000000  1
  Fe  Fe4  1  0.00000000  0.76036012  0.76032180  1
  Fe  Fe5  1  0.00000000  0.00003833  0.23967820  1
  B  B6  1  0.00000000  0.33330640  0.66669027  1
  B  B7  1  0.00000000  0.66661613  0.33330973  1
  B  B8  1  0.50000000  0.99999231  -0.00000000  1
