# generated using pymatgen
data_Pr(BIr)2
_symmetry_space_group_name_H-M   'P 1'
_cell_length_a   5.61053943
_cell_length_b   5.61053943
_cell_length_c   6.16040878
_cell_angle_alpha   105.29659397
_cell_angle_beta   105.29659397
_cell_angle_gamma   114.87609060
_symmetry_Int_Tables_number   1
_chemical_formula_structural   Pr(BIr)2
_chemical_formula_sum   'Pr2 B4 Ir4'
_cell_volume   153.34211480
_cell_formula_units_Z   2
loop_
 _symmetry_equiv_pos_site_id
 _symmetry_equiv_pos_as_xyz
  1  'x, y, z'
loop_
 _atom_site_type_symbol
 _atom_site_label
 _atom_site_symmetry_multiplicity
 _atom_site_fract_x
 _atom_site_fract_y
 _atom_site_fract_z
 _atom_site_occupancy
  Pr  Pr0  1  0.75000000  0.25000000  0.50000000  1
  Pr  Pr1  1  0.00000000  0.00000000  0.00000000  1
  B  B2  1  0.07259384  0.92740616  0.50000000  1
  B  B3  1  0.67740616  0.32259384  -0.00000000  1
  B  B4  1  0.42740616  0.57259384  0.50000000  1
  B  B5  1  0.32259384  0.67740616  0.00000000  1
  Ir  Ir6  1  0.12067140  0.62067140  0.24134279  1
  Ir  Ir7  1  0.37932860  0.87932860  0.75865721  1
  Ir  Ir8  1  0.62932860  0.62932860  0.25865721  1
  Ir  Ir9  1  0.37067140  0.37067140  0.74134279  1
