# generated using pymatgen
data_SrGa3Pd
_symmetry_space_group_name_H-M   'P 1'
_cell_length_a   6.04893929
_cell_length_b   6.19769963
_cell_length_c   6.19769963
_cell_angle_alpha   116.99619977
_cell_angle_beta   90.00000000
_cell_angle_gamma   90.00000000
_symmetry_Int_Tables_number   1
_chemical_formula_structural   SrGa3Pd
_chemical_formula_sum   'Sr2 Ga6 Pd2'
_cell_volume   207.03121703
_cell_formula_units_Z   2
loop_
 _symmetry_equiv_pos_site_id
 _symmetry_equiv_pos_as_xyz
  1  'x, y, z'
loop_
 _atom_site_type_symbol
 _atom_site_label
 _atom_site_symmetry_multiplicity
 _atom_site_fract_x
 _atom_site_fract_y
 _atom_site_fract_z
 _atom_site_occupancy
  Sr  Sr0  1  0.75000000  0.23491809  0.76508191  1
  Sr  Sr1  1  0.25000000  0.76508191  0.23491809  1
  Ga  Ga2  1  0.75000000  0.66256723  0.33743277  1
  Ga  Ga3  1  0.25000000  0.33743277  0.66256723  1
  Ga  Ga4  1  0.50000000  0.28086413  0.28086413  1
  Ga  Ga5  1  0.00000000  0.28086413  0.28086413  1
  Ga  Ga6  1  0.50000000  0.71913587  0.71913587  1
  Ga  Ga7  1  -0.00000000  0.71913587  0.71913587  1
  Pd  Pd8  1  0.75000000  0.90243031  0.09756969  1
  Pd  Pd9  1  0.25000000  0.09756969  0.90243031  1
