# generated using pymatgen
data_Eu(GePt)2
_symmetry_space_group_name_H-M   'P 1'
_cell_length_a   4.39954458
_cell_length_b   4.37794533
_cell_length_c   10.20118103
_cell_angle_alpha   90.00000000
_cell_angle_beta   89.60662725
_cell_angle_gamma   90.00000000
_symmetry_Int_Tables_number   1
_chemical_formula_structural   Eu(GePt)2
_chemical_formula_sum   'Eu2 Ge4 Pt4'
_cell_volume   196.47996669
_cell_formula_units_Z   2
loop_
 _symmetry_equiv_pos_site_id
 _symmetry_equiv_pos_as_xyz
  1  'x, y, z'
loop_
 _atom_site_type_symbol
 _atom_site_label
 _atom_site_symmetry_multiplicity
 _atom_site_fract_x
 _atom_site_fract_y
 _atom_site_fract_z
 _atom_site_occupancy
  Eu  Eu0  1  0.74773746  0.75202911  0.25286642  1
  Eu  Eu1  1  0.25226254  0.25202911  0.74713358  1
  Ge  Ge2  1  0.76126559  0.76016176  0.87137937  1
  Ge  Ge3  1  0.23873441  0.26016176  0.12862063  1
  Ge  Ge4  1  0.25420209  0.74616733  0.49976033  1
  Ge  Ge5  1  0.74579791  0.24616733  0.50023967  1
  Pt  Pt6  1  0.75244707  0.74636851  0.62705238  1
  Pt  Pt7  1  0.24755293  0.24636851  0.37294762  1
  Pt  Pt8  1  0.26298019  0.76127329  0.99920719  1
  Pt  Pt9  1  0.73701981  0.26127329  0.00079281  1
