# generated using pymatgen
data_Li5FeOF5
_symmetry_space_group_name_H-M   'P 1'
_cell_length_a   5.14716994
_cell_length_b   5.14724014
_cell_length_c   14.51083745
_cell_angle_alpha   90.00045581
_cell_angle_beta   90.00011831
_cell_angle_gamma   119.99998519
_symmetry_Int_Tables_number   1
_chemical_formula_structural   Li5FeOF5
_chemical_formula_sum   'Li15 Fe3 O3 F15'
_cell_volume   332.94010425
_cell_formula_units_Z   3
loop_
 _symmetry_equiv_pos_site_id
 _symmetry_equiv_pos_as_xyz
  1  'x, y, z'
loop_
 _atom_site_type_symbol
 _atom_site_label
 _atom_site_symmetry_multiplicity
 _atom_site_fract_x
 _atom_site_fract_y
 _atom_site_fract_z
 _atom_site_occupancy
  Li  Li0  1  0.08980665  0.88266016  0.82847567  1
  Li  Li1  1  0.10743866  0.53073904  0.49448737  1
  Li  Li2  1  0.11169544  0.56997655  0.00499947  1
  Li  Li3  1  0.45828606  0.88827880  0.67167839  1
  Li  Li4  1  0.42329213  0.89257088  0.16116960  1
  Li  Li5  1  0.11735220  0.20713650  0.16179577  1
  Li  Li6  1  0.46928380  0.57670074  0.82784793  1
  Li  Li7  1  0.43002297  0.54174414  0.33831370  1
  Li  Li8  1  0.43002258  0.20856395  0.00460815  1
  Li  Li9  1  0.43219718  0.22366509  0.49711633  1
  Li  Li10  1  0.79290269  0.91023224  0.49511087  1
  Li  Li11  1  0.77853793  0.56996687  0.67128375  1
  Li  Li12  1  0.79147811  0.56780387  0.16379725  1
  Li  Li13  1  0.77635456  0.20851543  0.83047849  1
  Li  Li14  1  0.79143628  0.22146234  0.33792679  1
  Fe  Fe15  1  0.11054015  0.91062483  0.33809407  1
  Fe  Fe16  1  0.08936393  0.19985409  0.67143727  1
  Fe  Fe17  1  0.80000677  0.88941717  0.00479847  1
  O  O18  1  0.10437588  0.88870407  0.08162336  1
  O  O19  1  0.11133920  0.21570294  0.41493614  1
  O  O20  1  0.78434886  0.89564367  0.74829258  1
  F  F21  1  0.11283422  0.87330322  0.58040809  1
  F  F22  1  0.12042045  0.57216214  0.75122706  1
  F  F23  1  0.10922129  0.57382726  0.25403677  1
  F  F24  1  0.45175797  0.87955971  0.41787317  1
  F  F25  1  0.12671744  0.23960510  0.91379259  1
  F  F26  1  0.46459961  0.89077012  0.92071493  1
  F  F27  1  0.42615957  0.53538034  0.58738352  1
  F  F28  1  0.42780905  0.54825107  0.08455561  1
  F  F29  1  0.45851761  0.23587314  0.24719944  1
  F  F30  1  0.45834558  0.22658216  0.75108981  1
  F  F31  1  0.76040850  0.88715751  0.24709496  1
  F  F32  1  0.77733016  0.54149127  0.91388526  1
  F  F33  1  0.76826557  0.54165307  0.41772152  1
  F  F34  1  0.77336585  0.23175063  0.08441192  1
  F  F35  1  0.76416809  0.22266891  0.58053292  1
