# generated using pymatgen
data_SmSnRh
_symmetry_space_group_name_H-M   'P 1'
_cell_length_a   3.99707819
_cell_length_b   7.59046357
_cell_length_c   7.59116551
_cell_angle_alpha   119.99694164
_cell_angle_beta   90.00000000
_cell_angle_gamma   90.00000000
_symmetry_Int_Tables_number   1
_chemical_formula_structural   SmSnRh
_chemical_formula_sum   'Sm3 Sn3 Rh3'
_cell_volume   199.46349266
_cell_formula_units_Z   3
loop_
 _symmetry_equiv_pos_site_id
 _symmetry_equiv_pos_as_xyz
  1  'x, y, z'
loop_
 _atom_site_type_symbol
 _atom_site_label
 _atom_site_symmetry_multiplicity
 _atom_site_fract_x
 _atom_site_fract_y
 _atom_site_fract_z
 _atom_site_occupancy
  Sm  Sm0  1  0.50000000  0.59166878  0.00000000  1
  Sm  Sm1  1  0.50000000  0.40840689  0.40841843  1
  Sm  Sm2  1  0.50000000  0.99998846  0.59158157  1
  Sn  Sn3  1  -0.00000000  0.25675027  1.00000000  1
  Sn  Sn4  1  0.00000000  0.74322083  0.74325849  1
  Sn  Sn5  1  -0.00000000  0.99996234  0.25674151  1
  Rh  Rh6  1  -0.00000000  0.33332123  0.66670842  1
  Rh  Rh7  1  -0.00000000  0.66661281  0.33329158  1
  Rh  Rh8  1  0.50000000  0.99996841  0.00000000  1
