# generated using pymatgen
data_GdZnPd
_symmetry_space_group_name_H-M   'P 1'
_cell_length_a   3.92570458
_cell_length_b   7.36217039
_cell_length_c   7.35877964
_cell_angle_alpha   120.01523903
_cell_angle_beta   90.00000000
_cell_angle_gamma   90.00000000
_symmetry_Int_Tables_number   1
_chemical_formula_structural   GdZnPd
_chemical_formula_sum   'Gd3 Zn3 Pd3'
_cell_volume   184.15910637
_cell_formula_units_Z   3
loop_
 _symmetry_equiv_pos_site_id
 _symmetry_equiv_pos_as_xyz
  1  'x, y, z'
loop_
 _atom_site_type_symbol
 _atom_site_label
 _atom_site_symmetry_multiplicity
 _atom_site_fract_x
 _atom_site_fract_y
 _atom_site_fract_z
 _atom_site_occupancy
  Gd  Gd0  1  0.50000000  0.59659387  0.00000000  1
  Gd  Gd1  1  0.50000000  0.40311302  0.40296167  1
  Gd  Gd2  1  0.50000000  0.00015135  0.59703833  1
  Zn  Zn3  1  -0.00000000  0.25043468  0.00000000  1
  Zn  Zn4  1  0.00000000  0.74915930  0.74862677  1
  Zn  Zn5  1  0.00000000  0.00053253  0.25137323  1
  Pd  Pd6  1  0.00000000  0.33273142  0.66537811  1
  Pd  Pd7  1  0.00000000  0.66735331  0.33462189  1
  Pd  Pd8  1  0.50000000  0.99983052  1.00000000  1
