# generated using pymatgen
data_EuHg3
_symmetry_space_group_name_H-M   'P 1'
_cell_length_a   5.29846829
_cell_length_b   6.87563493
_cell_length_c   6.87563493
_cell_angle_alpha   119.93948295
_cell_angle_beta   90.00000000
_cell_angle_gamma   90.00000000
_symmetry_Int_Tables_number   1
_chemical_formula_structural   EuHg3
_chemical_formula_sum   'Eu2 Hg6'
_cell_volume   217.05565463
_cell_formula_units_Z   2
loop_
 _symmetry_equiv_pos_site_id
 _symmetry_equiv_pos_as_xyz
  1  'x, y, z'
loop_
 _atom_site_type_symbol
 _atom_site_label
 _atom_site_symmetry_multiplicity
 _atom_site_fract_x
 _atom_site_fract_y
 _atom_site_fract_z
 _atom_site_occupancy
  Eu  Eu0  1  0.75000000  0.66713377  0.33286623  1
  Eu  Eu1  1  0.25000000  0.33286623  0.66713377  1
  Hg  Hg2  1  0.75000000  0.16166001  0.32263388  1
  Hg  Hg3  1  0.75000000  0.16059255  0.83940745  1
  Hg  Hg4  1  0.75000000  0.67736612  0.83833999  1
  Hg  Hg5  1  0.25000000  0.83833999  0.67736612  1
  Hg  Hg6  1  0.25000000  0.83940745  0.16059255  1
  Hg  Hg7  1  0.25000000  0.32263388  0.16166001  1
