# generated using pymatgen
data_CsSrI3
_symmetry_space_group_name_H-M   'P 1'
_cell_length_a   4.90084696
_cell_length_b   8.58349815
_cell_length_c   12.39376716
_cell_angle_alpha   90.00000000
_cell_angle_beta   90.00000000
_cell_angle_gamma   106.58644803
_symmetry_Int_Tables_number   1
_chemical_formula_structural   CsSrI3
_chemical_formula_sum   'Cs2 Sr2 I6'
_cell_volume   499.66751974
_cell_formula_units_Z   2
loop_
 _symmetry_equiv_pos_site_id
 _symmetry_equiv_pos_as_xyz
  1  'x, y, z'
loop_
 _atom_site_type_symbol
 _atom_site_label
 _atom_site_symmetry_multiplicity
 _atom_site_fract_x
 _atom_site_fract_y
 _atom_site_fract_z
 _atom_site_occupancy
  Cs  Cs0  1  0.24962288  0.49969685  0.98989524  1
  Cs  Cs1  1  0.75037512  0.50030415  0.48989524  1
  Sr  Sr2  1  0.00004382  0.00023511  0.24062368  1
  Sr  Sr3  1  0.99995918  0.99976589  0.74062368  1
  I  I4  1  0.36841413  0.73651100  0.29094717  1
  I  I5  1  0.63158487  0.26348900  0.79094717  1
  I  I6  1  0.36828910  0.73600608  0.69016302  1
  I  I7  1  0.63171190  0.26399492  0.19016302  1
  I  I8  1  0.93262583  0.86417430  0.99067088  1
  I  I9  1  0.06737617  0.13582670  0.49067088  1
