# generated using pymatgen
data_NbBr4
_symmetry_space_group_name_H-M   'P 1'
_cell_length_a   7.28467885
_cell_length_b   7.60863995
_cell_length_c   7.84336157
_cell_angle_alpha   72.85092083
_cell_angle_beta   62.32957279
_cell_angle_gamma   61.39875268
_symmetry_Int_Tables_number   1
_chemical_formula_structural   NbBr4
_chemical_formula_sum   'Nb2 Br8'
_cell_volume   336.55479029
_cell_formula_units_Z   2
loop_
 _symmetry_equiv_pos_site_id
 _symmetry_equiv_pos_as_xyz
  1  'x, y, z'
loop_
 _atom_site_type_symbol
 _atom_site_label
 _atom_site_symmetry_multiplicity
 _atom_site_fract_x
 _atom_site_fract_y
 _atom_site_fract_z
 _atom_site_occupancy
  Nb  Nb0  1  0.21647505  0.00000000  0.00000000  1
  Nb  Nb1  1  0.78352495  0.00000000  0.00000000  1
  Br  Br2  1  0.79593914  0.23718849  0.17093323  1
  Br  Br3  1  0.20406086  0.76281151  0.82906677  1
  Br  Br4  1  0.21351597  0.75891767  0.29487589  1
  Br  Br5  1  0.26730953  0.24108233  0.70512411  1
  Br  Br6  1  0.78648403  0.24108233  0.70512411  1
  Br  Br7  1  0.73269047  0.75891767  0.29487589  1
  Br  Br8  1  0.32469160  0.20371205  0.14690475  1
  Br  Br9  1  0.67530840  0.79628795  0.85309525  1
