# generated using pymatgen
data_YCu
_symmetry_space_group_name_H-M   'P 1'
_cell_length_a   4.44799987
_cell_length_b   5.41755165
_cell_length_c   7.20772686
_cell_angle_alpha   90.00000000
_cell_angle_beta   90.00000000
_cell_angle_gamma   90.00000000
_symmetry_Int_Tables_number   1
_chemical_formula_structural   YCu
_chemical_formula_sum   'Y4 Cu4'
_cell_volume   173.68653328
_cell_formula_units_Z   4
loop_
 _symmetry_equiv_pos_site_id
 _symmetry_equiv_pos_as_xyz
  1  'x, y, z'
loop_
 _atom_site_type_symbol
 _atom_site_label
 _atom_site_symmetry_multiplicity
 _atom_site_fract_x
 _atom_site_fract_y
 _atom_site_fract_z
 _atom_site_occupancy
  Y  Y0  1  0.25000000  0.36675268  0.68114358  1
  Y  Y1  1  0.25000000  0.13324732  0.18114358  1
  Y  Y2  1  0.75000000  0.63324732  0.31885642  1
  Y  Y3  1  0.75000000  0.86675268  0.81885642  1
  Cu  Cu4  1  0.25000000  0.87592292  0.53201050  1
  Cu  Cu5  1  0.25000000  0.62407708  0.03201050  1
  Cu  Cu6  1  0.75000000  0.12407708  0.46798950  1
  Cu  Cu7  1  0.75000000  0.37592292  0.96798950  1
