# generated using pymatgen
data_ScAgGe
_symmetry_space_group_name_H-M   'P 1'
_cell_length_a   4.06588904
_cell_length_b   6.95471677
_cell_length_c   6.95477159
_cell_angle_alpha   119.99973645
_cell_angle_beta   90.00000000
_cell_angle_gamma   90.00000000
_symmetry_Int_Tables_number   1
_chemical_formula_structural   ScAgGe
_chemical_formula_sum   'Sc3 Ag3 Ge3'
_cell_volume   170.31371662
_cell_formula_units_Z   3
loop_
 _symmetry_equiv_pos_site_id
 _symmetry_equiv_pos_as_xyz
  1  'x, y, z'
loop_
 _atom_site_type_symbol
 _atom_site_label
 _atom_site_symmetry_multiplicity
 _atom_site_fract_x
 _atom_site_fract_y
 _atom_site_fract_z
 _atom_site_occupancy
  Sc  Sc0  1  -0.00000000  0.58233471  1.00000000  1
  Sc  Sc1  1  -0.00000000  0.41765234  0.41765979  1
  Sc  Sc2  1  -0.00000000  0.99999255  0.58234021  1
  Ag  Ag3  1  0.50000000  0.25317391  1.00000000  1
  Ag  Ag4  1  0.50000000  0.74681341  0.74681331  1
  Ag  Ag5  1  0.50000000  0.00000010  0.25318669  1
  Ge  Ge6  1  0.50000000  0.33329540  0.66667155  1
  Ge  Ge7  1  0.50000000  0.66662385  0.33332845  1
  Ge  Ge8  1  -0.00000000  0.00001372  0.00000000  1
