# generated using pymatgen
data_PrSiPt
_symmetry_space_group_name_H-M   'P 1'
_cell_length_a   4.24797131
_cell_length_b   4.24797131
_cell_length_c   7.85316726
_cell_angle_alpha   105.69177801
_cell_angle_beta   105.69177801
_cell_angle_gamma   90.00000000
_symmetry_Int_Tables_number   1
_chemical_formula_structural   PrSiPt
_chemical_formula_sum   'Pr2 Si2 Pt2'
_cell_volume   130.93649536
_cell_formula_units_Z   2
loop_
 _symmetry_equiv_pos_site_id
 _symmetry_equiv_pos_as_xyz
  1  'x, y, z'
loop_
 _atom_site_type_symbol
 _atom_site_label
 _atom_site_symmetry_multiplicity
 _atom_site_fract_x
 _atom_site_fract_y
 _atom_site_fract_z
 _atom_site_occupancy
  Pr  Pr0  1  0.24882020  0.74882020  0.49764039  1
  Pr  Pr1  1  0.99882020  0.99882020  0.99764039  1
  Si  Si2  1  0.66852227  0.16852227  0.33704455  1
  Si  Si3  1  0.41852227  0.41852227  0.83704455  1
  Pt  Pt4  1  0.83665753  0.33665753  0.67331506  1
  Pt  Pt5  1  0.58665753  0.58665753  0.17331506  1
