# generated using pymatgen
data_TmSnIr
_symmetry_space_group_name_H-M   'P 1'
_cell_length_a   3.81337805
_cell_length_b   7.54234290
_cell_length_c   7.54220688
_cell_angle_alpha   120.00059607
_cell_angle_beta   90.00000000
_cell_angle_gamma   90.00000000
_symmetry_Int_Tables_number   1
_chemical_formula_structural   TmSnIr
_chemical_formula_sum   'Tm3 Sn3 Ir3'
_cell_volume   187.86358234
_cell_formula_units_Z   3
loop_
 _symmetry_equiv_pos_site_id
 _symmetry_equiv_pos_as_xyz
  1  'x, y, z'
loop_
 _atom_site_type_symbol
 _atom_site_label
 _atom_site_symmetry_multiplicity
 _atom_site_fract_x
 _atom_site_fract_y
 _atom_site_fract_z
 _atom_site_occupancy
  Tm  Tm0  1  0.50000000  0.59788629  1.00000000  1
  Tm  Tm1  1  0.50000000  0.40210247  0.40211353  1
  Tm  Tm2  1  0.50000000  0.99998894  0.59788647  1
  Sn  Sn3  1  -0.00000000  0.26423939  0.00000000  1
  Sn  Sn4  1  -0.00000000  0.73574030  0.73575375  1
  Sn  Sn5  1  -0.00000000  0.99998655  0.26424625  1
  Ir  Ir6  1  0.00000000  0.33332288  0.66668147  1
  Ir  Ir7  1  0.00000000  0.66664142  0.33331853  1
  Ir  Ir8  1  0.50000000  0.99999176  0.00000000  1
