# generated using pymatgen
data_Li4Ti2V3Co3O16
_symmetry_space_group_name_H-M   'P 1'
_cell_length_a   5.92709666
_cell_length_b   5.89436341
_cell_length_c   9.58609375
_cell_angle_alpha   89.66539823
_cell_angle_beta   89.94267147
_cell_angle_gamma   120.31000857
_symmetry_Int_Tables_number   1
_chemical_formula_structural   Li4Ti2V3Co3O16
_chemical_formula_sum   'Li4 Ti2 V3 Co3 O16'
_cell_volume   289.11731999
_cell_formula_units_Z   1
loop_
 _symmetry_equiv_pos_site_id
 _symmetry_equiv_pos_as_xyz
  1  'x, y, z'
loop_
 _atom_site_type_symbol
 _atom_site_label
 _atom_site_symmetry_multiplicity
 _atom_site_fract_x
 _atom_site_fract_y
 _atom_site_fract_z
 _atom_site_occupancy
  Li  Li0  1  0.33278555  0.65797561  0.89689993  1
  Li  Li1  1  0.00376787  0.00462873  0.99348241  1
  Li  Li2  1  0.99826923  0.00125838  0.49451291  1
  Li  Li3  1  0.67054209  0.33760422  0.39335436  1
  Ti  Ti4  1  0.31283132  0.65843798  0.49880818  1
  Ti  Ti5  1  0.66930835  0.33995578  0.00066716  1
  V  V6  1  0.65851280  0.82984127  0.22279048  1
  V  V7  1  0.81940873  0.64666700  0.71944664  1
  V  V8  1  0.80533192  0.15417419  0.71856392  1
  Co  Co9  1  0.17671348  0.83365767  0.21457948  1
  Co  Co10  1  0.17244518  0.34858954  0.21365601  1
  Co  Co11  1  0.33673869  0.17262350  0.71036151  1
  O  O12  1  0.16355627  0.82867322  0.59002587  1
  O  O13  1  0.04501058  0.52298302  0.34226036  1
  O  O14  1  0.35509507  0.66893886  0.10516248  1
  O  O15  1  0.99183126  0.00462312  0.30344952  1
  O  O16  1  0.98158072  0.98241220  0.80411413  1
  O  O17  1  0.14778031  0.33488901  0.59690123  1
  O  O18  1  0.48363045  0.96246795  0.33857102  1
  O  O19  1  0.48862007  0.52815143  0.34231442  1
  O  O20  1  0.33864324  0.16362767  0.09206436  1
  O  O21  1  0.65975306  0.83368424  0.59757232  1
  O  O22  1  0.53175026  0.48485251  0.84759683  1
  O  O23  1  0.53397138  0.03127297  0.83889446  1
  O  O24  1  0.69243907  0.35724512  0.60080392  1
  O  O25  1  0.83855843  0.66457385  0.09865002  1
  O  O26  1  0.96185748  0.48050511  0.83985664  1
  O  O27  1  0.82926513  0.16598383  0.09248042  1
