# generated using pymatgen
data_DySnGe
_symmetry_space_group_name_H-M   'P 1'
_cell_length_a   4.11724145
_cell_length_b   4.25385937
_cell_length_c   8.44012974
_cell_angle_alpha   104.59600921
_cell_angle_beta   90.00000000
_cell_angle_gamma   90.00000000
_symmetry_Int_Tables_number   1
_chemical_formula_structural   DySnGe
_chemical_formula_sum   'Dy2 Sn2 Ge2'
_cell_volume   143.05113978
_cell_formula_units_Z   2
loop_
 _symmetry_equiv_pos_site_id
 _symmetry_equiv_pos_as_xyz
  1  'x, y, z'
loop_
 _atom_site_type_symbol
 _atom_site_label
 _atom_site_symmetry_multiplicity
 _atom_site_fract_x
 _atom_site_fract_y
 _atom_site_fract_z
 _atom_site_occupancy
  Dy  Dy0  1  0.75000000  0.09461918  0.18923836  1
  Dy  Dy1  1  0.25000000  0.90538082  0.81076164  1
  Sn  Sn2  1  0.75000000  0.74947777  0.49895554  1
  Sn  Sn3  1  0.25000000  0.25052223  0.50104446  1
  Ge  Ge4  1  0.75000000  0.44634543  0.89269087  1
  Ge  Ge5  1  0.25000000  0.55365457  0.10730913  1
