# generated using pymatgen
data_Sm2Fe15Si2C
_symmetry_space_group_name_H-M   'P 1'
_cell_length_a   6.47104597
_cell_length_b   6.47104597
_cell_length_c   6.47450582
_cell_angle_alpha   82.56413940
_cell_angle_beta   82.56413940
_cell_angle_gamma   82.28059641
_symmetry_Int_Tables_number   1
_chemical_formula_structural   Sm2Fe15Si2C
_chemical_formula_sum   'Sm2 Fe15 Si2 C1'
_cell_volume   264.66280671
_cell_formula_units_Z   1
loop_
 _symmetry_equiv_pos_site_id
 _symmetry_equiv_pos_as_xyz
  1  'x, y, z'
loop_
 _atom_site_type_symbol
 _atom_site_label
 _atom_site_symmetry_multiplicity
 _atom_site_fract_x
 _atom_site_fract_y
 _atom_site_fract_z
 _atom_site_occupancy
  Sm  Sm0  1  0.65904617  0.65904617  0.64357101  1
  Sm  Sm1  1  0.34095383  0.34095383  0.35642899  1
  Fe  Fe2  1  0.34402637  0.34402637  0.85263940  1
  Fe  Fe3  1  0.33852920  0.84831640  0.34116248  1
  Fe  Fe4  1  0.84831640  0.33852920  0.34116248  1
  Fe  Fe5  1  0.65597363  0.65597363  0.14736060  1
  Fe  Fe6  1  0.66147080  0.15168360  0.65883752  1
  Fe  Fe7  1  0.15168360  0.66147080  0.65883752  1
  Fe  Fe8  1  0.28220020  0.71779980  -0.00000000  1
  Fe  Fe9  1  0.71116048  -0.00000556  0.28812971  1
  Fe  Fe10  1  0.00000556  0.28883952  0.71187029  1
  Fe  Fe11  1  0.28883952  0.00000556  0.71187029  1
  Fe  Fe12  1  -0.00000556  0.71116048  0.28812971  1
  Fe  Fe13  1  0.71779980  0.28220020  0.00000000  1
  Fe  Fe14  1  0.00000000  0.00000000  0.50000000  1
  Fe  Fe15  1  0.00000000  0.50000000  0.00000000  1
  Fe  Fe16  1  0.50000000  0.00000000  0.00000000  1
  Si  Si17  1  0.89850787  0.89850787  0.89886912  1
  Si  Si18  1  0.10149213  0.10149213  0.10113088  1
  C  C19  1  0.50000000  0.50000000  0.00000000  1
