# generated using pymatgen
data_Ba3(CdAs2)2
_symmetry_space_group_name_H-M   'P 1'
_cell_length_a   4.66860366
_cell_length_b   7.41637418
_cell_length_c   8.94727878
_cell_angle_alpha   111.33252558
_cell_angle_beta   105.12318182
_cell_angle_gamma   90.00000000
_symmetry_Int_Tables_number   1
_chemical_formula_structural   Ba3(CdAs2)2
_chemical_formula_sum   'Ba3 Cd2 As4'
_cell_volume   277.01635011
_cell_formula_units_Z   1
loop_
 _symmetry_equiv_pos_site_id
 _symmetry_equiv_pos_as_xyz
  1  'x, y, z'
loop_
 _atom_site_type_symbol
 _atom_site_label
 _atom_site_symmetry_multiplicity
 _atom_site_fract_x
 _atom_site_fract_y
 _atom_site_fract_z
 _atom_site_occupancy
  Ba  Ba0  1  0.85845719  0.42204583  0.71691439  1
  Ba  Ba1  1  0.14154281  0.57795417  0.28308561  1
  Ba  Ba2  1  0.00000000  0.00000000  0.00000000  1
  Cd  Cd3  1  0.66953202  0.97080259  0.33906404  1
  Cd  Cd4  1  0.33046798  0.02919741  0.66093596  1
  As  As5  1  0.79279904  0.80732004  0.58559807  1
  As  As6  1  0.20720096  0.19267996  0.41440193  1
  As  As7  1  0.50527937  0.67434171  0.01055873  1
  As  As8  1  0.49472063  0.32565829  0.98944127  1
