# generated using pymatgen
data_CeSi2Ag
_symmetry_space_group_name_H-M   'P 1'
_cell_length_a   4.21654193
_cell_length_b   4.19245858
_cell_length_c   9.09650089
_cell_angle_alpha   103.32317956
_cell_angle_beta   90.00000000
_cell_angle_gamma   90.00000000
_symmetry_Int_Tables_number   1
_chemical_formula_structural   CeSi2Ag
_chemical_formula_sum   'Ce2 Si4 Ag2'
_cell_volume   156.47705777
_cell_formula_units_Z   2
loop_
 _symmetry_equiv_pos_site_id
 _symmetry_equiv_pos_as_xyz
  1  'x, y, z'
loop_
 _atom_site_type_symbol
 _atom_site_label
 _atom_site_symmetry_multiplicity
 _atom_site_fract_x
 _atom_site_fract_y
 _atom_site_fract_z
 _atom_site_occupancy
  Ce  Ce0  1  0.75000000  0.40498097  0.80996194  1
  Ce  Ce1  1  0.25000000  0.59501903  0.19003806  1
  Si  Si2  1  0.75000000  0.03137617  0.06275234  1
  Si  Si3  1  0.25000000  0.96862383  0.93724766  1
  Si  Si4  1  0.75000000  0.16217721  0.32435441  1
  Si  Si5  1  0.25000000  0.83782279  0.67564559  1
  Ag  Ag6  1  0.75000000  0.74834933  0.49669865  1
  Ag  Ag7  1  0.25000000  0.25165067  0.50330135  1
