# generated using pymatgen
data_Nb2PdS6
_symmetry_space_group_name_H-M   'P 1'
_cell_length_a   3.30773795
_cell_length_b   6.43260520
_cell_length_c   9.34621023
_cell_angle_alpha   78.32418506
_cell_angle_beta   79.80748839
_cell_angle_gamma   75.10151862
_symmetry_Int_Tables_number   1
_chemical_formula_structural   Nb2PdS6
_chemical_formula_sum   'Nb2 Pd1 S6'
_cell_volume   186.55427985
_cell_formula_units_Z   1
loop_
 _symmetry_equiv_pos_site_id
 _symmetry_equiv_pos_as_xyz
  1  'x, y, z'
loop_
 _atom_site_type_symbol
 _atom_site_label
 _atom_site_symmetry_multiplicity
 _atom_site_fract_x
 _atom_site_fract_y
 _atom_site_fract_z
 _atom_site_occupancy
  Nb  Nb0  1  0.31744879  0.07275631  0.29234612  1
  Nb  Nb1  1  0.68255121  0.92724369  0.70765388  1
  Pd  Pd2  1  0.00000000  -0.00000000  -0.00000000  1
  S  S3  1  0.01452054  0.21008353  0.76087538  1
  S  S4  1  0.98547946  0.78991647  0.23912462  1
  S  S5  1  0.33412399  0.79206359  0.53968843  1
  S  S6  1  0.66587601  0.20793641  0.46031157  1
  S  S7  1  0.78715918  0.29715003  0.12853161  1
  S  S8  1  0.21284082  0.70284997  0.87146839  1
