# generated using pymatgen
data_DyPdPb
_symmetry_space_group_name_H-M   'P 1'
_cell_length_a   3.88685454
_cell_length_b   7.86624690
_cell_length_c   7.86674982
_cell_angle_alpha   119.99787932
_cell_angle_beta   90.00000000
_cell_angle_gamma   90.00000000
_symmetry_Int_Tables_number   1
_chemical_formula_structural   DyPdPb
_chemical_formula_sum   'Dy3 Pd3 Pb3'
_cell_volume   208.30568016
_cell_formula_units_Z   3
loop_
 _symmetry_equiv_pos_site_id
 _symmetry_equiv_pos_as_xyz
  1  'x, y, z'
loop_
 _atom_site_type_symbol
 _atom_site_label
 _atom_site_symmetry_multiplicity
 _atom_site_fract_x
 _atom_site_fract_y
 _atom_site_fract_z
 _atom_site_occupancy
  Dy  Dy0  1  0.50000000  0.59927690  1.00000000  1
  Dy  Dy1  1  0.50000000  0.40070209  0.40072499  1
  Dy  Dy2  1  0.50000000  0.99997709  0.59927501  1
  Pd  Pd3  1  0.00000000  0.33332895  0.66668243  1
  Pd  Pd4  1  0.00000000  0.66664651  0.33331757  1
  Pd  Pd5  1  0.50000000  0.00000160  0.00000000  1
  Pb  Pb6  1  -0.00000000  0.26568860  1.00000000  1
  Pb  Pb7  1  -0.00000000  0.73425721  0.73423616  1
  Pb  Pb8  1  0.00000000  0.00002105  0.26576384  1
