# generated using pymatgen
data_KCd4P3
_symmetry_space_group_name_H-M   'P 1'
_cell_length_a   4.42065776
_cell_length_b   4.42065776
_cell_length_c   12.19148158
_cell_angle_alpha   79.55444645
_cell_angle_beta   79.55444645
_cell_angle_gamma   60.00000153
_symmetry_Int_Tables_number   1
_chemical_formula_structural   KCd4P3
_chemical_formula_sum   'K1 Cd4 P3'
_cell_volume   201.75727360
_cell_formula_units_Z   1
loop_
 _symmetry_equiv_pos_site_id
 _symmetry_equiv_pos_as_xyz
  1  'x, y, z'
loop_
 _atom_site_type_symbol
 _atom_site_label
 _atom_site_symmetry_multiplicity
 _atom_site_fract_x
 _atom_site_fract_y
 _atom_site_fract_z
 _atom_site_occupancy
  K  K0  1  0.50000000  0.50000000  0.50000000  1
  Cd  Cd1  1  0.09032712  0.09032712  0.72901865  1
  Cd  Cd2  1  0.90967288  0.90967288  0.27098135  1
  Cd  Cd3  1  0.30168421  0.30168421  0.09494738  1
  Cd  Cd4  1  0.69831579  0.69831579  0.90505262  1
  P  P5  1  0.22878935  0.22878935  0.31363194  1
  P  P6  1  0.77121065  0.77121065  0.68636806  1
  P  P7  1  -0.00000000  -0.00000000  0.00000000  1
