# generated using pymatgen
data_SmZnPd
_symmetry_space_group_name_H-M   'P 1'
_cell_length_a   3.94826560
_cell_length_b   7.42265198
_cell_length_c   7.42203382
_cell_angle_alpha   120.00275587
_cell_angle_beta   90.00000000
_cell_angle_gamma   90.00000000
_symmetry_Int_Tables_number   1
_chemical_formula_structural   SmZnPd
_chemical_formula_sum   'Sm3 Zn3 Pd3'
_cell_volume   188.36792688
_cell_formula_units_Z   3
loop_
 _symmetry_equiv_pos_site_id
 _symmetry_equiv_pos_as_xyz
  1  'x, y, z'
loop_
 _atom_site_type_symbol
 _atom_site_label
 _atom_site_symmetry_multiplicity
 _atom_site_fract_x
 _atom_site_fract_y
 _atom_site_fract_z
 _atom_site_occupancy
  Sm  Sm0  1  -0.00000000  0.59198005  0.00000000  1
  Sm  Sm1  1  -0.00000000  0.40799447  0.40799026  1
  Sm  Sm2  1  -0.00000000  0.00000421  0.59200974  1
  Zn  Zn3  1  0.50000000  0.24511184  0.00000000  1
  Zn  Zn4  1  0.50000000  0.75490070  0.75490911  1
  Zn  Zn5  1  0.50000000  0.99999159  0.24509089  1
  Pd  Pd6  1  -0.00000000  -0.00000225  0.00000000  1
  Pd  Pd7  1  0.50000000  0.33331016  0.66670093  1
  Pd  Pd8  1  0.50000000  0.66660923  0.33329907  1
