# generated using pymatgen
data_Li4Nb2Fe3Sb3O16
_symmetry_space_group_name_H-M   'P 1'
_cell_length_a   6.29206577
_cell_length_b   6.27980055
_cell_length_c   10.00794006
_cell_angle_alpha   89.72362039
_cell_angle_beta   89.64452985
_cell_angle_gamma   120.00777299
_symmetry_Int_Tables_number   1
_chemical_formula_structural   Li4Nb2Fe3Sb3O16
_chemical_formula_sum   'Li4 Nb2 Fe3 Sb3 O16'
_cell_volume   342.41584758
_cell_formula_units_Z   1
loop_
 _symmetry_equiv_pos_site_id
 _symmetry_equiv_pos_as_xyz
  1  'x, y, z'
loop_
 _atom_site_type_symbol
 _atom_site_label
 _atom_site_symmetry_multiplicity
 _atom_site_fract_x
 _atom_site_fract_y
 _atom_site_fract_z
 _atom_site_occupancy
  Li  Li0  1  0.33638271  0.67009367  0.89511326  1
  Li  Li1  1  0.98019877  0.98914027  0.98344213  1
  Li  Li2  1  0.98809959  0.99150912  0.49843869  1
  Li  Li3  1  0.66363488  0.33351433  0.41175752  1
  Nb  Nb4  1  0.34551048  0.67400549  0.49704863  1
  Nb  Nb5  1  0.68969654  0.34268125  0.98125618  1
  Fe  Fe6  1  0.66951364  0.83390080  0.21047403  1
  Fe  Fe7  1  0.83183522  0.66230730  0.71120790  1
  Fe  Fe8  1  0.83049657  0.16871544  0.71081226  1
  Sb  Sb9  1  0.18210471  0.83339893  0.21663312  1
  Sb  Sb10  1  0.18003735  0.34483533  0.21689775  1
  Sb  Sb11  1  0.34502618  0.17255484  0.71587055  1
  O  O12  1  0.19296250  0.85464686  0.59636953  1
  O  O13  1  0.04315648  0.53126498  0.37482190  1
  O  O14  1  0.35584621  0.68928451  0.09587016  1
  O  O15  1  0.99835028  0.98300773  0.31465966  1
  O  O16  1  0.01557331  0.00789702  0.80049471  1
  O  O17  1  0.19179374  0.33954438  0.59385576  1
  O  O18  1  0.47264458  0.95946581  0.34832355  1
  O  O19  1  0.47794434  0.52575031  0.34980941  1
  O  O20  1  0.33476351  0.16123496  0.09637138  1
  O  O21  1  0.66073003  0.83306425  0.59113635  1
  O  O22  1  0.49651005  0.46014931  0.84375965  1
  O  O23  1  0.49765382  0.03652179  0.84201017  1
  O  O24  1  0.64997512  0.32690679  0.60718633  1
  O  O25  1  0.82022614  0.65055340  0.08226334  1
  O  O26  1  0.94885823  0.47392364  0.84659521  1
  O  O27  1  0.80047503  0.15042750  0.07536287  1
