# generated using pymatgen
data_KCd4As3
_symmetry_space_group_name_H-M   'P 1'
_cell_length_a   4.56596211
_cell_length_b   4.56596211
_cell_length_c   12.47615476
_cell_angle_alpha   79.45617570
_cell_angle_beta   79.45617570
_cell_angle_gamma   59.99999292
_symmetry_Int_Tables_number   1
_chemical_formula_structural   KCd4As3
_chemical_formula_sum   'K1 Cd4 As3'
_cell_volume   220.16999992
_cell_formula_units_Z   1
loop_
 _symmetry_equiv_pos_site_id
 _symmetry_equiv_pos_as_xyz
  1  'x, y, z'
loop_
 _atom_site_type_symbol
 _atom_site_label
 _atom_site_symmetry_multiplicity
 _atom_site_fract_x
 _atom_site_fract_y
 _atom_site_fract_z
 _atom_site_occupancy
  K  K0  1  0.50000000  0.50000000  0.50000000  1
  Cd  Cd1  1  0.08895081  0.08895081  0.73314756  1
  Cd  Cd2  1  0.91104919  0.91104919  0.26685244  1
  Cd  Cd3  1  0.30158642  0.30158642  0.09524073  1
  Cd  Cd4  1  0.69841358  0.69841358  0.90475927  1
  As  As5  1  0.22755791  0.22755791  0.31732626  1
  As  As6  1  0.77244209  0.77244209  0.68267374  1
  As  As7  1  0.00000000  0.00000000  -0.00000000  1
