# generated using pymatgen
data_HfPOs
_symmetry_space_group_name_H-M   'P 1'
_cell_length_a   3.84574666
_cell_length_b   6.42536014
_cell_length_c   6.42649023
_cell_angle_alpha   119.99418313
_cell_angle_beta   90.00000000
_cell_angle_gamma   90.00000000
_symmetry_Int_Tables_number   1
_chemical_formula_structural   HfPOs
_chemical_formula_sum   'Hf3 P3 Os3'
_cell_volume   137.53336944
_cell_formula_units_Z   3
loop_
 _symmetry_equiv_pos_site_id
 _symmetry_equiv_pos_as_xyz
  1  'x, y, z'
loop_
 _atom_site_type_symbol
 _atom_site_label
 _atom_site_symmetry_multiplicity
 _atom_site_fract_x
 _atom_site_fract_y
 _atom_site_fract_z
 _atom_site_occupancy
  Hf  Hf0  1  0.50000000  0.58391724  0.00000000  1
  Hf  Hf1  1  0.50000000  0.41601526  0.41600743  1
  Hf  Hf2  1  0.50000000  0.00000783  0.58399257  1
  P  P3  1  0.00000000  0.33333487  0.66667840  1
  P  P4  1  -0.00000000  0.66665647  0.33332160  1
  P  P5  1  0.50000000  0.99993691  0.00000000  1
  Os  Os6  1  0.00000000  0.24808449  1.00000000  1
  Os  Os7  1  -0.00000000  0.75194966  0.75195240  1
  Os  Os8  1  0.00000000  -0.00000274  0.24804760  1
