# generated using pymatgen
data_SrF3
_symmetry_space_group_name_H-M   'P 1'
_cell_length_a   4.12054491
_cell_length_b   4.45722467
_cell_length_c   6.57303848
_cell_angle_alpha   99.42528704
_cell_angle_beta   90.00000000
_cell_angle_gamma   90.00000000
_symmetry_Int_Tables_number   1
_chemical_formula_structural   SrF3
_chemical_formula_sum   'Sr2 F6'
_cell_volume   119.09195776
_cell_formula_units_Z   2
loop_
 _symmetry_equiv_pos_site_id
 _symmetry_equiv_pos_as_xyz
  1  'x, y, z'
loop_
 _atom_site_type_symbol
 _atom_site_label
 _atom_site_symmetry_multiplicity
 _atom_site_fract_x
 _atom_site_fract_y
 _atom_site_fract_z
 _atom_site_occupancy
  Sr  Sr0  1  0.75000000  0.20727532  0.29153582  1
  Sr  Sr1  1  0.25000000  0.79272468  0.70846418  1
  F  F2  1  0.75000000  0.75104750  0.46960357  1
  F  F3  1  0.25000000  0.24895250  0.53039643  1
  F  F4  1  0.75000000  0.10644719  0.88930781  1
  F  F5  1  0.25000000  0.89355281  0.11069219  1
  F  F6  1  0.75000000  0.53275508  0.83476328  1
  F  F7  1  0.25000000  0.46724492  0.16523672  1
