# generated using pymatgen
data_Nd(BOs)2
_symmetry_space_group_name_H-M   'P 1'
_cell_length_a   5.65008066
_cell_length_b   5.65008066
_cell_length_c   6.02482467
_cell_angle_alpha   108.82460493
_cell_angle_beta   108.82460493
_cell_angle_gamma   108.17092887
_symmetry_Int_Tables_number   1
_chemical_formula_structural   Nd(BOs)2
_chemical_formula_sum   'Nd2 B4 Os4'
_cell_volume   152.60799176
_cell_formula_units_Z   2
loop_
 _symmetry_equiv_pos_site_id
 _symmetry_equiv_pos_as_xyz
  1  'x, y, z'
loop_
 _atom_site_type_symbol
 _atom_site_label
 _atom_site_symmetry_multiplicity
 _atom_site_fract_x
 _atom_site_fract_y
 _atom_site_fract_z
 _atom_site_occupancy
  Nd  Nd0  1  0.00000000  0.00000000  0.00000000  1
  Nd  Nd1  1  0.25000000  0.75000000  0.50000000  1
  B  B2  1  0.68539198  0.31460802  0.00000000  1
  B  B3  1  0.31460802  0.68539198  0.00000000  1
  B  B4  1  0.93542027  0.06457973  0.50000000  1
  B  B5  1  0.56457973  0.43542027  0.50000000  1
  Os  Os6  1  0.36326564  0.36326564  0.72653128  1
  Os  Os7  1  0.63673436  0.63673436  0.27346872  1
  Os  Os8  1  0.88645859  0.38645859  0.77291719  1
  Os  Os9  1  0.61354141  0.11354141  0.22708281  1
