# generated using pymatgen
data_LaAl5Ni2
_symmetry_space_group_name_H-M   'P 1'
_cell_length_a   4.02633875
_cell_length_b   6.30635160
_cell_length_c   6.30635160
_cell_angle_alpha   68.20597516
_cell_angle_beta   71.38370826
_cell_angle_gamma   71.38370826
_symmetry_Int_Tables_number   1
_chemical_formula_structural   LaAl5Ni2
_chemical_formula_sum   'La1 Al5 Ni2'
_cell_volume   137.18886301
_cell_formula_units_Z   1
loop_
 _symmetry_equiv_pos_site_id
 _symmetry_equiv_pos_as_xyz
  1  'x, y, z'
loop_
 _atom_site_type_symbol
 _atom_site_label
 _atom_site_symmetry_multiplicity
 _atom_site_fract_x
 _atom_site_fract_y
 _atom_site_fract_z
 _atom_site_occupancy
  La  La0  1  -0.00000000  -0.00000000  0.00000000  1
  Al  Al1  1  -0.00000000  0.50000000  0.50000000  1
  Al  Al2  1  0.65983690  0.15100184  0.52932436  1
  Al  Al3  1  0.34016310  0.47067564  0.84899816  1
  Al  Al4  1  0.65983690  0.52932436  0.15100184  1
  Al  Al5  1  0.34016310  0.84899816  0.47067564  1
  Ni  Ni6  1  0.23731340  0.26268660  0.26268660  1
  Ni  Ni7  1  0.76268660  0.73731340  0.73731340  1
