# generated using pymatgen
data_NdPt
_symmetry_space_group_name_H-M   'P 1'
_cell_length_a   4.66105960
_cell_length_b   5.71214012
_cell_length_c   7.33255225
_cell_angle_alpha   90.00000000
_cell_angle_beta   90.00000000
_cell_angle_gamma   90.00000000
_symmetry_Int_Tables_number   1
_chemical_formula_structural   NdPt
_chemical_formula_sum   'Nd4 Pt4'
_cell_volume   195.22645793
_cell_formula_units_Z   4
loop_
 _symmetry_equiv_pos_site_id
 _symmetry_equiv_pos_as_xyz
  1  'x, y, z'
loop_
 _atom_site_type_symbol
 _atom_site_label
 _atom_site_symmetry_multiplicity
 _atom_site_fract_x
 _atom_site_fract_y
 _atom_site_fract_z
 _atom_site_occupancy
  Nd  Nd0  1  0.25000000  0.36320586  0.68084048  1
  Nd  Nd1  1  0.25000000  0.13679414  0.18084048  1
  Nd  Nd2  1  0.75000000  0.63679414  0.31915952  1
  Nd  Nd3  1  0.75000000  0.86320586  0.81915952  1
  Pt  Pt4  1  0.25000000  0.84963346  0.54510112  1
  Pt  Pt5  1  0.25000000  0.65036654  0.04510112  1
  Pt  Pt6  1  0.75000000  0.15036654  0.45489888  1
  Pt  Pt7  1  0.75000000  0.34963346  0.95489888  1
