# generated using pymatgen
data_Li4Nb3Ni3(SnO8)2
_symmetry_space_group_name_H-M   'P 1'
_cell_length_a   6.09973606
_cell_length_b   6.09926248
_cell_length_c   9.95003852
_cell_angle_alpha   90.00005264
_cell_angle_beta   90.07797966
_cell_angle_gamma   119.99821073
_symmetry_Int_Tables_number   1
_chemical_formula_structural   Li4Nb3Ni3(SnO8)2
_chemical_formula_sum   'Li4 Nb3 Ni3 Sn2 O16'
_cell_volume   320.59079846
_cell_formula_units_Z   1
loop_
 _symmetry_equiv_pos_site_id
 _symmetry_equiv_pos_as_xyz
  1  'x, y, z'
loop_
 _atom_site_type_symbol
 _atom_site_label
 _atom_site_symmetry_multiplicity
 _atom_site_fract_x
 _atom_site_fract_y
 _atom_site_fract_z
 _atom_site_occupancy
  Li  Li0  1  0.32559812  0.66280361  0.88557699  1
  Li  Li1  1  0.97785092  0.98893570  0.98422002  1
  Li  Li2  1  0.98340508  0.99171402  0.49757318  1
  Li  Li3  1  0.66133327  0.33068295  0.40736767  1
  Nb  Nb4  1  0.17397326  0.82551872  0.21408845  1
  Nb  Nb5  1  0.17396418  0.34848509  0.21409103  1
  Nb  Nb6  1  0.34189238  0.17095353  0.71601416  1
  Ni  Ni7  1  0.66273069  0.83137872  0.21303398  1
  Ni  Ni8  1  0.82899389  0.65823413  0.71274944  1
  Ni  Ni9  1  0.82898835  0.17077075  0.71274433  1
  Sn  Sn10  1  0.35221998  0.67612184  0.50315074  1
  Sn  Sn11  1  0.68516532  0.34259071  0.97982726  1
  O  O12  1  0.17557712  0.84539409  0.59786801  1
  O  O13  1  0.03161221  0.51582045  0.34631921  1
  O  O14  1  0.33378470  0.66690225  0.09400722  1
  O  O15  1  0.00431976  0.00217044  0.30983596  1
  O  O16  1  0.00730604  0.00366341  0.80432337  1
  O  O17  1  0.17557566  0.33020365  0.59787001  1
  O  O18  1  0.46943244  0.95827666  0.33935131  1
  O  O19  1  0.46943771  0.51119301  0.33934929  1
  O  O20  1  0.33889837  0.16946685  0.10474025  1
  O  O21  1  0.68387263  0.84194080  0.59773080  1
  O  O22  1  0.50246717  0.47138238  0.84564667  1
  O  O23  1  0.50245112  0.03109160  0.84564300  1
  O  O24  1  0.64478053  0.32240020  0.60067816  1
  O  O25  1  0.84921818  0.67446043  0.10202297  1
  O  O26  1  0.96593696  0.48297389  0.83999376  1
  O  O27  1  0.84921094  0.17477112  0.10202075  1
