# generated using pymatgen
data_HfGeRu
_symmetry_space_group_name_H-M   'P 1'
_cell_length_a   3.76481854
_cell_length_b   6.74173927
_cell_length_c   6.74160693
_cell_angle_alpha   120.00064681
_cell_angle_beta   90.00000000
_cell_angle_gamma   90.00000000
_symmetry_Int_Tables_number   1
_chemical_formula_structural   HfGeRu
_chemical_formula_sum   'Hf3 Ge3 Ru3'
_cell_volume   148.18601853
_cell_formula_units_Z   3
loop_
 _symmetry_equiv_pos_site_id
 _symmetry_equiv_pos_as_xyz
  1  'x, y, z'
loop_
 _atom_site_type_symbol
 _atom_site_label
 _atom_site_symmetry_multiplicity
 _atom_site_fract_x
 _atom_site_fract_y
 _atom_site_fract_z
 _atom_site_occupancy
  Hf  Hf0  1  0.50000000  0.58369366  0.00000000  1
  Hf  Hf1  1  0.50000000  0.41641139  0.41636642  1
  Hf  Hf2  1  0.50000000  0.00004497  0.58363358  1
  Ge  Ge3  1  -0.00000000  0.33331249  0.66665964  1
  Ge  Ge4  1  -0.00000000  0.66665285  0.33334036  1
  Ge  Ge5  1  0.50000000  0.99997098  0.00000000  1
  Ru  Ru6  1  -0.00000000  0.24627947  1.00000000  1
  Ru  Ru7  1  0.00000000  0.75360635  0.75367851  1
  Ru  Ru8  1  -0.00000000  0.99992784  0.24632149  1
