# generated using pymatgen
data_GdInAu
_symmetry_space_group_name_H-M   'P 1'
_cell_length_a   4.06376193
_cell_length_b   7.80877622
_cell_length_c   7.80322216
_cell_angle_alpha   120.02354050
_cell_angle_beta   90.00000000
_cell_angle_gamma   90.00000000
_symmetry_Int_Tables_number   1
_chemical_formula_structural   GdInAu
_chemical_formula_sum   'Gd3 In3 Au3'
_cell_volume   214.39407058
_cell_formula_units_Z   3
loop_
 _symmetry_equiv_pos_site_id
 _symmetry_equiv_pos_as_xyz
  1  'x, y, z'
loop_
 _atom_site_type_symbol
 _atom_site_label
 _atom_site_symmetry_multiplicity
 _atom_site_fract_x
 _atom_site_fract_y
 _atom_site_fract_z
 _atom_site_occupancy
  Gd  Gd0  1  0.50000000  0.59154770  0.00000000  1
  Gd  Gd1  1  0.50000000  0.40854785  0.40886323  1
  Gd  Gd2  1  0.50000000  0.99968462  0.59113677  1
  In  In3  1  -0.00000000  0.25686192  0.00000000  1
  In  In4  1  -0.00000000  0.74315458  0.74331875  1
  In  In5  1  -0.00000000  0.99983583  0.25668125  1
  Au  Au6  1  0.50000000  0.00003829  0.00000000  1
  Au  Au7  1  0.00000000  0.33345184  0.66667447  1
  Au  Au8  1  -0.00000000  0.66677737  0.33332553  1
