# generated using pymatgen
data_SrHg3
_symmetry_space_group_name_H-M   'P 1'
_cell_length_a   5.37060416
_cell_length_b   7.02390479
_cell_length_c   7.02390479
_cell_angle_alpha   120.64891526
_cell_angle_beta   90.00000000
_cell_angle_gamma   90.00000000
_symmetry_Int_Tables_number   1
_chemical_formula_structural   SrHg3
_chemical_formula_sum   'Sr2 Hg6'
_cell_volume   227.94700889
_cell_formula_units_Z   2
loop_
 _symmetry_equiv_pos_site_id
 _symmetry_equiv_pos_as_xyz
  1  'x, y, z'
loop_
 _atom_site_type_symbol
 _atom_site_label
 _atom_site_symmetry_multiplicity
 _atom_site_fract_x
 _atom_site_fract_y
 _atom_site_fract_z
 _atom_site_occupancy
  Sr  Sr0  1  0.75000000  0.66657427  0.33342573  1
  Sr  Sr1  1  0.25000000  0.33342573  0.66657427  1
  Hg  Hg2  1  0.75000000  0.15727466  0.31441543  1
  Hg  Hg3  1  0.75000000  0.15743283  0.84256717  1
  Hg  Hg4  1  0.75000000  0.68558457  0.84272534  1
  Hg  Hg5  1  0.25000000  0.84272534  0.68558457  1
  Hg  Hg6  1  0.25000000  0.84256717  0.15743283  1
  Hg  Hg7  1  0.25000000  0.31441543  0.15727466  1
