# generated using pymatgen
data_NdAlCu
_symmetry_space_group_name_H-M   'P 1'
_cell_length_a   4.14294524
_cell_length_b   7.19816660
_cell_length_c   7.19821990
_cell_angle_alpha   119.99975001
_cell_angle_beta   90.00000000
_cell_angle_gamma   90.00000000
_symmetry_Int_Tables_number   1
_chemical_formula_structural   NdAlCu
_chemical_formula_sum   'Nd3 Al3 Cu3'
_cell_volume   185.90365259
_cell_formula_units_Z   3
loop_
 _symmetry_equiv_pos_site_id
 _symmetry_equiv_pos_as_xyz
  1  'x, y, z'
loop_
 _atom_site_type_symbol
 _atom_site_label
 _atom_site_symmetry_multiplicity
 _atom_site_fract_x
 _atom_site_fract_y
 _atom_site_fract_z
 _atom_site_occupancy
  Nd  Nd0  1  0.50000000  0.58531409  1.00000000  1
  Nd  Nd1  1  0.50000000  0.41468841  0.41467029  1
  Nd  Nd2  1  0.50000000  0.00001812  0.58532971  1
  Al  Al3  1  -0.00000000  0.23319165  0.00000000  1
  Al  Al4  1  -0.00000000  0.76682893  0.76684551  1
  Al  Al5  1  -0.00000000  0.99998342  0.23315449  1
  Cu  Cu6  1  0.00000000  0.33327856  0.66668177  1
  Cu  Cu7  1  0.00000000  0.66659679  0.33331823  1
  Cu  Cu8  1  0.50000000  0.00000003  0.00000000  1
