# generated using pymatgen
data_CaGa2Ni
_symmetry_space_group_name_H-M   'P 1'
_cell_length_a   4.07844139
_cell_length_b   5.57604374
_cell_length_c   6.98170437
_cell_angle_alpha   90.00000000
_cell_angle_beta   90.00000000
_cell_angle_gamma   111.45135193
_symmetry_Int_Tables_number   1
_chemical_formula_structural   CaGa2Ni
_chemical_formula_sum   'Ca2 Ga4 Ni2'
_cell_volume   147.77631317
_cell_formula_units_Z   2
loop_
 _symmetry_equiv_pos_site_id
 _symmetry_equiv_pos_as_xyz
  1  'x, y, z'
loop_
 _atom_site_type_symbol
 _atom_site_label
 _atom_site_symmetry_multiplicity
 _atom_site_fract_x
 _atom_site_fract_y
 _atom_site_fract_z
 _atom_site_occupancy
  Ca  Ca0  1  0.44321457  0.88642915  0.75000000  1
  Ca  Ca1  1  0.55678543  0.11357085  0.25000000  1
  Ga  Ga2  1  0.16253088  0.32506177  0.94367506  1
  Ga  Ga3  1  0.83746912  0.67493823  0.05632494  1
  Ga  Ga4  1  0.16253088  0.32506177  0.55632494  1
  Ga  Ga5  1  0.83746912  0.67493823  0.44367506  1
  Ni  Ni6  1  0.28248219  0.56496438  0.25000000  1
  Ni  Ni7  1  0.71751781  0.43503562  0.75000000  1
