# generated using pymatgen
data_Li4Mn5Sb(PO4)6
_symmetry_space_group_name_H-M   'P 1'
_cell_length_a   8.61008221
_cell_length_b   9.15767067
_cell_length_c   9.16006518
_cell_angle_alpha   59.95012274
_cell_angle_beta   58.44484472
_cell_angle_gamma   58.42992843
_symmetry_Int_Tables_number   1
_chemical_formula_structural   Li4Mn5Sb(PO4)6
_chemical_formula_sum   'Li4 Mn5 Sb1 P6 O24'
_cell_volume   498.13630284
_cell_formula_units_Z   1
loop_
 _symmetry_equiv_pos_site_id
 _symmetry_equiv_pos_as_xyz
  1  'x, y, z'
loop_
 _atom_site_type_symbol
 _atom_site_label
 _atom_site_symmetry_multiplicity
 _atom_site_fract_x
 _atom_site_fract_y
 _atom_site_fract_z
 _atom_site_occupancy
  Li  Li0  1  0.24550209  0.85509115  0.64624889  1
  Li  Li1  1  0.78088300  0.15383473  0.35442838  1
  Li  Li2  1  0.77698076  0.71469494  0.15065740  1
  Li  Li3  1  0.78276702  0.35868230  0.70652144  1
  Mn  Mn4  1  0.01690226  0.99722845  0.00148055  1
  Mn  Mn5  1  0.04235722  0.64969990  0.65372289  1
  Mn  Mn6  1  0.48951245  0.49581611  0.50124574  1
  Mn  Mn7  1  0.45519369  0.84671482  0.84935314  1
  Mn  Mn8  1  0.97080863  0.34489908  0.33998435  1
  Sb  Sb9  1  0.53526800  0.15872844  0.15284730  1
  P  P10  1  0.24589243  0.25340386  0.56776671  1
  P  P11  1  0.24632075  0.93335955  0.25265680  1
  P  P12  1  0.24518172  0.56864282  0.93295799  1
  P  P13  1  0.74319500  0.44741357  0.05737490  1
  P  P14  1  0.75882239  0.05453307  0.75014794  1
  P  P15  1  0.72660979  0.75564433  0.44923458  1
  O  O16  1  0.06662662  0.09353708  0.31212083  1
  O  O17  1  0.06562621  0.52799279  0.09097481  1
  O  O18  1  0.06529515  0.31958571  0.52318460  1
  O  O19  1  0.22632865  0.09287071  0.74480127  1
  O  O20  1  0.44226932  0.19238481  0.41151018  1
  O  O21  1  0.26504914  0.40198184  0.58501884  1
  O  O22  1  0.22785617  0.91629846  0.10401823  1
  O  O23  1  0.26620517  0.75583210  0.41327800  1
  O  O24  1  0.56001443  0.59162372  0.02154504  1
  O  O25  1  0.26834663  0.58695656  0.74469408  1
  O  O26  1  0.76547021  0.24645918  0.08642132  1
  O  O27  1  0.59192639  0.99784556  0.81539849  1
  O  O28  1  0.44314665  0.96042946  0.18398355  1
  O  O29  1  0.22203665  0.75676162  0.91461656  1
  O  O30  1  0.72738885  0.42361117  0.24757326  1
  O  O31  1  0.44160807  0.41469820  0.95447297  1
  O  O32  1  0.73189163  0.24448568  0.59945326  1
  O  O33  1  0.76439897  0.09166268  0.90356515  1
  O  O34  1  0.72788472  0.59987891  0.41908436  1
  O  O35  1  0.52832323  0.82377072  0.58757589  1
  O  O36  1  0.75926773  0.90527868  0.24961855  1
  O  O37  1  0.89510659  0.70280650  0.49977763  1
  O  O38  1  0.92790840  0.47746459  0.90608447  1
  O  O39  1  0.95783020  0.91039614  0.69159967  1
