# generated using pymatgen
data_DyInCu
_symmetry_space_group_name_H-M   'P 1'
_cell_length_a   3.90908257
_cell_length_b   7.49872165
_cell_length_c   7.49817949
_cell_angle_alpha   120.00239447
_cell_angle_beta   90.00000000
_cell_angle_gamma   90.00000000
_symmetry_Int_Tables_number   1
_chemical_formula_structural   DyInCu
_chemical_formula_sum   'Dy3 In3 Cu3'
_cell_volume   190.34350480
_cell_formula_units_Z   3
loop_
 _symmetry_equiv_pos_site_id
 _symmetry_equiv_pos_as_xyz
  1  'x, y, z'
loop_
 _atom_site_type_symbol
 _atom_site_label
 _atom_site_symmetry_multiplicity
 _atom_site_fract_x
 _atom_site_fract_y
 _atom_site_fract_z
 _atom_site_occupancy
  Dy  Dy0  1  0.50000000  0.58946783  1.00000000  1
  Dy  Dy1  1  0.50000000  0.41055936  0.41052166  1
  Dy  Dy2  1  0.50000000  0.00003770  0.58947834  1
  In  In3  1  0.00000000  0.25331580  0.00000000  1
  In  In4  1  0.00000000  0.74680558  0.74676276  1
  In  In5  1  0.00000000  0.00004282  0.25323724  1
  Cu  Cu6  1  0.50000000  -0.00019080  1.00000000  1
  Cu  Cu7  1  0.00000000  0.33326739  0.66667308  1
  Cu  Cu8  1  0.00000000  0.66659431  0.33332692  1
