# generated using pymatgen
data_NdCd2Pd
_symmetry_space_group_name_H-M   'P 1'
_cell_length_a   4.30515229
_cell_length_b   5.53433746
_cell_length_c   8.46293759
_cell_angle_alpha   90.00000000
_cell_angle_beta   90.00000000
_cell_angle_gamma   112.88913150
_symmetry_Int_Tables_number   1
_chemical_formula_structural   NdCd2Pd
_chemical_formula_sum   'Nd2 Cd4 Pd2'
_cell_volume   185.76210880
_cell_formula_units_Z   2
loop_
 _symmetry_equiv_pos_site_id
 _symmetry_equiv_pos_as_xyz
  1  'x, y, z'
loop_
 _atom_site_type_symbol
 _atom_site_label
 _atom_site_symmetry_multiplicity
 _atom_site_fract_x
 _atom_site_fract_y
 _atom_site_fract_z
 _atom_site_occupancy
  Nd  Nd0  1  0.06515938  0.13031875  0.25000000  1
  Nd  Nd1  1  0.93484062  0.86968125  0.75000000  1
  Cd  Cd2  1  0.35620295  0.71240589  0.45098019  1
  Cd  Cd3  1  0.64379705  0.28759411  0.54901981  1
  Cd  Cd4  1  0.35620295  0.71240589  0.04901981  1
  Cd  Cd5  1  0.64379705  0.28759411  0.95098019  1
  Pd  Pd6  1  0.77644889  0.55289778  0.25000000  1
  Pd  Pd7  1  0.22355111  0.44710222  0.75000000  1
