# generated using pymatgen
data_MgGaAu
_symmetry_space_group_name_H-M   'P 1'
_cell_length_a   3.41023562
_cell_length_b   7.49182631
_cell_length_c   7.50009808
_cell_angle_alpha   119.96352328
_cell_angle_beta   90.00000000
_cell_angle_gamma   90.00000000
_symmetry_Int_Tables_number   1
_chemical_formula_structural   MgGaAu
_chemical_formula_sum   'Mg3 Ga3 Au3'
_cell_volume   166.00806005
_cell_formula_units_Z   3
loop_
 _symmetry_equiv_pos_site_id
 _symmetry_equiv_pos_as_xyz
  1  'x, y, z'
loop_
 _atom_site_type_symbol
 _atom_site_label
 _atom_site_symmetry_multiplicity
 _atom_site_fract_x
 _atom_site_fract_y
 _atom_site_fract_z
 _atom_site_occupancy
  Mg  Mg0  1  0.00000000  0.61644715  0.00000000  1
  Mg  Mg1  1  0.00000000  0.38352688  0.38355198  1
  Mg  Mg2  1  0.00000000  0.99997490  0.61644802  1
  Ga  Ga3  1  0.50000000  0.28181896  0.00000000  1
  Ga  Ga4  1  0.50000000  0.71822599  0.71815496  1
  Ga  Ga5  1  0.50000000  0.00007102  0.28184504  1
  Au  Au6  1  0.00000000  -0.00004286  0.00000000  1
  Au  Au7  1  0.50000000  0.33324314  0.66660831  1
  Au  Au8  1  0.50000000  0.66663483  0.33339169  1
