# generated using pymatgen
data_YbAl2Pd
_symmetry_space_group_name_H-M   'P 1'
_cell_length_a   4.28545866
_cell_length_b   5.42282740
_cell_length_c   7.27003008
_cell_angle_alpha   90.00000000
_cell_angle_beta   90.00000000
_cell_angle_gamma   113.27416877
_symmetry_Int_Tables_number   1
_chemical_formula_structural   YbAl2Pd
_chemical_formula_sum   'Yb2 Al4 Pd2'
_cell_volume   155.20202326
_cell_formula_units_Z   2
loop_
 _symmetry_equiv_pos_site_id
 _symmetry_equiv_pos_as_xyz
  1  'x, y, z'
loop_
 _atom_site_type_symbol
 _atom_site_label
 _atom_site_symmetry_multiplicity
 _atom_site_fract_x
 _atom_site_fract_y
 _atom_site_fract_z
 _atom_site_occupancy
  Yb  Yb0  1  0.43647837  0.87295675  0.25000000  1
  Yb  Yb1  1  0.56352163  0.12704325  0.75000000  1
  Al  Al2  1  0.15164193  0.30328387  0.44443989  1
  Al  Al3  1  0.84835807  0.69671613  0.55556011  1
  Al  Al4  1  0.15164193  0.30328387  0.05556011  1
  Al  Al5  1  0.84835807  0.69671613  0.94443989  1
  Pd  Pd6  1  0.71602143  0.43204286  0.25000000  1
  Pd  Pd7  1  0.28397857  0.56795714  0.75000000  1
