# generated using pymatgen
data_NdCoGe2
_symmetry_space_group_name_H-M   'P 1'
_cell_length_a   4.23531896
_cell_length_b   4.26056306
_cell_length_c   8.58940848
_cell_angle_alpha   104.35993920
_cell_angle_beta   90.00000000
_cell_angle_gamma   90.00000000
_symmetry_Int_Tables_number   1
_chemical_formula_structural   NdCoGe2
_chemical_formula_sum   'Nd2 Co2 Ge4'
_cell_volume   150.15200772
_cell_formula_units_Z   2
loop_
 _symmetry_equiv_pos_site_id
 _symmetry_equiv_pos_as_xyz
  1  'x, y, z'
loop_
 _atom_site_type_symbol
 _atom_site_label
 _atom_site_symmetry_multiplicity
 _atom_site_fract_x
 _atom_site_fract_y
 _atom_site_fract_z
 _atom_site_occupancy
  Nd  Nd0  1  0.75000000  0.10749522  0.21499043  1
  Nd  Nd1  1  0.25000000  0.89250478  0.78500957  1
  Co  Co2  1  0.75000000  0.31678055  0.63356109  1
  Co  Co3  1  0.25000000  0.68321945  0.36643891  1
  Ge  Ge4  1  0.75000000  0.45421153  0.90842307  1
  Ge  Ge5  1  0.25000000  0.54578847  0.09157693  1
  Ge  Ge6  1  0.75000000  0.74974307  0.49948615  1
  Ge  Ge7  1  0.25000000  0.25025693  0.50051385  1
