# generated using pymatgen
data_LaCuGe2
_symmetry_space_group_name_H-M   'P 1'
_cell_length_a   4.29155074
_cell_length_b   4.41031104
_cell_length_c   8.91875788
_cell_angle_alpha   104.31479198
_cell_angle_beta   90.00000000
_cell_angle_gamma   90.00000000
_symmetry_Int_Tables_number   1
_chemical_formula_structural   LaCuGe2
_chemical_formula_sum   'La2 Cu2 Ge4'
_cell_volume   163.56488714
_cell_formula_units_Z   2
loop_
 _symmetry_equiv_pos_site_id
 _symmetry_equiv_pos_as_xyz
  1  'x, y, z'
loop_
 _atom_site_type_symbol
 _atom_site_label
 _atom_site_symmetry_multiplicity
 _atom_site_fract_x
 _atom_site_fract_y
 _atom_site_fract_z
 _atom_site_occupancy
  La  La0  1  0.75000000  0.10535543  0.21071086  1
  La  La1  1  0.25000000  0.89464457  0.78928914  1
  Cu  Cu2  1  0.75000000  0.32076370  0.64152740  1
  Cu  Cu3  1  0.25000000  0.67923630  0.35847260  1
  Ge  Ge4  1  0.75000000  0.46060268  0.92120536  1
  Ge  Ge5  1  0.25000000  0.53939732  0.07879464  1
  Ge  Ge6  1  0.75000000  0.75177341  0.50354682  1
  Ge  Ge7  1  0.25000000  0.24822659  0.49645318  1
