# generated using pymatgen
data_DyAu3
_symmetry_space_group_name_H-M   'P 1'
_cell_length_a   5.06761533
_cell_length_b   5.17273966
_cell_length_c   6.17911548
_cell_angle_alpha   90.00000000
_cell_angle_beta   90.00000000
_cell_angle_gamma   90.00000000
_symmetry_Int_Tables_number   1
_chemical_formula_structural   DyAu3
_chemical_formula_sum   'Dy2 Au6'
_cell_volume   161.97596433
_cell_formula_units_Z   2
loop_
 _symmetry_equiv_pos_site_id
 _symmetry_equiv_pos_as_xyz
  1  'x, y, z'
loop_
 _atom_site_type_symbol
 _atom_site_label
 _atom_site_symmetry_multiplicity
 _atom_site_fract_x
 _atom_site_fract_y
 _atom_site_fract_z
 _atom_site_occupancy
  Dy  Dy0  1  0.75000000  0.34497704  0.75000000  1
  Dy  Dy1  1  0.25000000  0.65502296  0.25000000  1
  Au  Au2  1  0.75000000  0.84201664  0.00509272  1
  Au  Au3  1  0.75000000  0.84201664  0.49490728  1
  Au  Au4  1  0.25000000  0.15798336  0.99490728  1
  Au  Au5  1  0.25000000  0.15798336  0.50509272  1
  Au  Au6  1  0.25000000  0.66123579  0.75000000  1
  Au  Au7  1  0.75000000  0.33876421  0.25000000  1
