# generated using pymatgen
data_Sn4Ir
_symmetry_space_group_name_H-M   'P 1'
_cell_length_a   6.42626575
_cell_length_b   6.44697694
_cell_length_c   6.58500819
_cell_angle_alpha   119.30899017
_cell_angle_beta   90.00000000
_cell_angle_gamma   90.00000000
_symmetry_Int_Tables_number   1
_chemical_formula_structural   Sn4Ir
_chemical_formula_sum   'Sn8 Ir2'
_cell_volume   237.89420007
_cell_formula_units_Z   2
loop_
 _symmetry_equiv_pos_site_id
 _symmetry_equiv_pos_as_xyz
  1  'x, y, z'
loop_
 _atom_site_type_symbol
 _atom_site_label
 _atom_site_symmetry_multiplicity
 _atom_site_fract_x
 _atom_site_fract_y
 _atom_site_fract_z
 _atom_site_occupancy
  Sn  Sn0  1  0.67269247  0.29814534  0.25080557  1
  Sn  Sn1  1  0.32730753  0.95266023  0.25080557  1
  Sn  Sn2  1  0.82730753  0.79814534  0.25080557  1
  Sn  Sn3  1  0.17269247  0.45266023  0.25080557  1
  Sn  Sn4  1  0.82730753  0.20185466  0.74919443  1
  Sn  Sn5  1  0.17269247  0.54733977  0.74919443  1
  Sn  Sn6  1  0.67269247  0.70185466  0.74919443  1
  Sn  Sn7  1  0.32730753  0.04733977  0.74919443  1
  Ir  Ir8  1  0.50000000  0.50000000  0.00000000  1
  Ir  Ir9  1  0.00000000  0.00000000  0.00000000  1
