# generated using pymatgen
data_Cs2Sb2Pt
_symmetry_space_group_name_H-M   'P 1'
_cell_length_a   7.15754453
_cell_length_b   7.89619872
_cell_length_c   8.46774951
_cell_angle_alpha   117.79123524
_cell_angle_beta   90.00000000
_cell_angle_gamma   90.00000000
_symmetry_Int_Tables_number   1
_chemical_formula_structural   Cs2Sb2Pt
_chemical_formula_sum   'Cs4 Sb4 Pt2'
_cell_volume   423.37259841
_cell_formula_units_Z   2
loop_
 _symmetry_equiv_pos_site_id
 _symmetry_equiv_pos_as_xyz
  1  'x, y, z'
loop_
 _atom_site_type_symbol
 _atom_site_label
 _atom_site_symmetry_multiplicity
 _atom_site_fract_x
 _atom_site_fract_y
 _atom_site_fract_z
 _atom_site_occupancy
  Cs  Cs0  1  0.75000000  0.40214723  0.80429445  1
  Cs  Cs1  1  0.25000000  0.59785277  0.19570555  1
  Cs  Cs2  1  0.75000000  0.80149562  0.60299124  1
  Cs  Cs3  1  0.25000000  0.19850438  0.39700876  1
  Sb  Sb4  1  0.75000000  0.27478123  0.18972063  1
  Sb  Sb5  1  0.25000000  0.08506060  0.81027937  1
  Sb  Sb6  1  0.25000000  0.72521877  0.81027937  1
  Sb  Sb7  1  0.75000000  0.91493940  0.18972063  1
  Pt  Pt8  1  0.50000000  0.00000000  0.00000000  1
  Pt  Pt9  1  -0.00000000  0.00000000  0.00000000  1
