# generated using pymatgen
data_Li4Mn3Cr2Sn(PO4)6
_symmetry_space_group_name_H-M   'P 1'
_cell_length_a   8.62050280
_cell_length_b   8.77859540
_cell_length_c   8.90712642
_cell_angle_alpha   61.30257822
_cell_angle_beta   61.77538990
_cell_angle_gamma   62.21722073
_symmetry_Int_Tables_number   1
_chemical_formula_structural   Li4Mn3Cr2Sn(PO4)6
_chemical_formula_sum   'Li4 Mn3 Cr2 Sn1 P6 O24'
_cell_volume   495.41805825
_cell_formula_units_Z   1
loop_
 _symmetry_equiv_pos_site_id
 _symmetry_equiv_pos_as_xyz
  1  'x, y, z'
loop_
 _atom_site_type_symbol
 _atom_site_label
 _atom_site_symmetry_multiplicity
 _atom_site_fract_x
 _atom_site_fract_y
 _atom_site_fract_z
 _atom_site_occupancy
  Li  Li0  1  0.74723747  0.14912308  0.35022293  1
  Li  Li1  1  0.29620388  0.84448437  0.64136260  1
  Li  Li2  1  0.63722872  0.30763063  0.84639119  1
  Li  Li3  1  0.85989157  0.63173052  0.31842777  1
  Mn  Mn4  1  0.15292438  0.15088697  0.14968179  1
  Mn  Mn5  1  0.34725402  0.35365495  0.34852178  1
  Mn  Mn6  1  0.65333345  0.65790961  0.65965132  1
  Cr  Cr7  1  0.01460046  0.99790074  0.00367408  1
  Cr  Cr8  1  0.49379509  0.49979502  0.50035123  1
  Sn  Sn9  1  0.85012126  0.84661989  0.85119771  1
  P  P10  1  0.24396809  0.55647500  0.94899066  1
  P  P11  1  0.57274401  0.95589436  0.24724566  1
  P  P12  1  0.92412728  0.24328245  0.53859786  1
  P  P13  1  0.06356277  0.74155841  0.44989185  1
  P  P14  1  0.43564177  0.04911331  0.75071626  1
  P  P15  1  0.74753512  0.43701568  0.05286869  1
  O  O16  1  0.10073651  0.28266158  0.48279097  1
  O  O17  1  0.28756942  0.53754286  0.10439083  1
  O  O18  1  0.06683878  0.90354733  0.27184515  1
  O  O19  1  0.57952002  0.09314071  0.30093384  1
  O  O20  1  0.01443003  0.80363984  0.61026909  1
  O  O21  1  0.25489964  0.59310553  0.44057577  1
  O  O22  1  0.24866080  0.07004896  0.90522470  1
  O  O23  1  0.44852334  0.23130739  0.59421939  1
  O  O24  1  0.16159385  0.41686054  0.99139690  1
  O  O25  1  0.60234992  0.42386517  0.24347686  1
  O  O26  1  0.10357053  0.76672479  0.89444222  1
  O  O27  1  0.41859193  0.03230747  0.17034772  1
  O  O28  1  0.59569652  0.98355474  0.82624767  1
  O  O29  1  0.90122391  0.24814806  0.07393037  1
  O  O30  1  0.40910384  0.56282188  0.76553817  1
  O  O31  1  0.81078235  0.60107492  0.00109745  1
  O  O32  1  0.56787653  0.76792465  0.40382457  1
  O  O33  1  0.77586351  0.90345190  0.09701366  1
  O  O34  1  0.74543540  0.41617201  0.55434118  1
  O  O35  1  0.92698735  0.17351089  0.41078219  1
  O  O36  1  0.45811273  0.90531462  0.68412696  1
  O  O37  1  0.88656772  0.10613021  0.74398430  1
  O  O38  1  0.67861543  0.46701700  0.90750760  1
  O  O39  1  0.91628162  0.66405097  0.48690004  1
