# generated using pymatgen
data_LaFeSi2
_symmetry_space_group_name_H-M   'P 1'
_cell_length_a   4.05621923
_cell_length_b   4.16313620
_cell_length_c   8.79851794
_cell_angle_alpha   103.68487209
_cell_angle_beta   90.00000000
_cell_angle_gamma   90.00000000
_symmetry_Int_Tables_number   1
_chemical_formula_structural   LaFeSi2
_chemical_formula_sum   'La2 Fe2 Si4'
_cell_volume   144.35913216
_cell_formula_units_Z   2
loop_
 _symmetry_equiv_pos_site_id
 _symmetry_equiv_pos_as_xyz
  1  'x, y, z'
loop_
 _atom_site_type_symbol
 _atom_site_label
 _atom_site_symmetry_multiplicity
 _atom_site_fract_x
 _atom_site_fract_y
 _atom_site_fract_z
 _atom_site_occupancy
  La  La0  1  0.75000000  0.10767903  0.21535806  1
  La  La1  1  0.25000000  0.89232097  0.78464194  1
  Fe  Fe2  1  0.75000000  0.74984363  0.49968725  1
  Fe  Fe3  1  0.25000000  0.25015637  0.50031275  1
  Si  Si4  1  0.75000000  0.31010267  0.62020535  1
  Si  Si5  1  0.25000000  0.68989733  0.37979465  1
  Si  Si6  1  0.75000000  0.46250183  0.92500366  1
  Si  Si7  1  0.25000000  0.53749817  0.07499634  1
