# generated using pymatgen
data_Th(BRu)2
_symmetry_space_group_name_H-M   'P 1'
_cell_length_a   5.58946506
_cell_length_b   5.58946506
_cell_length_c   6.03931431
_cell_angle_alpha   108.43093283
_cell_angle_beta   108.43093283
_cell_angle_gamma   108.46873391
_symmetry_Int_Tables_number   1
_chemical_formula_structural   Th(BRu)2
_chemical_formula_sum   'Th2 B4 Ru4'
_cell_volume   150.51956428
_cell_formula_units_Z   2
loop_
 _symmetry_equiv_pos_site_id
 _symmetry_equiv_pos_as_xyz
  1  'x, y, z'
loop_
 _atom_site_type_symbol
 _atom_site_label
 _atom_site_symmetry_multiplicity
 _atom_site_fract_x
 _atom_site_fract_y
 _atom_site_fract_z
 _atom_site_occupancy
  Th  Th0  1  -0.00000000  -0.00000000  -0.00000000  1
  Th  Th1  1  0.25000000  0.75000000  0.50000000  1
  B  B2  1  0.68251929  0.31748071  -0.00000000  1
  B  B3  1  0.31748071  0.68251929  -0.00000000  1
  B  B4  1  0.93219984  0.06780016  0.50000000  1
  B  B5  1  0.56780016  0.43219984  0.50000000  1
  Ru  Ru6  1  0.36321163  0.36321163  0.72642326  1
  Ru  Ru7  1  0.63678837  0.63678837  0.27357674  1
  Ru  Ru8  1  0.88689949  0.38689949  0.77379897  1
  Ru  Ru9  1  0.61310051  0.11310051  0.22620103  1
