# generated using pymatgen
data_Y(SiPt)2
_symmetry_space_group_name_H-M   'P 1'
_cell_length_a   4.17932592
_cell_length_b   4.17932592
_cell_length_c   9.98362885
_cell_angle_alpha   90.00000000
_cell_angle_beta   90.00000000
_cell_angle_gamma   90.00000000
_symmetry_Int_Tables_number   1
_chemical_formula_structural   Y(SiPt)2
_chemical_formula_sum   'Y2 Si4 Pt4'
_cell_volume   174.38170042
_cell_formula_units_Z   2
loop_
 _symmetry_equiv_pos_site_id
 _symmetry_equiv_pos_as_xyz
  1  'x, y, z'
loop_
 _atom_site_type_symbol
 _atom_site_label
 _atom_site_symmetry_multiplicity
 _atom_site_fract_x
 _atom_site_fract_y
 _atom_site_fract_z
 _atom_site_occupancy
  Y  Y0  1  0.75000000  0.75000000  0.25200675  1
  Y  Y1  1  0.25000000  0.25000000  0.74799325  1
  Si  Si2  1  0.75000000  0.25000000  0.50000000  1
  Si  Si3  1  0.25000000  0.75000000  0.50000000  1
  Si  Si4  1  0.75000000  0.75000000  0.86221487  1
  Si  Si5  1  0.25000000  0.25000000  0.13778513  1
  Pt  Pt6  1  0.75000000  0.25000000  -0.00000000  1
  Pt  Pt7  1  0.25000000  0.75000000  -0.00000000  1
  Pt  Pt8  1  0.75000000  0.75000000  0.62363257  1
  Pt  Pt9  1  0.25000000  0.25000000  0.37636743  1
