# generated using pymatgen
data_ScPIr
_symmetry_space_group_name_H-M   'P 1'
_cell_length_a   3.95125526
_cell_length_b   6.36386743
_cell_length_c   6.36316653
_cell_angle_alpha   120.00363869
_cell_angle_beta   90.00000000
_cell_angle_gamma   90.00000000
_symmetry_Int_Tables_number   1
_chemical_formula_structural   ScPIr
_chemical_formula_sum   'Sc3 P3 Ir3'
_cell_volume   138.56202043
_cell_formula_units_Z   3
loop_
 _symmetry_equiv_pos_site_id
 _symmetry_equiv_pos_as_xyz
  1  'x, y, z'
loop_
 _atom_site_type_symbol
 _atom_site_label
 _atom_site_symmetry_multiplicity
 _atom_site_fract_x
 _atom_site_fract_y
 _atom_site_fract_z
 _atom_site_occupancy
  Sc  Sc0  1  0.50000000  0.58088335  0.00000000  1
  Sc  Sc1  1  0.50000000  0.41911693  0.41908835  1
  Sc  Sc2  1  0.50000000  0.00002858  0.58091165  1
  P  P3  1  0.00000000  0.66667824  0.33336299  1
  P  P4  1  0.00000000  0.33331525  0.66663701  1
  P  P5  1  0.50000000  0.00003496  0.00000000  1
  Ir  Ir6  1  0.00000000  0.24975694  0.00000000  1
  Ir  Ir7  1  0.00000000  0.75027128  0.75025681  1
  Ir  Ir8  1  0.00000000  0.00001447  0.24974319  1
