# generated using pymatgen
data_LiTaF6
_symmetry_space_group_name_H-M   'P 1'
_cell_length_a   5.46709100
_cell_length_b   5.46709101
_cell_length_c   5.57142887
_cell_angle_alpha   60.61758835
_cell_angle_beta   60.61758835
_cell_angle_gamma   59.99999934
_symmetry_Int_Tables_number   1
_chemical_formula_structural   LiTaF6
_chemical_formula_sum   'Li1 Ta1 F6'
_cell_volume   118.83813084
_cell_formula_units_Z   1
loop_
 _symmetry_equiv_pos_site_id
 _symmetry_equiv_pos_as_xyz
  1  'x, y, z'
loop_
 _atom_site_type_symbol
 _atom_site_label
 _atom_site_symmetry_multiplicity
 _atom_site_fract_x
 _atom_site_fract_y
 _atom_site_fract_z
 _atom_site_occupancy
  Li  Li0  1  0.50000000  0.50000000  0.50000000  1
  Ta  Ta1  1  -0.00000000  -0.00000000  0.00000000  1
  F  F2  1  0.83455112  0.68322535  0.24178676  1
  F  F3  1  0.68322535  0.24043677  0.24178676  1
  F  F4  1  0.24043677  0.83455112  0.24178676  1
  F  F5  1  0.16544888  0.31677465  0.75821324  1
  F  F6  1  0.31677465  0.75956323  0.75821324  1
  F  F7  1  0.75956323  0.16544888  0.75821324  1
