# generated using pymatgen
data_Ho2InAu2
_symmetry_space_group_name_H-M   'P 1'
_cell_length_a   3.66969435
_cell_length_b   7.99704886
_cell_length_c   7.99704886
_cell_angle_alpha   90.00000000
_cell_angle_beta   90.00000000
_cell_angle_gamma   90.00000000
_symmetry_Int_Tables_number   1
_chemical_formula_structural   Ho2InAu2
_chemical_formula_sum   'Ho4 In2 Au4'
_cell_volume   234.68719385
_cell_formula_units_Z   2
loop_
 _symmetry_equiv_pos_site_id
 _symmetry_equiv_pos_as_xyz
  1  'x, y, z'
loop_
 _atom_site_type_symbol
 _atom_site_label
 _atom_site_symmetry_multiplicity
 _atom_site_fract_x
 _atom_site_fract_y
 _atom_site_fract_z
 _atom_site_occupancy
  Ho  Ho0  1  0.50000000  0.17071478  0.67071478  1
  Ho  Ho1  1  0.50000000  0.82928522  0.32928522  1
  Ho  Ho2  1  0.50000000  0.32928522  0.17071478  1
  Ho  Ho3  1  0.50000000  0.67071478  0.82928522  1
  In  In4  1  0.00000000  0.50000000  0.50000000  1
  In  In5  1  0.00000000  -0.00000000  0.00000000  1
  Au  Au6  1  -0.00000000  0.62804428  0.12804428  1
  Au  Au7  1  0.00000000  0.37195572  0.87195572  1
  Au  Au8  1  0.00000000  0.87195572  0.62804428  1
  Au  Au9  1  -0.00000000  0.12804428  0.37195572  1
