# generated using pymatgen
data_Li2AgSn2
_symmetry_space_group_name_H-M   'P 1'
_cell_length_a   4.61536371
_cell_length_b   4.61536371
_cell_length_c   10.69701184
_cell_angle_alpha   102.45844325
_cell_angle_beta   102.45844325
_cell_angle_gamma   90.00000000
_symmetry_Int_Tables_number   1
_chemical_formula_structural   Li2AgSn2
_chemical_formula_sum   'Li4 Ag2 Sn4'
_cell_volume   216.99953374
_cell_formula_units_Z   2
loop_
 _symmetry_equiv_pos_site_id
 _symmetry_equiv_pos_as_xyz
  1  'x, y, z'
loop_
 _atom_site_type_symbol
 _atom_site_label
 _atom_site_symmetry_multiplicity
 _atom_site_fract_x
 _atom_site_fract_y
 _atom_site_fract_z
 _atom_site_occupancy
  Li  Li0  1  0.20078551  0.45078551  0.40157103  1
  Li  Li1  1  0.45078551  0.20078551  0.90157103  1
  Li  Li2  1  0.79921449  0.54921449  0.59842897  1
  Li  Li3  1  0.54921449  0.79921449  0.09842897  1
  Ag  Ag4  1  0.62500000  0.37500000  0.25000000  1
  Ag  Ag5  1  0.37500000  0.62500000  0.75000000  1
  Sn  Sn6  1  0.70324592  0.95324592  0.40649184  1
  Sn  Sn7  1  0.95324592  0.70324592  0.90649184  1
  Sn  Sn8  1  0.29675408  0.04675408  0.59350816  1
  Sn  Sn9  1  0.04675408  0.29675408  0.09350816  1
