# generated using pymatgen
data_Li4Cu3F12
_symmetry_space_group_name_H-M   'P 1'
_cell_length_a   7.94290039
_cell_length_b   8.86741865
_cell_length_c   13.81111592
_cell_angle_alpha   90.00000000
_cell_angle_beta   88.95601029
_cell_angle_gamma   90.00000000
_symmetry_Int_Tables_number   1
_chemical_formula_structural   Li4Cu3F12
_chemical_formula_sum   'Li16 Cu12 F48'
_cell_volume   972.59716922
_cell_formula_units_Z   4
loop_
 _symmetry_equiv_pos_site_id
 _symmetry_equiv_pos_as_xyz
  1  'x, y, z'
loop_
 _atom_site_type_symbol
 _atom_site_label
 _atom_site_symmetry_multiplicity
 _atom_site_fract_x
 _atom_site_fract_y
 _atom_site_fract_z
 _atom_site_occupancy
  Li  Li0  1  0.07862653  0.80159695  0.33546947  1
  Li  Li1  1  0.07862653  0.69840305  0.83546947  1
  Li  Li2  1  0.28350267  0.12075927  0.40116026  1
  Li  Li3  1  0.28350267  0.37924073  0.90116026  1
  Li  Li4  1  0.38516267  0.33239085  0.16852158  1
  Li  Li5  1  0.38516267  0.16760915  0.66852158  1
  Li  Li6  1  0.46347257  0.49551214  0.40150572  1
  Li  Li7  1  0.53652743  0.99551214  0.09849428  1
  Li  Li8  1  0.46347257  0.00448786  0.90150572  1
  Li  Li9  1  0.53652743  0.50448786  0.59849428  1
  Li  Li10  1  0.61483733  0.83239085  0.33147842  1
  Li  Li11  1  0.61483733  0.66760915  0.83147842  1
  Li  Li12  1  0.71649733  0.62075927  0.09883974  1
  Li  Li13  1  0.71649733  0.87924073  0.59883974  1
  Li  Li14  1  0.92137347  0.30159695  0.16453053  1
  Li  Li15  1  0.92137347  0.19840305  0.66453053  1
  Cu  Cu16  1  0.06430718  0.65096058  0.13848287  1
  Cu  Cu17  1  0.06430718  0.84903942  0.63848287  1
  Cu  Cu18  1  0.15097850  0.16019731  0.04347459  1
  Cu  Cu19  1  0.15097850  0.33980269  0.54347459  1
  Cu  Cu20  1  0.39210932  0.66649681  0.18992374  1
  Cu  Cu21  1  0.39210932  0.83350319  0.68992374  1
  Cu  Cu22  1  0.60789068  0.16649681  0.31007626  1
  Cu  Cu23  1  0.60789068  0.33350319  0.81007626  1
  Cu  Cu24  1  0.84902150  0.66019731  0.45652541  1
  Cu  Cu25  1  0.84902150  0.83980269  0.95652541  1
  Cu  Cu26  1  0.93569282  0.15096058  0.36151713  1
  Cu  Cu27  1  0.93569282  0.34903942  0.86151713  1
  F  F28  1  0.07840007  0.66243504  0.44010635  1
  F  F29  1  0.10102249  0.29056569  0.40423568  1
  F  F30  1  0.08446110  0.99520691  0.39084818  1
  F  F31  1  0.07840007  0.83756496  0.94010635  1
  F  F32  1  0.10102249  0.20943431  0.90423568  1
  F  F33  1  0.08446110  0.50479309  0.89084818  1
  F  F34  1  0.15487962  0.19065797  0.18087488  1
  F  F35  1  0.21466977  0.51351087  0.20706163  1
  F  F36  1  0.19104262  0.80035492  0.21336347  1
  F  F37  1  0.15487962  0.30934203  0.68087488  1
  F  F38  1  0.21466977  0.98648913  0.70706163  1
  F  F39  1  0.19104262  0.69964508  0.71336347  1
  F  F40  1  0.29831743  0.32780556  0.03474381  1
  F  F41  1  0.29831743  0.17219444  0.53474381  1
  F  F42  1  0.33724793  0.03402652  0.02186140  1
  F  F43  1  0.31319721  0.67345281  0.06163867  1
  F  F44  1  0.33724793  0.46597348  0.52186140  1
  F  F45  1  0.31319721  0.82654719  0.56163867  1
  F  F46  1  0.45504437  0.00826665  0.33907594  1
  F  F47  1  0.43441008  0.31109932  0.32982533  1
  F  F48  1  0.45504437  0.49173335  0.83907594  1
  F  F49  1  0.44715248  0.66986736  0.32429546  1
  F  F50  1  0.43441008  0.18890068  0.82982533  1
  F  F51  1  0.44715248  0.83013264  0.82429546  1
  F  F52  1  0.55284752  0.16986736  0.17570454  1
  F  F53  1  0.56558992  0.81109932  0.17017467  1
  F  F54  1  0.55284752  0.33013264  0.67570454  1
  F  F55  1  0.54495563  0.50826665  0.16092406  1
  F  F56  1  0.56558992  0.68890068  0.67017467  1
  F  F57  1  0.54495563  0.99173335  0.66092406  1
  F  F58  1  0.68680279  0.17345281  0.43836133  1
  F  F59  1  0.66275207  0.53402652  0.47813860  1
  F  F60  1  0.68680279  0.32654719  0.93836133  1
  F  F61  1  0.66275207  0.96597348  0.97813860  1
  F  F62  1  0.70168257  0.82780556  0.46525619  1
  F  F63  1  0.70168257  0.67219444  0.96525619  1
  F  F64  1  0.80895738  0.30035492  0.28663653  1
  F  F65  1  0.78533023  0.01351087  0.29293837  1
  F  F66  1  0.84512038  0.69065797  0.31912512  1
  F  F67  1  0.80895738  0.19964508  0.78663653  1
  F  F68  1  0.78533023  0.48648913  0.79293837  1
  F  F69  1  0.84512038  0.80934203  0.81912512  1
  F  F70  1  0.91553890  0.49520691  0.10915182  1
  F  F71  1  0.89897751  0.79056569  0.09576432  1
  F  F72  1  0.92159993  0.16243504  0.05989365  1
  F  F73  1  0.91553890  0.00479309  0.60915182  1
  F  F74  1  0.89897751  0.70943431  0.59576432  1
  F  F75  1  0.92159993  0.33756496  0.55989365  1
