# generated using pymatgen
data_ScSiRu
_symmetry_space_group_name_H-M   'P 1'
_cell_length_a   3.38883204
_cell_length_b   6.91817329
_cell_length_c   6.91998386
_cell_angle_alpha   119.99135533
_cell_angle_beta   90.00000000
_cell_angle_gamma   90.00000000
_symmetry_Int_Tables_number   1
_chemical_formula_structural   ScSiRu
_chemical_formula_sum   'Sc3 Si3 Ru3'
_cell_volume   140.51251870
_cell_formula_units_Z   3
loop_
 _symmetry_equiv_pos_site_id
 _symmetry_equiv_pos_as_xyz
  1  'x, y, z'
loop_
 _atom_site_type_symbol
 _atom_site_label
 _atom_site_symmetry_multiplicity
 _atom_site_fract_x
 _atom_site_fract_y
 _atom_site_fract_z
 _atom_site_occupancy
  Sc  Sc0  1  0.50000000  0.59686068  1.00000000  1
  Sc  Sc1  1  0.50000000  0.40304419  0.40304182  1
  Sc  Sc2  1  0.50000000  0.00000237  0.59695818  1
  Si  Si3  1  0.00000000  0.33332732  0.66668814  1
  Si  Si4  1  0.00000000  0.66663918  0.33331186  1
  Si  Si5  1  0.50000000  0.00005378  0.00000000  1
  Ru  Ru6  1  -0.00000000  0.25197957  1.00000000  1
  Ru  Ru7  1  -0.00000000  0.74799879  0.74800468  1
  Ru  Ru8  1  -0.00000000  -0.00000588  0.25199532  1
