# generated using pymatgen
data_LuSnPd
_symmetry_space_group_name_H-M   'P 1'
_cell_length_a   3.79249817
_cell_length_b   7.61768320
_cell_length_c   7.61818777
_cell_angle_alpha   119.99780642
_cell_angle_beta   90.00000000
_cell_angle_gamma   90.00000000
_symmetry_Int_Tables_number   1
_chemical_formula_structural   LuSnPd
_chemical_formula_sum   'Lu3 Sn3 Pd3'
_cell_volume   190.60759031
_cell_formula_units_Z   3
loop_
 _symmetry_equiv_pos_site_id
 _symmetry_equiv_pos_as_xyz
  1  'x, y, z'
loop_
 _atom_site_type_symbol
 _atom_site_label
 _atom_site_symmetry_multiplicity
 _atom_site_fract_x
 _atom_site_fract_y
 _atom_site_fract_z
 _atom_site_occupancy
  Lu  Lu0  1  0.50000000  0.59937318  1.00000000  1
  Lu  Lu1  1  0.50000000  0.40060691  0.40061410  1
  Lu  Lu2  1  0.50000000  0.99999281  0.59938590  1
  Sn  Sn3  1  0.00000000  0.26480900  0.00000000  1
  Sn  Sn4  1  -0.00000000  0.73515525  0.73514083  1
  Sn  Sn5  1  0.00000000  0.00001442  0.26485917  1
  Pd  Pd6  1  0.00000000  0.33329155  0.66664189  1
  Pd  Pd7  1  0.00000000  0.66664967  0.33335811  1
  Pd  Pd8  1  0.50000000  0.00000720  -0.00000000  1
