# generated using pymatgen
data_NpGa4
_symmetry_space_group_name_H-M   'P 1'
_cell_length_a   4.36711387
_cell_length_b   6.27262251
_cell_length_c   7.91092546
_cell_angle_alpha   113.35662953
_cell_angle_beta   106.02268284
_cell_angle_gamma   90.00000000
_symmetry_Int_Tables_number   1
_chemical_formula_structural   NpGa4
_chemical_formula_sum   'Np2 Ga8'
_cell_volume   189.74329529
_cell_formula_units_Z   2
loop_
 _symmetry_equiv_pos_site_id
 _symmetry_equiv_pos_as_xyz
  1  'x, y, z'
loop_
 _atom_site_type_symbol
 _atom_site_label
 _atom_site_symmetry_multiplicity
 _atom_site_fract_x
 _atom_site_fract_y
 _atom_site_fract_z
 _atom_site_occupancy
  Np  Np0  1  0.88702849  0.63702849  0.77405698  1
  Np  Np1  1  0.11297151  0.36297151  0.22594302  1
  Ga  Ga2  1  0.50000000  0.00000000  -0.00000000  1
  Ga  Ga3  1  0.50000000  0.50000000  -0.00000000  1
  Ga  Ga4  1  0.10576847  0.85576847  0.21153693  1
  Ga  Ga5  1  0.89423153  0.14423153  0.78846307  1
  Ga  Ga6  1  0.69839788  0.16966692  0.39679576  1
  Ga  Ga7  1  0.30160212  0.83033308  0.60320424  1
  Ga  Ga8  1  0.30160212  0.27287116  0.60320424  1
  Ga  Ga9  1  0.69839788  0.72712884  0.39679576  1
