# generated using pymatgen
data_PrMgPd
_symmetry_space_group_name_H-M   'P 1'
_cell_length_a   4.12167941
_cell_length_b   7.71730996
_cell_length_c   7.71754342
_cell_angle_alpha   119.99899271
_cell_angle_beta   90.00000000
_cell_angle_gamma   90.00000000
_symmetry_Int_Tables_number   1
_chemical_formula_structural   PrMgPd
_chemical_formula_sum   'Pr3 Mg3 Pd3'
_cell_volume   212.59560090
_cell_formula_units_Z   3
loop_
 _symmetry_equiv_pos_site_id
 _symmetry_equiv_pos_as_xyz
  1  'x, y, z'
loop_
 _atom_site_type_symbol
 _atom_site_label
 _atom_site_symmetry_multiplicity
 _atom_site_fract_x
 _atom_site_fract_y
 _atom_site_fract_z
 _atom_site_occupancy
  Pr  Pr0  1  0.50000000  0.58530203  0.00000000  1
  Pr  Pr1  1  0.50000000  0.41470115  0.41470754  1
  Pr  Pr2  1  0.50000000  0.99999362  0.58529246  1
  Mg  Mg3  1  0.00000000  0.23981513  1.00000000  1
  Mg  Mg4  1  0.00000000  0.76018930  0.76018627  1
  Mg  Mg5  1  0.00000000  0.00000302  0.23981373  1
  Pd  Pd6  1  0.00000000  0.33329975  0.66669682  1
  Pd  Pd7  1  0.00000000  0.66660292  0.33330318  1
  Pd  Pd8  1  0.50000000  0.99999308  0.00000000  1
