# generated using pymatgen
data_Eu3(SF2)2
_symmetry_space_group_name_H-M   'P 1'
_cell_length_a   3.98108640
_cell_length_b   3.98108640
_cell_length_c   10.16851885
_cell_angle_alpha   101.28885949
_cell_angle_beta   101.28885949
_cell_angle_gamma   90.00000000
_symmetry_Int_Tables_number   1
_chemical_formula_structural   Eu3(SF2)2
_chemical_formula_sum   'Eu3 S2 F4'
_cell_volume   154.86252514
_cell_formula_units_Z   1
loop_
 _symmetry_equiv_pos_site_id
 _symmetry_equiv_pos_as_xyz
  1  'x, y, z'
loop_
 _atom_site_type_symbol
 _atom_site_label
 _atom_site_symmetry_multiplicity
 _atom_site_fract_x
 _atom_site_fract_y
 _atom_site_fract_z
 _atom_site_occupancy
  Eu  Eu0  1  0.00000000  0.00000000  0.00000000  1
  Eu  Eu1  1  0.65765929  0.65765929  0.31531859  1
  Eu  Eu2  1  0.34234071  0.34234071  0.68468141  1
  S  S3  1  0.80279640  0.80279640  0.60559280  1
  S  S4  1  0.19720360  0.19720360  0.39440720  1
  F  F5  1  0.07011187  0.57011187  0.14022373  1
  F  F6  1  0.57011187  0.07011187  0.14022373  1
  F  F7  1  0.92988813  0.42988813  0.85977627  1
  F  F8  1  0.42988813  0.92988813  0.85977627  1
