# generated using pymatgen
data_Ce(BOs)2
_symmetry_space_group_name_H-M   'P 1'
_cell_length_a   5.58695567
_cell_length_b   5.58695567
_cell_length_c   6.02762317
_cell_angle_alpha   109.03581885
_cell_angle_beta   109.03581885
_cell_angle_gamma   107.23133428
_symmetry_Int_Tables_number   1
_chemical_formula_structural   Ce(BOs)2
_chemical_formula_sum   'Ce2 B4 Os4'
_cell_volume   150.10072528
_cell_formula_units_Z   2
loop_
 _symmetry_equiv_pos_site_id
 _symmetry_equiv_pos_as_xyz
  1  'x, y, z'
loop_
 _atom_site_type_symbol
 _atom_site_label
 _atom_site_symmetry_multiplicity
 _atom_site_fract_x
 _atom_site_fract_y
 _atom_site_fract_z
 _atom_site_occupancy
  Ce  Ce0  1  0.00000000  -0.00000000  -0.00000000  1
  Ce  Ce1  1  0.25000000  0.75000000  0.50000000  1
  B  B2  1  0.68514880  0.31485120  -0.00000000  1
  B  B3  1  0.31485120  0.68514880  -0.00000000  1
  B  B4  1  0.93531534  0.06468466  0.50000000  1
  B  B5  1  0.56468466  0.43531534  0.50000000  1
  Os  Os6  1  0.36220937  0.36220937  0.72441875  1
  Os  Os7  1  0.63779063  0.63779063  0.27558125  1
  Os  Os8  1  0.88777122  0.38777122  0.77554244  1
  Os  Os9  1  0.61222878  0.11222878  0.22445756  1
