# generated using pymatgen
data_CsHg
_symmetry_space_group_name_H-M   'P 1'
_cell_length_a   7.46069840
_cell_length_b   7.73767539
_cell_length_c   7.87354418
_cell_angle_alpha   107.04641958
_cell_angle_beta   104.44180337
_cell_angle_gamma   92.98465208
_symmetry_Int_Tables_number   1
_chemical_formula_structural   CsHg
_chemical_formula_sum   'Cs4 Hg4'
_cell_volume   416.96362351
_cell_formula_units_Z   4
loop_
 _symmetry_equiv_pos_site_id
 _symmetry_equiv_pos_as_xyz
  1  'x, y, z'
loop_
 _atom_site_type_symbol
 _atom_site_label
 _atom_site_symmetry_multiplicity
 _atom_site_fract_x
 _atom_site_fract_y
 _atom_site_fract_z
 _atom_site_occupancy
  Cs  Cs0  1  0.26057064  0.84319025  0.05366931  1
  Cs  Cs1  1  0.73942936  0.15680975  0.94633069  1
  Cs  Cs2  1  0.81386646  0.71004401  0.36334558  1
  Cs  Cs3  1  0.18613354  0.28995599  0.63665442  1
  Hg  Hg4  1  0.31304975  0.39680374  0.21616507  1
  Hg  Hg5  1  0.68695025  0.60319626  0.78383493  1
  Hg  Hg6  1  0.63128462  0.24884150  0.44564987  1
  Hg  Hg7  1  0.36871538  0.75115850  0.55435013  1
