# generated using pymatgen
data_HfMnGe
_symmetry_space_group_name_H-M   'P 1'
_cell_length_a   3.78307367
_cell_length_b   6.70551035
_cell_length_c   6.70199947
_cell_angle_alpha   120.01732226
_cell_angle_beta   90.00000000
_cell_angle_gamma   90.00000000
_symmetry_Int_Tables_number   1
_chemical_formula_structural   HfMnGe
_chemical_formula_sum   'Hf3 Mn3 Ge3'
_cell_volume   147.20949534
_cell_formula_units_Z   3
loop_
 _symmetry_equiv_pos_site_id
 _symmetry_equiv_pos_as_xyz
  1  'x, y, z'
loop_
 _atom_site_type_symbol
 _atom_site_label
 _atom_site_symmetry_multiplicity
 _atom_site_fract_x
 _atom_site_fract_y
 _atom_site_fract_z
 _atom_site_occupancy
  Hf  Hf0  1  0.50000000  0.58723632  0.00000000  1
  Hf  Hf1  1  0.50000000  0.41285754  0.41293832  1
  Hf  Hf2  1  0.50000000  0.99991922  0.58706168  1
  Mn  Mn3  1  -0.00000000  0.24404127  1.00000000  1
  Mn  Mn4  1  -0.00000000  0.75607701  0.75624183  1
  Mn  Mn5  1  0.00000000  0.99983517  0.24375817  1
  Ge  Ge6  1  0.00000000  0.33323142  0.66658011  1
  Ge  Ge7  1  0.00000000  0.66665131  0.33341989  1
  Ge  Ge8  1  0.50000000  0.00005074  0.00000000  1
