# generated using pymatgen
data_ThAlRh
_symmetry_space_group_name_H-M   'P 1'
_cell_length_a   4.16335738
_cell_length_b   7.21476483
_cell_length_c   7.21467865
_cell_angle_alpha   120.00038826
_cell_angle_beta   90.00000000
_cell_angle_gamma   90.00000000
_symmetry_Int_Tables_number   1
_chemical_formula_structural   ThAlRh
_chemical_formula_sum   'Th3 Al3 Rh3'
_cell_volume   187.67732123
_cell_formula_units_Z   3
loop_
 _symmetry_equiv_pos_site_id
 _symmetry_equiv_pos_as_xyz
  1  'x, y, z'
loop_
 _atom_site_type_symbol
 _atom_site_label
 _atom_site_symmetry_multiplicity
 _atom_site_fract_x
 _atom_site_fract_y
 _atom_site_fract_z
 _atom_site_occupancy
  Th  Th0  1  0.50000000  0.58328603  1.00000000  1
  Th  Th1  1  0.50000000  0.41671594  0.41672549  1
  Th  Th2  1  0.50000000  0.99999044  0.58327451  1
  Al  Al3  1  -0.00000000  0.23255031  0.00000000  1
  Al  Al4  1  -0.00000000  0.76744490  0.76744697  1
  Al  Al5  1  -0.00000000  0.99999793  0.23255303  1
  Rh  Rh6  1  0.00000000  0.33329693  0.66667903  1
  Rh  Rh7  1  0.00000000  0.66661790  0.33332097  1
  Rh  Rh8  1  0.50000000  -0.00000038  -0.00000000  1
