# generated using pymatgen
data_TmSnPt
_symmetry_space_group_name_H-M   'P 1'
_cell_length_a   3.96246269
_cell_length_b   7.49578634
_cell_length_c   7.49577891
_cell_angle_alpha   120.00002510
_cell_angle_beta   90.00000000
_cell_angle_gamma   90.00000000
_symmetry_Int_Tables_number   1
_chemical_formula_structural   TmSnPt
_chemical_formula_sum   'Tm3 Sn3 Pt3'
_cell_volume   192.81005348
_cell_formula_units_Z   3
loop_
 _symmetry_equiv_pos_site_id
 _symmetry_equiv_pos_as_xyz
  1  'x, y, z'
loop_
 _atom_site_type_symbol
 _atom_site_label
 _atom_site_symmetry_multiplicity
 _atom_site_fract_x
 _atom_site_fract_y
 _atom_site_fract_z
 _atom_site_occupancy
  Tm  Tm0  1  -0.00000000  0.59528877  1.00000000  1
  Tm  Tm1  1  -0.00000000  0.40471702  0.40471794  1
  Tm  Tm2  1  -0.00000000  0.99999908  0.59528206  1
  Sn  Sn3  1  0.50000000  0.25992812  0.00000000  1
  Sn  Sn4  1  0.50000000  0.74003188  0.74003539  1
  Sn  Sn5  1  0.50000000  0.99999648  0.25996461  1
  Pt  Pt6  1  0.50000000  0.33330875  0.66667762  1
  Pt  Pt7  1  0.50000000  0.66663113  0.33332238  1
  Pt  Pt8  1  -0.00000000  0.99999876  1.00000000  1
