# generated using pymatgen
data_NdLuS3
_symmetry_space_group_name_H-M   'P 1'
_cell_length_a   3.88052150
_cell_length_b   6.58439027
_cell_length_c   9.47240901
_cell_angle_alpha   90.00000000
_cell_angle_beta   90.00000000
_cell_angle_gamma   107.13810048
_symmetry_Int_Tables_number   1
_chemical_formula_structural   NdLuS3
_chemical_formula_sum   'Nd2 Lu2 S6'
_cell_volume   231.28155715
_cell_formula_units_Z   2
loop_
 _symmetry_equiv_pos_site_id
 _symmetry_equiv_pos_as_xyz
  1  'x, y, z'
loop_
 _atom_site_type_symbol
 _atom_site_label
 _atom_site_symmetry_multiplicity
 _atom_site_fract_x
 _atom_site_fract_y
 _atom_site_fract_z
 _atom_site_occupancy
  Nd  Nd0  1  0.25297154  0.50594308  0.50000000  1
  Nd  Nd1  1  0.74702846  0.49405692  -0.00000000  1
  Lu  Lu2  1  0.99606999  -0.00000000  0.75000000  1
  Lu  Lu3  1  0.00393001  -0.00000000  0.25000000  1
  S  S4  1  0.35503802  0.71604793  0.81345434  1
  S  S5  1  0.36100991  0.71604793  0.18654566  1
  S  S6  1  0.64496198  0.28395207  0.31345434  1
  S  S7  1  0.63899009  0.28395207  0.68654566  1
  S  S8  1  0.91291121  0.82582241  0.50000000  1
  S  S9  1  0.08708879  0.17417759  -0.00000000  1
