# generated using pymatgen
data_CsMoN2
_symmetry_space_group_name_H-M   'P 1'
_cell_length_a   6.19771647
_cell_length_b   12.40201462
_cell_length_c   17.51374226
_cell_angle_alpha   90.00000000
_cell_angle_beta   90.00000000
_cell_angle_gamma   90.00000000
_symmetry_Int_Tables_number   1
_chemical_formula_structural   CsMoN2
_chemical_formula_sum   'Cs16 Mo16 N32'
_cell_volume   1346.17926716
_cell_formula_units_Z   16
loop_
 _symmetry_equiv_pos_site_id
 _symmetry_equiv_pos_as_xyz
  1  'x, y, z'
loop_
 _atom_site_type_symbol
 _atom_site_label
 _atom_site_symmetry_multiplicity
 _atom_site_fract_x
 _atom_site_fract_y
 _atom_site_fract_z
 _atom_site_occupancy
  Cs  Cs0  1  0.25047847  0.00001565  0.43703699  1
  Cs  Cs1  1  0.75047847  0.49998435  0.56296301  1
  Cs  Cs2  1  0.74952153  0.50001565  0.06296301  1
  Cs  Cs3  1  0.24952153  0.99998435  0.93703699  1
  Cs  Cs4  1  0.74952153  0.99998435  0.56296301  1
  Cs  Cs5  1  0.24952153  0.50001565  0.43703699  1
  Cs  Cs6  1  0.25047847  0.49998435  0.93703699  1
  Cs  Cs7  1  0.75047847  0.00001565  0.06296301  1
  Cs  Cs8  1  0.28645182  0.24996209  0.31221466  1
  Cs  Cs9  1  0.78645182  0.25003791  0.68778534  1
  Cs  Cs10  1  0.71354818  0.74996209  0.18778534  1
  Cs  Cs11  1  0.21354818  0.75003791  0.81221466  1
  Cs  Cs12  1  0.71354818  0.75003791  0.68778534  1
  Cs  Cs13  1  0.21354818  0.74996209  0.31221466  1
  Cs  Cs14  1  0.28645182  0.25003791  0.81221466  1
  Cs  Cs15  1  0.78645182  0.24996209  0.18778534  1
  Mo  Mo16  1  0.75118884  0.99994836  0.31281019  1
  Mo  Mo17  1  0.25118884  0.50005164  0.68718981  1
  Mo  Mo18  1  0.24881116  0.49994836  0.18718981  1
  Mo  Mo19  1  0.74881116  0.00005164  0.81281019  1
  Mo  Mo20  1  0.24881116  0.00005164  0.68718981  1
  Mo  Mo21  1  0.74881116  0.49994836  0.31281019  1
  Mo  Mo22  1  0.75118884  0.50005164  0.81281019  1
  Mo  Mo23  1  0.25118884  0.99994836  0.18718981  1
  Mo  Mo24  1  0.77189077  0.24999465  0.43781074  1
  Mo  Mo25  1  0.27189077  0.25000535  0.56218926  1
  Mo  Mo26  1  0.22810923  0.74999465  0.06218926  1
  Mo  Mo27  1  0.72810923  0.75000535  0.93781074  1
  Mo  Mo28  1  0.22810923  0.75000535  0.56218926  1
  Mo  Mo29  1  0.72810923  0.74999465  0.43781074  1
  Mo  Mo30  1  0.77189077  0.25000535  0.93781074  1
  Mo  Mo31  1  0.27189077  0.24999465  0.06218926  1
  N  N32  1  0.03785320  0.25077182  0.49213027  1
  N  N33  1  0.53785320  0.24922818  0.50786973  1
  N  N34  1  0.96214680  0.75077182  0.00786973  1
  N  N35  1  0.46214680  0.74922818  0.99213027  1
  N  N36  1  0.96214680  0.74922818  0.50786973  1
  N  N37  1  0.46214680  0.75077182  0.49213027  1
  N  N38  1  0.03785320  0.24922818  0.99213027  1
  N  N39  1  0.53785320  0.25077182  0.00786973  1
  N  N40  1  0.75180353  0.37498211  0.37552906  1
  N  N41  1  0.25180353  0.12501789  0.62447094  1
  N  N42  1  0.24819647  0.87498211  0.12447094  1
  N  N43  1  0.74819647  0.62501789  0.87552906  1
  N  N44  1  0.24819647  0.62501789  0.62447094  1
  N  N45  1  0.74819647  0.87498211  0.37552906  1
  N  N46  1  0.75180353  0.12501789  0.87552906  1
  N  N47  1  0.25180353  0.37498211  0.12447094  1
  N  N48  1  0.75464667  0.12494983  0.37547800  1
  N  N49  1  0.25464667  0.37505017  0.62452200  1
  N  N50  1  0.24535333  0.62494983  0.12452200  1
  N  N51  1  0.74535333  0.87505017  0.87547800  1
  N  N52  1  0.24535333  0.87505017  0.62452200  1
  N  N53  1  0.74535333  0.62494983  0.37547800  1
  N  N54  1  0.75464667  0.37505017  0.87547800  1
  N  N55  1  0.25464667  0.12494983  0.12452200  1
  N  N56  1  0.49893033  0.49991068  0.24991911  1
  N  N57  1  0.99893033  0.00008932  0.75008089  1
  N  N58  1  0.50106967  0.99991068  0.25008089  1
  N  N59  1  0.00106967  0.50008932  0.74991911  1
  N  N60  1  0.50106967  0.50008932  0.75008089  1
  N  N61  1  0.00106967  0.99991068  0.24991911  1
  N  N62  1  0.49893033  0.00008932  0.74991911  1
  N  N63  1  0.99893033  0.49991068  0.25008089  1
