# generated using pymatgen
data_LaNiSn2
_symmetry_space_group_name_H-M   'P 1'
_cell_length_a   4.54769357
_cell_length_b   4.59964516
_cell_length_c   9.40110590
_cell_angle_alpha   90.00000000
_cell_angle_beta   103.99694128
_cell_angle_gamma   90.00000000
_symmetry_Int_Tables_number   1
_chemical_formula_structural   LaNiSn2
_chemical_formula_sum   'La2 Ni2 Sn4'
_cell_volume   190.81142122
_cell_formula_units_Z   2
loop_
 _symmetry_equiv_pos_site_id
 _symmetry_equiv_pos_as_xyz
  1  'x, y, z'
loop_
 _atom_site_type_symbol
 _atom_site_label
 _atom_site_symmetry_multiplicity
 _atom_site_fract_x
 _atom_site_fract_y
 _atom_site_fract_z
 _atom_site_occupancy
  La  La0  1  0.89022627  0.75000000  0.78045255  1
  La  La1  1  0.10977373  0.25000000  0.21954745  1
  Ni  Ni2  1  0.68321298  0.75000000  0.36642597  1
  Ni  Ni3  1  0.31678702  0.25000000  0.63357403  1
  Sn  Sn4  1  0.54692572  0.75000000  0.09385143  1
  Sn  Sn5  1  0.45307428  0.25000000  0.90614857  1
  Sn  Sn6  1  0.25101097  0.75000000  0.50202194  1
  Sn  Sn7  1  0.74898903  0.25000000  0.49797806  1
