# generated using pymatgen
data_V2GaC
_symmetry_space_group_name_H-M   'P 1'
_cell_length_a   2.93681676
_cell_length_b   2.93681676
_cell_length_c   12.88260734
_cell_angle_alpha   90.00000000
_cell_angle_beta   90.00000000
_cell_angle_gamma   120.00107510
_symmetry_Int_Tables_number   1
_chemical_formula_structural   V2GaC
_chemical_formula_sum   'V4 Ga2 C2'
_cell_volume   96.22399802
_cell_formula_units_Z   2
loop_
 _symmetry_equiv_pos_site_id
 _symmetry_equiv_pos_as_xyz
  1  'x, y, z'
loop_
 _atom_site_type_symbol
 _atom_site_label
 _atom_site_symmetry_multiplicity
 _atom_site_fract_x
 _atom_site_fract_y
 _atom_site_fract_z
 _atom_site_occupancy
  V  V0  1  0.66666252  0.33333748  0.58550060  1
  V  V1  1  0.33333748  0.66666252  0.41449940  1
  V  V2  1  0.33333748  0.66666252  0.08550060  1
  V  V3  1  0.66666252  0.33333748  0.91449940  1
  Ga  Ga4  1  0.66669121  0.33330879  0.25000000  1
  Ga  Ga5  1  0.33330879  0.66669121  0.75000000  1
  C  C6  1  0.00000000  -0.00000000  0.50000000  1
  C  C7  1  0.00000000  -0.00000000  0.00000000  1
