# generated using pymatgen
data_BaF3
_symmetry_space_group_name_H-M   'P 1'
_cell_length_a   7.81464889
_cell_length_b   4.44277502
_cell_length_c   4.67487905
_cell_angle_alpha   90.00000000
_cell_angle_beta   117.74404631
_cell_angle_gamma   90.00000000
_symmetry_Int_Tables_number   1
_chemical_formula_structural   BaF3
_chemical_formula_sum   'Ba2 F6'
_cell_volume   143.64652191
_cell_formula_units_Z   2
loop_
 _symmetry_equiv_pos_site_id
 _symmetry_equiv_pos_as_xyz
  1  'x, y, z'
loop_
 _atom_site_type_symbol
 _atom_site_label
 _atom_site_symmetry_multiplicity
 _atom_site_fract_x
 _atom_site_fract_y
 _atom_site_fract_z
 _atom_site_occupancy
  Ba  Ba0  1  0.28882439  0.25000000  0.07997005  1
  Ba  Ba1  1  0.71117561  0.75000000  0.92002995  1
  F  F2  1  0.47637992  0.25000000  0.72449406  1
  F  F3  1  0.52362008  0.75000000  0.27550594  1
  F  F4  1  0.88800810  0.25000000  0.78364528  1
  F  F5  1  0.11199190  0.75000000  0.21635472  1
  F  F6  1  0.83474974  0.25000000  0.32545882  1
  F  F7  1  0.16525026  0.75000000  0.67454118  1
