# generated using pymatgen
data_Li3Cr5O8
_symmetry_space_group_name_H-M   'P 1'
_cell_length_a   6.03094451
_cell_length_b   6.03094429
_cell_length_c   6.00645017
_cell_angle_alpha   89.99999835
_cell_angle_beta   59.86500058
_cell_angle_gamma   60.00001141
_symmetry_Int_Tables_number   1
_chemical_formula_structural   Li3Cr5O8
_chemical_formula_sum   'Li3 Cr5 O8'
_cell_volume   154.16450978
_cell_formula_units_Z   1
loop_
 _symmetry_equiv_pos_site_id
 _symmetry_equiv_pos_as_xyz
  1  'x, y, z'
loop_
 _atom_site_type_symbol
 _atom_site_label
 _atom_site_symmetry_multiplicity
 _atom_site_fract_x
 _atom_site_fract_y
 _atom_site_fract_z
 _atom_site_occupancy
  Li  Li0  1  -0.00000000  0.00000000  0.50000000  1
  Li  Li1  1  0.50000000  0.00000000  0.50000000  1
  Li  Li2  1  0.50000000  0.50000000  0.50000000  1
  Cr  Cr3  1  -0.00000000  0.50000000  0.50000000  1
  Cr  Cr4  1  -0.00000000  0.00000000  0.00000000  1
  Cr  Cr5  1  0.50000000  0.00000000  0.00000000  1
  Cr  Cr6  1  -0.00000000  0.50000000  0.00000000  1
  Cr  Cr7  1  0.50000000  0.50000000  0.00000000  1
  O  O8  1  0.48105017  0.25947491  0.77842574  1
  O  O9  1  0.98660249  0.26530677  0.76148725  1
  O  O10  1  0.50381852  0.74809074  0.76148725  1
  O  O11  1  0.98660249  0.74809074  0.76148725  1
  O  O12  1  0.01339751  0.25190926  0.23851275  1
  O  O13  1  0.49618148  0.25190926  0.23851275  1
  O  O14  1  0.01339751  0.73469323  0.23851275  1
  O  O15  1  0.51894983  0.74052509  0.22157426  1
