# generated using pymatgen
data_RbReN2
_symmetry_space_group_name_H-M   'P 1'
_cell_length_a   6.22062111
_cell_length_b   12.26934927
_cell_length_c   16.44557593
_cell_angle_alpha   90.00000000
_cell_angle_beta   90.00000000
_cell_angle_gamma   90.00000000
_symmetry_Int_Tables_number   1
_chemical_formula_structural   RbReN2
_chemical_formula_sum   'Rb16 Re16 N32'
_cell_volume   1255.17524891
_cell_formula_units_Z   16
loop_
 _symmetry_equiv_pos_site_id
 _symmetry_equiv_pos_as_xyz
  1  'x, y, z'
loop_
 _atom_site_type_symbol
 _atom_site_label
 _atom_site_symmetry_multiplicity
 _atom_site_fract_x
 _atom_site_fract_y
 _atom_site_fract_z
 _atom_site_occupancy
  Rb  Rb0  1  0.24963077  0.99985477  0.43482227  1
  Rb  Rb1  1  0.74963077  0.50014523  0.56517773  1
  Rb  Rb2  1  0.75036923  0.49985477  0.06517773  1
  Rb  Rb3  1  0.25036923  0.00014523  0.93482227  1
  Rb  Rb4  1  0.75036923  0.00014523  0.56517773  1
  Rb  Rb5  1  0.25036923  0.49985477  0.43482227  1
  Rb  Rb6  1  0.24963077  0.50014523  0.93482227  1
  Rb  Rb7  1  0.74963077  0.99985477  0.06517773  1
  Rb  Rb8  1  0.39581886  0.25035633  0.30728781  1
  Rb  Rb9  1  0.89581886  0.24964367  0.69271219  1
  Rb  Rb10  1  0.60418114  0.75035633  0.19271219  1
  Rb  Rb11  1  0.10418114  0.74964367  0.80728781  1
  Rb  Rb12  1  0.60418114  0.74964367  0.69271219  1
  Rb  Rb13  1  0.10418114  0.75035633  0.30728781  1
  Rb  Rb14  1  0.39581886  0.24964367  0.80728781  1
  Rb  Rb15  1  0.89581886  0.25035633  0.19271219  1
  Re  Re16  1  0.74961514  0.00050990  0.31405207  1
  Re  Re17  1  0.24961514  0.49949010  0.68594793  1
  Re  Re18  1  0.25038486  0.50050990  0.18594793  1
  Re  Re19  1  0.75038486  0.99949010  0.81405207  1
  Re  Re20  1  0.25038486  0.99949010  0.68594793  1
  Re  Re21  1  0.75038486  0.50050990  0.31405207  1
  Re  Re22  1  0.74961514  0.49949010  0.81405207  1
  Re  Re23  1  0.24961514  0.00050990  0.18594793  1
  Re  Re24  1  0.84470980  0.25042951  0.44165385  1
  Re  Re25  1  0.34470980  0.24957049  0.55834615  1
  Re  Re26  1  0.15529020  0.75042951  0.05834615  1
  Re  Re27  1  0.65529020  0.74957049  0.94165385  1
  Re  Re28  1  0.15529020  0.74957049  0.55834615  1
  Re  Re29  1  0.65529020  0.75042951  0.44165385  1
  Re  Re30  1  0.84470980  0.24957049  0.94165385  1
  Re  Re31  1  0.34470980  0.25042951  0.05834615  1
  N  N32  1  0.13612848  0.25008217  0.47496751  1
  N  N33  1  0.63612848  0.24991783  0.52503249  1
  N  N34  1  0.86387152  0.75008217  0.02503249  1
  N  N35  1  0.36387152  0.74991783  0.97496751  1
  N  N36  1  0.86387152  0.74991783  0.52503249  1
  N  N37  1  0.36387152  0.75008217  0.47496751  1
  N  N38  1  0.13612848  0.24991783  0.97496751  1
  N  N39  1  0.63612848  0.25008217  0.02503249  1
  N  N40  1  0.78924035  0.37624848  0.38034464  1
  N  N41  1  0.28924035  0.12375152  0.61965536  1
  N  N42  1  0.21075965  0.87624848  0.11965536  1
  N  N43  1  0.71075965  0.62375152  0.88034464  1
  N  N44  1  0.21075965  0.62375152  0.61965536  1
  N  N45  1  0.71075965  0.87624848  0.38034464  1
  N  N46  1  0.78924035  0.12375152  0.88034464  1
  N  N47  1  0.28924035  0.37624848  0.11965536  1
  N  N48  1  0.78903061  0.12524788  0.37974329  1
  N  N49  1  0.28903061  0.37475212  0.62025671  1
  N  N50  1  0.21096939  0.62524788  0.12025671  1
  N  N51  1  0.71096939  0.87475212  0.87974329  1
  N  N52  1  0.21096939  0.87475212  0.62025671  1
  N  N53  1  0.71096939  0.62524788  0.37974329  1
  N  N54  1  0.78903061  0.37475212  0.87974329  1
  N  N55  1  0.28903061  0.12524788  0.12025671  1
  N  N56  1  0.50060069  0.50030124  0.24989364  1
  N  N57  1  0.00060069  0.99969876  0.75010636  1
  N  N58  1  0.49939931  0.00030124  0.25010636  1
  N  N59  1  0.99939931  0.49969876  0.74989364  1
  N  N60  1  0.49939931  0.49969876  0.75010636  1
  N  N61  1  0.99939931  0.00030124  0.24989364  1
  N  N62  1  0.50060069  0.99969876  0.74989364  1
  N  N63  1  0.00060069  0.50030124  0.25010636  1
