# generated using pymatgen
data_Ho2CoGe2
_symmetry_space_group_name_H-M   'P 1'
_cell_length_a   4.20269808
_cell_length_b   5.63709931
_cell_length_c   9.20522978
_cell_angle_alpha   82.57198895
_cell_angle_beta   76.80430108
_cell_angle_gamma   68.11336063
_symmetry_Int_Tables_number   1
_chemical_formula_structural   Ho2CoGe2
_chemical_formula_sum   'Ho4 Co2 Ge4'
_cell_volume   196.78378088
_cell_formula_units_Z   2
loop_
 _symmetry_equiv_pos_site_id
 _symmetry_equiv_pos_as_xyz
  1  'x, y, z'
loop_
 _atom_site_type_symbol
 _atom_site_label
 _atom_site_symmetry_multiplicity
 _atom_site_fract_x
 _atom_site_fract_y
 _atom_site_fract_z
 _atom_site_occupancy
  Ho  Ho0  1  0.18693121  0.73682292  0.88931466  1
  Ho  Ho1  1  0.81306879  0.26317708  0.11068534  1
  Ho  Ho2  1  0.00602636  0.32041371  0.66753358  1
  Ho  Ho3  1  0.99397364  0.67958629  0.33246642  1
  Co  Co4  1  0.27537350  0.08981950  0.35943349  1
  Co  Co5  1  0.72462650  0.91018050  0.64056651  1
  Ge  Ge6  1  0.48765901  0.14998197  0.87470001  1
  Ge  Ge7  1  0.51234099  0.85001803  0.12529999  1
  Ge  Ge8  1  0.34748306  0.73883447  0.56619941  1
  Ge  Ge9  1  0.65251694  0.26116553  0.43380059  1
