# generated using pymatgen
data_KReN2
_symmetry_space_group_name_H-M   'P 1'
_cell_length_a   6.21444996
_cell_length_b   12.24407719
_cell_length_c   15.66514635
_cell_angle_alpha   90.00000000
_cell_angle_beta   90.00000000
_cell_angle_gamma   90.00000000
_symmetry_Int_Tables_number   1
_chemical_formula_structural   KReN2
_chemical_formula_sum   'K16 Re16 N32'
_cell_volume   1191.96419718
_cell_formula_units_Z   16
loop_
 _symmetry_equiv_pos_site_id
 _symmetry_equiv_pos_as_xyz
  1  'x, y, z'
loop_
 _atom_site_type_symbol
 _atom_site_label
 _atom_site_symmetry_multiplicity
 _atom_site_fract_x
 _atom_site_fract_y
 _atom_site_fract_z
 _atom_site_occupancy
  K  K0  1  0.25001377  0.99976403  0.43302127  1
  K  K1  1  0.75001377  0.50023597  0.56697873  1
  K  K2  1  0.74998623  0.49976403  0.06697873  1
  K  K3  1  0.24998623  0.00023597  0.93302127  1
  K  K4  1  0.74998623  0.00023597  0.56697873  1
  K  K5  1  0.24998623  0.49976403  0.43302127  1
  K  K6  1  0.25001377  0.50023597  0.93302127  1
  K  K7  1  0.75001377  0.99976403  0.06697873  1
  K  K8  1  0.44097183  0.25001345  0.30612527  1
  K  K9  1  0.94097183  0.24998655  0.69387473  1
  K  K10  1  0.55902817  0.75001345  0.19387473  1
  K  K11  1  0.05902817  0.74998655  0.80612527  1
  K  K12  1  0.55902817  0.74998655  0.69387473  1
  K  K13  1  0.05902817  0.75001345  0.30612527  1
  K  K14  1  0.44097183  0.24998655  0.80612527  1
  K  K15  1  0.94097183  0.25001345  0.19387473  1
  Re  Re16  1  0.74961857  0.00056866  0.31695476  1
  Re  Re17  1  0.24961857  0.49943134  0.68304524  1
  Re  Re18  1  0.25038143  0.50056866  0.18304524  1
  Re  Re19  1  0.75038143  0.99943134  0.81695476  1
  Re  Re20  1  0.25038143  0.99943134  0.68304524  1
  Re  Re21  1  0.75038143  0.50056866  0.31695476  1
  Re  Re22  1  0.74961857  0.49943134  0.81695476  1
  Re  Re23  1  0.24961857  0.00056866  0.18304524  1
  Re  Re24  1  0.87617735  0.25061023  0.44517325  1
  Re  Re25  1  0.37617735  0.24938977  0.55482675  1
  Re  Re26  1  0.12382265  0.75061023  0.05482675  1
  Re  Re27  1  0.62382265  0.74938977  0.94517325  1
  Re  Re28  1  0.12382265  0.74938977  0.55482675  1
  Re  Re29  1  0.62382265  0.75061023  0.44517325  1
  Re  Re30  1  0.87617735  0.24938977  0.94517325  1
  Re  Re31  1  0.37617735  0.25061023  0.05482675  1
  N  N32  1  0.18179037  0.25032153  0.46093587  1
  N  N33  1  0.68179037  0.24967847  0.53906413  1
  N  N34  1  0.81820963  0.75032153  0.03906413  1
  N  N35  1  0.31820963  0.74967847  0.96093587  1
  N  N36  1  0.81820963  0.74967847  0.53906413  1
  N  N37  1  0.31820963  0.75032153  0.46093587  1
  N  N38  1  0.18179037  0.24967847  0.96093587  1
  N  N39  1  0.68179037  0.25032153  0.03906413  1
  N  N40  1  0.80378621  0.37817291  0.38741505  1
  N  N41  1  0.30378621  0.12182709  0.61258495  1
  N  N42  1  0.19621379  0.87817291  0.11258495  1
  N  N43  1  0.69621379  0.62182709  0.88741505  1
  N  N44  1  0.19621379  0.62182709  0.61258495  1
  N  N45  1  0.69621379  0.87817291  0.38741505  1
  N  N46  1  0.80378621  0.12182709  0.88741505  1
  N  N47  1  0.30378621  0.37817291  0.11258495  1
  N  N48  1  0.80343921  0.12446214  0.38565123  1
  N  N49  1  0.30343921  0.37553786  0.61434877  1
  N  N50  1  0.19656079  0.62446214  0.11434877  1
  N  N51  1  0.69656079  0.87553786  0.88565123  1
  N  N52  1  0.19656079  0.87553786  0.61434877  1
  N  N53  1  0.69656079  0.62446214  0.38565123  1
  N  N54  1  0.80343921  0.37553786  0.88565123  1
  N  N55  1  0.30343921  0.12446214  0.11434877  1
  N  N56  1  0.50047826  0.50005510  0.24996254  1
  N  N57  1  0.00047826  0.99994490  0.75003746  1
  N  N58  1  0.49952174  0.00005510  0.25003746  1
  N  N59  1  0.99952174  0.49994490  0.74996254  1
  N  N60  1  0.49952174  0.49994490  0.75003746  1
  N  N61  1  0.99952174  0.00005510  0.24996254  1
  N  N62  1  0.50047826  0.99994490  0.74996254  1
  N  N63  1  0.00047826  0.50005510  0.25003746  1
