# generated using pymatgen
data_Nd2Co3
_symmetry_space_group_name_H-M   'P 1'
_cell_length_a   4.89821326
_cell_length_b   5.61852563
_cell_length_c   7.50781948
_cell_angle_alpha   90.00000000
_cell_angle_beta   90.00000000
_cell_angle_gamma   115.84247287
_symmetry_Int_Tables_number   1
_chemical_formula_structural   Nd2Co3
_chemical_formula_sum   'Nd4 Co6'
_cell_volume   185.95780206
_cell_formula_units_Z   2
loop_
 _symmetry_equiv_pos_site_id
 _symmetry_equiv_pos_as_xyz
  1  'x, y, z'
loop_
 _atom_site_type_symbol
 _atom_site_label
 _atom_site_symmetry_multiplicity
 _atom_site_fract_x
 _atom_site_fract_y
 _atom_site_fract_z
 _atom_site_occupancy
  Nd  Nd0  1  0.34429985  0.68859970  0.90721636  1
  Nd  Nd1  1  0.65570015  0.31140030  0.09278364  1
  Nd  Nd2  1  0.15570015  0.31140030  0.40721636  1
  Nd  Nd3  1  0.84429985  0.68859970  0.59278364  1
  Co  Co4  1  0.50000000  0.00000000  0.50000000  1
  Co  Co5  1  0.00000000  0.00000000  -0.00000000  1
  Co  Co6  1  0.83777465  0.17554931  0.75000000  1
  Co  Co7  1  0.66222535  0.82445069  0.25000000  1
  Co  Co8  1  0.16222535  0.82445069  0.25000000  1
  Co  Co9  1  0.33777465  0.17554931  0.75000000  1
