# generated using pymatgen
data_K2BiAu
_symmetry_space_group_name_H-M   'P 1'
_cell_length_a   6.84445248
_cell_length_b   6.71885671
_cell_length_c   6.71885671
_cell_angle_alpha   107.18053734
_cell_angle_beta   90.00000000
_cell_angle_gamma   90.00000000
_symmetry_Int_Tables_number   1
_chemical_formula_structural   K2BiAu
_chemical_formula_sum   'K4 Bi2 Au2'
_cell_volume   295.19231756
_cell_formula_units_Z   2
loop_
 _symmetry_equiv_pos_site_id
 _symmetry_equiv_pos_as_xyz
  1  'x, y, z'
loop_
 _atom_site_type_symbol
 _atom_site_label
 _atom_site_symmetry_multiplicity
 _atom_site_fract_x
 _atom_site_fract_y
 _atom_site_fract_z
 _atom_site_occupancy
  K  K0  1  0.25000000  0.84648880  0.50267815  1
  K  K1  1  0.75000000  0.49732185  0.15351120  1
  K  K2  1  0.75000000  0.15351120  0.49732185  1
  K  K3  1  0.25000000  0.50267815  0.84648880  1
  Bi  Bi4  1  0.25000000  0.27359780  0.27359780  1
  Bi  Bi5  1  0.75000000  0.72640220  0.72640220  1
  Au  Au6  1  0.50000000  -0.00000000  -0.00000000  1
  Au  Au7  1  -0.00000000  -0.00000000  -0.00000000  1
