# generated using pymatgen
data_ErSiAg
_symmetry_space_group_name_H-M   'P 1'
_cell_length_a   4.15237901
_cell_length_b   7.02730738
_cell_length_c   7.02713886
_cell_angle_alpha   120.00079498
_cell_angle_beta   90.00000000
_cell_angle_gamma   90.00000000
_symmetry_Int_Tables_number   1
_chemical_formula_structural   ErSiAg
_chemical_formula_sum   'Er3 Si3 Ag3'
_cell_volume   177.57900795
_cell_formula_units_Z   3
loop_
 _symmetry_equiv_pos_site_id
 _symmetry_equiv_pos_as_xyz
  1  'x, y, z'
loop_
 _atom_site_type_symbol
 _atom_site_label
 _atom_site_symmetry_multiplicity
 _atom_site_fract_x
 _atom_site_fract_y
 _atom_site_fract_z
 _atom_site_occupancy
  Er  Er0  1  0.50000000  0.58060889  0.00000000  1
  Er  Er1  1  0.50000000  0.41937133  0.41938159  1
  Er  Er2  1  0.50000000  -0.00001026  0.58061841  1
  Si  Si3  1  -0.00000000  0.33332276  0.66666621  1
  Si  Si4  1  -0.00000000  0.66665655  0.33333379  1
  Si  Si5  1  0.50000000  0.00000251  0.00000000  1
  Ag  Ag6  1  -0.00000000  0.25003894  0.00000000  1
  Ag  Ag7  1  -0.00000000  0.74991393  0.74991859  1
  Ag  Ag8  1  -0.00000000  -0.00000466  0.25008141  1
