# generated using pymatgen
data_TbSnRh
_symmetry_space_group_name_H-M   'P 1'
_cell_length_a   3.85151801
_cell_length_b   7.61180516
_cell_length_c   7.61161008
_cell_angle_alpha   120.00084871
_cell_angle_beta   90.00000000
_cell_angle_gamma   90.00000000
_symmetry_Int_Tables_number   1
_chemical_formula_structural   TbSnRh
_chemical_formula_sum   'Tb3 Sn3 Rh3'
_cell_volume   193.25157698
_cell_formula_units_Z   3
loop_
 _symmetry_equiv_pos_site_id
 _symmetry_equiv_pos_as_xyz
  1  'x, y, z'
loop_
 _atom_site_type_symbol
 _atom_site_label
 _atom_site_symmetry_multiplicity
 _atom_site_fract_x
 _atom_site_fract_y
 _atom_site_fract_z
 _atom_site_occupancy
  Tb  Tb0  1  0.50000000  0.59329258  0.00000000  1
  Tb  Tb1  1  0.50000000  0.40669148  0.40670329  1
  Tb  Tb2  1  0.50000000  0.99998819  0.59329671  1
  Sn  Sn3  1  0.00000000  0.26056065  1.00000000  1
  Sn  Sn4  1  0.00000000  0.73944198  0.73944151  1
  Sn  Sn5  1  0.00000000  0.00000047  0.26055849  1
  Rh  Rh6  1  -0.00000000  0.33329500  0.66666978  1
  Rh  Rh7  1  -0.00000000  0.66662522  0.33333022  1
  Rh  Rh8  1  0.50000000  0.00000444  1.00000000  1
