# generated using pymatgen
data_TbTe3
_symmetry_space_group_name_H-M   'P 1'
_cell_length_a   4.35466182
_cell_length_b   4.35588225
_cell_length_c   13.20926573
_cell_angle_alpha   90.00000000
_cell_angle_beta   99.48756847
_cell_angle_gamma   90.00000000
_symmetry_Int_Tables_number   1
_chemical_formula_structural   TbTe3
_chemical_formula_sum   'Tb2 Te6'
_cell_volume   247.13126539
_cell_formula_units_Z   2
loop_
 _symmetry_equiv_pos_site_id
 _symmetry_equiv_pos_as_xyz
  1  'x, y, z'
loop_
 _atom_site_type_symbol
 _atom_site_label
 _atom_site_symmetry_multiplicity
 _atom_site_fract_x
 _atom_site_fract_y
 _atom_site_fract_z
 _atom_site_occupancy
  Tb  Tb0  1  0.16953007  0.75000000  0.33906014  1
  Tb  Tb1  1  0.83046993  0.25000000  0.66093986  1
  Te  Te2  1  0.92569971  0.75000000  0.85139941  1
  Te  Te3  1  0.07430029  0.25000000  0.14860059  1
  Te  Te4  1  0.57435760  0.75000000  0.14871520  1
  Te  Te5  1  0.42564240  0.25000000  0.85128480  1
  Te  Te6  1  0.29370690  0.75000000  0.58741381  1
  Te  Te7  1  0.70629310  0.25000000  0.41258619  1
