# generated using pymatgen
data_Li3Fe3O8
_symmetry_space_group_name_H-M   'P 1'
_cell_length_a   5.86516131
_cell_length_b   5.83160325
_cell_length_c   9.86604631
_cell_angle_alpha   90.56572703
_cell_angle_beta   89.71876208
_cell_angle_gamma   119.81090811
_symmetry_Int_Tables_number   1
_chemical_formula_structural   Li3Fe3O8
_chemical_formula_sum   'Li6 Fe6 O16'
_cell_volume   292.78235732
_cell_formula_units_Z   2
loop_
 _symmetry_equiv_pos_site_id
 _symmetry_equiv_pos_as_xyz
  1  'x, y, z'
loop_
 _atom_site_type_symbol
 _atom_site_label
 _atom_site_symmetry_multiplicity
 _atom_site_fract_x
 _atom_site_fract_y
 _atom_site_fract_z
 _atom_site_occupancy
  Li  Li0  1  0.33159887  0.66331113  0.49887076  1
  Li  Li1  1  0.33259370  0.67391761  0.88522593  1
  Li  Li2  1  0.99900601  0.99285010  0.00162607  1
  Li  Li3  1  0.00099399  0.99384309  0.50162607  1
  Li  Li4  1  0.66840113  0.33171226  0.99887076  1
  Li  Li5  1  0.66740630  0.34132391  0.38522593  1
  Fe  Fe6  1  0.16916968  0.83136403  0.21471183  1
  Fe  Fe7  1  0.16813731  0.33675850  0.21566590  1
  Fe  Fe8  1  0.66305555  0.83202240  0.21591116  1
  Fe  Fe9  1  0.33694445  0.16896685  0.71591116  1
  Fe  Fe10  1  0.83083032  0.66219435  0.71471183  1
  Fe  Fe11  1  0.83186269  0.16862118  0.71566590  1
  O  O12  1  0.15202784  0.84007311  0.61288240  1
  O  O13  1  0.03451623  0.52122653  0.32130269  1
  O  O14  1  0.32204407  0.67845521  0.09959816  1
  O  O15  1  0.01186335  0.98907737  0.32044426  1
  O  O16  1  0.98813665  0.97721402  0.82044426  1
  O  O17  1  0.15346378  0.30594292  0.61483498  1
  O  O18  1  0.48029854  0.96905744  0.32182089  1
  O  O19  1  0.48181598  0.51911404  0.31932869  1
  O  O20  1  0.30835320  0.15095217  0.11169728  1
  O  O21  1  0.69164680  0.84259897  0.61169728  1
  O  O22  1  0.51970146  0.48875890  0.82182089  1
  O  O23  1  0.51818402  0.03729807  0.81932869  1
  O  O24  1  0.67795593  0.35641113  0.59959816  1
  O  O25  1  0.84797216  0.68804527  0.11288240  1
  O  O26  1  0.96548377  0.48671030  0.82130269  1
  O  O27  1  0.84653622  0.15247914  0.11483498  1
