# generated using pymatgen
data_K2Mg5Sn3
_symmetry_space_group_name_H-M   'P 1'
_cell_length_a   4.99884816
_cell_length_b   4.99884816
_cell_length_c   12.35009786
_cell_angle_alpha   101.67622540
_cell_angle_beta   101.67622540
_cell_angle_gamma   90.00000000
_symmetry_Int_Tables_number   1
_chemical_formula_structural   K2Mg5Sn3
_chemical_formula_sum   'K2 Mg5 Sn3'
_cell_volume   295.70010223
_cell_formula_units_Z   1
loop_
 _symmetry_equiv_pos_site_id
 _symmetry_equiv_pos_as_xyz
  1  'x, y, z'
loop_
 _atom_site_type_symbol
 _atom_site_label
 _atom_site_symmetry_multiplicity
 _atom_site_fract_x
 _atom_site_fract_y
 _atom_site_fract_z
 _atom_site_occupancy
  K  K0  1  0.80095345  0.80095345  0.60190690  1
  K  K1  1  0.19904655  0.19904655  0.39809310  1
  Mg  Mg2  1  0.92139613  0.42139613  0.84279226  1
  Mg  Mg3  1  0.42139613  0.92139613  0.84279226  1
  Mg  Mg4  1  0.07860387  0.57860387  0.15720774  1
  Mg  Mg5  1  0.57860387  0.07860387  0.15720774  1
  Mg  Mg6  1  0.50000000  0.50000000  -0.00000000  1
  Sn  Sn7  1  -0.00000000  0.00000000  0.00000000  1
  Sn  Sn8  1  0.35836341  0.35836341  0.71672681  1
  Sn  Sn9  1  0.64163659  0.64163659  0.28327319  1
