# generated using pymatgen
data_RbCd4As3
_symmetry_space_group_name_H-M   'P 1'
_cell_length_a   4.57792533
_cell_length_b   4.57792533
_cell_length_c   12.74977467
_cell_angle_alpha   79.65763851
_cell_angle_beta   79.65763851
_cell_angle_gamma   60.00000598
_symmetry_Int_Tables_number   1
_chemical_formula_structural   RbCd4As3
_chemical_formula_sum   'Rb1 Cd4 As3'
_cell_volume   226.37701536
_cell_formula_units_Z   1
loop_
 _symmetry_equiv_pos_site_id
 _symmetry_equiv_pos_as_xyz
  1  'x, y, z'
loop_
 _atom_site_type_symbol
 _atom_site_label
 _atom_site_symmetry_multiplicity
 _atom_site_fract_x
 _atom_site_fract_y
 _atom_site_fract_z
 _atom_site_occupancy
  Rb  Rb0  1  0.50000000  0.50000000  0.50000000  1
  Cd  Cd1  1  0.08620426  0.08620426  0.74138722  1
  Cd  Cd2  1  0.91379574  0.91379574  0.25861278  1
  Cd  Cd3  1  0.30269069  0.30269069  0.09192794  1
  Cd  Cd4  1  0.69730931  0.69730931  0.90807206  1
  As  As5  1  0.23096649  0.23096649  0.30710053  1
  As  As6  1  0.76903351  0.76903351  0.69289947  1
  As  As7  1  0.00000000  0.00000000  -0.00000000  1
