# generated using pymatgen
data_LuZnPd
_symmetry_space_group_name_H-M   'P 1'
_cell_length_a   3.78255513
_cell_length_b   7.25226624
_cell_length_c   7.25292356
_cell_angle_alpha   119.99700564
_cell_angle_beta   90.00000000
_cell_angle_gamma   90.00000000
_symmetry_Int_Tables_number   1
_chemical_formula_structural   LuZnPd
_chemical_formula_sum   'Lu3 Zn3 Pd3'
_cell_volume   172.31212606
_cell_formula_units_Z   3
loop_
 _symmetry_equiv_pos_site_id
 _symmetry_equiv_pos_as_xyz
  1  'x, y, z'
loop_
 _atom_site_type_symbol
 _atom_site_label
 _atom_site_symmetry_multiplicity
 _atom_site_fract_x
 _atom_site_fract_y
 _atom_site_fract_z
 _atom_site_occupancy
  Lu  Lu0  1  -0.00000000  0.40572562  -0.00000000  1
  Lu  Lu1  1  -0.00000000  0.59425596  0.59424756  1
  Lu  Lu2  1  -0.00000000  0.00000840  0.40575244  1
  Zn  Zn3  1  0.50000000  0.74594211  1.00000000  1
  Zn  Zn4  1  0.50000000  0.25405501  0.25410074  1
  Zn  Zn5  1  0.50000000  -0.00004574  0.74589926  1
  Pd  Pd6  1  -0.00000000  0.00001116  0.00000000  1
  Pd  Pd7  1  0.50000000  0.33331520  0.66668293  1
  Pd  Pd8  1  0.50000000  0.66663227  0.33331707  1
