# generated using pymatgen
data_Li3Co2(SiO4)2
_symmetry_space_group_name_H-M   'P 1'
_cell_length_a   9.96754309
_cell_length_b   9.92447655
_cell_length_c   10.18830772
_cell_angle_alpha   117.37528441
_cell_angle_beta   62.43213419
_cell_angle_gamma   84.50485686
_symmetry_Int_Tables_number   1
_chemical_formula_structural   Li3Co2(SiO4)2
_chemical_formula_sum   'Li12 Co8 Si8 O32'
_cell_volume   729.88343705
_cell_formula_units_Z   4
loop_
 _symmetry_equiv_pos_site_id
 _symmetry_equiv_pos_as_xyz
  1  'x, y, z'
loop_
 _atom_site_type_symbol
 _atom_site_label
 _atom_site_symmetry_multiplicity
 _atom_site_fract_x
 _atom_site_fract_y
 _atom_site_fract_z
 _atom_site_occupancy
  Li  Li0  1  0.03248431  0.49471288  0.19675728  1
  Li  Li1  1  0.17472844  0.68724465  0.00701980  1
  Li  Li2  1  0.16486324  0.16868930  0.51144240  1
  Li  Li3  1  0.82397434  0.31534459  0.99443848  1
  Li  Li4  1  0.50250409  0.24000612  0.24703810  1
  Li  Li5  1  0.32882267  0.93286203  0.13564223  1
  Li  Li6  1  0.33534269  0.42392228  0.62221937  1
  Li  Li7  1  0.66679673  0.57860089  0.37787587  1
  Li  Li8  1  0.67531424  0.06636897  0.86508189  1
  Li  Li9  1  0.49496474  0.76074994  0.75624742  1
  Li  Li10  1  0.83939457  0.83539676  0.48575231  1
  Li  Li11  1  0.97943112  0.52655993  0.81034323  1
  Co  Co12  1  0.10069058  0.09488440  0.99564338  1
  Co  Co13  1  0.40951154  0.39942261  0.99639341  1
  Co  Co14  1  0.59527328  0.59854657  0.00014058  1
  Co  Co15  1  0.59516192  0.09611193  0.49745006  1
  Co  Co16  1  0.09638770  0.59611274  0.49721511  1
  Co  Co17  1  0.89941511  0.91008400  0.00648734  1
  Co  Co18  1  0.90017811  0.40090005  0.50476335  1
  Co  Co19  1  0.39932096  0.89991992  0.50220028  1
  Si  Si20  1  0.27917956  0.21302653  0.17516077  1
  Si  Si21  1  0.71697024  0.29106722  0.32535466  1
  Si  Si22  1  0.21370433  0.78407747  0.31766539  1
  Si  Si23  1  0.20467072  0.29037797  0.82670989  1
  Si  Si24  1  0.79103903  0.70655639  0.17297730  1
  Si  Si25  1  0.78788052  0.21311198  0.67816315  1
  Si  Si26  1  0.28318676  0.71078995  0.67659201  1
  Si  Si27  1  0.71862742  0.78578592  0.82609701  1
  O  O28  1  0.25389717  0.05816705  0.03924864  1
  O  O29  1  0.31482749  0.16039486  0.28755475  1
  O  O30  1  0.43538689  0.24449046  0.05705916  1
  O  O31  1  0.10403111  0.38250122  0.30898717  1
  O  O32  1  0.89003943  0.12282063  0.17953077  1
  O  O33  1  0.39129002  0.61613982  0.17716724  1
  O  O34  1  0.37331201  0.11610083  0.67512073  1
  O  O35  1  0.56492311  0.25088986  0.43688851  1
  O  O36  1  0.06678039  0.73734602  0.42570441  1
  O  O37  1  0.66919319  0.35715743  0.22883570  1
  O  O38  1  0.18317744  0.83595173  0.20438832  1
  O  O39  1  0.05677732  0.25585065  0.95950590  1
  O  O40  1  0.15932513  0.34477409  0.72065006  1
  O  O41  1  0.75746368  0.55906397  0.03727515  1
  O  O42  1  0.75298276  0.06952373  0.54938179  1
  O  O43  1  0.24972845  0.56221805  0.55219412  1
  O  O44  1  0.75144455  0.43925148  0.45748781  1
  O  O45  1  0.25107580  0.92986113  0.45080414  1
  O  O46  1  0.23427238  0.43501095  0.96406449  1
  O  O47  1  0.83740258  0.65228734  0.27855524  1
  O  O48  1  0.93834815  0.73320374  0.03535477  1
  O  O49  1  0.82431653  0.16795139  0.79264210  1
  O  O50  1  0.33669427  0.65315992  0.77561971  1
  O  O51  1  0.93734952  0.25970229  0.56136533  1
  O  O52  1  0.43563545  0.75266299  0.55888875  1
  O  O53  1  0.61540162  0.87350237  0.32413301  1
  O  O54  1  0.61977262  0.39043007  0.81901167  1
  O  O55  1  0.11779492  0.88697138  0.82282514  1
  O  O56  1  0.88688253  0.60876670  0.69228845  1
  O  O57  1  0.56343416  0.74951281  0.94713661  1
  O  O58  1  0.67822075  0.83162543  0.71198359  1
  O  O59  1  0.73902862  0.94146262  0.95946771  1
