# generated using pymatgen
data_TbNiGe3
_symmetry_space_group_name_H-M   'P 1'
_cell_length_a   4.09164268
_cell_length_b   4.10714213
_cell_length_c   11.00604184
_cell_angle_alpha   100.75359943
_cell_angle_beta   90.00000000
_cell_angle_gamma   90.00000000
_symmetry_Int_Tables_number   1
_chemical_formula_structural   TbNiGe3
_chemical_formula_sum   'Tb2 Ni2 Ge6'
_cell_volume   181.70799809
_cell_formula_units_Z   2
loop_
 _symmetry_equiv_pos_site_id
 _symmetry_equiv_pos_as_xyz
  1  'x, y, z'
loop_
 _atom_site_type_symbol
 _atom_site_label
 _atom_site_symmetry_multiplicity
 _atom_site_fract_x
 _atom_site_fract_y
 _atom_site_fract_z
 _atom_site_occupancy
  Tb  Tb0  1  0.50000000  0.54956420  0.09912839  1
  Tb  Tb1  1  0.50000000  0.88751398  0.77502797  1
  Ni  Ni2  1  -0.00000000  0.10774415  0.21548831  1
  Ni  Ni3  1  0.00000000  0.32964159  0.65928318  1
  Ge  Ge4  1  0.50000000  0.16094384  0.32188769  1
  Ge  Ge5  1  0.50000000  0.27568434  0.55136868  1
  Ge  Ge6  1  -0.00000000  0.00175619  0.00351238  1
  Ge  Ge7  1  -0.00000000  0.43544796  0.87089591  1
  Ge  Ge8  1  -0.00000000  0.66164671  0.32329342  1
  Ge  Ge9  1  0.00000000  0.77675704  0.55351408  1
