# generated using pymatgen
data_DyNiGe3
_symmetry_space_group_name_H-M   'P 1'
_cell_length_a   4.09779617
_cell_length_b   4.11585871
_cell_length_c   10.98558077
_cell_angle_alpha   100.79700962
_cell_angle_beta   90.00000000
_cell_angle_gamma   90.00000000
_symmetry_Int_Tables_number   1
_chemical_formula_structural   DyNiGe3
_chemical_formula_sum   'Dy2 Ni2 Ge6'
_cell_volume   182.00221017
_cell_formula_units_Z   2
loop_
 _symmetry_equiv_pos_site_id
 _symmetry_equiv_pos_as_xyz
  1  'x, y, z'
loop_
 _atom_site_type_symbol
 _atom_site_label
 _atom_site_symmetry_multiplicity
 _atom_site_fract_x
 _atom_site_fract_y
 _atom_site_fract_z
 _atom_site_occupancy
  Dy  Dy0  1  0.50000000  0.83114632  0.66229263  1
  Dy  Dy1  1  0.50000000  0.16885368  0.33770737  1
  Ni  Ni2  1  0.00000000  0.61012154  0.22024308  1
  Ni  Ni3  1  0.00000000  0.38987846  0.77975692  1
  Ge  Ge4  1  -0.00000000  0.71647429  0.43294857  1
  Ge  Ge5  1  0.00000000  0.28352571  0.56705143  1
  Ge  Ge6  1  0.50000000  0.55736182  0.11472364  1
  Ge  Ge7  1  0.50000000  0.44263818  0.88527636  1
  Ge  Ge8  1  -0.00000000  0.94251433  0.88502866  1
  Ge  Ge9  1  0.00000000  0.05748567  0.11497134  1
