# generated using pymatgen
data_CeNi2B2C
_symmetry_space_group_name_H-M   'P 1'
_cell_length_a   3.63061588
_cell_length_b   3.63061589
_cell_length_c   5.70347358
_cell_angle_alpha   108.55900592
_cell_angle_beta   108.55900593
_cell_angle_gamma   89.99999996
_symmetry_Int_Tables_number   1
_chemical_formula_structural   CeNi2B2C
_chemical_formula_sum   'Ce1 Ni2 B2 C1'
_cell_volume   67.13308319
_cell_formula_units_Z   1
loop_
 _symmetry_equiv_pos_site_id
 _symmetry_equiv_pos_as_xyz
  1  'x, y, z'
loop_
 _atom_site_type_symbol
 _atom_site_label
 _atom_site_symmetry_multiplicity
 _atom_site_fract_x
 _atom_site_fract_y
 _atom_site_fract_z
 _atom_site_occupancy
  B  B0  1  0.35303060  0.35303060  0.70606120  1
  B  B1  1  0.64696940  0.64696940  0.29393880  1
  C  C2  1  0.50000000  0.50000000  0.00000000  1
  Ni  Ni3  1  0.25000000  0.75000000  0.50000000  1
  Ni  Ni4  1  0.75000000  0.25000000  0.50000000  1
  Ce  Ce5  1  0.00000000  0.00000000  0.00000000  1
