# generated using pymatgen
data_BaAgSF
_symmetry_space_group_name_H-M   'P 1'
_cell_length_a   4.30442931
_cell_length_b   4.30442931
_cell_length_c   9.41990853
_cell_angle_alpha   90.00000000
_cell_angle_beta   90.00000000
_cell_angle_gamma   90.00000000
_symmetry_Int_Tables_number   1
_chemical_formula_structural   BaAgSF
_chemical_formula_sum   'Ba2 Ag2 S2 F2'
_cell_volume   174.53311730
_cell_formula_units_Z   2
loop_
 _symmetry_equiv_pos_site_id
 _symmetry_equiv_pos_as_xyz
  1  'x, y, z'
loop_
 _atom_site_type_symbol
 _atom_site_label
 _atom_site_symmetry_multiplicity
 _atom_site_fract_x
 _atom_site_fract_y
 _atom_site_fract_z
 _atom_site_occupancy
  Ba  Ba0  1  0.75000000  0.75000000  0.83279885  1
  Ba  Ba1  1  0.25000000  0.25000000  0.16720115  1
  Ag  Ag2  1  0.25000000  0.75000000  0.50000000  1
  Ag  Ag3  1  0.75000000  0.25000000  0.50000000  1
  S  S4  1  0.75000000  0.75000000  0.32441618  1
  S  S5  1  0.25000000  0.25000000  0.67558382  1
  F  F6  1  0.25000000  0.75000000  -0.00000000  1
  F  F7  1  0.75000000  0.25000000  0.00000000  1
