# generated using pymatgen
data_Sm2V(Fe8N)2
_symmetry_space_group_name_H-M   'P 1'
_cell_length_a   6.49710650
_cell_length_b   6.49710705
_cell_length_c   6.56568621
_cell_angle_alpha   83.57513962
_cell_angle_beta   83.57513920
_cell_angle_gamma   82.77565325
_symmetry_Int_Tables_number   1
_chemical_formula_structural   Sm2V(Fe8N)2
_chemical_formula_sum   'Sm2 V1 Fe16 N2'
_cell_volume   271.87765565
_cell_formula_units_Z   1
loop_
 _symmetry_equiv_pos_site_id
 _symmetry_equiv_pos_as_xyz
  1  'x, y, z'
loop_
 _atom_site_type_symbol
 _atom_site_label
 _atom_site_symmetry_multiplicity
 _atom_site_fract_x
 _atom_site_fract_y
 _atom_site_fract_z
 _atom_site_occupancy
  Sm  Sm0  1  0.65865911  0.65865911  0.65848372  1
  Sm  Sm1  1  0.34686992  0.34686992  0.34709767  1
  V  V2  1  0.09134932  0.09134932  0.09246237  1
  Fe  Fe3  1  0.71443835  0.00069594  0.28107648  1
  Fe  Fe4  1  0.99621606  0.28211308  0.71538369  1
  Fe  Fe5  1  0.29163348  0.70779635  0.99932568  1
  Fe  Fe6  1  0.00069594  0.71443835  0.28107648  1
  Fe  Fe7  1  0.70779635  0.29163348  0.99932568  1
  Fe  Fe8  1  0.28211308  0.99621606  0.71538369  1
  Fe  Fe9  1  0.34416122  0.85640797  0.33908272  1
  Fe  Fe10  1  0.85640797  0.34416122  0.33908272  1
  Fe  Fe11  1  0.34284401  0.34284401  0.85512846  1
  Fe  Fe12  1  0.65506615  0.14547016  0.66112228  1
  Fe  Fe13  1  0.14547016  0.65506615  0.66112228  1
  Fe  Fe14  1  0.65757669  0.65757669  0.14383194  1
  Fe  Fe15  1  0.00090124  0.49969777  0.99961243  1
  Fe  Fe16  1  0.49969777  0.00090124  0.99961243  1
  Fe  Fe17  1  0.99902116  0.99902116  0.50096462  1
  Fe  Fe18  1  0.90859941  0.90859941  0.90964815  1
  N  N19  1  0.50041028  0.00007232  0.50058826  1
  N  N20  1  0.00007232  0.50041028  0.50058826  1
