# generated using pymatgen
data_Tc3B
_symmetry_space_group_name_H-M   'P 1'
_cell_length_a   2.91689574
_cell_length_b   4.86242492
_cell_length_c   7.26135216
_cell_angle_alpha   90.00000000
_cell_angle_beta   90.00000000
_cell_angle_gamma   107.45414332
_symmetry_Int_Tables_number   1
_chemical_formula_structural   Tc3B
_chemical_formula_sum   'Tc6 B2'
_cell_volume   98.24721691
_cell_formula_units_Z   2
loop_
 _symmetry_equiv_pos_site_id
 _symmetry_equiv_pos_as_xyz
  1  'x, y, z'
loop_
 _atom_site_type_symbol
 _atom_site_label
 _atom_site_symmetry_multiplicity
 _atom_site_fract_x
 _atom_site_fract_y
 _atom_site_fract_z
 _atom_site_occupancy
  Tc  Tc0  1  0.13507794  0.27015588  0.43755430  1
  Tc  Tc1  1  0.86492206  0.72984412  0.56244570  1
  Tc  Tc2  1  0.13507794  0.27015588  0.06244570  1
  Tc  Tc3  1  0.86492206  0.72984412  0.93755430  1
  Tc  Tc4  1  0.42447783  0.84895566  0.25000000  1
  Tc  Tc5  1  0.57552217  0.15104434  0.75000000  1
  B  B6  1  0.74389979  0.48779959  0.25000000  1
  B  B7  1  0.25610021  0.51220041  0.75000000  1
