# generated using pymatgen
data_HoPd
_symmetry_space_group_name_H-M   'P 1'
_cell_length_a   4.64687171
_cell_length_b   5.53497290
_cell_length_c   6.89317183
_cell_angle_alpha   90.00000000
_cell_angle_beta   90.00000000
_cell_angle_gamma   90.00000000
_symmetry_Int_Tables_number   1
_chemical_formula_structural   HoPd
_chemical_formula_sum   'Ho4 Pd4'
_cell_volume   177.29450935
_cell_formula_units_Z   4
loop_
 _symmetry_equiv_pos_site_id
 _symmetry_equiv_pos_as_xyz
  1  'x, y, z'
loop_
 _atom_site_type_symbol
 _atom_site_label
 _atom_site_symmetry_multiplicity
 _atom_site_fract_x
 _atom_site_fract_y
 _atom_site_fract_z
 _atom_site_occupancy
  Ho  Ho0  1  0.25000000  0.35680127  0.68288743  1
  Ho  Ho1  1  0.25000000  0.14319873  0.18288743  1
  Ho  Ho2  1  0.75000000  0.64319873  0.31711257  1
  Ho  Ho3  1  0.75000000  0.85680127  0.81711257  1
  Pd  Pd4  1  0.25000000  0.84729908  0.54175708  1
  Pd  Pd5  1  0.25000000  0.65270092  0.04175708  1
  Pd  Pd6  1  0.75000000  0.15270092  0.45824292  1
  Pd  Pd7  1  0.75000000  0.34729908  0.95824292  1
