# generated using pymatgen
data_YInPd
_symmetry_space_group_name_H-M   'P 1'
_cell_length_a   3.77203096
_cell_length_b   7.81586709
_cell_length_c   7.81908232
_cell_angle_alpha   119.98640691
_cell_angle_beta   90.00000000
_cell_angle_gamma   90.00000000
_symmetry_Int_Tables_number   1
_chemical_formula_structural   YInPd
_chemical_formula_sum   'Y3 In3 Pd3'
_cell_volume   199.66332617
_cell_formula_units_Z   3
loop_
 _symmetry_equiv_pos_site_id
 _symmetry_equiv_pos_as_xyz
  1  'x, y, z'
loop_
 _atom_site_type_symbol
 _atom_site_label
 _atom_site_symmetry_multiplicity
 _atom_site_fract_x
 _atom_site_fract_y
 _atom_site_fract_z
 _atom_site_occupancy
  Y  Y0  1  0.50000000  0.59122989  0.00000000  1
  Y  Y1  1  0.50000000  0.40885564  0.40902459  1
  Y  Y2  1  0.50000000  0.99983106  0.59097541  1
  In  In3  1  -0.00000000  0.26083952  0.00000000  1
  In  In4  1  -0.00000000  0.73916047  0.73914653  1
  In  In5  1  -0.00000000  0.00001394  0.26085347  1
  Pd  Pd6  1  0.00000000  0.33330827  0.66663267  1
  Pd  Pd7  1  0.00000000  0.66667560  0.33336733  1
  Pd  Pd8  1  0.50000000  -0.00001439  0.00000000  1
