# generated using pymatgen
data_EuCu
_symmetry_space_group_name_H-M   'P 1'
_cell_length_a   4.40918486
_cell_length_b   5.93129206
_cell_length_c   7.76431757
_cell_angle_alpha   90.00000000
_cell_angle_beta   90.00000000
_cell_angle_gamma   90.00000000
_symmetry_Int_Tables_number   1
_chemical_formula_structural   EuCu
_chemical_formula_sum   'Eu4 Cu4'
_cell_volume   203.05369985
_cell_formula_units_Z   4
loop_
 _symmetry_equiv_pos_site_id
 _symmetry_equiv_pos_as_xyz
  1  'x, y, z'
loop_
 _atom_site_type_symbol
 _atom_site_label
 _atom_site_symmetry_multiplicity
 _atom_site_fract_x
 _atom_site_fract_y
 _atom_site_fract_z
 _atom_site_occupancy
  Eu  Eu0  1  0.25000000  0.36953909  0.68125618  1
  Eu  Eu1  1  0.25000000  0.13046091  0.18125618  1
  Eu  Eu2  1  0.75000000  0.63046091  0.31874382  1
  Eu  Eu3  1  0.75000000  0.86953909  0.81874382  1
  Cu  Cu4  1  0.25000000  0.89573397  0.52969761  1
  Cu  Cu5  1  0.25000000  0.60426603  0.02969761  1
  Cu  Cu6  1  0.75000000  0.10426603  0.47030239  1
  Cu  Cu7  1  0.75000000  0.39573397  0.97030239  1
