# generated using pymatgen
data_U(FeB3)2
_symmetry_space_group_name_H-M   'P 1'
_cell_length_a   3.10633077
_cell_length_b   5.33631438
_cell_length_c   5.33631438
_cell_angle_alpha   69.52040601
_cell_angle_beta   73.07881849
_cell_angle_gamma   73.07881849
_symmetry_Int_Tables_number   1
_chemical_formula_structural   U(FeB3)2
_chemical_formula_sum   'U1 Fe2 B6'
_cell_volume   77.49122935
_cell_formula_units_Z   1
loop_
 _symmetry_equiv_pos_site_id
 _symmetry_equiv_pos_as_xyz
  1  'x, y, z'
loop_
 _atom_site_type_symbol
 _atom_site_label
 _atom_site_symmetry_multiplicity
 _atom_site_fract_x
 _atom_site_fract_y
 _atom_site_fract_z
 _atom_site_occupancy
  U  U0  1  -0.00000000  0.50000000  0.50000000  1
  Fe  Fe1  1  0.15170141  0.84829859  0.84829859  1
  Fe  Fe2  1  0.84829859  0.15170141  0.15170141  1
  B  B3  1  0.50000000  0.14589635  0.85410365  1
  B  B4  1  0.50000000  0.85410365  0.14589635  1
  B  B5  1  0.30406063  0.43522735  0.95665138  1
  B  B6  1  0.69593937  0.56477265  0.04334862  1
  B  B7  1  0.69593937  0.04334862  0.56477265  1
  B  B8  1  0.30406063  0.95665138  0.43522735  1
