# generated using pymatgen
data_LuInAu
_symmetry_space_group_name_H-M   'P 1'
_cell_length_a   3.92575919
_cell_length_b   7.70182088
_cell_length_c   7.70128942
_cell_angle_alpha   120.00228502
_cell_angle_beta   90.00000000
_cell_angle_gamma   90.00000000
_symmetry_Int_Tables_number   1
_chemical_formula_structural   LuInAu
_chemical_formula_sum   'Lu3 In3 Au3'
_cell_volume   201.65135583
_cell_formula_units_Z   3
loop_
 _symmetry_equiv_pos_site_id
 _symmetry_equiv_pos_as_xyz
  1  'x, y, z'
loop_
 _atom_site_type_symbol
 _atom_site_label
 _atom_site_symmetry_multiplicity
 _atom_site_fract_x
 _atom_site_fract_y
 _atom_site_fract_z
 _atom_site_occupancy
  Lu  Lu0  1  0.50000000  0.59653909  0.00000000  1
  Lu  Lu1  1  0.50000000  0.40345484  0.40349714  1
  Lu  Lu2  1  0.50000000  0.99995770  0.59650286  1
  In  In3  1  0.00000000  0.26240118  1.00000000  1
  In  In4  1  -0.00000000  0.73760743  0.73760661  1
  In  In5  1  -0.00000000  0.00000081  0.26239339  1
  Au  Au6  1  -0.00000000  0.33328182  0.66671478  1
  Au  Au7  1  -0.00000000  0.66656704  0.33328522  1
  Au  Au8  1  0.50000000  0.00009009  1.00000000  1
