# generated using pymatgen
data_K2TcF6
_symmetry_space_group_name_H-M   'P 1'
_cell_length_a   4.70815237
_cell_length_b   5.91508726
_cell_length_c   5.91502667
_cell_angle_alpha   119.99937212
_cell_angle_beta   89.99997717
_cell_angle_gamma   89.99983796
_symmetry_Int_Tables_number   1
_chemical_formula_structural   K2TcF6
_chemical_formula_sum   'K2 Tc1 F6'
_cell_volume   142.65984624
_cell_formula_units_Z   1
loop_
 _symmetry_equiv_pos_site_id
 _symmetry_equiv_pos_as_xyz
  1  'x, y, z'
loop_
 _atom_site_type_symbol
 _atom_site_label
 _atom_site_symmetry_multiplicity
 _atom_site_fract_x
 _atom_site_fract_y
 _atom_site_fract_z
 _atom_site_occupancy
  K  K0  1  0.29840583  0.33338565  0.66668677  1
  K  K1  1  0.70159417  0.66661435  0.33331323  1
  Tc  Tc2  1  -0.00000000  -0.00000000  -0.00000000  1
  F  F3  1  0.22812149  0.83870412  0.67745204  1
  F  F4  1  0.22812075  0.32255264  0.16125077  1
  F  F5  1  0.22812247  0.83874871  0.16129578  1
  F  F6  1  0.77187851  0.16129588  0.32254796  1
  F  F7  1  0.77187925  0.67744736  0.83874923  1
  F  F8  1  0.77187753  0.16125129  0.83870422  1
