# generated using pymatgen
data_CsLuS2
_symmetry_space_group_name_H-M   'P 1'
_cell_length_a   4.02998759
_cell_length_b   4.02998759
_cell_length_c   16.05792431
_cell_angle_alpha   90.00000000
_cell_angle_beta   90.00000000
_cell_angle_gamma   119.98703697
_symmetry_Int_Tables_number   1
_chemical_formula_structural   CsLuS2
_chemical_formula_sum   'Cs2 Lu2 S4'
_cell_volume   225.88332364
_cell_formula_units_Z   2
loop_
 _symmetry_equiv_pos_site_id
 _symmetry_equiv_pos_as_xyz
  1  'x, y, z'
loop_
 _atom_site_type_symbol
 _atom_site_label
 _atom_site_symmetry_multiplicity
 _atom_site_fract_x
 _atom_site_fract_y
 _atom_site_fract_z
 _atom_site_occupancy
  Cs  Cs0  1  0.66668170  0.33331830  0.75000000  1
  Cs  Cs1  1  0.33331830  0.66668170  0.25000000  1
  Lu  Lu2  1  -0.00000000  0.00000000  0.50000000  1
  Lu  Lu3  1  -0.00000000  0.00000000  -0.00000000  1
  S  S4  1  0.66667843  0.33332157  0.08918249  1
  S  S5  1  0.33332157  0.66667843  0.91081751  1
  S  S6  1  0.33332157  0.66667843  0.58918249  1
  S  S7  1  0.66667843  0.33332157  0.41081751  1
