# generated using pymatgen
data_Li2Mn(SeO3)2
_symmetry_space_group_name_H-M   'P 1'
_cell_length_a   5.54966994
_cell_length_b   6.67197519
_cell_length_c   5.54967083
_cell_angle_alpha   114.57563529
_cell_angle_beta   59.99999910
_cell_angle_gamma   114.57563831
_symmetry_Int_Tables_number   1
_chemical_formula_structural   Li2Mn(SeO3)2
_chemical_formula_sum   'Li2 Mn1 Se2 O6'
_cell_volume   156.09492167
_cell_formula_units_Z   1
loop_
 _symmetry_equiv_pos_site_id
 _symmetry_equiv_pos_as_xyz
  1  'x, y, z'
loop_
 _atom_site_type_symbol
 _atom_site_label
 _atom_site_symmetry_multiplicity
 _atom_site_fract_x
 _atom_site_fract_y
 _atom_site_fract_z
 _atom_site_occupancy
  Li  Li0  1  0.15848216  0.47544649  0.15848216  1
  Li  Li1  1  0.84151784  0.52455351  0.84151784  1
  Mn  Mn2  1  -0.00000000  -0.00000000  -0.00000000  1
  Se  Se3  1  0.38040541  0.14121522  0.38040541  1
  Se  Se4  1  0.61959459  0.85878478  0.61959459  1
  O  O5  1  0.25036946  0.73965180  0.74463917  1
  O  O6  1  0.25536083  0.26034820  0.25535683  1
  O  O7  1  0.25535683  0.26034820  0.74963054  1
  O  O8  1  0.74464317  0.73965180  0.25036946  1
  O  O9  1  0.74963054  0.26034820  0.25536083  1
  O  O10  1  0.74464317  0.73965180  0.74463917  1
