# generated using pymatgen
data_TmAlNi
_symmetry_space_group_name_H-M   'P 1'
_cell_length_a   3.78460113
_cell_length_b   6.93860663
_cell_length_c   6.93693320
_cell_angle_alpha   120.00797717
_cell_angle_beta   90.00000000
_cell_angle_gamma   90.00000000
_symmetry_Int_Tables_number   1
_chemical_formula_structural   TmAlNi
_chemical_formula_sum   'Tm3 Al3 Ni3'
_cell_volume   157.74500267
_cell_formula_units_Z   3
loop_
 _symmetry_equiv_pos_site_id
 _symmetry_equiv_pos_as_xyz
  1  'x, y, z'
loop_
 _atom_site_type_symbol
 _atom_site_label
 _atom_site_symmetry_multiplicity
 _atom_site_fract_x
 _atom_site_fract_y
 _atom_site_fract_z
 _atom_site_occupancy
  Tm  Tm0  1  0.50000000  0.58463692  0.00000000  1
  Tm  Tm1  1  0.50000000  0.41534093  0.41535150  1
  Tm  Tm2  1  0.50000000  0.99998943  0.58464850  1
  Al  Al3  1  -0.00000000  0.24017836  0.00000000  1
  Al  Al4  1  -0.00000000  0.75980159  0.75980180  1
  Al  Al5  1  -0.00000000  -0.00000021  0.24019820  1
  Ni  Ni6  1  -0.00000000  0.33333266  0.66668641  1
  Ni  Ni7  1  -0.00000000  0.66664625  0.33331359  1
  Ni  Ni8  1  0.50000000  0.99997409  -0.00000000  1
