# generated using pymatgen
data_BaTl4
_symmetry_space_group_name_H-M   'P 1'
_cell_length_a   5.54790403
_cell_length_b   7.11024203
_cell_length_c   9.86466640
_cell_angle_alpha   77.08793026
_cell_angle_beta   73.66811517
_cell_angle_gamma   67.03712005
_symmetry_Int_Tables_number   1
_chemical_formula_structural   BaTl4
_chemical_formula_sum   'Ba2 Tl8'
_cell_volume   340.97674202
_cell_formula_units_Z   2
loop_
 _symmetry_equiv_pos_site_id
 _symmetry_equiv_pos_as_xyz
  1  'x, y, z'
loop_
 _atom_site_type_symbol
 _atom_site_label
 _atom_site_symmetry_multiplicity
 _atom_site_fract_x
 _atom_site_fract_y
 _atom_site_fract_z
 _atom_site_occupancy
  Ba  Ba0  1  0.18327461  0.34508152  0.28836926  1
  Ba  Ba1  1  0.81672539  0.65491848  0.71163074  1
  Tl  Tl2  1  0.40119216  0.74295074  0.45466494  1
  Tl  Tl3  1  0.59880784  0.25704926  0.54533506  1
  Tl  Tl4  1  0.15409035  0.73611801  0.95570129  1
  Tl  Tl5  1  0.84590965  0.26388199  0.04429871  1
  Tl  Tl6  1  0.11583561  0.08085707  0.68747171  1
  Tl  Tl7  1  0.88416439  0.91914293  0.31252829  1
  Tl  Tl8  1  0.55024883  0.78556367  0.11393866  1
  Tl  Tl9  1  0.44975117  0.21443633  0.88606134  1
