# generated using pymatgen
data_Li2FeO2F
_symmetry_space_group_name_H-M   'P 1'
_cell_length_a   5.21507528
_cell_length_b   5.21507528
_cell_length_c   10.25994524
_cell_angle_alpha   80.77593162
_cell_angle_beta   99.22406838
_cell_angle_gamma   59.09307610
_symmetry_Int_Tables_number   1
_chemical_formula_structural   Li2FeO2F
_chemical_formula_sum   'Li8 Fe4 O8 F4'
_cell_volume   226.41523264
_cell_formula_units_Z   4
loop_
 _symmetry_equiv_pos_site_id
 _symmetry_equiv_pos_as_xyz
  1  'x, y, z'
loop_
 _atom_site_type_symbol
 _atom_site_label
 _atom_site_symmetry_multiplicity
 _atom_site_fract_x
 _atom_site_fract_y
 _atom_site_fract_z
 _atom_site_occupancy
  Li  Li0  1  0.37626886  0.31674575  0.75196749  1
  Li  Li1  1  -0.00000000  0.00000000  0.75000000  1
  Li  Li2  1  0.62373114  0.68325425  0.74803251  1
  Li  Li3  1  0.48417279  0.48417279  0.50000000  1
  Li  Li4  1  -0.00000000  0.00000000  0.25000000  1
  Li  Li5  1  0.31674575  0.37626886  0.24803251  1
  Li  Li6  1  0.68325425  0.62373114  0.25196749  1
  Li  Li7  1  0.51582721  0.51582721  0.00000000  1
  Fe  Fe8  1  0.16957955  0.16957955  0.50000000  1
  Fe  Fe9  1  0.85469914  0.85469914  0.50000000  1
  Fe  Fe10  1  0.14530086  0.14530086  0.00000000  1
  Fe  Fe11  1  0.83042045  0.83042045  0.00000000  1
  O  O12  1  0.42486732  0.93557144  0.88794437  1
  O  O13  1  0.23404192  0.77403677  0.61829104  1
  O  O14  1  0.06442856  0.57513268  0.38794437  1
  O  O15  1  0.22596323  0.76595808  0.11829104  1
  O  O16  1  0.76595808  0.22596323  0.88170896  1
  O  O17  1  0.57513268  0.06442856  0.61205563  1
  O  O18  1  0.77403677  0.23404192  0.38170896  1
  O  O19  1  0.93557144  0.42486732  0.11205563  1
  F  F20  1  0.08083167  0.58150218  0.87504411  1
  F  F21  1  0.41849782  0.91916833  0.37504411  1
  F  F22  1  0.91916833  0.41849782  0.62495589  1
  F  F23  1  0.58150218  0.08083167  0.12495589  1
