# generated using pymatgen
data_YSiAg
_symmetry_space_group_name_H-M   'P 1'
_cell_length_a   4.21604091
_cell_length_b   7.08821109
_cell_length_c   7.07224747
_cell_angle_alpha   120.07469115
_cell_angle_beta   90.00000000
_cell_angle_gamma   90.00000000
_symmetry_Int_Tables_number   1
_chemical_formula_structural   YSiAg
_chemical_formula_sum   'Y3 Si3 Ag3'
_cell_volume   182.89514662
_cell_formula_units_Z   3
loop_
 _symmetry_equiv_pos_site_id
 _symmetry_equiv_pos_as_xyz
  1  'x, y, z'
loop_
 _atom_site_type_symbol
 _atom_site_label
 _atom_site_symmetry_multiplicity
 _atom_site_fract_x
 _atom_site_fract_y
 _atom_site_fract_z
 _atom_site_occupancy
  Y  Y0  1  0.50000000  0.58211059  1.00000000  1
  Y  Y1  1  0.50000000  0.41768864  0.41851430  1
  Y  Y2  1  0.50000000  0.99917435  0.58148570  1
  Si  Si3  1  0.00000000  0.33383628  0.66680552  1
  Si  Si4  1  0.00000000  0.66703076  0.33319448  1
  Si  Si5  1  0.50000000  -0.00008571  1.00000000  1
  Ag  Ag6  1  0.00000000  0.25056910  1.00000000  1
  Ag  Ag7  1  0.00000000  0.74908763  0.74859928  1
  Ag  Ag8  1  0.00000000  0.00048836  0.25140072  1
