# generated using pymatgen
data_Lu2CoGe2
_symmetry_space_group_name_H-M   'P 1'
_cell_length_a   4.16529234
_cell_length_b   5.53498811
_cell_length_c   9.06874886
_cell_angle_alpha   82.32833826
_cell_angle_beta   76.72348144
_cell_angle_gamma   67.89721417
_symmetry_Int_Tables_number   1
_chemical_formula_structural   Lu2CoGe2
_chemical_formula_sum   'Lu4 Co2 Ge4'
_cell_volume   188.27890944
_cell_formula_units_Z   2
loop_
 _symmetry_equiv_pos_site_id
 _symmetry_equiv_pos_as_xyz
  1  'x, y, z'
loop_
 _atom_site_type_symbol
 _atom_site_label
 _atom_site_symmetry_multiplicity
 _atom_site_fract_x
 _atom_site_fract_y
 _atom_site_fract_z
 _atom_site_occupancy
  Lu  Lu0  1  0.18611330  0.73858757  0.88918583  1
  Lu  Lu1  1  0.81388670  0.26141243  0.11081417  1
  Lu  Lu2  1  0.00664424  0.31959698  0.66711454  1
  Lu  Lu3  1  0.99335576  0.68040302  0.33288546  1
  Co  Co4  1  0.27482406  0.09342439  0.35692750  1
  Co  Co5  1  0.72517594  0.90657561  0.64307250  1
  Ge  Ge6  1  0.48546325  0.15413349  0.87494001  1
  Ge  Ge7  1  0.51453675  0.84586651  0.12505999  1
  Ge  Ge8  1  0.34902859  0.73556312  0.56637970  1
  Ge  Ge9  1  0.65097141  0.26443688  0.43362030  1
