# generated using pymatgen
data_Ca(GePt)2
_symmetry_space_group_name_H-M   'P 1'
_cell_length_a   4.28663309
_cell_length_b   4.27468201
_cell_length_c   10.50209313
_cell_angle_alpha   90.00000000
_cell_angle_beta   90.36390342
_cell_angle_gamma   90.00000000
_symmetry_Int_Tables_number   1
_chemical_formula_structural   Ca(GePt)2
_chemical_formula_sum   'Ca2 Ge4 Pt4'
_cell_volume   192.43640342
_cell_formula_units_Z   2
loop_
 _symmetry_equiv_pos_site_id
 _symmetry_equiv_pos_as_xyz
  1  'x, y, z'
loop_
 _atom_site_type_symbol
 _atom_site_label
 _atom_site_symmetry_multiplicity
 _atom_site_fract_x
 _atom_site_fract_y
 _atom_site_fract_z
 _atom_site_occupancy
  Ca  Ca0  1  0.74906933  0.74471428  0.25111223  1
  Ca  Ca1  1  0.25093067  0.24471428  0.74888777  1
  Ge  Ge2  1  0.76099165  0.75076261  0.86733624  1
  Ge  Ge3  1  0.23900835  0.25076261  0.13266376  1
  Ge  Ge4  1  0.25145873  0.74016928  0.50035103  1
  Ge  Ge5  1  0.74854127  0.24016928  0.49964897  1
  Pt  Pt6  1  0.75356058  0.74027504  0.63338105  1
  Pt  Pt7  1  0.24643942  0.24027504  0.36661895  1
  Pt  Pt8  1  0.26168159  0.75207880  -0.00048566  1
  Pt  Pt9  1  0.73831841  0.25207880  0.00048566  1
