# generated using pymatgen
data_ZrGeOs
_symmetry_space_group_name_H-M   'P 1'
_cell_length_a   3.82846124
_cell_length_b   6.76703945
_cell_length_c   6.76745762
_cell_angle_alpha   119.99794570
_cell_angle_beta   90.00000000
_cell_angle_gamma   90.00000000
_symmetry_Int_Tables_number   1
_chemical_formula_structural   ZrGeOs
_chemical_formula_sum   'Zr3 Ge3 Os3'
_cell_volume   151.84067630
_cell_formula_units_Z   3
loop_
 _symmetry_equiv_pos_site_id
 _symmetry_equiv_pos_as_xyz
  1  'x, y, z'
loop_
 _atom_site_type_symbol
 _atom_site_label
 _atom_site_symmetry_multiplicity
 _atom_site_fract_x
 _atom_site_fract_y
 _atom_site_fract_z
 _atom_site_occupancy
  Zr  Zr0  1  0.50000000  0.58616886  1.00000000  1
  Zr  Zr1  1  0.50000000  0.41378679  0.41380309  1
  Zr  Zr2  1  0.50000000  0.99998369  0.58619691  1
  Ge  Ge3  1  -0.00000000  0.33333036  0.66668584  1
  Ge  Ge4  1  -0.00000000  0.66664451  0.33331416  1
  Ge  Ge5  1  0.50000000  0.00000957  1.00000000  1
  Os  Os6  1  0.00000000  0.24438494  1.00000000  1
  Os  Os7  1  -0.00000000  0.75559789  0.75560451  1
  Os  Os8  1  -0.00000000  0.99999338  0.24439549  1
