# generated using pymatgen
data_La(GaPd)2
_symmetry_space_group_name_H-M   'P 1'
_cell_length_a   4.44347794
_cell_length_b   4.44347794
_cell_length_c   10.12322247
_cell_angle_alpha   90.00000000
_cell_angle_beta   90.00000000
_cell_angle_gamma   90.00000000
_symmetry_Int_Tables_number   1
_chemical_formula_structural   La(GaPd)2
_chemical_formula_sum   'La2 Ga4 Pd4'
_cell_volume   199.87792762
_cell_formula_units_Z   2
loop_
 _symmetry_equiv_pos_site_id
 _symmetry_equiv_pos_as_xyz
  1  'x, y, z'
loop_
 _atom_site_type_symbol
 _atom_site_label
 _atom_site_symmetry_multiplicity
 _atom_site_fract_x
 _atom_site_fract_y
 _atom_site_fract_z
 _atom_site_occupancy
  La  La0  1  0.75000000  0.75000000  0.25100511  1
  La  La1  1  0.25000000  0.25000000  0.74899489  1
  Ga  Ga2  1  0.75000000  0.25000000  0.50000000  1
  Ga  Ga3  1  0.25000000  0.75000000  0.50000000  1
  Ga  Ga4  1  0.75000000  0.75000000  0.87697446  1
  Ga  Ga5  1  0.25000000  0.25000000  0.12302554  1
  Pd  Pd6  1  0.75000000  0.25000000  0.00000000  1
  Pd  Pd7  1  0.25000000  0.75000000  -0.00000000  1
  Pd  Pd8  1  0.75000000  0.75000000  0.62851856  1
  Pd  Pd9  1  0.25000000  0.25000000  0.37148144  1
