# generated using pymatgen
data_ScAgS2
_symmetry_space_group_name_H-M   'P 1'
_cell_length_a   3.76637612
_cell_length_b   3.76637623
_cell_length_c   7.23823459
_cell_angle_alpha   74.91971420
_cell_angle_beta   74.91971224
_cell_angle_gamma   59.99999911
_symmetry_Int_Tables_number   1
_chemical_formula_structural   ScAgS2
_chemical_formula_sum   'Sc1 Ag1 S2'
_cell_volume   84.81467925
_cell_formula_units_Z   1
loop_
 _symmetry_equiv_pos_site_id
 _symmetry_equiv_pos_as_xyz
  1  'x, y, z'
loop_
 _atom_site_type_symbol
 _atom_site_label
 _atom_site_symmetry_multiplicity
 _atom_site_fract_x
 _atom_site_fract_y
 _atom_site_fract_z
 _atom_site_occupancy
  Sc  Sc0  1  0.99980522  0.99980522  0.00058433  1
  Ag  Ag1  1  0.84945244  0.84945244  0.45164267  1
  S  S2  1  0.73157818  0.73157818  0.80526547  1
  S  S3  1  0.26016415  0.26016415  0.21950754  1
