# generated using pymatgen
data_Ti5InS8
_symmetry_space_group_name_H-M   'P 1'
_cell_length_a   3.40972453
_cell_length_b   8.87322990
_cell_length_c   9.10679463
_cell_angle_alpha   103.96799848
_cell_angle_beta   100.78987785
_cell_angle_gamma   90.00000000
_symmetry_Int_Tables_number   1
_chemical_formula_structural   Ti5InS8
_chemical_formula_sum   'Ti5 In1 S8'
_cell_volume   262.35886330
_cell_formula_units_Z   1
loop_
 _symmetry_equiv_pos_site_id
 _symmetry_equiv_pos_as_xyz
  1  'x, y, z'
loop_
 _atom_site_type_symbol
 _atom_site_label
 _atom_site_symmetry_multiplicity
 _atom_site_fract_x
 _atom_site_fract_y
 _atom_site_fract_z
 _atom_site_occupancy
  Ti  Ti0  1  0.50000000  0.50000000  0.00000000  1
  Ti  Ti1  1  0.79276859  0.15221379  0.58553718  1
  Ti  Ti2  1  0.20723141  0.84778621  0.41446282  1
  Ti  Ti3  1  0.15874794  0.49269391  0.31749588  1
  Ti  Ti4  1  0.84125206  0.50730609  0.68250412  1
  In  In5  1  0.00000000  -0.00000000  0.00000000  1
  S  S6  1  0.66257980  0.99915219  0.32515960  1
  S  S7  1  0.33742020  0.00084781  0.67484040  1
  S  S8  1  0.25938856  0.33451242  0.51877711  1
  S  S9  1  0.74061144  0.66548758  0.48122289  1
  S  S10  1  0.58746784  0.32353432  0.17493569  1
  S  S11  1  0.41253216  0.67646568  0.82506431  1
  S  S12  1  0.92439812  0.33127742  0.84879625  1
  S  S13  1  0.07560188  0.66872258  0.15120375  1
