# generated using pymatgen
data_TmInAu
_symmetry_space_group_name_H-M   'P 1'
_cell_length_a   3.93417781
_cell_length_b   7.72637935
_cell_length_c   7.72642019
_cell_angle_alpha   119.99982086
_cell_angle_beta   90.00000000
_cell_angle_gamma   90.00000000
_symmetry_Int_Tables_number   1
_chemical_formula_structural   TmInAu
_chemical_formula_sum   'Tm3 In3 Au3'
_cell_volume   203.39475539
_cell_formula_units_Z   3
loop_
 _symmetry_equiv_pos_site_id
 _symmetry_equiv_pos_as_xyz
  1  'x, y, z'
loop_
 _atom_site_type_symbol
 _atom_site_label
 _atom_site_symmetry_multiplicity
 _atom_site_fract_x
 _atom_site_fract_y
 _atom_site_fract_z
 _atom_site_occupancy
  Tm  Tm0  1  0.50000000  0.59472951  1.00000000  1
  Tm  Tm1  1  0.50000000  0.40525708  0.40526935  1
  Tm  Tm2  1  0.50000000  0.99998773  0.59473065  1
  In  In3  1  -0.00000000  0.26104111  0.00000000  1
  In  In4  1  0.00000000  0.73894465  0.73893776  1
  In  In5  1  0.00000000  0.00000689  0.26106224  1
  Au  Au6  1  -0.00000000  0.33331638  0.66667997  1
  Au  Au7  1  0.00000000  0.66663642  0.33332003  1
  Au  Au8  1  0.50000000  0.99998022  0.00000000  1
