# generated using pymatgen
data_Li2BiS2
_symmetry_space_group_name_H-M   'P 1'
_cell_length_a   4.04037659
_cell_length_b   7.32194527
_cell_length_c   4.01278889
_cell_angle_alpha   74.09609891
_cell_angle_beta   90.00000000
_cell_angle_gamma   73.98382209
_symmetry_Int_Tables_number   1
_chemical_formula_structural   Li2BiS2
_chemical_formula_sum   'Li2 Bi1 S2'
_cell_volume   109.36879775
_cell_formula_units_Z   1
loop_
 _symmetry_equiv_pos_site_id
 _symmetry_equiv_pos_as_xyz
  1  'x, y, z'
loop_
 _atom_site_type_symbol
 _atom_site_label
 _atom_site_symmetry_multiplicity
 _atom_site_fract_x
 _atom_site_fract_y
 _atom_site_fract_z
 _atom_site_occupancy
  Li  Li0  1  0.73971805  0.52056290  0.73971805  1
  Li  Li1  1  0.26028195  0.47943710  0.26028195  1
  Bi  Bi2  1  0.00000000  0.00000000  0.00000000  1
  S  S3  1  0.14817267  0.70365366  0.64817267  1
  S  S4  1  0.85182733  0.29634634  0.35182733  1
