# generated using pymatgen
data_ScFe2BO5
_symmetry_space_group_name_H-M   'P 1'
_cell_length_a   3.17797848
_cell_length_b   9.65471767
_cell_length_c   12.71565127
_cell_angle_alpha   90.00000000
_cell_angle_beta   90.00000000
_cell_angle_gamma   90.00000000
_symmetry_Int_Tables_number   1
_chemical_formula_structural   ScFe2BO5
_chemical_formula_sum   'Sc4 Fe8 B4 O20'
_cell_volume   390.14777918
_cell_formula_units_Z   4
loop_
 _symmetry_equiv_pos_site_id
 _symmetry_equiv_pos_as_xyz
  1  'x, y, z'
loop_
 _atom_site_type_symbol
 _atom_site_label
 _atom_site_symmetry_multiplicity
 _atom_site_fract_x
 _atom_site_fract_y
 _atom_site_fract_z
 _atom_site_occupancy
  Sc  Sc0  1  -0.00000000  0.74384015  0.38504622  1
  Sc  Sc1  1  -0.00000000  0.25615985  0.61495378  1
  Sc  Sc2  1  0.00000000  0.24384015  0.11495378  1
  Sc  Sc3  1  0.00000000  0.75615985  0.88504622  1
  Fe  Fe4  1  0.50000000  0.50541037  0.21973322  1
  Fe  Fe5  1  0.50000000  0.49458963  0.78026678  1
  Fe  Fe6  1  0.50000000  0.00541037  0.28026678  1
  Fe  Fe7  1  0.50000000  0.99458963  0.71973322  1
  Fe  Fe8  1  0.50000000  0.50000000  0.50000000  1
  Fe  Fe9  1  0.50000000  -0.00000000  0.00000000  1
  Fe  Fe10  1  -0.00000000  0.00000000  0.50000000  1
  Fe  Fe11  1  0.00000000  0.50000000  0.00000000  1
  B  B12  1  -0.00000000  0.77603062  0.13832990  1
  B  B13  1  0.00000000  0.22396938  0.86167010  1
  B  B14  1  -0.00000000  0.27603062  0.36167010  1
  B  B15  1  -0.00000000  0.72396938  0.63832990  1
  O  O16  1  0.00000000  0.84634938  0.04324197  1
  O  O17  1  0.00000000  0.15365062  0.95675803  1
  O  O18  1  -0.00000000  0.34634938  0.45675803  1
  O  O19  1  -0.00000000  0.65365062  0.54324197  1
  O  O20  1  0.50000000  0.61089586  0.35983388  1
  O  O21  1  0.50000000  0.38910414  0.64016612  1
  O  O22  1  0.50000000  0.11089586  0.14016612  1
  O  O23  1  0.50000000  0.88910414  0.85983388  1
  O  O24  1  0.00000000  0.63102754  0.14111313  1
  O  O25  1  0.00000000  0.36897246  0.85888687  1
  O  O26  1  -0.00000000  0.13102754  0.35888687  1
  O  O27  1  -0.00000000  0.86897246  0.64111313  1
  O  O28  1  0.50000000  0.88715774  0.42156057  1
  O  O29  1  0.50000000  0.11284226  0.57843943  1
  O  O30  1  0.50000000  0.38715774  0.07843943  1
  O  O31  1  0.50000000  0.61284226  0.92156057  1
  O  O32  1  -0.00000000  0.84967696  0.23323556  1
  O  O33  1  -0.00000000  0.15032304  0.76676444  1
  O  O34  1  -0.00000000  0.34967696  0.26676444  1
  O  O35  1  0.00000000  0.65032304  0.73323556  1
