# generated using pymatgen
data_Lu5Ga3
_symmetry_space_group_name_H-M   'P 1'
_cell_length_a   6.34758760
_cell_length_b   8.42959385
_cell_length_c   8.43140352
_cell_angle_alpha   59.99289814
_cell_angle_beta   88.52668930
_cell_angle_gamma   89.26324736
_symmetry_Int_Tables_number   1
_chemical_formula_structural   Lu5Ga3
_chemical_formula_sum   'Lu10 Ga6'
_cell_volume   390.54508661
_cell_formula_units_Z   2
loop_
 _symmetry_equiv_pos_site_id
 _symmetry_equiv_pos_as_xyz
  1  'x, y, z'
loop_
 _atom_site_type_symbol
 _atom_site_label
 _atom_site_symmetry_multiplicity
 _atom_site_fract_x
 _atom_site_fract_y
 _atom_site_fract_z
 _atom_site_occupancy
  Lu  Lu0  1  0.26256419  0.24342689  0.49980410  1
  Lu  Lu1  1  0.73743581  0.75657311  0.50019590  1
  Lu  Lu2  1  0.73743581  0.24342689  0.25676902  1
  Lu  Lu3  1  0.26256419  0.75657311  0.74323098  1
  Lu  Lu4  1  0.22804756  -0.00000000  0.26649934  1
  Lu  Lu5  1  0.77195244  -0.00000000  0.73350066  1
  Lu  Lu6  1  0.50000000  0.29719987  0.85140006  1
  Lu  Lu7  1  0.50000000  0.70280013  0.14859994  1
  Lu  Lu8  1  0.00000000  0.36343815  0.81828093  1
  Lu  Lu9  1  0.00000000  0.63656185  0.18171907  1
  Ga  Ga10  1  0.28427114  0.59744024  0.50006627  1
  Ga  Ga11  1  0.71572886  0.40255976  0.49993373  1
  Ga  Ga12  1  0.71572886  0.59744024  0.90249348  1
  Ga  Ga13  1  0.28427114  0.40255976  0.09750652  1
  Ga  Ga14  1  0.19431567  -0.00000000  0.90325494  1
  Ga  Ga15  1  0.80568433  -0.00000000  0.09674506  1
