# generated using pymatgen
data_Mg
_symmetry_space_group_name_H-M   'P 1'
_cell_length_a   3.21124675
_cell_length_b   3.21124658
_cell_length_c   22.92673145
_cell_angle_alpha   90.00000000
_cell_angle_beta   90.00000000
_cell_angle_gamma   120.00000189
_symmetry_Int_Tables_number   1
_chemical_formula_structural   Mg
_chemical_formula_sum   Mg9
_cell_volume   204.74820326
_cell_formula_units_Z   9
loop_
 _symmetry_equiv_pos_site_id
 _symmetry_equiv_pos_as_xyz
  1  'x, y, z'
loop_
 _atom_site_type_symbol
 _atom_site_label
 _atom_site_symmetry_multiplicity
 _atom_site_fract_x
 _atom_site_fract_y
 _atom_site_fract_z
 _atom_site_occupancy
  Mg  Mg0  1  0.00000000  -0.00000000  -0.00000000  1
  Mg  Mg1  1  0.00000000  -0.00000000  0.22220775  1
  Mg  Mg2  1  0.66666700  0.33333300  0.11112525  1
  Mg  Mg3  1  0.66666700  0.33333300  0.33333300  1
  Mg  Mg4  1  0.66666700  0.33333300  0.55554075  1
  Mg  Mg5  1  0.33333300  0.66666700  0.44445925  1
  Mg  Mg6  1  0.33333300  0.66666700  0.66666700  1
  Mg  Mg7  1  0.33333300  0.66666700  0.88887475  1
  Mg  Mg8  1  -0.00000000  0.00000000  0.77779225  1
