# generated using pymatgen
data_NaV2P2O9
_symmetry_space_group_name_H-M   'P 1'
_cell_length_a   6.45313845
_cell_length_b   7.67680942
_cell_length_c   14.06546426
_cell_angle_alpha   90.00000000
_cell_angle_beta   90.00000000
_cell_angle_gamma   90.00000000
_symmetry_Int_Tables_number   1
_chemical_formula_structural   NaV2P2O9
_chemical_formula_sum   'Na4 V8 P8 O36'
_cell_volume   696.79626421
_cell_formula_units_Z   4
loop_
 _symmetry_equiv_pos_site_id
 _symmetry_equiv_pos_as_xyz
  1  'x, y, z'
loop_
 _atom_site_type_symbol
 _atom_site_label
 _atom_site_symmetry_multiplicity
 _atom_site_fract_x
 _atom_site_fract_y
 _atom_site_fract_z
 _atom_site_occupancy
  Na  Na0  1  0.75000000  0.88945532  0.77911502  1
  Na  Na1  1  0.75000000  0.61054468  0.27911502  1
  Na  Na2  1  0.25000100  0.38945432  0.72088498  1
  Na  Na3  1  0.25000100  0.11054468  0.22088498  1
  V  V4  1  0.75000000  0.34936366  0.88087108  1
  V  V5  1  0.25000100  0.65063634  0.11912892  1
  V  V6  1  0.25000100  0.84936366  0.61912892  1
  V  V7  1  0.75000000  0.15063634  0.38087108  1
  V  V8  1  0.50000000  0.00000000  -0.00000000  1
  V  V9  1  0.50000000  0.50000000  0.50000000  1
  V  V10  1  0.00000000  0.50000000  0.50000000  1
  V  V11  1  -0.00000000  0.00000000  0.00000000  1
  P  P12  1  0.25000100  0.35275667  0.93841732  1
  P  P13  1  0.75000000  0.64724333  0.06158368  1
  P  P14  1  0.75000000  0.85275667  0.56158268  1
  P  P15  1  0.25000100  0.14724433  0.43841732  1
  P  P16  1  0.75000000  0.38997694  0.69202174  1
  P  P17  1  0.75000000  0.11002306  0.19202174  1
  P  P18  1  0.25000100  0.88997694  0.80797826  1
  P  P19  1  0.25000100  0.61002206  0.30797826  1
  O  O20  1  0.05346120  0.60178702  0.37149908  1
  O  O21  1  0.55346020  0.39821198  0.62850092  1
  O  O22  1  0.94653880  0.10178702  0.12850092  1
  O  O23  1  0.44653880  0.89821298  0.87149908  1
  O  O24  1  0.94653880  0.39821198  0.62850092  1
  O  O25  1  0.44653880  0.60178702  0.37149908  1
  O  O26  1  0.05346120  0.89821298  0.87149908  1
  O  O27  1  0.55346020  0.10178702  0.12850092  1
  O  O28  1  0.25000100  0.33402665  0.48357265  1
  O  O29  1  0.75000000  0.66597435  0.51642735  1
  O  O30  1  0.75000000  0.83402565  0.01642635  1
  O  O31  1  0.25000100  0.16597435  0.98357265  1
  O  O32  1  0.75000000  0.14226074  0.94483573  1
  O  O33  1  0.25000100  0.85773926  0.05516327  1
  O  O34  1  0.25000100  0.64226074  0.55516327  1
  O  O35  1  0.75000000  0.35774026  0.44483673  1
  O  O36  1  0.75000000  0.22174142  0.75464568  1
  O  O37  1  0.25000100  0.77825858  0.24535532  1
  O  O38  1  0.25000100  0.72174142  0.74535432  1
  O  O39  1  0.75000000  0.27825958  0.25464468  1
  O  O40  1  0.44138547  0.13049930  0.37410829  1
  O  O41  1  0.94138547  0.86950070  0.62589171  1
  O  O42  1  0.55861453  0.63049830  0.12589171  1
  O  O43  1  0.05861453  0.36950070  0.87410829  1
  O  O44  1  0.55861453  0.86950070  0.62589171  1
  O  O45  1  0.05861453  0.13049930  0.37410829  1
  O  O46  1  0.44138547  0.36950070  0.87410829  1
  O  O47  1  0.94138547  0.63049830  0.12589171  1
  O  O48  1  0.75000000  0.51588856  0.98024231  1
  O  O49  1  0.25000100  0.03264142  0.72969571  1
  O  O50  1  0.25000100  0.46735758  0.22969571  1
  O  O51  1  0.75000000  0.53264142  0.77030429  1
  O  O52  1  0.75000000  0.98411144  0.48024231  1
  O  O53  1  0.25000100  0.01588856  0.51975769  1
  O  O54  1  0.25000100  0.48411044  0.01975669  1
  O  O55  1  0.75000000  0.96735858  0.27030429  1
