# generated using pymatgen
data_Na2Zn2S3
_symmetry_space_group_name_H-M   'P 1'
_cell_length_a   6.73488720
_cell_length_b   9.90879804
_cell_length_c   9.90879819
_cell_angle_alpha   82.86646965
_cell_angle_beta   70.40071772
_cell_angle_gamma   70.40071742
_symmetry_Int_Tables_number   1
_chemical_formula_structural   Na2Zn2S3
_chemical_formula_sum   'Na8 Zn8 S12'
_cell_volume   586.80450276
_cell_formula_units_Z   4
loop_
 _symmetry_equiv_pos_site_id
 _symmetry_equiv_pos_as_xyz
  1  'x, y, z'
loop_
 _atom_site_type_symbol
 _atom_site_label
 _atom_site_symmetry_multiplicity
 _atom_site_fract_x
 _atom_site_fract_y
 _atom_site_fract_z
 _atom_site_occupancy
  Na  Na0  1  0.62003424  0.98771922  0.81519826  1
  Na  Na1  1  0.87996576  0.18480174  0.01228078  1
  Na  Na2  1  0.37996576  0.01228078  0.18480174  1
  Na  Na3  1  0.12003424  0.81519826  0.98771922  1
  Na  Na4  1  0.75000000  0.28104372  0.71895628  1
  Na  Na5  1  0.25000000  0.71895628  0.28104372  1
  Na  Na6  1  0.75000000  0.57102844  0.42897156  1
  Na  Na7  1  0.25000000  0.42897156  0.57102844  1
  Zn  Zn8  1  0.79700878  0.21438798  0.36390717  1
  Zn  Zn9  1  0.70299122  0.63609283  0.78561202  1
  Zn  Zn10  1  0.20299122  0.78561202  0.63609283  1
  Zn  Zn11  1  0.29700878  0.36390717  0.21438798  1
  Zn  Zn12  1  0.75814188  0.55096650  0.08133046  1
  Zn  Zn13  1  0.74185812  0.91866954  0.44903350  1
  Zn  Zn14  1  0.24185812  0.44903350  0.91866954  1
  Zn  Zn15  1  0.25814188  0.08133046  0.55096650  1
  S  S16  1  0.56839766  0.42704572  0.27620311  1
  S  S17  1  0.93160234  0.72379689  0.57295428  1
  S  S18  1  0.43160234  0.57295428  0.72379689  1
  S  S19  1  0.06839766  0.27620311  0.42704572  1
  S  S20  1  0.55375735  0.14458650  0.57867482  1
  S  S21  1  0.94624265  0.42132518  0.85541350  1
  S  S22  1  0.44624265  0.85541350  0.42132518  1
  S  S23  1  0.05375735  0.57867482  0.14458650  1
  S  S24  1  0.55262471  0.76778080  0.00001107  1
  S  S25  1  0.94737529  -0.00001107  0.23221920  1
  S  S26  1  0.44737529  0.23221920  -0.00001107  1
  S  S27  1  0.05262471  0.00001107  0.76778080  1
