# generated using pymatgen
data_Li(CoO2)2
_symmetry_space_group_name_H-M   'P 1'
_cell_length_a   5.72944115
_cell_length_b   5.73993192
_cell_length_c   9.40425089
_cell_angle_alpha   89.21554836
_cell_angle_beta   90.39293198
_cell_angle_gamma   120.06058667
_symmetry_Int_Tables_number   1
_chemical_formula_structural   Li(CoO2)2
_chemical_formula_sum   'Li4 Co8 O16'
_cell_volume   267.65026141
_cell_formula_units_Z   4
loop_
 _symmetry_equiv_pos_site_id
 _symmetry_equiv_pos_as_xyz
  1  'x, y, z'
loop_
 _atom_site_type_symbol
 _atom_site_label
 _atom_site_symmetry_multiplicity
 _atom_site_fract_x
 _atom_site_fract_y
 _atom_site_fract_z
 _atom_site_occupancy
  Li  Li0  1  0.33557507  0.66843711  0.89484121  1
  Li  Li1  1  0.99852854  0.00020758  0.99582469  1
  Li  Li2  1  0.00147146  0.00167904  0.49582469  1
  Li  Li3  1  0.66442493  0.33286203  0.39484121  1
  Co  Co4  1  0.16788372  0.83044523  0.21247156  1
  Co  Co5  1  0.33020168  0.66197688  0.48699559  1
  Co  Co6  1  0.16868186  0.33741714  0.21319167  1
  Co  Co7  1  0.66186496  0.83072566  0.21326253  1
  Co  Co8  1  0.33813504  0.16885970  0.71326253  1
  Co  Co9  1  0.66979832  0.33177520  0.98699559  1
  Co  Co10  1  0.83211628  0.66256151  0.71247156  1
  Co  Co11  1  0.83131814  0.16873428  0.71319167  1
  O  O12  1  0.15589972  0.82990370  0.60527309  1
  O  O13  1  0.03581820  0.52413791  0.33408244  1
  O  O14  1  0.33281717  0.66782794  0.11086706  1
  O  O15  1  0.99978274  0.99772568  0.30631416  1
  O  O16  1  0.00021726  0.99794294  0.80631416  1
  O  O17  1  0.16451964  0.32993444  0.60266690  1
  O  O18  1  0.47094164  0.96026784  0.33714836  1
  O  O19  1  0.48028954  0.51808371  0.33620883  1
  O  O20  1  0.32701469  0.15796878  0.10477292  1
  O  O21  1  0.67298531  0.83095409  0.60477292  1
  O  O22  1  0.52905836  0.48932620  0.83714836  1
  O  O23  1  0.51971046  0.03779517  0.83620883  1
  O  O24  1  0.66718283  0.33501077  0.61086706  1
  O  O25  1  0.84410028  0.67400398  0.10527309  1
  O  O26  1  0.96418180  0.48831971  0.83408244  1
  O  O27  1  0.83548036  0.16541580  0.10266690  1
