# generated using pymatgen
data_Mg16Al13
_symmetry_space_group_name_H-M   'P 1'
_cell_length_a   14.89520715
_cell_length_b   14.89520780
_cell_length_c   8.99361701
_cell_angle_alpha   90.00000000
_cell_angle_beta   90.00000000
_cell_angle_gamma   120.00000093
_symmetry_Int_Tables_number   1
_chemical_formula_structural   Mg16Al13
_chemical_formula_sum   'Mg48 Al39'
_cell_volume   1728.05726661
_cell_formula_units_Z   3
loop_
 _symmetry_equiv_pos_site_id
 _symmetry_equiv_pos_as_xyz
  1  'x, y, z'
loop_
 _atom_site_type_symbol
 _atom_site_label
 _atom_site_symmetry_multiplicity
 _atom_site_fract_x
 _atom_site_fract_y
 _atom_site_fract_z
 _atom_site_occupancy
  Mg  Mg0  1  0.66666700  0.33333300  0.33054393  1
  Mg  Mg1  1  0.88443297  0.11556703  0.11664733  1
  Mg  Mg2  1  0.96237169  0.63932151  0.63919547  1
  Mg  Mg3  1  0.89780206  0.44890103  0.44998133  1
  Mg  Mg4  1  0.01028282  0.30598751  0.30586147  1
  Mg  Mg5  1  0.89600614  0.79201228  0.50443986  1
  Mg  Mg6  1  0.13261371  0.86738629  0.55090433  1
  Mg  Mg7  1  0.06810557  0.53405329  0.21757133  1
  Mg  Mg8  1  0.02734549  0.37096131  0.97252847  1
  Mg  Mg9  1  0.01028282  0.70429431  0.30586147  1
  Mg  Mg10  1  0.87465472  0.43732686  0.83777386  1
  Mg  Mg11  1  0.89600614  0.10399386  0.50443986  1
  Mg  Mg12  1  0.88443297  0.76886494  0.11664733  1
  Mg  Mg13  1  0.02734549  0.65638418  0.97252847  1
  Mg  Mg14  1  0.96237169  0.32305118  0.63919547  1
  Mg  Mg15  1  0.13261371  0.26522743  0.55090433  1
  Mg  Mg16  1  0.33333300  0.66666700  0.66387793  1
  Mg  Mg17  1  0.55109897  0.44890103  0.44998133  1
  Mg  Mg18  1  0.62903869  0.97265451  0.97252847  1
  Mg  Mg19  1  0.56446806  0.78223403  0.78331433  1
  Mg  Mg20  1  0.67694882  0.63932151  0.63919547  1
  Mg  Mg21  1  0.56267314  0.12534528  0.83777386  1
  Mg  Mg22  1  0.79928071  0.20071929  0.88423733  1
  Mg  Mg23  1  0.73477257  0.86738629  0.55090433  1
  Mg  Mg24  1  0.69401249  0.70429431  0.30586147  1
  Mg  Mg25  1  0.67694882  0.03762831  0.63919547  1
  Mg  Mg26  1  0.54132072  0.77066086  0.17110686  1
  Mg  Mg27  1  0.56267314  0.43732686  0.83777386  1
  Mg  Mg28  1  0.55109897  0.10219794  0.44998133  1
  Mg  Mg29  1  0.69401249  0.98971718  0.30586147  1
  Mg  Mg30  1  0.62903869  0.65638418  0.97252847  1
  Mg  Mg31  1  0.79928071  0.59856043  0.88423733  1
  Mg  Mg32  1  0.00000000  0.00000000  0.99721093  1
  Mg  Mg33  1  0.21776597  0.78223403  0.78331433  1
  Mg  Mg34  1  0.29570569  0.30598751  0.30586147  1
  Mg  Mg35  1  0.23113506  0.11556703  0.11664733  1
  Mg  Mg36  1  0.34361582  0.97265451  0.97252847  1
  Mg  Mg37  1  0.22933914  0.45867928  0.17110686  1
  Mg  Mg38  1  0.46594671  0.53405329  0.21757133  1
  Mg  Mg39  1  0.40143957  0.20071929  0.88423733  1
  Mg  Mg40  1  0.36067849  0.03762831  0.63919547  1
  Mg  Mg41  1  0.34361582  0.37096131  0.97252847  1
  Mg  Mg42  1  0.20798772  0.10399386  0.50443986  1
  Mg  Mg43  1  0.22933914  0.77066086  0.17110686  1
  Mg  Mg44  1  0.21776597  0.43553194  0.78331433  1
  Mg  Mg45  1  0.36067849  0.32305118  0.63919547  1
  Mg  Mg46  1  0.29570569  0.98971718  0.30586147  1
  Mg  Mg47  1  0.46594671  0.93189443  0.21757133  1
  Al  Al48  1  0.99882993  0.81659698  0.81405339  1
  Al  Al49  1  0.15110005  0.48326398  0.48072039  1
  Al  Al50  1  0.78958470  0.57916940  0.39691026  1
  Al  Al51  1  0.85006902  0.33450307  0.14738739  1
  Al  Al52  1  0.15110005  0.66783607  0.48072039  1
  Al  Al53  1  0.33333300  0.66666700  0.32660493  1
  Al  Al54  1  0.85006902  0.51556595  0.14738739  1
  Al  Al55  1  0.99882993  0.18223295  0.81405339  1
  Al  Al56  1  0.72853456  0.27146544  0.63888355  1
  Al  Al57  1  0.20959888  0.60479944  0.97221655  1
  Al  Al58  1  0.08749760  0.54374830  0.73024326  1
  Al  Al59  1  0.78958470  0.21041530  0.39691026  1
  Al  Al60  1  0.72853456  0.45706812  0.63888355  1
  Al  Al61  1  0.66549693  0.14993098  0.14738739  1
  Al  Al62  1  0.81776705  0.81659698  0.81405339  1
  Al  Al63  1  0.45625170  0.91250240  0.73024326  1
  Al  Al64  1  0.51673602  0.66783607  0.48072039  1
  Al  Al65  1  0.81776705  0.00117007  0.81405339  1
  Al  Al66  1  0.00000000  0.00000000  0.65993893  1
  Al  Al67  1  0.51673602  0.84889995  0.48072039  1
  Al  Al68  1  0.66549693  0.51556595  0.14738739  1
  Al  Al69  1  0.39520056  0.60479944  0.97221655  1
  Al  Al70  1  0.87626488  0.93813244  0.30554955  1
  Al  Al71  1  0.75416360  0.87708230  0.06357626  1
  Al  Al72  1  0.45625170  0.54374830  0.73024326  1
  Al  Al73  1  0.39520056  0.79040112  0.97221655  1
  Al  Al74  1  0.33216393  0.48326398  0.48072039  1
  Al  Al75  1  0.48443405  0.14993098  0.14738739  1
  Al  Al76  1  0.12291770  0.24583640  0.06357626  1
  Al  Al77  1  0.18340302  0.00117007  0.81405339  1
  Al  Al78  1  0.48443405  0.33450307  0.14738739  1
  Al  Al79  1  0.66666700  0.33333300  0.99327193  1
  Al  Al80  1  0.18340302  0.18223295  0.81405339  1
  Al  Al81  1  0.33216393  0.84889995  0.48072039  1
  Al  Al82  1  0.06186756  0.93813244  0.30554955  1
  Al  Al83  1  0.54293188  0.27146544  0.63888355  1
  Al  Al84  1  0.42083060  0.21041530  0.39691026  1
  Al  Al85  1  0.12291770  0.87708230  0.06357626  1
  Al  Al86  1  0.06186756  0.12373512  0.30554955  1
